0:0:0
     RDKit          3D

 39 43  0  0  1  0  0  0  0  0999 V2000
    3.0093    2.1762    3.5371 C   0  0  0  0  0  0  0  0  0  0  0  0
    2.1686    1.8140    4.7624 C   0  0  0  0  0  0  0  0  0  0  0  0
    0.7051    1.4855    4.4209 C   0  0  2  0  0  0  0  0  0  0  0  0
   -0.1097    2.7387    3.8468 C   0  0  1  0  0  0  0  0  0  0  0  0
   -0.4484    2.5297    2.4847 O   0  0  0  0  0  0  0  0  0  0  0  0
   -1.4103    3.1253    4.6315 C   0  0  1  0  0  0  0  0  0  0  0  0
   -2.7139    2.5749    4.2667 O   0  0  0  0  0  0  0  0  0  0  0  0
   -2.0519    1.9598    5.3539 C   0  0  2  0  0  0  0  0  0  0  0  0
   -2.6078    1.7025    6.7425 C   0  0  1  0  0  0  0  0  0  0  0  0
   -2.4035    0.3141    6.3710 O   0  0  0  0  0  0  0  0  0  0  0  0
   -1.5200    0.6106    5.2504 C   0  0  1  0  0  0  0  0  0  0  0  0
   -1.7610   -0.1633    4.0884 O   0  0  0  0  0  0  0  0  0  0  0  0
   -0.0793    0.9237    5.6294 C   0  0  1  0  0  0  0  0  0  0  0  0
    0.3024    0.4062    7.0232 C   0  0  0  0  0  0  0  0  0  0  0  0
   -0.4419    1.2033    8.1412 C   0  0  0  0  0  0  0  0  0  0  0  0
    0.2122    1.3084    9.3860 C   0  0  0  0  0  0  0  0  0  0  0  0
   -0.3536    2.0444   10.4371 C   0  0  0  0  0  0  0  0  0  0  0  0
   -1.5927    2.6890   10.2627 C   0  0  0  0  0  0  0  0  0  0  0  0
   -2.1790    3.3745   11.2768 O   0  0  0  0  0  0  0  0  0  0  0  0
   -2.2581    2.6122    9.0310 C   0  0  0  0  0  0  0  0  0  0  0  0
   -1.7091    1.8777    7.9691 C   0  0  0  0  0  0  0  0  0  0  0  0
    4.0411    2.3332    3.8402 H   0  0  0  0  0  0  0  0  0  0  0  0
    2.6590    3.0882    3.0553 H   0  0  0  0  0  0  0  0  0  0  0  0
    2.9939    1.3789    2.7934 H   0  0  0  0  0  0  0  0  0  0  0  0
    2.6165    0.9377    5.2293 H   0  0  0  0  0  0  0  0  0  0  0  0
    2.2150    2.6163    5.5015 H   0  0  0  0  0  0  0  0  0  0  0  0
    0.7159    0.6999    3.6591 H   0  0  0  0  0  0  0  0  0  0  0  0
    0.5365    3.6228    3.8665 H   0  0  0  0  0  0  0  0  0  0  0  0
   -0.1825    3.2665    1.9271 H   0  0  0  0  0  0  0  0  0  0  0  0
   -1.4192    4.0927    5.1245 H   0  0  0  0  0  0  0  0  0  0  0  0
   -3.6657    1.9211    6.8907 H   0  0  0  0  0  0  0  0  0  0  0  0
   -2.5249    0.1799    3.6261 H   0  0  0  0  0  0  0  0  0  0  0  0
    0.0387    1.9157    6.0697 H   0  0  0  0  0  0  0  0  0  0  0  0
    0.0936   -0.6635    7.1081 H   0  0  0  0  0  0  0  0  0  0  0  0
    1.3738    0.5230    7.1651 H   0  0  0  0  0  0  0  0  0  0  0  0
    1.1654    0.8283    9.5379 H   0  0  0  0  0  0  0  0  0  0  0  0
    0.1583    2.1226   11.3818 H   0  0  0  0  0  0  0  0  0  0  0  0
   -2.4343    2.8148   12.0208 H   0  0  0  0  0  0  0  0  0  0  0  0
   -3.2346    3.0688    8.9295 H   0  0  0  0  0  0  0  0  0  0  0  0
  1  2  1  0
  1 22  1  0
  1 23  1  0
  1 24  1  0
  2  3  1  0
  2 25  1  0
  2 26  1  0
  3 13  1  0
  3  4  1  0
  3 27  1  6
  4  5  1  0
  4  6  1  0
  4 28  1  6
  5 29  1  0
  6  8  1  0
  6  7  1  0
  6 30  1  1
  8  7  1  6
  8 11  1  0
  8  9  1  0
  9 21  1  0
  9 10  1  0
  9 31  1  1
 10 11  1  0
 11 12  1  6
 11 13  1  0
 12 32  1  0
 13 14  1  0
 13 33  1  1
 14 15  1  0
 14 34  1  0
 14 35  1  0
 15 21  2  0
 15 16  1  0
 16 17  2  0
 16 36  1  0
 17 18  1  0
 17 37  1  0
 18 19  1  0
 18 20  2  0
 19 38  1  0
 20 21  1  0
 20 39  1  0
M  END
>  <i_m_ct_stereo_status>  (1) 
1

>  <s_m_source_file>  (1) 
/var/tmp/pbs.5076255.sched01/tmppv1df_bs/0l6e7d74h.sdf

>  <i_m_source_file_index>  (1) 
1

>  <i_lp_mmshare_version>  (1) 
48012

>  <i_f3d_flags>  (1) 
0

>  <s_epik_input>  (1) 
TzFbQ0BASF0oW0NAXTEyMylbQ0BIXShbT0hdKVtDQEBIXShbQ0gyXVtDSDNdKVtDQEhdNFtDQEBdMyhbT0hdKU9bQ0BIXTJjNWMoW0NIMl00KVtjSF1bY0hdYyhbT0hdKVtjSF01

>  <s_epik_cmdline>  (1) 
J2VwaWtfcHl0aG9uJywgJy1waHQnLCAnMi4wJywgJy1waCcsICc3LjAnLCAnLXRuJywgJzgnLCAnLW1hJywgJzIwMCcsICctaW1hZScsICc8aW5maWxlLm1hZT4nLCAnLW9tYWUnLCAnPG91dGZpbGUubWFlPic=

>  <r_lp_tautomer_probability>  (1) 
1

>  <r_epik_Ionization_Penalty>  (1) 
0.000363813

>  <r_epik_Ionization_Penalty_Charging>  (1) 
0

>  <r_epik_Ionization_Penalty_Neutral>  (1) 
0.000363813

>  <r_epik_State_Penalty>  (1) 
0.000217512

>  <r_epik_Charging_Adjusted_Penalty>  (1) 
0.000217512

>  <i_epik_Tot_Q>  (1) 
0

>  <i_epik_Tot_abs_Q>  (1) 
0

>  <s_lp_Force_Field>  (1) 
OPLS3e

>  <r_lp_Energy>  (1) 
78.5397

>  <b_lp_Chiralities_Consistent>  (1) 
1

>  <s_lp_Variant>  (1) 
0:0-1

>  <s_i_glide_gridfile>  (1) 
pfpi4k_grid

>  <i_i_glide_lignum>  (1) 
1

>  <i_i_glide_rotatable_bonds>  (1) 
4

>  <r_i_docking_score>  (1) 
-4.60181

>  <r_i_glide_ligand_efficiency>  (1) 
-0.219134

>  <r_i_glide_ligand_efficiency_sa>  (1) 
-0.604573

>  <r_i_glide_ligand_efficiency_ln>  (1) 
-1.13779

>  <r_i_glide_gscore>  (1) 
-4.60181

>  <r_i_glide_lipo>  (1) 
0

>  <r_i_glide_hbond>  (1) 
-0.288

>  <r_i_glide_metal>  (1) 
-0

>  <r_i_glide_rewards>  (1) 
-1.4297

>  <r_i_glide_evdw>  (1) 
-8.82327

>  <r_i_glide_ecoul>  (1) 
-16.0383

>  <r_i_glide_erotb>  (1) 
0

>  <r_i_glide_esite>  (1) 
-0.0372047

>  <r_i_glide_emodel>  (1) 
-31.124

>  <r_i_glide_energy>  (1) 
-24.8616

>  <r_i_glide_einternal>  (1) 
4.79483

>  <r_i_glide_intrahb_reward>  (1) 
-0

>  <i_i_glide_confnum>  (1) 
2

>  <i_i_glide_posenum>  (1) 
26

>  <r_i_glide_eff_state_penalty>  (1) 
0

>  <ligand_id>  (1) 
0

>  <original_smiles>  (1) 
CCC1C(O)C2OC23C2OC3(O)C1Cc1ccc(O)cc12

>  <smiles>  (1) 
[H]Oc1c([H])c([H])c2c(c1[H])C1([H])OC3(O[H])C([H])(C2([H])[H])C([H])(C([H])([H])C([H])([H])[H])C([H])(O[H])C2([H])OC123

$$$$
0:0:1
     RDKit          3D

 39 43  0  0  1  0  0  0  0  0999 V2000
    2.9419   -6.4033    1.5798 C   0  0  0  0  0  0  0  0  0  0  0  0
    2.2069   -5.0527    1.6453 C   0  0  0  0  0  0  0  0  0  0  0  0
    3.0911   -3.8963    2.1599 C   0  0  2  0  0  0  0  0  0  0  0  0
    2.2504   -2.6091    2.6206 C   0  0  1  0  0  0  0  0  0  0  0  0
    2.3012   -2.4378    4.0238 O   0  0  0  0  0  0  0  0  0  0  0  0
    2.6114   -1.2496    1.9236 C   0  0  1  0  0  0  0  0  0  0  0  0
    3.6186   -0.3490    2.4963 O   0  0  0  0  0  0  0  0  0  0  0  0
    4.0400   -1.1987    1.4329 C   0  0  2  0  0  0  0  0  0  0  0  0
    4.7752   -0.7910    0.1666 C   0  0  1  0  0  0  0  0  0  0  0  0
    5.8437   -1.5897    0.7323 O   0  0  0  0  0  0  0  0  0  0  0  0
    4.9721   -2.2832    1.6758 C   0  0  1  0  0  0  0  0  0  0  0  0
    5.4972   -2.4055    2.9810 O   0  0  0  0  0  0  0  0  0  0  0  0
    4.1362   -3.4223    1.1194 C   0  0  1  0  0  0  0  0  0  0  0  0
    4.6604   -3.9677   -0.2137 C   0  0  0  0  0  0  0  0  0  0  0  0
    4.4970   -2.9162   -1.3523 C   0  0  0  0  0  0  0  0  0  0  0  0
    4.3219   -3.4442   -2.6450 C   0  0  0  0  0  0  0  0  0  0  0  0
    4.0689   -2.6045   -3.7377 C   0  0  0  0  0  0  0  0  0  0  0  0
    4.0123   -1.2153   -3.5607 C   0  0  0  0  0  0  0  0  0  0  0  0
    3.8054   -0.3933   -4.6321 O   0  0  0  0  0  0  0  0  0  0  0  0
    4.2105   -0.6597   -2.2836 C   0  0  0  0  0  0  0  0  0  0  0  0
    4.4405   -1.4920   -1.1634 C   0  0  0  0  0  0  0  0  0  0  0  0
    2.2808   -7.1734    1.1828 H   0  0  0  0  0  0  0  0  0  0  0  0
    3.2686   -6.7151    2.5725 H   0  0  0  0  0  0  0  0  0  0  0  0
    3.8277   -6.3753    0.9444 H   0  0  0  0  0  0  0  0  0  0  0  0
    1.8147   -4.7958    0.6590 H   0  0  0  0  0  0  0  0  0  0  0  0
    1.3465   -5.1643    2.3090 H   0  0  0  0  0  0  0  0  0  0  0  0
    3.6201   -4.2734    3.0382 H   0  0  0  0  0  0  0  0  0  0  0  0
    1.1901   -2.7816    2.4298 H   0  0  0  0  0  0  0  0  0  0  0  0
    3.1459   -2.0825    4.2619 H   0  0  0  0  0  0  0  0  0  0  0  0
    1.8530   -0.7872    1.2926 H   0  0  0  0  0  0  0  0  0  0  0  0
    5.0655    0.2440    0.1005 H   0  0  0  0  0  0  0  0  0  0  0  0
    4.7995   -2.5473    3.6002 H   0  0  0  0  0  0  0  0  0  0  0  0
    3.2776   -3.0807    0.5361 H   0  0  0  0  0  0  0  0  0  0  0  0
    5.7033   -4.2713   -0.1115 H   0  0  0  0  0  0  0  0  0  0  0  0
    4.0912   -4.8478   -0.5085 H   0  0  0  0  0  0  0  0  0  0  0  0
    4.3686   -4.5083   -2.8091 H   0  0  0  0  0  0  0  0  0  0  0  0
    3.9176   -3.0492   -4.7077 H   0  0  0  0  0  0  0  0  0  0  0  0
    3.5458    0.4721   -4.3545 H   0  0  0  0  0  0  0  0  0  0  0  0
    4.2142    0.4117   -2.1762 H   0  0  0  0  0  0  0  0  0  0  0  0
  1  2  1  0
  1 22  1  0
  1 23  1  0
  1 24  1  0
  2  3  1  0
  2 25  1  0
  2 26  1  0
  3 13  1  0
  3  4  1  0
  3 27  1  1
  4  5  1  0
  4  6  1  0
  4 28  1  1
  5 29  1  0
  6  8  1  0
  6  7  1  0
  6 30  1  6
  8  7  1  1
  8 11  1  0
  8  9  1  0
  9 21  1  0
  9 10  1  0
  9 31  1  6
 10 11  1  0
 11 12  1  1
 11 13  1  0
 12 32  1  0
 13 14  1  0
 13 33  1  6
 14 15  1  0
 14 34  1  0
 14 35  1  0
 15 21  2  0
 15 16  1  0
 16 17  2  0
 16 36  1  0
 17 18  1  0
 17 37  1  0
 18 19  1  0
 18 20  2  0
 19 38  1  0
 20 21  1  0
 20 39  1  0
M  END
>  <i_m_ct_stereo_status>  (2) 
1

>  <s_m_source_file>  (2) 
/var/tmp/pbs.5076255.sched01/tmppv1df_bs/0l6e7d74h.sdf

>  <i_m_source_file_index>  (2) 
1

>  <i_lp_mmshare_version>  (2) 
48012

>  <i_f3d_flags>  (2) 
0

>  <s_epik_input>  (2) 
TzFbQ0BASF0oW0NAXTEyMylbQ0BIXShbT0hdKVtDQEBIXShbQ0gyXVtDSDNdKVtDQEhdNFtDQEBdMyhbT0hdKU9bQ0BIXTJjNWMoW0NIMl00KVtjSF1bY0hdYyhbT0hdKVtjSF01

>  <s_epik_cmdline>  (2) 
J2VwaWtfcHl0aG9uJywgJy1waHQnLCAnMi4wJywgJy1waCcsICc3LjAnLCAnLXRuJywgJzgnLCAnLW1hJywgJzIwMCcsICctaW1hZScsICc8aW5maWxlLm1hZT4nLCAnLW9tYWUnLCAnPG91dGZpbGUubWFlPic=

>  <r_lp_tautomer_probability>  (2) 
1

>  <r_epik_Ionization_Penalty>  (2) 
0.000363813

>  <r_epik_Ionization_Penalty_Charging>  (2) 
0

>  <r_epik_Ionization_Penalty_Neutral>  (2) 
0.000363813

>  <r_epik_State_Penalty>  (2) 
0.000217512

>  <r_epik_Charging_Adjusted_Penalty>  (2) 
0.000217512

>  <i_epik_Tot_Q>  (2) 
0

>  <i_epik_Tot_abs_Q>  (2) 
0

>  <s_lp_Force_Field>  (2) 
OPLS3e

>  <r_lp_Energy>  (2) 
78.5397

>  <b_lp_Chiralities_Consistent>  (2) 
1

>  <s_lp_Variant>  (2) 
0:0-1

>  <s_i_glide_gridfile>  (2) 
pfpi4k_grid

>  <i_i_glide_lignum>  (2) 
1

>  <i_i_glide_rotatable_bonds>  (2) 
4

>  <r_i_docking_score>  (2) 
-3.64862

>  <r_i_glide_ligand_efficiency>  (2) 
-0.173744

>  <r_i_glide_ligand_efficiency_sa>  (2) 
-0.479346

>  <r_i_glide_ligand_efficiency_ln>  (2) 
-0.902115

>  <r_i_glide_gscore>  (2) 
-3.64862

>  <r_i_glide_lipo>  (2) 
-0.500152

>  <r_i_glide_hbond>  (2) 
0

>  <r_i_glide_metal>  (2) 
-0

>  <r_i_glide_rewards>  (2) 
-1.48928

>  <r_i_glide_evdw>  (2) 
-20.6527

>  <r_i_glide_ecoul>  (2) 
-4.17701

>  <r_i_glide_erotb>  (2) 
0

>  <r_i_glide_esite>  (2) 
0

>  <r_i_glide_emodel>  (2) 
-30.8597

>  <r_i_glide_energy>  (2) 
-24.8297

>  <r_i_glide_einternal>  (2) 
2.32182

>  <r_i_glide_intrahb_reward>  (2) 
-0

>  <i_i_glide_confnum>  (2) 
2

>  <i_i_glide_posenum>  (2) 
29

>  <r_i_glide_eff_state_penalty>  (2) 
0

>  <ligand_id>  (2) 
0

>  <original_smiles>  (2) 
CCC1C(O)C2OC23C2OC3(O)C1Cc1ccc(O)cc12

>  <smiles>  (2) 
[H]Oc1c([H])c([H])c2c(c1[H])C1([H])OC3(O[H])C([H])(C2([H])[H])C([H])(C([H])([H])C([H])([H])[H])C([H])(O[H])C2([H])OC123

$$$$
0:0:2
     RDKit          3D

 39 43  0  0  1  0  0  0  0  0999 V2000
    2.9137   -6.4087    1.6066 C   0  0  0  0  0  0  0  0  0  0  0  0
    2.1744   -5.0605    1.6331 C   0  0  0  0  0  0  0  0  0  0  0  0
    3.0362   -3.9035    2.1661 C   0  0  2  0  0  0  0  0  0  0  0  0
    2.1894   -2.6145    2.6094 C   0  0  1  0  0  0  0  0  0  0  0  0
    2.2386   -2.4312    4.0066 O   0  0  0  0  0  0  0  0  0  0  0  0
    2.5558   -1.2533    1.9210 C   0  0  1  0  0  0  0  0  0  0  0  0
    3.5779   -0.3605    2.4868 O   0  0  0  0  0  0  0  0  0  0  0  0
    3.9899   -1.2118    1.4294 C   0  0  2  0  0  0  0  0  0  0  0  0
    4.7397   -0.7776    0.1926 C   0  0  1  0  0  0  0  0  0  0  0  0
    5.7957   -1.5787    0.7899 O   0  0  0  0  0  0  0  0  0  0  0  0
    4.9063   -2.2979    1.6912 C   0  0  1  0  0  0  0  0  0  0  0  0
    5.3637   -2.4624    3.0099 O   0  0  0  0  0  0  0  0  0  0  0  0
    4.0821   -3.4219    1.1251 C   0  0  1  0  0  0  0  0  0  0  0  0
    4.6578   -3.9587   -0.1800 C   0  0  0  0  0  0  0  0  0  0  0  0
    4.5059   -2.9067   -1.3256 C   0  0  0  0  0  0  0  0  0  0  0  0
    4.3616   -3.4317   -2.6168 C   0  0  0  0  0  0  0  0  0  0  0  0
    4.1157   -2.6094   -3.7105 C   0  0  0  0  0  0  0  0  0  0  0  0
    4.0269   -1.2184   -3.5456 C   0  0  0  0  0  0  0  0  0  0  0  0
    3.8019   -0.4091   -4.6173 O   0  0  0  0  0  0  0  0  0  0  0  0
    4.2034   -0.6593   -2.2744 C   0  0  0  0  0  0  0  0  0  0  0  0
    4.4333   -1.4837   -1.1467 C   0  0  0  0  0  0  0  0  0  0  0  0
    2.2670   -7.1852    1.1989 H   0  0  0  0  0  0  0  0  0  0  0  0
    3.2118   -6.7059    2.6137 H   0  0  0  0  0  0  0  0  0  0  0  0
    3.8204   -6.3930    1.0018 H   0  0  0  0  0  0  0  0  0  0  0  0
    1.8044   -4.8091    0.6365 H   0  0  0  0  0  0  0  0  0  0  0  0
    1.3019   -5.1690    2.2782 H   0  0  0  0  0  0  0  0  0  0  0  0
    3.5571   -4.2667    3.0587 H   0  0  0  0  0  0  0  0  0  0  0  0
    1.1301   -2.7883    2.4111 H   0  0  0  0  0  0  0  0  0  0  0  0
    3.1226   -2.1501    4.2242 H   0  0  0  0  0  0  0  0  0  0  0  0
    1.7988   -0.7896    1.2959 H   0  0  0  0  0  0  0  0  0  0  0  0
    5.0276    0.2629    0.1342 H   0  0  0  0  0  0  0  0  0  0  0  0
    6.0470   -3.1228    2.9858 H   0  0  0  0  0  0  0  0  0  0  0  0
    3.2314   -3.0832    0.5275 H   0  0  0  0  0  0  0  0  0  0  0  0
    5.7000   -4.2576   -0.0547 H   0  0  0  0  0  0  0  0  0  0  0  0
    4.1016   -4.8313   -0.4894 H   0  0  0  0  0  0  0  0  0  0  0  0
    4.4211   -4.5033   -2.7797 H   0  0  0  0  0  0  0  0  0  0  0  0
    3.9841   -3.0543   -4.6872 H   0  0  0  0  0  0  0  0  0  0  0  0
    3.5781    0.4704   -4.3426 H   0  0  0  0  0  0  0  0  0  0  0  0
    4.2246    0.4122   -2.1638 H   0  0  0  0  0  0  0  0  0  0  0  0
  1  2  1  0
  1 22  1  0
  1 23  1  0
  1 24  1  0
  2  3  1  0
  2 25  1  0
  2 26  1  0
  3 13  1  0
  3  4  1  0
  3 27  1  1
  4  5  1  0
  4  6  1  0
  4 28  1  6
  5 29  1  0
  6  8  1  0
  6  7  1  0
  6 30  1  6
  8  7  1  1
  8 11  1  0
  8  9  1  0
  9 21  1  0
  9 10  1  0
  9 31  1  6
 10 11  1  0
 11 12  1  1
 11 13  1  0
 12 32  1  0
 13 14  1  0
 13 33  1  6
 14 15  1  0
 14 34  1  0
 14 35  1  0
 15 21  2  0
 15 16  1  0
 16 17  2  0
 16 36  1  0
 17 18  1  0
 17 37  1  0
 18 19  1  0
 18 20  2  0
 19 38  1  0
 20 21  1  0
 20 39  1  0
M  END
>  <i_m_ct_stereo_status>  (3) 
1

>  <s_m_source_file>  (3) 
/var/tmp/pbs.5076255.sched01/tmppv1df_bs/0l6e7d74h.sdf

>  <i_m_source_file_index>  (3) 
1

>  <i_lp_mmshare_version>  (3) 
48012

>  <i_f3d_flags>  (3) 
0

>  <s_epik_input>  (3) 
TzFbQ0BASF0oW0NAXTEyMylbQ0BIXShbT0hdKVtDQEBIXShbQ0gyXVtDSDNdKVtDQEhdNFtDQEBdMyhbT0hdKU9bQ0BIXTJjNWMoW0NIMl00KVtjSF1bY0hdYyhbT0hdKVtjSF01

>  <s_epik_cmdline>  (3) 
J2VwaWtfcHl0aG9uJywgJy1waHQnLCAnMi4wJywgJy1waCcsICc3LjAnLCAnLXRuJywgJzgnLCAnLW1hJywgJzIwMCcsICctaW1hZScsICc8aW5maWxlLm1hZT4nLCAnLW9tYWUnLCAnPG91dGZpbGUubWFlPic=

>  <r_lp_tautomer_probability>  (3) 
1

>  <r_epik_Ionization_Penalty>  (3) 
0.000363813

>  <r_epik_Ionization_Penalty_Charging>  (3) 
0

>  <r_epik_Ionization_Penalty_Neutral>  (3) 
0.000363813

>  <r_epik_State_Penalty>  (3) 
0.000217512

>  <r_epik_Charging_Adjusted_Penalty>  (3) 
0.000217512

>  <i_epik_Tot_Q>  (3) 
0

>  <i_epik_Tot_abs_Q>  (3) 
0

>  <s_lp_Force_Field>  (3) 
OPLS3e

>  <r_lp_Energy>  (3) 
78.5397

>  <b_lp_Chiralities_Consistent>  (3) 
1

>  <s_lp_Variant>  (3) 
0:0-1

>  <s_i_glide_gridfile>  (3) 
pfpi4k_grid

>  <i_i_glide_lignum>  (3) 
1

>  <i_i_glide_rotatable_bonds>  (3) 
4

>  <r_i_docking_score>  (3) 
-3.60437

>  <r_i_glide_ligand_efficiency>  (3) 
-0.171637

>  <r_i_glide_ligand_efficiency_sa>  (3) 
-0.473533

>  <r_i_glide_ligand_efficiency_ln>  (3) 
-0.891174

>  <r_i_glide_gscore>  (3) 
-3.60437

>  <r_i_glide_lipo>  (3) 
-0.509038

>  <r_i_glide_hbond>  (3) 
0

>  <r_i_glide_metal>  (3) 
-0

>  <r_i_glide_rewards>  (3) 
-1.48436

>  <r_i_glide_evdw>  (3) 
-21.2216

>  <r_i_glide_ecoul>  (3) 
-3.66594

>  <r_i_glide_erotb>  (3) 
0

>  <r_i_glide_esite>  (3) 
0

>  <r_i_glide_emodel>  (3) 
-31.6295

>  <r_i_glide_energy>  (3) 
-24.8875

>  <r_i_glide_einternal>  (3) 
0.826993

>  <r_i_glide_intrahb_reward>  (3) 
-0

>  <i_i_glide_confnum>  (3) 
2

>  <i_i_glide_posenum>  (3) 
2

>  <r_i_glide_eff_state_penalty>  (3) 
0

>  <ligand_id>  (3) 
0

>  <original_smiles>  (3) 
CCC1C(O)C2OC23C2OC3(O)C1Cc1ccc(O)cc12

>  <smiles>  (3) 
[H]Oc1c([H])c([H])c2c(c1[H])C1([H])OC3(O[H])C([H])(C2([H])[H])C([H])(C([H])([H])C([H])([H])[H])C([H])(O[H])C2([H])OC123

$$$$
1:0:0
     RDKit          3D

 63 68  0  0  1  0  0  0  0  0999 V2000
    5.2454   -1.4694   -1.0142 C   0  0  0  0  0  0  0  0  0  0  0  0
    4.0809   -1.2743   -0.0259 C   0  0  2  0  0  0  0  0  0  0  0  0
    4.3658   -0.1369    1.0032 C   0  0  0  0  0  0  0  0  0  0  0  0
    4.2638   -0.7273    2.4380 C   0  0  0  0  0  0  0  0  0  0  0  0
    4.4318   -2.2432    2.2128 C   0  0  1  0  0  0  0  0  0  0  0  0
    5.8293   -2.3304    2.0151 O   0  0  0  0  0  0  0  0  0  0  0  0
    3.9115   -3.4183    3.1401 C   0  0  2  0  0  0  0  0  0  0  0  0
    2.7870   -2.8463    4.0538 C   0  0  0  0  0  0  0  0  0  0  0  0
    5.0087   -4.2004    3.9645 C   0  0  0  0  0  0  0  0  0  0  0  0
    5.0596   -5.7644    3.7314 C   0  0  1  0  0  0  0  0  0  0  0  0
    3.5774   -6.2978    3.8027 C   0  0  2  0  0  0  0  0  0  0  0  0
    2.7768   -5.8806    5.0782 C   0  0  0  0  0  0  0  0  0  0  0  0
    3.5021   -7.8436    3.9170 C   0  0  0  0  0  0  0  0  0  0  0  0
    4.2271   -8.4270    4.7236 O   0  0  0  0  0  0  0  0  0  0  0  0
    2.4935   -8.5560    3.1364 C   0  0  0  0  0  0  0  0  0  0  0  0
    2.1165   -8.0422    1.9622 C   0  0  0  0  0  0  0  0  0  0  0  0
    2.6890   -6.7553    1.3845 C   0  0  1  0  0  0  0  0  0  0  0  0
    1.7002   -6.2193    0.5170 O   0  0  0  0  0  0  0  0  0  0  0  0
    3.0001   -5.7336    2.4830 C   0  0  0  0  0  0  0  0  0  0  0  0
    3.3207   -4.4439    2.1514 C   0  0  0  0  0  0  0  0  0  0  0  0
    3.6596   -3.9904    0.7199 C   0  0  2  0  0  0  0  0  0  0  0  0
    5.0045   -4.7156    0.4013 C   0  0  0  0  0  0  0  0  0  0  0  0
    5.8685   -4.2079   -0.3043 O   0  0  0  0  0  0  0  0  0  0  0  0
    5.2561   -6.1421    0.9674 C   0  0  2  0  0  0  0  0  0  0  0  0
    4.0231   -7.0273    0.5935 C   0  0  1  0  0  0  0  0  0  0  0  0
    4.3963   -8.3924    0.4887 O   0  0  0  0  0  0  0  0  0  0  0  0
    5.9162   -6.2445    2.4333 C   0  0  0  0  0  0  0  0  0  0  0  0
    7.2676   -5.4784    2.3843 C   0  0  0  0  0  0  0  0  0  0  0  0
    6.4338   -7.6995    2.6403 C   0  0  0  0  0  0  0  0  0  0  0  0
    3.6657   -2.4495    0.9059 C   0  0  2  0  0  0  0  0  0  0  0  0
    2.2706   -2.1818    1.0798 O   0  0  0  0  0  0  0  0  0  0  0  0
    6.1803   -1.7050   -0.5099 H   0  0  0  0  0  0  0  0  0  0  0  0
    5.4119   -0.5628   -1.5988 H   0  0  0  0  0  0  0  0  0  0  0  0
    5.0149   -2.2653   -1.7214 H   0  0  0  0  0  0  0  0  0  0  0  0
    3.2428   -0.9691   -0.6595 H   0  0  0  0  0  0  0  0  0  0  0  0
    5.3596    0.2853    0.8508 H   0  0  0  0  0  0  0  0  0  0  0  0
    3.6605    0.6868    0.8872 H   0  0  0  0  0  0  0  0  0  0  0  0
    5.0108   -0.3113    3.1154 H   0  0  0  0  0  0  0  0  0  0  0  0
    3.2929   -0.4557    2.8485 H   0  0  0  0  0  0  0  0  0  0  0  0
    6.0226   -3.1652    1.6141 H   0  0  0  0  0  0  0  0  0  0  0  0
    3.1947   -2.3974    4.9600 H   0  0  0  0  0  0  0  0  0  0  0  0
    2.0387   -3.5802    4.3358 H   0  0  0  0  0  0  0  0  0  0  0  0
    2.1820   -2.0847    3.5712 H   0  0  0  0  0  0  0  0  0  0  0  0
    5.9949   -3.7790    3.8613 H   0  0  0  0  0  0  0  0  0  0  0  0
    4.8540   -4.0132    5.0249 H   0  0  0  0  0  0  0  0  0  0  0  0
    5.5954   -6.1567    4.5987 H   0  0  0  0  0  0  0  0  0  0  0  0
    1.7069   -5.8359    4.8709 H   0  0  0  0  0  0  0  0  0  0  0  0
    3.0675   -4.9435    5.5340 H   0  0  0  0  0  0  0  0  0  0  0  0
    2.8974   -6.5754    5.9105 H   0  0  0  0  0  0  0  0  0  0  0  0
    2.0902   -9.4879    3.5166 H   0  0  0  0  0  0  0  0  0  0  0  0
    1.3828   -8.5639    1.3594 H   0  0  0  0  0  0  0  0  0  0  0  0
    2.1315   -5.9605   -0.2840 H   0  0  0  0  0  0  0  0  0  0  0  0
    2.9229   -4.2770   -0.0279 H   0  0  0  0  0  0  0  0  0  0  0  0
    6.0437   -6.5108    0.3089 H   0  0  0  0  0  0  0  0  0  0  0  0
    3.8228   -6.7875   -0.4479 H   0  0  0  0  0  0  0  0  0  0  0  0
    4.4796   -8.7628    1.3552 H   0  0  0  0  0  0  0  0  0  0  0  0
    7.9594   -5.9097    1.6573 H   0  0  0  0  0  0  0  0  0  0  0  0
    7.7741   -5.5044    3.3516 H   0  0  0  0  0  0  0  0  0  0  0  0
    7.1703   -4.4400    2.0845 H   0  0  0  0  0  0  0  0  0  0  0  0
    7.1453   -7.9910    1.8647 H   0  0  0  0  0  0  0  0  0  0  0  0
    5.6654   -8.4627    2.6148 H   0  0  0  0  0  0  0  0  0  0  0  0
    6.9461   -7.8124    3.5970 H   0  0  0  0  0  0  0  0  0  0  0  0
    1.9323   -1.7211    0.3122 H   0  0  0  0  0  0  0  0  0  0  0  0
  1  2  1  0
  1 32  1  0
  1 33  1  0
  1 34  1  0
  2 30  1  0
  2  3  1  0
  2 35  1  6
  3  4  1  0
  3 36  1  0
  3 37  1  0
  4  5  1  0
  4 38  1  0
  4 39  1  0
  5 30  1  0
  5  6  1  6
  5  7  1  0
  6 40  1  0
  7 20  1  0
  7  8  1  1
  7  9  1  0
  8 41  1  0
  8 42  1  0
  8 43  1  0
  9 10  1  0
  9 44  1  0
  9 45  1  0
 10 27  1  0
 10 11  1  0
 10 46  1  1
 11 19  1  0
 11 12  1  1
 11 13  1  0
 12 47  1  0
 12 48  1  0
 12 49  1  0
 13 14  2  0
 13 15  1  0
 15 16  2  0
 15 50  1  0
 16 17  1  0
 16 51  1  0
 17 25  1  0
 17 18  1  6
 17 19  1  0
 18 52  1  0
 19 20  2  0
 20 21  1  0
 21 22  1  0
 21 30  1  0
 21 53  1  6
 22 23  2  0
 22 24  1  0
 24 25  1  0
 24 27  1  0
 24 54  1  6
 25 26  1  0
 25 55  1  6
 26 56  1  0
 27 28  1  0
 27 29  1  0
 28 57  1  0
 28 58  1  0
 28 59  1  0
 29 60  1  0
 29 61  1  0
 29 62  1  0
 30 31  1  1
 31 63  1  0
M  END
>  <i_m_ct_stereo_status>  (4) 
1

>  <s_m_source_file>  (4) 
/var/tmp/pbs.5076255.sched01/tmppv1df_bs/0l6e7d74h.sdf

>  <i_m_source_file_index>  (4) 
2

>  <i_lp_mmshare_version>  (4) 
48012

>  <i_f3d_flags>  (4) 
0

>  <s_epik_input>  (4) 
W0NIMl0xW0NIMl1bQ0BASF0oW0NIM10pW0NAQF0yKFtPSF0pW0NASF0zQyg9TylbQ0BIXShbQ0BASF0oW09IXSlbQ0BAXTQoW09IXSlbQ0hdPVtDSF1DNT1PKUMoW0NIM10pKFtDSDNdKVtDQEBIXShbQ0gyXTYpW0NAQF01KFtDSDNdKUM0PUMzW0NAXTYoW0NIM10pW0NAXTEyW09IXQ==

>  <s_epik_cmdline>  (4) 
J2VwaWtfcHl0aG9uJywgJy1waHQnLCAnMi4wJywgJy1waCcsICc3LjAnLCAnLXRuJywgJzgnLCAnLW1hJywgJzIwMCcsICctaW1hZScsICc8aW5maWxlLm1hZT4nLCAnLW9tYWUnLCAnPG91dGZpbGUubWFlPic=

>  <r_lp_tautomer_probability>  (4) 
1

>  <r_epik_Ionization_Penalty>  (4) 
8.95061e-06

>  <r_epik_Ionization_Penalty_Charging>  (4) 
0

>  <r_epik_Ionization_Penalty_Neutral>  (4) 
8.95061e-06

>  <r_epik_State_Penalty>  (4) 
-0

>  <r_epik_Charging_Adjusted_Penalty>  (4) 
0

>  <i_epik_Tot_Q>  (4) 
0

>  <i_epik_Tot_abs_Q>  (4) 
0

>  <s_lp_Force_Field>  (4) 
OPLS3e

>  <r_lp_Energy>  (4) 
138.366

>  <b_lp_Chiralities_Consistent>  (4) 
1

>  <s_lp_Variant>  (4) 
1:0-1

>  <s_i_glide_gridfile>  (4) 
pfpi4k_grid

>  <i_i_glide_lignum>  (4) 
2

>  <i_i_glide_rotatable_bonds>  (4) 
4

>  <r_i_docking_score>  (4) 
-3.49431

>  <r_i_glide_ligand_efficiency>  (4) 
-0.11272

>  <r_i_glide_ligand_efficiency_sa>  (4) 
-0.354095

>  <r_i_glide_ligand_efficiency_ln>  (4) 
-0.788073

>  <r_i_glide_gscore>  (4) 
-3.49431

>  <r_i_glide_lipo>  (4) 
-0.506216

>  <r_i_glide_hbond>  (4) 
-0.16

>  <r_i_glide_metal>  (4) 
-0

>  <r_i_glide_rewards>  (4) 
-0.574947

>  <r_i_glide_evdw>  (4) 
-24.3065

>  <r_i_glide_ecoul>  (4) 
-6.91813

>  <r_i_glide_erotb>  (4) 
0

>  <r_i_glide_esite>  (4) 
-9.62154e-05

>  <r_i_glide_emodel>  (4) 
-37.7105

>  <r_i_glide_energy>  (4) 
-31.2247

>  <r_i_glide_einternal>  (4) 
1.18872

>  <r_i_glide_intrahb_reward>  (4) 
-0

>  <i_i_glide_confnum>  (4) 
1

>  <i_i_glide_posenum>  (4) 
9

>  <r_i_glide_eff_state_penalty>  (4) 
0

>  <ligand_id>  (4) 
1

>  <original_smiles>  (4) 
CC1CCC2(O)C3(C)CC4C5(C)C(=O)C=CC6(O)C5=C3C(C(=O)C(C6O)C4(C)C)C12O

>  <smiles>  (4) 
[H]OC12C([H])=C([H])C(=O)C3(C([H])([H])[H])C1=C1C4([H])C(=O)C([H])(C2([H])O[H])C(C([H])([H])[H])(C([H])([H])[H])C3([H])C([H])([H])C1(C([H])([H])[H])C1(O[H])C([H])([H])C([H])([H])C([H])(C([H])([H])[H])C41O[H]

$$$$
1:0:1
     RDKit          3D

 63 68  0  0  1  0  0  0  0  0999 V2000
   -0.3901   -6.7686    4.3321 C   0  0  0  0  0  0  0  0  0  0  0  0
    0.4027   -7.6448    3.3486 C   0  0  2  0  0  0  0  0  0  0  0  0
    1.1014   -8.8450    4.0645 C   0  0  0  0  0  0  0  0  0  0  0  0
    2.6310   -8.7618    3.7842 C   0  0  0  0  0  0  0  0  0  0  0  0
    2.8442   -7.2896    3.3711 C   0  0  1  0  0  0  0  0  0  0  0  0
    2.8009   -6.6396    4.6294 O   0  0  0  0  0  0  0  0  0  0  0  0
    4.0035   -6.7021    2.4626 C   0  0  2  0  0  0  0  0  0  0  0  0
    4.6307   -7.8793    1.6564 C   0  0  0  0  0  0  0  0  0  0  0  0
    5.0884   -5.8336    3.2110 C   0  0  0  0  0  0  0  0  0  0  0  0
    5.2698   -4.3642    2.6537 C   0  0  1  0  0  0  0  0  0  0  0  0
    5.3792   -4.4489    1.0885 C   0  0  2  0  0  0  0  0  0  0  0  0
    6.4269   -5.4709    0.5599 C   0  0  0  0  0  0  0  0  0  0  0  0
    5.9083   -3.1418    0.4303 C   0  0  0  0  0  0  0  0  0  0  0  0
    6.9152   -2.5937    0.8806 O   0  0  0  0  0  0  0  0  0  0  0  0
    5.2751   -2.6670   -0.7960 C   0  0  0  0  0  0  0  0  0  0  0  0
    3.9801   -2.9280   -0.9851 C   0  0  0  0  0  0  0  0  0  0  0  0
    3.1231   -3.6852    0.0164 C   0  0  1  0  0  0  0  0  0  0  0  0
    2.0585   -4.2539   -0.7248 O   0  0  0  0  0  0  0  0  0  0  0  0
    3.9189   -4.7961    0.7212 C   0  0  0  0  0  0  0  0  0  0  0  0
    3.2846   -5.7319    1.4972 C   0  0  0  0  0  0  0  0  0  0  0  0
    1.8262   -5.6045    1.9535 C   0  0  2  0  0  0  0  0  0  0  0  0
    1.8239   -4.3682    2.9084 C   0  0  0  0  0  0  0  0  0  0  0  0
    1.0635   -4.2960    3.8691 O   0  0  0  0  0  0  0  0  0  0  0  0
    2.7677   -3.1657    2.6190 C   0  0  2  0  0  0  0  0  0  0  0  0
    2.5758   -2.7192    1.1266 C   0  0  1  0  0  0  0  0  0  0  0  0
    2.8771   -1.3523    0.9258 O   0  0  0  0  0  0  0  0  0  0  0  0
    4.2445   -3.2561    3.2367 C   0  0  0  0  0  0  0  0  0  0  0  0
    4.1290   -3.4311    4.7792 C   0  0  0  0  0  0  0  0  0  0  0  0
    4.8751   -1.8355    3.1641 C   0  0  0  0  0  0  0  0  0  0  0  0
    1.5824   -7.0115    2.5578 C   0  0  2  0  0  0  0  0  0  0  0  0
    1.5248   -7.7925    1.3652 O   0  0  0  0  0  0  0  0  0  0  0  0
    0.2361   -6.3575    5.1203 H   0  0  0  0  0  0  0  0  0  0  0  0
   -1.1839   -7.3423    4.8133 H   0  0  0  0  0  0  0  0  0  0  0  0
   -0.8672   -5.9476    3.8079 H   0  0  0  0  0  0  0  0  0  0  0  0
   -0.3542   -8.0437    2.6658 H   0  0  0  0  0  0  0  0  0  0  0  0
    0.9222   -8.8093    5.1403 H   0  0  0  0  0  0  0  0  0  0  0  0
    0.7037   -9.8016    3.7212 H   0  0  0  0  0  0  0  0  0  0  0  0
    3.2297   -9.0479    4.6518 H   0  0  0  0  0  0  0  0  0  0  0  0
    2.8745   -9.4743    2.9963 H   0  0  0  0  0  0  0  0  0  0  0  0
    2.7401   -5.7078    4.4811 H   0  0  0  0  0  0  0  0  0  0  0  0
    5.4146   -8.3830    2.2238 H   0  0  0  0  0  0  0  0  0  0  0  0
    5.0351   -7.5810    0.6935 H   0  0  0  0  0  0  0  0  0  0  0  0
    3.9099   -8.6398    1.3691 H   0  0  0  0  0  0  0  0  0  0  0  0
    4.9719   -5.8171    4.2881 H   0  0  0  0  0  0  0  0  0  0  0  0
    6.0446   -6.3495    3.1604 H   0  0  0  0  0  0  0  0  0  0  0  0
    6.2271   -4.0568    3.0298 H   0  0  0  0  0  0  0  0  0  0  0  0
    6.0906   -5.8562   -0.3959 H   0  0  0  0  0  0  0  0  0  0  0  0
    6.6397   -6.3260    1.1875 H   0  0  0  0  0  0  0  0  0  0  0  0
    7.4220   -5.0505    0.4049 H   0  0  0  0  0  0  0  0  0  0  0  0
    5.8605   -2.0992   -1.5082 H   0  0  0  0  0  0  0  0  0  0  0  0
    3.4795   -2.5642   -1.8728 H   0  0  0  0  0  0  0  0  0  0  0  0
    2.4286   -4.8042   -1.4046 H   0  0  0  0  0  0  0  0  0  0  0  0
    1.1420   -5.4368    1.1292 H   0  0  0  0  0  0  0  0  0  0  0  0
    2.3000   -2.3610    3.1924 H   0  0  0  0  0  0  0  0  0  0  0  0
    1.5002   -2.6534    1.0018 H   0  0  0  0  0  0  0  0  0  0  0  0
    2.2862   -1.0550    0.2367 H   0  0  0  0  0  0  0  0  0  0  0  0
    3.5969   -2.5958    5.2395 H   0  0  0  0  0  0  0  0  0  0  0  0
    5.1126   -3.4800    5.2523 H   0  0  0  0  0  0  0  0  0  0  0  0
    3.5842   -4.3174    5.0838 H   0  0  0  0  0  0  0  0  0  0  0  0
    4.2730   -1.0944    3.6916 H   0  0  0  0  0  0  0  0  0  0  0  0
    4.9973   -1.4374    2.1628 H   0  0  0  0  0  0  0  0  0  0  0  0
    5.8551   -1.8136    3.6259 H   0  0  0  0  0  0  0  0  0  0  0  0
    1.4529   -8.7047    1.6074 H   0  0  0  0  0  0  0  0  0  0  0  0
  1  2  1  0
  1 32  1  0
  1 33  1  0
  1 34  1  0
  2 30  1  0
  2  3  1  0
  2 35  1  6
  3  4  1  0
  3 36  1  0
  3 37  1  0
  4  5  1  0
  4 38  1  0
  4 39  1  0
  5 30  1  0
  5  6  1  1
  5  7  1  0
  6 40  1  0
  7 20  1  0
  7  8  1  6
  7  9  1  0
  8 41  1  0
  8 42  1  0
  8 43  1  0
  9 10  1  0
  9 44  1  0
  9 45  1  0
 10 27  1  0
 10 11  1  0
 10 46  1  1
 11 19  1  0
 11 12  1  1
 11 13  1  0
 12 47  1  0
 12 48  1  0
 12 49  1  0
 13 14  2  0
 13 15  1  0
 15 16  2  0
 15 50  1  0
 16 17  1  0
 16 51  1  0
 17 25  1  0
 17 18  1  6
 17 19  1  0
 18 52  1  0
 19 20  2  0
 20 21  1  0
 21 22  1  0
 21 30  1  0
 21 53  1  6
 22 23  2  0
 22 24  1  0
 24 25  1  0
 24 27  1  0
 24 54  1  1
 25 26  1  0
 25 55  1  6
 26 56  1  0
 27 28  1  0
 27 29  1  0
 28 57  1  0
 28 58  1  0
 28 59  1  0
 29 60  1  0
 29 61  1  0
 29 62  1  0
 30 31  1  6
 31 63  1  0
M  END
>  <i_m_ct_stereo_status>  (5) 
1

>  <s_m_source_file>  (5) 
/var/tmp/pbs.5076255.sched01/tmppv1df_bs/0l6e7d74h.sdf

>  <i_m_source_file_index>  (5) 
2

>  <i_lp_mmshare_version>  (5) 
48012

>  <i_f3d_flags>  (5) 
0

>  <s_epik_input>  (5) 
W0NIMl0xW0NIMl1bQ0BASF0oW0NIM10pW0NAQF0yKFtPSF0pW0NASF0zQyg9TylbQ0BIXShbQ0BASF0oW09IXSlbQ0BAXTQoW09IXSlbQ0hdPVtDSF1DNT1PKUMoW0NIM10pKFtDSDNdKVtDQEBIXShbQ0gyXTYpW0NAQF01KFtDSDNdKUM0PUMzW0NAXTYoW0NIM10pW0NAXTEyW09IXQ==

>  <s_epik_cmdline>  (5) 
J2VwaWtfcHl0aG9uJywgJy1waHQnLCAnMi4wJywgJy1waCcsICc3LjAnLCAnLXRuJywgJzgnLCAnLW1hJywgJzIwMCcsICctaW1hZScsICc8aW5maWxlLm1hZT4nLCAnLW9tYWUnLCAnPG91dGZpbGUubWFlPic=

>  <r_lp_tautomer_probability>  (5) 
1

>  <r_epik_Ionization_Penalty>  (5) 
8.95061e-06

>  <r_epik_Ionization_Penalty_Charging>  (5) 
0

>  <r_epik_Ionization_Penalty_Neutral>  (5) 
8.95061e-06

>  <r_epik_State_Penalty>  (5) 
-0

>  <r_epik_Charging_Adjusted_Penalty>  (5) 
0

>  <i_epik_Tot_Q>  (5) 
0

>  <i_epik_Tot_abs_Q>  (5) 
0

>  <s_lp_Force_Field>  (5) 
OPLS3e

>  <r_lp_Energy>  (5) 
138.366

>  <b_lp_Chiralities_Consistent>  (5) 
1

>  <s_lp_Variant>  (5) 
1:0-1

>  <s_i_glide_gridfile>  (5) 
pfpi4k_grid

>  <i_i_glide_lignum>  (5) 
2

>  <i_i_glide_rotatable_bonds>  (5) 
4

>  <r_i_docking_score>  (5) 
-3.20037

>  <r_i_glide_ligand_efficiency>  (5) 
-0.103238

>  <r_i_glide_ligand_efficiency_sa>  (5) 
-0.32431

>  <r_i_glide_ligand_efficiency_ln>  (5) 
-0.721783

>  <r_i_glide_gscore>  (5) 
-3.20037

>  <r_i_glide_lipo>  (5) 
-0.322848

>  <r_i_glide_hbond>  (5) 
0

>  <r_i_glide_metal>  (5) 
-0

>  <r_i_glide_rewards>  (5) 
-0.572226

>  <r_i_glide_evdw>  (5) 
-23.8351

>  <r_i_glide_ecoul>  (5) 
-7.3755

>  <r_i_glide_erotb>  (5) 
0

>  <r_i_glide_esite>  (5) 
-0.00721939

>  <r_i_glide_emodel>  (5) 
-37.5471

>  <r_i_glide_energy>  (5) 
-31.2106

>  <r_i_glide_einternal>  (5) 
0.662253

>  <r_i_glide_intrahb_reward>  (5) 
-0

>  <i_i_glide_confnum>  (5) 
1

>  <i_i_glide_posenum>  (5) 
7

>  <r_i_glide_eff_state_penalty>  (5) 
0

>  <ligand_id>  (5) 
1

>  <original_smiles>  (5) 
CC1CCC2(O)C3(C)CC4C5(C)C(=O)C=CC6(O)C5=C3C(C(=O)C(C6O)C4(C)C)C12O

>  <smiles>  (5) 
[H]OC12C([H])=C([H])C(=O)C3(C([H])([H])[H])C1=C1C4([H])C(=O)C([H])(C2([H])O[H])C(C([H])([H])[H])(C([H])([H])[H])C3([H])C([H])([H])C1(C([H])([H])[H])C1(O[H])C([H])([H])C([H])([H])C([H])(C([H])([H])[H])C41O[H]

$$$$
1:0:2
     RDKit          3D

 63 68  0  0  1  0  0  0  0  0999 V2000
   -0.4447   -6.7596    4.4095 C   0  0  0  0  0  0  0  0  0  0  0  0
    0.3230   -7.6562    3.4265 C   0  0  2  0  0  0  0  0  0  0  0  0
    0.9979   -8.8736    4.1396 C   0  0  0  0  0  0  0  0  0  0  0  0
    2.5285   -8.8245    3.8523 C   0  0  0  0  0  0  0  0  0  0  0  0
    2.7714   -7.3560    3.4344 C   0  0  1  0  0  0  0  0  0  0  0  0
    2.7352   -6.6913    4.6845 O   0  0  0  0  0  0  0  0  0  0  0  0
    3.9434   -6.7975    2.5233 C   0  0  2  0  0  0  0  0  0  0  0  0
    4.5392   -7.9885    1.7142 C   0  0  0  0  0  0  0  0  0  0  0  0
    5.0530   -5.9524    3.2640 C   0  0  0  0  0  0  0  0  0  0  0  0
    5.2721   -4.4879    2.7053 C   0  0  1  0  0  0  0  0  0  0  0  0
    5.3632   -4.5737    1.1388 C   0  0  2  0  0  0  0  0  0  0  0  0
    6.3845   -5.6206    0.6104 C   0  0  0  0  0  0  0  0  0  0  0  0
    5.9191   -3.2839    0.4701 C   0  0  0  0  0  0  0  0  0  0  0  0
    6.9442   -2.7612    0.9056 O   0  0  0  0  0  0  0  0  0  0  0  0
    5.2858   -2.7935   -0.7514 C   0  0  0  0  0  0  0  0  0  0  0  0
    3.9853   -3.0242   -0.9311 C   0  0  0  0  0  0  0  0  0  0  0  0
    3.1176   -3.7599    0.0776 C   0  0  1  0  0  0  0  0  0  0  0  0
    2.0397   -4.3070   -0.6581 O   0  0  0  0  0  0  0  0  0  0  0  0
    3.8934   -4.8882    0.7822 C   0  0  0  0  0  0  0  0  0  0  0  0
    3.2442   -5.8090    1.5628 C   0  0  0  0  0  0  0  0  0  0  0  0
    1.7918   -5.6491    2.0300 C   0  0  2  0  0  0  0  0  0  0  0  0
    1.8160   -4.4110    2.9820 C   0  0  0  0  0  0  0  0  0  0  0  0
    1.0272   -4.2927    3.9152 O   0  0  0  0  0  0  0  0  0  0  0  0
    2.7900   -3.2340    2.6810 C   0  0  2  0  0  0  0  0  0  0  0  0
    2.5940   -2.7796    1.1890 C   0  0  1  0  0  0  0  0  0  0  0  0
    2.9214   -1.4157    0.9877 O   0  0  0  0  0  0  0  0  0  0  0  0
    4.2705   -3.3561    3.2902 C   0  0  0  0  0  0  0  0  0  0  0  0
    4.1541   -3.5260    4.8324 C   0  0  0  0  0  0  0  0  0  0  0  0
    4.9265   -1.9498    3.2093 C   0  0  0  0  0  0  0  0  0  0  0  0
    1.5143   -7.0504    2.6267 C   0  0  2  0  0  0  0  0  0  0  0  0
    1.4324   -7.8282    1.4337 O   0  0  0  0  0  0  0  0  0  0  0  0
    0.1933   -6.3596    5.1952 H   0  0  0  0  0  0  0  0  0  0  0  0
   -1.2506   -7.3148    4.8902 H   0  0  0  0  0  0  0  0  0  0  0  0
   -0.9067   -5.9271    3.8889 H   0  0  0  0  0  0  0  0  0  0  0  0
   -0.4458   -8.0377    2.7474 H   0  0  0  0  0  0  0  0  0  0  0  0
    0.8221   -8.8327    5.2153 H   0  0  0  0  0  0  0  0  0  0  0  0
    0.5739   -9.8193    3.7983 H   0  0  0  0  0  0  0  0  0  0  0  0
    3.1219   -9.1302    4.7173 H   0  0  0  0  0  0  0  0  0  0  0  0
    2.7499   -9.5431    3.0646 H   0  0  0  0  0  0  0  0  0  0  0  0
    3.4631   -6.9956    5.2064 H   0  0  0  0  0  0  0  0  0  0  0  0
    5.3139   -8.5110    2.2775 H   0  0  0  0  0  0  0  0  0  0  0  0
    4.9453   -7.7022    0.7480 H   0  0  0  0  0  0  0  0  0  0  0  0
    3.7994   -8.7340    1.4317 H   0  0  0  0  0  0  0  0  0  0  0  0
    4.9355   -5.9263    4.3394 H   0  0  0  0  0  0  0  0  0  0  0  0
    5.9967   -6.4911    3.2114 H   0  0  0  0  0  0  0  0  0  0  0  0
    6.2527   -4.2210    3.0700 H   0  0  0  0  0  0  0  0  0  0  0  0
    6.0321   -5.9857   -0.3456 H   0  0  0  0  0  0  0  0  0  0  0  0
    6.5755   -6.4842    1.2332 H   0  0  0  0  0  0  0  0  0  0  0  0
    7.3900   -5.2259    0.4491 H   0  0  0  0  0  0  0  0  0  0  0  0
    5.8807   -2.2401   -1.4681 H   0  0  0  0  0  0  0  0  0  0  0  0
    3.4908   -2.6520   -1.8191 H   0  0  0  0  0  0  0  0  0  0  0  0
    2.3952   -4.8667   -1.3424 H   0  0  0  0  0  0  0  0  0  0  0  0
    1.1039   -5.4604    1.2130 H   0  0  0  0  0  0  0  0  0  0  0  0
    2.3435   -2.4209    3.2554 H   0  0  0  0  0  0  0  0  0  0  0  0
    1.5192   -2.6845    1.0707 H   0  0  0  0  0  0  0  0  0  0  0  0
    2.3298   -1.0834    0.3152 H   0  0  0  0  0  0  0  0  0  0  0  0
    3.6388   -2.6815    5.2953 H   0  0  0  0  0  0  0  0  0  0  0  0
    5.1364   -3.5970    5.3051 H   0  0  0  0  0  0  0  0  0  0  0  0
    3.5879   -4.4010    5.1333 H   0  0  0  0  0  0  0  0  0  0  0  0
    4.3468   -1.1942    3.7408 H   0  0  0  0  0  0  0  0  0  0  0  0
    5.0521   -1.5577    2.2068 H   0  0  0  0  0  0  0  0  0  0  0  0
    5.9104   -1.9546    3.6637 H   0  0  0  0  0  0  0  0  0  0  0  0
    1.3097   -8.7371    1.6691 H   0  0  0  0  0  0  0  0  0  0  0  0
  1  2  1  0
  1 32  1  0
  1 33  1  0
  1 34  1  0
  2 30  1  0
  2  3  1  0
  2 35  1  6
  3  4  1  0
  3 36  1  0
  3 37  1  0
  4  5  1  0
  4 38  1  0
  4 39  1  0
  5 30  1  0
  5  6  1  1
  5  7  1  0
  6 40  1  0
  7 20  1  0
  7  8  1  6
  7  9  1  0
  8 41  1  0
  8 42  1  0
  8 43  1  0
  9 10  1  0
  9 44  1  0
  9 45  1  0
 10 27  1  0
 10 11  1  0
 10 46  1  1
 11 19  1  0
 11 12  1  1
 11 13  1  0
 12 47  1  0
 12 48  1  0
 12 49  1  0
 13 14  2  0
 13 15  1  0
 15 16  2  0
 15 50  1  0
 16 17  1  0
 16 51  1  0
 17 25  1  0
 17 18  1  6
 17 19  1  0
 18 52  1  0
 19 20  2  0
 20 21  1  0
 21 22  1  0
 21 30  1  0
 21 53  1  6
 22 23  2  0
 22 24  1  0
 24 25  1  0
 24 27  1  0
 24 54  1  1
 25 26  1  0
 25 55  1  6
 26 56  1  0
 27 28  1  0
 27 29  1  0
 28 57  1  0
 28 58  1  0
 28 59  1  0
 29 60  1  0
 29 61  1  0
 29 62  1  0
 30 31  1  6
 31 63  1  0
M  END
>  <i_m_ct_stereo_status>  (6) 
1

>  <s_m_source_file>  (6) 
/var/tmp/pbs.5076255.sched01/tmppv1df_bs/0l6e7d74h.sdf

>  <i_m_source_file_index>  (6) 
2

>  <i_lp_mmshare_version>  (6) 
48012

>  <i_f3d_flags>  (6) 
0

>  <s_epik_input>  (6) 
W0NIMl0xW0NIMl1bQ0BASF0oW0NIM10pW0NAQF0yKFtPSF0pW0NASF0zQyg9TylbQ0BIXShbQ0BASF0oW09IXSlbQ0BAXTQoW09IXSlbQ0hdPVtDSF1DNT1PKUMoW0NIM10pKFtDSDNdKVtDQEBIXShbQ0gyXTYpW0NAQF01KFtDSDNdKUM0PUMzW0NAXTYoW0NIM10pW0NAXTEyW09IXQ==

>  <s_epik_cmdline>  (6) 
J2VwaWtfcHl0aG9uJywgJy1waHQnLCAnMi4wJywgJy1waCcsICc3LjAnLCAnLXRuJywgJzgnLCAnLW1hJywgJzIwMCcsICctaW1hZScsICc8aW5maWxlLm1hZT4nLCAnLW9tYWUnLCAnPG91dGZpbGUubWFlPic=

>  <r_lp_tautomer_probability>  (6) 
1

>  <r_epik_Ionization_Penalty>  (6) 
8.95061e-06

>  <r_epik_Ionization_Penalty_Charging>  (6) 
0

>  <r_epik_Ionization_Penalty_Neutral>  (6) 
8.95061e-06

>  <r_epik_State_Penalty>  (6) 
-0

>  <r_epik_Charging_Adjusted_Penalty>  (6) 
0

>  <i_epik_Tot_Q>  (6) 
0

>  <i_epik_Tot_abs_Q>  (6) 
0

>  <s_lp_Force_Field>  (6) 
OPLS3e

>  <r_lp_Energy>  (6) 
138.366

>  <b_lp_Chiralities_Consistent>  (6) 
1

>  <s_lp_Variant>  (6) 
1:0-1

>  <s_i_glide_gridfile>  (6) 
pfpi4k_grid

>  <i_i_glide_lignum>  (6) 
2

>  <i_i_glide_rotatable_bonds>  (6) 
4

>  <r_i_docking_score>  (6) 
-3.10745

>  <r_i_glide_ligand_efficiency>  (6) 
-0.10024

>  <r_i_glide_ligand_efficiency_sa>  (6) 
-0.314893

>  <r_i_glide_ligand_efficiency_ln>  (6) 
-0.700825

>  <r_i_glide_gscore>  (6) 
-3.10745

>  <r_i_glide_lipo>  (6) 
-0.293164

>  <r_i_glide_hbond>  (6) 
0

>  <r_i_glide_metal>  (6) 
-0

>  <r_i_glide_rewards>  (6) 
-0.575673

>  <r_i_glide_evdw>  (6) 
-23.5662

>  <r_i_glide_ecoul>  (6) 
-7.02029

>  <r_i_glide_erotb>  (6) 
0

>  <r_i_glide_esite>  (6) 
-0.00725489

>  <r_i_glide_emodel>  (6) 
-36.6851

>  <r_i_glide_energy>  (6) 
-30.5865

>  <r_i_glide_einternal>  (6) 
0.731062

>  <r_i_glide_intrahb_reward>  (6) 
-0

>  <i_i_glide_confnum>  (6) 
2

>  <i_i_glide_posenum>  (6) 
11

>  <r_i_glide_eff_state_penalty>  (6) 
0

>  <ligand_id>  (6) 
1

>  <original_smiles>  (6) 
CC1CCC2(O)C3(C)CC4C5(C)C(=O)C=CC6(O)C5=C3C(C(=O)C(C6O)C4(C)C)C12O

>  <smiles>  (6) 
[H]OC12C([H])=C([H])C(=O)C3(C([H])([H])[H])C1=C1C4([H])C(=O)C([H])(C2([H])O[H])C(C([H])([H])[H])(C([H])([H])[H])C3([H])C([H])([H])C1(C([H])([H])[H])C1(O[H])C([H])([H])C([H])([H])C([H])(C([H])([H])[H])C41O[H]

$$$$
2:0:0
     RDKit          3D

 82 88  0  0  1  0  0  0  0  0999 V2000
    3.5521    0.1036    1.5912 C   0  0  0  0  0  0  0  0  0  0  0  0
    3.0774   -1.1065    1.0258 O   0  0  0  0  0  0  0  0  0  0  0  0
    4.0879   -2.0070    0.5865 C   0  0  2  0  0  0  0  0  0  0  0  0
    4.7849   -1.5288   -0.6846 C   0  0  1  0  0  0  0  0  0  0  0  0
    5.8361   -0.6550   -0.3667 O   0  0  0  0  0  0  0  0  0  0  0  0
    5.2696   -2.6837   -1.2858 O   0  0  0  0  0  0  0  0  0  0  0  0
    4.3577   -3.7512   -1.0691 C   0  0  1  0  0  0  0  0  0  0  0  0
    5.0652   -5.0436   -0.5669 C   0  0  0  0  0  0  0  0  0  0  0  0
    4.7024   -5.0475    0.9174 C   0  0  1  0  0  0  0  0  0  0  0  0
    3.2937   -4.4807    0.9860 C   0  0  2  0  0  0  0  0  0  0  0  0
    2.2893   -5.2931    0.3858 O   0  0  0  0  0  0  0  0  0  0  0  0
    3.4052   -3.2644    0.0508 C   0  0  1  0  0  0  0  0  0  0  0  0
    3.1131   -4.4209    2.4989 C   0  0  1  0  0  0  0  0  0  0  0  0
    1.7542   -4.3580    2.8873 O   0  0  0  0  0  0  0  0  0  0  0  0
    3.9903   -5.5938    3.1379 C   0  0  1  0  0  0  0  0  0  0  0  0
    4.9432   -4.8247    4.1046 C   0  0  0  0  0  0  0  0  0  0  0  0
    3.1385   -6.6573    3.9550 C   0  0  2  0  0  0  0  0  0  0  0  0
    3.8268   -7.4004    5.1458 C   0  0  0  0  0  0  0  0  0  0  0  0
    2.8725   -7.8268    6.3153 C   0  0  1  0  0  0  0  0  0  0  0  0
    2.3648   -6.6398    6.9236 O   0  0  0  0  0  0  0  0  0  0  0  0
    3.2421   -5.9502    7.8033 C   0  0  0  0  0  0  0  0  0  0  0  0
    1.6230   -8.6769    5.9408 C   0  0  1  0  0  0  0  0  0  0  0  0
    1.0680   -9.4574    7.1756 C   0  0  0  0  0  0  0  0  0  0  0  0
   -0.2487  -10.2024    6.8828 C   0  0  0  0  0  0  0  0  0  0  0  0
    0.8168   -8.6091    8.4359 C   0  0  0  0  0  0  0  0  0  0  0  0
    0.6489   -7.9487    4.9773 C   0  0  0  0  0  0  0  0  0  0  0  0
    1.3273   -8.5745    3.7435 C   0  0  1  0  0  0  0  0  0  0  0  0
    0.3918   -9.2380    2.7195 C   0  0  0  0  0  0  0  0  0  0  0  0
    2.3838   -7.6691    3.0355 C   0  0  2  0  0  0  0  0  0  0  0  0
    3.4217   -8.4442    2.1938 C   0  0  0  0  0  0  0  0  0  0  0  0
    4.1805   -7.5091    1.2666 C   0  0  0  0  0  0  0  0  0  0  0  0
    4.7929   -6.2271    1.9073 C   0  0  1  0  0  0  0  0  0  0  0  0
    6.2806   -6.5435    2.2192 C   0  0  0  0  0  0  0  0  0  0  0  0
    1.9438   -9.5555    4.7285 C   0  0  2  0  0  0  0  0  0  0  0  0
    1.9165  -11.0657    4.6095 C   0  0  0  0  0  0  0  0  0  0  0  0
    3.1374  -10.3246    4.5276 O   0  0  0  0  0  0  0  0  0  0  0  0
    2.7165    0.6596    2.0173 H   0  0  0  0  0  0  0  0  0  0  0  0
    4.0153    0.7430    0.8411 H   0  0  0  0  0  0  0  0  0  0  0  0
    4.2736   -0.0909    2.3840 H   0  0  0  0  0  0  0  0  0  0  0  0
    4.8248   -2.2218    1.3537 H   0  0  0  0  0  0  0  0  0  0  0  0
    4.0891   -1.0283   -1.3645 H   0  0  0  0  0  0  0  0  0  0  0  0
    5.4768    0.2151   -0.3196 H   0  0  0  0  0  0  0  0  0  0  0  0
    3.8149   -3.9289   -1.9987 H   0  0  0  0  0  0  0  0  0  0  0  0
    4.6781   -5.9204   -1.0871 H   0  0  0  0  0  0  0  0  0  0  0  0
    6.1454   -4.9963   -0.7153 H   0  0  0  0  0  0  0  0  0  0  0  0
    5.3859   -4.3074    1.3369 H   0  0  0  0  0  0  0  0  0  0  0  0
    2.5735   -5.4794   -0.4936 H   0  0  0  0  0  0  0  0  0  0  0  0
    2.4350   -2.9960   -0.3660 H   0  0  0  0  0  0  0  0  0  0  0  0
    3.5154   -3.4611    2.8189 H   0  0  0  0  0  0  0  0  0  0  0  0
    1.7349   -4.1642    3.8069 H   0  0  0  0  0  0  0  0  0  0  0  0
    5.7366   -5.4462    4.5224 H   0  0  0  0  0  0  0  0  0  0  0  0
    4.3803   -4.3902    4.9348 H   0  0  0  0  0  0  0  0  0  0  0  0
    5.4516   -4.0021    3.5983 H   0  0  0  0  0  0  0  0  0  0  0  0
    2.4085   -6.0401    4.4612 H   0  0  0  0  0  0  0  0  0  0  0  0
    4.4103   -8.2527    4.7926 H   0  0  0  0  0  0  0  0  0  0  0  0
    4.5604   -6.7656    5.6202 H   0  0  0  0  0  0  0  0  0  0  0  0
    3.4612   -8.3758    7.0547 H   0  0  0  0  0  0  0  0  0  0  0  0
    2.6587   -5.1939    8.3224 H   0  0  0  0  0  0  0  0  0  0  0  0
    4.0814   -5.4424    7.3224 H   0  0  0  0  0  0  0  0  0  0  0  0
    3.6234   -6.6431    8.5485 H   0  0  0  0  0  0  0  0  0  0  0  0
    1.8130  -10.2092    7.4524 H   0  0  0  0  0  0  0  0  0  0  0  0
   -1.0806   -9.5013    6.7319 H   0  0  0  0  0  0  0  0  0  0  0  0
   -0.5301  -10.8872    7.6689 H   0  0  0  0  0  0  0  0  0  0  0  0
   -0.1610  -10.8581    6.0190 H   0  0  0  0  0  0  0  0  0  0  0  0
    0.0226   -7.8922    8.2272 H   0  0  0  0  0  0  0  0  0  0  0  0
    1.7051   -8.0581    8.7539 H   0  0  0  0  0  0  0  0  0  0  0  0
    0.4868   -9.2359    9.2707 H   0  0  0  0  0  0  0  0  0  0  0  0
   -0.3718   -8.3170    5.0166 H   0  0  0  0  0  0  0  0  0  0  0  0
    0.6323   -6.8673    5.0348 H   0  0  0  0  0  0  0  0  0  0  0  0
    0.9103   -9.8723    2.0009 H   0  0  0  0  0  0  0  0  0  0  0  0
   -0.1564   -8.4900    2.1537 H   0  0  0  0  0  0  0  0  0  0  0  0
   -0.3512   -9.8724    3.2005 H   0  0  0  0  0  0  0  0  0  0  0  0
    1.8218   -7.0723    2.3205 H   0  0  0  0  0  0  0  0  0  0  0  0
    4.1573   -8.9684    2.7947 H   0  0  0  0  0  0  0  0  0  0  0  0
    2.9473   -9.2159    1.5905 H   0  0  0  0  0  0  0  0  0  0  0  0
    4.9601   -8.0977    0.7891 H   0  0  0  0  0  0  0  0  0  0  0  0
    3.5111   -7.2785    0.4553 H   0  0  0  0  0  0  0  0  0  0  0  0
    6.3827   -7.2745    3.0172 H   0  0  0  0  0  0  0  0  0  0  0  0
    6.8496   -5.6653    2.5106 H   0  0  0  0  0  0  0  0  0  0  0  0
    6.8008   -6.9378    1.3490 H   0  0  0  0  0  0  0  0  0  0  0  0
    1.8450  -11.6947    5.4971 H   0  0  0  0  0  0  0  0  0  0  0  0
    1.5868  -11.5148    3.6705 H   0  0  0  0  0  0  0  0  0  0  0  0
  1  2  1  0
  1 37  1  0
  1 38  1  0
  1 39  1  0
  2  3  1  0
  3 12  1  0
  3  4  1  0
  3 40  1  1
  4  5  1  0
  4  6  1  0
  4 41  1  6
  5 42  1  0
  6  7  1  0
  7 12  1  0
  7  8  1  0
  7 43  1  6
  8  9  1  0
  8 44  1  0
  8 45  1  0
  9 32  1  0
  9 10  1  0
  9 46  1  1
 10 11  1  6
 10 12  1  0
 10 13  1  0
 11 47  1  0
 12 48  1  6
 13 14  1  0
 13 15  1  0
 13 49  1  1
 14 50  1  0
 15 32  1  0
 15 16  1  1
 15 17  1  0
 16 51  1  0
 16 52  1  0
 16 53  1  0
 17 29  1  0
 17 18  1  0
 17 54  1  1
 18 19  1  0
 18 55  1  0
 18 56  1  0
 19 20  1  0
 19 22  1  0
 19 57  1  1
 20 21  1  0
 21 58  1  0
 21 59  1  0
 21 60  1  0
 22 34  1  0
 22 23  1  1
 22 26  1  0
 23 24  1  0
 23 25  1  0
 23 61  1  0
 24 62  1  0
 24 63  1  0
 24 64  1  0
 25 65  1  0
 25 66  1  0
 25 67  1  0
 26 27  1  0
 26 68  1  0
 26 69  1  0
 27 28  1  6
 27 29  1  0
 27 34  1  0
 28 70  1  0
 28 71  1  0
 28 72  1  0
 29 30  1  0
 29 73  1  6
 30 31  1  0
 30 74  1  0
 30 75  1  0
 31 32  1  0
 31 76  1  0
 31 77  1  0
 32 33  1  1
 33 78  1  0
 33 79  1  0
 33 80  1  0
 34 36  1  6
 34 35  1  0
 35 36  1  0
 35 81  1  0
 35 82  1  0
M  END
>  <i_m_ct_stereo_status>  (7) 
1

>  <s_m_source_file>  (7) 
/var/tmp/pbs.5076255.sched01/tmppv1df_bs/0l6e7d74h.sdf

>  <i_m_source_file_index>  (7) 
3

>  <i_lp_mmshare_version>  (7) 
48012

>  <i_f3d_flags>  (7) 
0

>  <s_epik_input>  (7) 
W0NIM11PW0NAQEhdMVtDQEBIXShbT0hdKU9bQ0BASF0oW0NIMl0yKVtDQEhdMVtDQF0oW09IXSkoW0NASF0zW09IXSlbQ0BIXTJbQ0BdKFtDSDNdKShbQ0gyXVtDSDJdW0NASF00W0NAQF01KFtDSDJdNilbQ0gzXSlbQ0BdMyhbQ0gzXSlbQ0BASF00W0NIMl1bQ0BASF0oT1tDSDNdKVtDQF02KFtDSF0oW0NIM10pW0NIM10pW0NAQF01N1tDSDJdTzc=

>  <s_epik_cmdline>  (7) 
J2VwaWtfcHl0aG9uJywgJy1waHQnLCAnMi4wJywgJy1waCcsICc3LjAnLCAnLXRuJywgJzgnLCAnLW1hJywgJzIwMCcsICctaW1hZScsICc8aW5maWxlLm1hZT4nLCAnLW9tYWUnLCAnPG91dGZpbGUubWFlPic=

>  <r_lp_tautomer_probability>  (7) 
1

>  <r_epik_Ionization_Penalty>  (7) 
7.23717e-07

>  <r_epik_Ionization_Penalty_Charging>  (7) 
0

>  <r_epik_Ionization_Penalty_Neutral>  (7) 
7.23717e-07

>  <r_epik_State_Penalty>  (7) 
-0

>  <r_epik_Charging_Adjusted_Penalty>  (7) 
0

>  <i_epik_Tot_Q>  (7) 
0

>  <i_epik_Tot_abs_Q>  (7) 
0

>  <s_epik_Chemistry_Notes>  (7) 
This compound contains an acetal/aminal-like group ( X-CH(R)-Y where X, Y are N, S, or O) that may be acid/base labile, releasing an aldehyde.

>  <s_lp_Force_Field>  (7) 
OPLS3e

>  <r_lp_Energy>  (7) 
89.1802

>  <b_lp_Chiralities_Consistent>  (7) 
1

>  <s_lp_Variant>  (7) 
2:0-1

>  <s_i_glide_gridfile>  (7) 
pfpi4k_grid

>  <i_i_glide_lignum>  (7) 
3

>  <i_i_glide_rotatable_bonds>  (7) 
6

>  <r_i_docking_score>  (7) 
-2.37235

>  <r_i_glide_ligand_efficiency>  (7) 
-0.0658985

>  <r_i_glide_ligand_efficiency_sa>  (7) 
-0.217592

>  <r_i_glide_ligand_efficiency_ln>  (7) 
-0.517582

>  <r_i_glide_gscore>  (7) 
-2.37235

>  <r_i_glide_lipo>  (7) 
-0.222972

>  <r_i_glide_hbond>  (7) 
0

>  <r_i_glide_metal>  (7) 
-0

>  <r_i_glide_rewards>  (7) 
0

>  <r_i_glide_evdw>  (7) 
-23.5534

>  <r_i_glide_ecoul>  (7) 
-6.25447

>  <r_i_glide_erotb>  (7) 
0

>  <r_i_glide_esite>  (7) 
-0.0335348

>  <r_i_glide_emodel>  (7) 
-30.7146

>  <r_i_glide_energy>  (7) 
-29.8078

>  <r_i_glide_einternal>  (7) 
7.26693

>  <r_i_glide_intrahb_reward>  (7) 
-0

>  <i_i_glide_confnum>  (7) 
1

>  <i_i_glide_posenum>  (7) 
13

>  <r_i_glide_eff_state_penalty>  (7) 
0

>  <ligand_id>  (7) 
2

>  <original_smiles>  (7) 
COC1C(O)OC2CC3C(O)(C21)C(O)C1(C)C2CC(OC)C4(C(C)C)CC(C)(C2CCC31C)C41CO1

>  <smiles>  (7) 
[H]OC1([H])OC2([H])C([H])([H])C3([H])C(O[H])(C([H])(O[H])C4(C([H])([H])[H])C5([H])C([H])([H])C([H])(OC([H])([H])[H])C6(C([H])(C([H])([H])[H])C([H])([H])[H])C([H])([H])C(C([H])([H])[H])(C5([H])C([H])([H])C([H])([H])C34C([H])([H])[H])C63OC3([H])[H])C2([H])C1([H])OC([H])([H])[H]

$$$$
2:0:1
     RDKit          3D

 82 88  0  0  1  0  0  0  0  0999 V2000
    8.0548   -2.7575   -1.1063 C   0  0  0  0  0  0  0  0  0  0  0  0
    6.8250   -2.0588   -0.9471 O   0  0  0  0  0  0  0  0  0  0  0  0
    5.6768   -2.8547   -1.1981 C   0  0  2  0  0  0  0  0  0  0  0  0
    5.1374   -2.6374   -2.6099 C   0  0  1  0  0  0  0  0  0  0  0  0
    5.7979   -3.4547   -3.5170 O   0  0  0  0  0  0  0  0  0  0  0  0
    3.8036   -3.0010   -2.5418 O   0  0  0  0  0  0  0  0  0  0  0  0
    3.2850   -2.6181   -1.2903 C   0  0  1  0  0  0  0  0  0  0  0  0
    2.4728   -3.7514   -0.6052 C   0  0  0  0  0  0  0  0  0  0  0  0
    3.4522   -4.2593    0.4628 C   0  0  1  0  0  0  0  0  0  0  0  0
    4.1857   -3.0194    0.9359 C   0  0  2  0  0  0  0  0  0  0  0  0
    3.3969   -2.0784    1.6594 O   0  0  0  0  0  0  0  0  0  0  0  0
    4.5163   -2.3141   -0.3872 C   0  0  1  0  0  0  0  0  0  0  0  0
    5.2128   -3.6525    1.8677 C   0  0  1  0  0  0  0  0  0  0  0  0
    5.7185   -2.7040    2.7754 O   0  0  0  0  0  0  0  0  0  0  0  0
    4.5439   -4.9714    2.4761 C   0  0  1  0  0  0  0  0  0  0  0  0
    5.5512   -6.0881    2.0451 C   0  0  0  0  0  0  0  0  0  0  0  0
    4.4123   -4.9503    4.0672 C   0  0  2  0  0  0  0  0  0  0  0  0
    4.4616   -6.3261    4.8206 C   0  0  0  0  0  0  0  0  0  0  0  0
    5.0157   -6.2932    6.2867 C   0  0  1  0  0  0  0  0  0  0  0  0
    6.3932   -5.9259    6.2463 O   0  0  0  0  0  0  0  0  0  0  0  0
    7.3041   -6.9202    5.8091 C   0  0  0  0  0  0  0  0  0  0  0  0
    4.3388   -5.2887    7.2613 C   0  0  1  0  0  0  0  0  0  0  0  0
    4.6172   -5.6090    8.7608 C   0  0  0  0  0  0  0  0  0  0  0  0
    6.0473   -5.2298    9.1786 C   0  0  0  0  0  0  0  0  0  0  0  0
    4.3079   -7.0579    9.1954 C   0  0  0  0  0  0  0  0  0  0  0  0
    4.4863   -3.8179    6.8233 C   0  0  0  0  0  0  0  0  0  0  0  0
    3.1340   -3.8344    6.0988 C   0  0  1  0  0  0  0  0  0  0  0  0
    2.1698   -2.6774    6.4106 C   0  0  0  0  0  0  0  0  0  0  0  0
    3.1986   -4.0994    4.5641 C   0  0  2  0  0  0  0  0  0  0  0  0
    1.8987   -4.6810    3.9658 C   0  0  0  0  0  0  0  0  0  0  0  0
    1.8891   -4.5791    2.4497 C   0  0  0  0  0  0  0  0  0  0  0  0
    3.1464   -5.1259    1.7037 C   0  0  1  0  0  0  0  0  0  0  0  0
    2.8243   -6.5749    1.2600 C   0  0  0  0  0  0  0  0  0  0  0  0
    2.8717   -5.1056    6.8973 C   0  0  2  0  0  0  0  0  0  0  0  0
    1.6760   -5.2969    7.8154 C   0  0  0  0  0  0  0  0  0  0  0  0
    1.9054   -6.1306    6.6600 O   0  0  0  0  0  0  0  0  0  0  0  0
    8.8846   -2.1257   -0.7830 H   0  0  0  0  0  0  0  0  0  0  0  0
    8.2202   -3.0380   -2.1451 H   0  0  0  0  0  0  0  0  0  0  0  0
    8.0653   -3.6586   -0.4920 H   0  0  0  0  0  0  0  0  0  0  0  0
    5.8343   -3.9198   -1.0252 H   0  0  0  0  0  0  0  0  0  0  0  0
    5.2196   -1.5916   -2.9199 H   0  0  0  0  0  0  0  0  0  0  0  0
    5.7350   -4.3434   -3.2047 H   0  0  0  0  0  0  0  0  0  0  0  0
    2.6658   -1.7313   -1.4231 H   0  0  0  0  0  0  0  0  0  0  0  0
    1.5881   -3.2798   -0.1772 H   0  0  0  0  0  0  0  0  0  0  0  0
    2.1430   -4.5297   -1.3019 H   0  0  0  0  0  0  0  0  0  0  0  0
    4.1465   -4.8760   -0.1152 H   0  0  0  0  0  0  0  0  0  0  0  0
    2.7333   -1.7408    1.0748 H   0  0  0  0  0  0  0  0  0  0  0  0
    4.6345   -1.2321   -0.2462 H   0  0  0  0  0  0  0  0  0  0  0  0
    6.0696   -3.9347    1.2605 H   0  0  0  0  0  0  0  0  0  0  0  0
    4.9743   -2.3766    3.2590 H   0  0  0  0  0  0  0  0  0  0  0  0
    5.1898   -7.0997    2.2275 H   0  0  0  0  0  0  0  0  0  0  0  0
    6.5002   -5.9615    2.5712 H   0  0  0  0  0  0  0  0  0  0  0  0
    5.7678   -6.0428    0.9766 H   0  0  0  0  0  0  0  0  0  0  0  0
    5.3355   -4.4791    4.3793 H   0  0  0  0  0  0  0  0  0  0  0  0
    3.4800   -6.8038    4.8110 H   0  0  0  0  0  0  0  0  0  0  0  0
    5.0903   -7.0395    4.2962 H   0  0  0  0  0  0  0  0  0  0  0  0
    4.9333   -7.3113    6.6678 H   0  0  0  0  0  0  0  0  0  0  0  0
    8.3202   -6.5474    5.9570 H   0  0  0  0  0  0  0  0  0  0  0  0
    7.1940   -7.1423    4.7465 H   0  0  0  0  0  0  0  0  0  0  0  0
    7.1925   -7.8404    6.3849 H   0  0  0  0  0  0  0  0  0  0  0  0
    3.9650   -4.9736    9.3588 H   0  0  0  0  0  0  0  0  0  0  0  0
    6.7785   -5.8957    8.7270 H   0  0  0  0  0  0  0  0  0  0  0  0
    6.1656   -5.2949   10.2571 H   0  0  0  0  0  0  0  0  0  0  0  0
    6.2906   -4.2135    8.8765 H   0  0  0  0  0  0  0  0  0  0  0  0
    5.0537   -7.7577    8.8276 H   0  0  0  0  0  0  0  0  0  0  0  0
    3.3364   -7.4011    8.8480 H   0  0  0  0  0  0  0  0  0  0  0  0
    4.3126   -7.1341   10.2812 H   0  0  0  0  0  0  0  0  0  0  0  0
    4.4297   -3.1652    7.6827 H   0  0  0  0  0  0  0  0  0  0  0  0
    5.3581   -3.5579    6.2358 H   0  0  0  0  0  0  0  0  0  0  0  0
    1.1477   -2.8556    6.0807 H   0  0  0  0  0  0  0  0  0  0  0  0
    2.5034   -1.7583    5.9283 H   0  0  0  0  0  0  0  0  0  0  0  0
    2.1185   -2.4668    7.4759 H   0  0  0  0  0  0  0  0  0  0  0  0
    3.3085   -3.1229    4.1016 H   0  0  0  0  0  0  0  0  0  0  0  0
    1.7363   -5.7223    4.2285 H   0  0  0  0  0  0  0  0  0  0  0  0
    1.0264   -4.1512    4.3443 H   0  0  0  0  0  0  0  0  0  0  0  0
    1.0153   -5.1297    2.1239 H   0  0  0  0  0  0  0  0  0  0  0  0
    1.6546   -3.5526    2.1925 H   0  0  0  0  0  0  0  0  0  0  0  0
    2.7442   -7.2572    2.1021 H   0  0  0  0  0  0  0  0  0  0  0  0
    3.5685   -6.9849    0.5865 H   0  0  0  0  0  0  0  0  0  0  0  0
    1.8915   -6.6307    0.7075 H   0  0  0  0  0  0  0  0  0  0  0  0
    1.7945   -5.8098    8.7678 H   0  0  0  0  0  0  0  0  0  0  0  0
    0.8068   -4.6445    7.7175 H   0  0  0  0  0  0  0  0  0  0  0  0
  1  2  1  0
  1 37  1  0
  1 38  1  0
  1 39  1  0
  2  3  1  0
  3 12  1  0
  3  4  1  0
  3 40  1  1
  4  5  1  0
  4  6  1  0
  4 41  1  6
  5 42  1  0
  6  7  1  0
  7 12  1  0
  7  8  1  0
  7 43  1  6
  8  9  1  0
  8 44  1  0
  8 45  1  0
  9 32  1  0
  9 10  1  0
  9 46  1  6
 10 11  1  1
 10 12  1  0
 10 13  1  0
 11 47  1  0
 12 48  1  1
 13 14  1  0
 13 15  1  0
 13 49  1  6
 14 50  1  0
 15 32  1  0
 15 16  1  1
 15 17  1  0
 16 51  1  0
 16 52  1  0
 16 53  1  0
 17 29  1  0
 17 18  1  0
 17 54  1  1
 18 19  1  0
 18 55  1  0
 18 56  1  0
 19 20  1  0
 19 22  1  0
 19 57  1  1
 20 21  1  0
 21 58  1  0
 21 59  1  0
 21 60  1  0
 22 34  1  0
 22 23  1  1
 22 26  1  0
 23 24  1  0
 23 25  1  0
 23 61  1  0
 24 62  1  0
 24 63  1  0
 24 64  1  0
 25 65  1  0
 25 66  1  0
 25 67  1  0
 26 27  1  0
 26 68  1  0
 26 69  1  0
 27 28  1  6
 27 29  1  0
 27 34  1  0
 28 70  1  0
 28 71  1  0
 28 72  1  0
 29 30  1  0
 29 73  1  6
 30 31  1  0
 30 74  1  0
 30 75  1  0
 31 32  1  0
 31 76  1  0
 31 77  1  0
 32 33  1  6
 33 78  1  0
 33 79  1  0
 33 80  1  0
 34 36  1  6
 34 35  1  0
 35 36  1  0
 35 81  1  0
 35 82  1  0
M  END
>  <i_m_ct_stereo_status>  (8) 
1

>  <s_m_source_file>  (8) 
/var/tmp/pbs.5076255.sched01/tmppv1df_bs/0l6e7d74h.sdf

>  <i_m_source_file_index>  (8) 
3

>  <i_lp_mmshare_version>  (8) 
48012

>  <i_f3d_flags>  (8) 
0

>  <s_epik_input>  (8) 
W0NIM11PW0NAQEhdMVtDQEBIXShbT0hdKU9bQ0BASF0oW0NIMl0yKVtDQEhdMVtDQF0oW09IXSkoW0NASF0zW09IXSlbQ0BIXTJbQ0BdKFtDSDNdKShbQ0gyXVtDSDJdW0NASF00W0NAQF01KFtDSDJdNilbQ0gzXSlbQ0BdMyhbQ0gzXSlbQ0BASF00W0NIMl1bQ0BASF0oT1tDSDNdKVtDQF02KFtDSF0oW0NIM10pW0NIM10pW0NAQF01N1tDSDJdTzc=

>  <s_epik_cmdline>  (8) 
J2VwaWtfcHl0aG9uJywgJy1waHQnLCAnMi4wJywgJy1waCcsICc3LjAnLCAnLXRuJywgJzgnLCAnLW1hJywgJzIwMCcsICctaW1hZScsICc8aW5maWxlLm1hZT4nLCAnLW9tYWUnLCAnPG91dGZpbGUubWFlPic=

>  <r_lp_tautomer_probability>  (8) 
1

>  <r_epik_Ionization_Penalty>  (8) 
7.23717e-07

>  <r_epik_Ionization_Penalty_Charging>  (8) 
0

>  <r_epik_Ionization_Penalty_Neutral>  (8) 
7.23717e-07

>  <r_epik_State_Penalty>  (8) 
-0

>  <r_epik_Charging_Adjusted_Penalty>  (8) 
0

>  <i_epik_Tot_Q>  (8) 
0

>  <i_epik_Tot_abs_Q>  (8) 
0

>  <s_epik_Chemistry_Notes>  (8) 
This compound contains an acetal/aminal-like group ( X-CH(R)-Y where X, Y are N, S, or O) that may be acid/base labile, releasing an aldehyde.

>  <s_lp_Force_Field>  (8) 
OPLS3e

>  <r_lp_Energy>  (8) 
89.1802

>  <b_lp_Chiralities_Consistent>  (8) 
1

>  <s_lp_Variant>  (8) 
2:0-1

>  <s_i_glide_gridfile>  (8) 
pfpi4k_grid

>  <i_i_glide_lignum>  (8) 
3

>  <i_i_glide_rotatable_bonds>  (8) 
6

>  <r_i_docking_score>  (8) 
-1.8483

>  <r_i_glide_ligand_efficiency>  (8) 
-0.0513418

>  <r_i_glide_ligand_efficiency_sa>  (8) 
-0.169527

>  <r_i_glide_ligand_efficiency_ln>  (8) 
-0.40325

>  <r_i_glide_gscore>  (8) 
-1.8483

>  <r_i_glide_lipo>  (8) 
-0.106741

>  <r_i_glide_hbond>  (8) 
-0.16

>  <r_i_glide_metal>  (8) 
-0

>  <r_i_glide_rewards>  (8) 
-0.252713

>  <r_i_glide_evdw>  (8) 
-15.0354

>  <r_i_glide_ecoul>  (8) 
-3.84718

>  <r_i_glide_erotb>  (8) 
0

>  <r_i_glide_esite>  (8) 
0

>  <r_i_glide_emodel>  (8) 
-22.1507

>  <r_i_glide_energy>  (8) 
-18.8826

>  <r_i_glide_einternal>  (8) 
0.660093

>  <r_i_glide_intrahb_reward>  (8) 
-0

>  <i_i_glide_confnum>  (8) 
2

>  <i_i_glide_posenum>  (8) 
36

>  <r_i_glide_eff_state_penalty>  (8) 
0

>  <ligand_id>  (8) 
2

>  <original_smiles>  (8) 
COC1C(O)OC2CC3C(O)(C21)C(O)C1(C)C2CC(OC)C4(C(C)C)CC(C)(C2CCC31C)C41CO1

>  <smiles>  (8) 
[H]OC1([H])OC2([H])C([H])([H])C3([H])C(O[H])(C([H])(O[H])C4(C([H])([H])[H])C5([H])C([H])([H])C([H])(OC([H])([H])[H])C6(C([H])(C([H])([H])[H])C([H])([H])[H])C([H])([H])C(C([H])([H])[H])(C5([H])C([H])([H])C([H])([H])C34C([H])([H])[H])C63OC3([H])[H])C2([H])C1([H])OC([H])([H])[H]

$$$$
2:0:2
     RDKit          3D

 82 88  0  0  1  0  0  0  0  0999 V2000
    8.6140   -3.2669   -0.1332 C   0  0  0  0  0  0  0  0  0  0  0  0
    7.6263   -2.9081    0.8221 O   0  0  0  0  0  0  0  0  0  0  0  0
    6.2856   -2.9752    0.3491 C   0  0  2  0  0  0  0  0  0  0  0  0
    5.9640   -1.8659   -0.6369 C   0  0  1  0  0  0  0  0  0  0  0  0
    6.3338   -2.2367   -1.9260 O   0  0  0  0  0  0  0  0  0  0  0  0
    4.6025   -1.6721   -0.5469 O   0  0  0  0  0  0  0  0  0  0  0  0
    4.1770   -1.8710    0.7933 C   0  0  1  0  0  0  0  0  0  0  0  0
    2.9339   -2.7982    0.8743 C   0  0  0  0  0  0  0  0  0  0  0  0
    3.5596   -4.1114    1.3534 C   0  0  1  0  0  0  0  0  0  0  0  0
    4.6808   -3.7196    2.2925 C   0  0  2  0  0  0  0  0  0  0  0  0
    4.2840   -3.1176    3.5121 O   0  0  0  0  0  0  0  0  0  0  0  0
    5.3579   -2.5865    1.5025 C   0  0  1  0  0  0  0  0  0  0  0  0
    5.3015   -5.0850    2.5883 C   0  0  1  0  0  0  0  0  0  0  0  0
    6.0565   -5.1094    3.7860 O   0  0  0  0  0  0  0  0  0  0  0  0
    4.1158   -6.1474    2.4969 C   0  0  1  0  0  0  0  0  0  0  0  0
    4.6450   -7.1251    1.4020 C   0  0  0  0  0  0  0  0  0  0  0  0
    3.8500   -6.9323    3.8565 C   0  0  2  0  0  0  0  0  0  0  0  0
    3.2977   -8.3953    3.7690 C   0  0  0  0  0  0  0  0  0  0  0  0
    3.7326   -9.3479    4.9258 C   0  0  1  0  0  0  0  0  0  0  0  0
    5.1409   -9.4995    4.8209 O   0  0  0  0  0  0  0  0  0  0  0  0
    5.6148  -10.4029    3.8311 C   0  0  0  0  0  0  0  0  0  0  0  0
    3.4560   -8.8517    6.3855 C   0  0  1  0  0  0  0  0  0  0  0  0
    3.4261  -10.0481    7.4137 C   0  0  0  0  0  0  0  0  0  0  0  0
    3.3258   -9.6316    8.9090 C   0  0  0  0  0  0  0  0  0  0  0  0
    4.6179  -11.0192    7.3196 C   0  0  0  0  0  0  0  0  0  0  0  0
    4.2037   -7.5339    6.7327 C   0  0  0  0  0  0  0  0  0  0  0  0
    2.9772   -6.6962    6.3263 C   0  0  1  0  0  0  0  0  0  0  0  0
    2.5090   -5.6393    7.3457 C   0  0  0  0  0  0  0  0  0  0  0  0
    3.0476   -6.0990    4.8920 C   0  0  2  0  0  0  0  0  0  0  0  0
    1.6799   -5.7362    4.2900 C   0  0  0  0  0  0  0  0  0  0  0  0
    1.8480   -4.8283    3.0833 C   0  0  0  0  0  0  0  0  0  0  0  0
    2.8453   -5.3161    1.9831 C   0  0  1  0  0  0  0  0  0  0  0  0
    2.0273   -6.0530    0.8918 C   0  0  0  0  0  0  0  0  0  0  0  0
    2.2106   -7.9931    6.3971 C   0  0  2  0  0  0  0  0  0  0  0  0
    0.9181   -8.2222    7.1731 C   0  0  0  0  0  0  0  0  0  0  0  0
    0.9737   -8.2744    5.7414 O   0  0  0  0  0  0  0  0  0  0  0  0
    9.5811   -3.3399    0.3623 H   0  0  0  0  0  0  0  0  0  0  0  0
    8.7144   -2.5165   -0.9175 H   0  0  0  0  0  0  0  0  0  0  0  0
    8.3931   -4.2319   -0.5935 H   0  0  0  0  0  0  0  0  0  0  0  0
    6.0259   -3.9433   -0.0845 H   0  0  0  0  0  0  0  0  0  0  0  0
    6.4790   -0.9485   -0.3566 H   0  0  0  0  0  0  0  0  0  0  0  0
    5.9468   -3.0831   -2.1241 H   0  0  0  0  0  0  0  0  0  0  0  0
    3.9675   -0.9003    1.2402 H   0  0  0  0  0  0  0  0  0  0  0  0
    2.2229   -2.3965    1.5934 H   0  0  0  0  0  0  0  0  0  0  0  0
    2.4194   -2.8839   -0.0910 H   0  0  0  0  0  0  0  0  0  0  0  0
    4.0076   -4.5117    0.4477 H   0  0  0  0  0  0  0  0  0  0  0  0
    5.0656   -2.8433    3.9625 H   0  0  0  0  0  0  0  0  0  0  0  0
    5.8824   -1.8825    2.1582 H   0  0  0  0  0  0  0  0  0  0  0  0
    6.0342   -5.2790    1.8079 H   0  0  0  0  0  0  0  0  0  0  0  0
    5.4554   -4.9544    4.4954 H   0  0  0  0  0  0  0  0  0  0  0  0
    3.9102   -7.8540    1.0748 H   0  0  0  0  0  0  0  0  0  0  0  0
    5.5202   -7.6612    1.7690 H   0  0  0  0  0  0  0  0  0  0  0  0
    4.9525   -6.5934    0.5012 H   0  0  0  0  0  0  0  0  0  0  0  0
    4.8578   -7.1013    4.2187 H   0  0  0  0  0  0  0  0  0  0  0  0
    2.2112   -8.3922    3.6401 H   0  0  0  0  0  0  0  0  0  0  0  0
    3.6573   -8.8807    2.8690 H   0  0  0  0  0  0  0  0  0  0  0  0
    3.2474  -10.3170    4.7849 H   0  0  0  0  0  0  0  0  0  0  0  0
    6.6733  -10.5866    4.0236 H   0  0  0  0  0  0  0  0  0  0  0  0
    5.5356  -10.0377    2.8026 H   0  0  0  0  0  0  0  0  0  0  0  0
    5.0979  -11.3583    3.9098 H   0  0  0  0  0  0  0  0  0  0  0  0
    2.5441  -10.6581    7.1524 H   0  0  0  0  0  0  0  0  0  0  0  0
    4.2494   -9.1702    9.2436 H   0  0  0  0  0  0  0  0  0  0  0  0
    3.1695  -10.5068    9.5399 H   0  0  0  0  0  0  0  0  0  0  0  0
    2.5247   -8.9360    9.1391 H   0  0  0  0  0  0  0  0  0  0  0  0
    5.5339  -10.4941    7.5831 H   0  0  0  0  0  0  0  0  0  0  0  0
    4.7417  -11.4613    6.3308 H   0  0  0  0  0  0  0  0  0  0  0  0
    4.4898  -11.8551    8.0068 H   0  0  0  0  0  0  0  0  0  0  0  0
    4.3600   -7.3777    7.7958 H   0  0  0  0  0  0  0  0  0  0  0  0
    5.1392   -7.3569    6.2095 H   0  0  0  0  0  0  0  0  0  0  0  0
    1.5211   -5.2230    7.1302 H   0  0  0  0  0  0  0  0  0  0  0  0
    3.2088   -4.8094    7.3861 H   0  0  0  0  0  0  0  0  0  0  0  0
    2.4550   -6.0500    8.3569 H   0  0  0  0  0  0  0  0  0  0  0  0
    3.5574   -5.1566    5.0002 H   0  0  0  0  0  0  0  0  0  0  0  0
    1.1052   -6.6055    3.9657 H   0  0  0  0  0  0  0  0  0  0  0  0
    1.0436   -5.2226    5.0136 H   0  0  0  0  0  0  0  0  0  0  0  0
    0.8690   -4.7452    2.6478 H   0  0  0  0  0  0  0  0  0  0  0  0
    2.0541   -3.8139    3.4346 H   0  0  0  0  0  0  0  0  0  0  0  0
    1.6357   -7.0115    1.2338 H   0  0  0  0  0  0  0  0  0  0  0  0
    2.6260   -6.2327    0.0019 H   0  0  0  0  0  0  0  0  0  0  0  0
    1.1920   -5.4567    0.5416 H   0  0  0  0  0  0  0  0  0  0  0  0
    0.7179   -9.1833    7.6266 H   0  0  0  0  0  0  0  0  0  0  0  0
    0.3878   -7.3646    7.5679 H   0  0  0  0  0  0  0  0  0  0  0  0
  1  2  1  0
  1 37  1  0
  1 38  1  0
  1 39  1  0
  2  3  1  0
  3 12  1  0
  3  4  1  0
  3 40  1  6
  4  5  1  0
  4  6  1  0
  4 41  1  1
  5 42  1  0
  6  7  1  0
  7 12  1  0
  7  8  1  0
  7 43  1  1
  8  9  1  0
  8 44  1  0
  8 45  1  0
  9 32  1  0
  9 10  1  0
  9 46  1  6
 10 11  1  1
 10 12  1  0
 10 13  1  0
 11 47  1  0
 12 48  1  1
 13 14  1  0
 13 15  1  0
 13 49  1  6
 14 50  1  0
 15 32  1  0
 15 16  1  6
 15 17  1  0
 16 51  1  0
 16 52  1  0
 16 53  1  0
 17 29  1  0
 17 18  1  0
 17 54  1  1
 18 19  1  0
 18 55  1  0
 18 56  1  0
 19 20  1  0
 19 22  1  0
 19 57  1  6
 20 21  1  0
 21 58  1  0
 21 59  1  0
 21 60  1  0
 22 34  1  0
 22 23  1  1
 22 26  1  0
 23 24  1  0
 23 25  1  0
 23 61  1  0
 24 62  1  0
 24 63  1  0
 24 64  1  0
 25 65  1  0
 25 66  1  0
 25 67  1  0
 26 27  1  0
 26 68  1  0
 26 69  1  0
 27 28  1  1
 27 29  1  0
 27 34  1  0
 28 70  1  0
 28 71  1  0
 28 72  1  0
 29 30  1  0
 29 73  1  1
 30 31  1  0
 30 74  1  0
 30 75  1  0
 31 32  1  0
 31 76  1  0
 31 77  1  0
 32 33  1  6
 33 78  1  0
 33 79  1  0
 33 80  1  0
 34 36  1  6
 34 35  1  0
 35 36  1  0
 35 81  1  0
 35 82  1  0
M  END
>  <i_m_ct_stereo_status>  (9) 
1

>  <s_m_source_file>  (9) 
/var/tmp/pbs.5076255.sched01/tmppv1df_bs/0l6e7d74h.sdf

>  <i_m_source_file_index>  (9) 
3

>  <i_lp_mmshare_version>  (9) 
48012

>  <i_f3d_flags>  (9) 
0

>  <s_epik_input>  (9) 
W0NIM11PW0NAQEhdMVtDQEBIXShbT0hdKU9bQ0BASF0oW0NIMl0yKVtDQEhdMVtDQF0oW09IXSkoW0NASF0zW09IXSlbQ0BIXTJbQ0BdKFtDSDNdKShbQ0gyXVtDSDJdW0NASF00W0NAQF01KFtDSDJdNilbQ0gzXSlbQ0BdMyhbQ0gzXSlbQ0BASF00W0NIMl1bQ0BASF0oT1tDSDNdKVtDQF02KFtDSF0oW0NIM10pW0NIM10pW0NAQF01N1tDSDJdTzc=

>  <s_epik_cmdline>  (9) 
J2VwaWtfcHl0aG9uJywgJy1waHQnLCAnMi4wJywgJy1waCcsICc3LjAnLCAnLXRuJywgJzgnLCAnLW1hJywgJzIwMCcsICctaW1hZScsICc8aW5maWxlLm1hZT4nLCAnLW9tYWUnLCAnPG91dGZpbGUubWFlPic=

>  <r_lp_tautomer_probability>  (9) 
1

>  <r_epik_Ionization_Penalty>  (9) 
7.23717e-07

>  <r_epik_Ionization_Penalty_Charging>  (9) 
0

>  <r_epik_Ionization_Penalty_Neutral>  (9) 
7.23717e-07

>  <r_epik_State_Penalty>  (9) 
-0

>  <r_epik_Charging_Adjusted_Penalty>  (9) 
0

>  <i_epik_Tot_Q>  (9) 
0

>  <i_epik_Tot_abs_Q>  (9) 
0

>  <s_epik_Chemistry_Notes>  (9) 
This compound contains an acetal/aminal-like group ( X-CH(R)-Y where X, Y are N, S, or O) that may be acid/base labile, releasing an aldehyde.

>  <s_lp_Force_Field>  (9) 
OPLS3e

>  <r_lp_Energy>  (9) 
89.1802

>  <b_lp_Chiralities_Consistent>  (9) 
1

>  <s_lp_Variant>  (9) 
2:0-1

>  <s_i_glide_gridfile>  (9) 
pfpi4k_grid

>  <i_i_glide_lignum>  (9) 
3

>  <i_i_glide_rotatable_bonds>  (9) 
6

>  <r_i_docking_score>  (9) 
-1.43924

>  <r_i_glide_ligand_efficiency>  (9) 
-0.0399788

>  <r_i_glide_ligand_efficiency_sa>  (9) 
-0.132007

>  <r_i_glide_ligand_efficiency_ln>  (9) 
-0.314003

>  <r_i_glide_gscore>  (9) 
-1.43924

>  <r_i_glide_lipo>  (9) 
-0.332153

>  <r_i_glide_hbond>  (9) 
0

>  <r_i_glide_metal>  (9) 
-0

>  <r_i_glide_rewards>  (9) 
0

>  <r_i_glide_evdw>  (9) 
-19.2075

>  <r_i_glide_ecoul>  (9) 
-0.680237

>  <r_i_glide_erotb>  (9) 
0

>  <r_i_glide_esite>  (9) 
-0.0446731

>  <r_i_glide_emodel>  (9) 
-19.92

>  <r_i_glide_energy>  (9) 
-19.8878

>  <r_i_glide_einternal>  (9) 
4.86843

>  <r_i_glide_intrahb_reward>  (9) 
-0

>  <i_i_glide_confnum>  (9) 
1

>  <i_i_glide_posenum>  (9) 
33

>  <r_i_glide_eff_state_penalty>  (9) 
0

>  <ligand_id>  (9) 
2

>  <original_smiles>  (9) 
COC1C(O)OC2CC3C(O)(C21)C(O)C1(C)C2CC(OC)C4(C(C)C)CC(C)(C2CCC31C)C41CO1

>  <smiles>  (9) 
[H]OC1([H])OC2([H])C([H])([H])C3([H])C(O[H])(C([H])(O[H])C4(C([H])([H])[H])C5([H])C([H])([H])C([H])(OC([H])([H])[H])C6(C([H])(C([H])([H])[H])C([H])([H])[H])C([H])([H])C(C([H])([H])[H])(C5([H])C([H])([H])C([H])([H])C34C([H])([H])[H])C63OC3([H])[H])C2([H])C1([H])OC([H])([H])[H]

$$$$
3:0:0
     RDKit          3D

 51 54  0  0  1  0  0  0  0  0999 V2000
    4.2203   -5.2417    1.8892 C   0  0  0  0  0  0  0  0  0  0  0  0
    3.1400   -5.1513    0.8706 N   0  0  0  0  0  0  0  0  0  0  0  0
    1.9871   -5.8636    0.9756 C   0  0  0  0  0  0  0  0  0  0  0  0
    1.1107   -5.8617    0.0969 O   0  0  0  0  0  0  0  0  0  0  0  0
    1.7384   -6.7145    2.2430 C   0  0  2  0  0  0  0  0  0  0  0  0
    1.1735   -8.1343    1.9342 C   0  0  0  0  0  0  0  0  0  0  0  0
   -0.1437   -8.0872    2.7334 C   0  0  2  0  0  0  0  0  0  0  0  0
   -0.5293   -6.7431    2.5175 O   0  0  0  0  0  0  0  0  0  0  0  0
    0.5950   -6.1234    3.0957 C   0  0  1  0  0  0  0  0  0  0  0  0
    0.6389   -6.7848    4.4445 N   0  0  0  0  0  0  0  0  0  0  0  0
    1.1959   -6.2045    5.7019 C   0  0  0  0  0  0  0  0  0  0  0  0
    2.4959   -6.9025    6.1771 C   0  0  0  0  0  0  0  0  0  0  0  0
    3.0643   -6.1580    7.3935 C   0  0  0  0  0  0  0  0  0  0  0  0
    2.0363   -6.0811    8.5356 C   0  0  0  0  0  0  0  0  0  0  0  0
    0.7072   -5.4627    8.0638 C   0  0  0  0  0  0  0  0  0  0  0  0
    0.1565   -6.2016    6.8418 C   0  0  0  0  0  0  0  0  0  0  0  0
    0.1984   -8.0949    4.2219 C   0  0  0  0  0  0  0  0  0  0  0  0
    0.1306   -8.9883    5.0378 O   0  0  0  0  0  0  0  0  0  0  0  0
    3.4282   -4.2612   -0.2898 C   0  0  0  0  0  0  0  0  0  0  0  0
    4.7425   -4.6376   -1.0124 C   0  0  0  0  0  0  0  0  0  0  0  0
    5.8609   -3.7746   -0.3832 C   0  0  0  0  0  0  0  0  0  0  0  0
    5.1285   -2.4677   -0.0278 C   0  0  0  0  0  0  0  0  0  0  0  0
    3.6226   -2.7756    0.1280 C   0  0  0  0  0  0  0  0  0  0  0  0
    4.1051   -5.7750    2.8345 H   0  0  0  0  0  0  0  0  0  0  0  0
    4.4979   -4.2266    2.2036 H   0  0  0  0  0  0  0  0  0  0  0  0
    5.0812   -5.6793    1.3788 H   0  0  0  0  0  0  0  0  0  0  0  0
    2.5754   -6.9009    2.8969 H   0  0  0  0  0  0  0  0  0  0  0  0
    1.0003   -8.2948    0.8863 H   0  0  0  0  0  0  0  0  0  0  0  0
    1.8809   -8.8973    2.2772 H   0  0  0  0  0  0  0  0  0  0  0  0
   -0.8802   -8.8555    2.4150 H   0  0  0  0  0  0  0  0  0  0  0  0
    0.5792   -5.0665    3.2607 H   0  0  0  0  0  0  0  0  0  0  0  0
    1.4460   -5.1664    5.4646 H   0  0  0  0  0  0  0  0  0  0  0  0
    2.3102   -7.9415    6.4408 H   0  0  0  0  0  0  0  0  0  0  0  0
    3.2340   -6.9134    5.3812 H   0  0  0  0  0  0  0  0  0  0  0  0
    3.9723   -6.6394    7.7483 H   0  0  0  0  0  0  0  0  0  0  0  0
    3.3545   -5.1518    7.0999 H   0  0  0  0  0  0  0  0  0  0  0  0
    1.8567   -7.0822    8.9322 H   0  0  0  0  0  0  0  0  0  0  0  0
    2.4423   -5.4897    9.3617 H   0  0  0  0  0  0  0  0  0  0  0  0
   -0.0167   -5.4636    8.8745 H   0  0  0  0  0  0  0  0  0  0  0  0
    0.8726   -4.4197    7.8029 H   0  0  0  0  0  0  0  0  0  0  0  0
   -0.7475   -5.7076    6.4936 H   0  0  0  0  0  0  0  0  0  0  0  0
   -0.1303   -7.2156    7.1199 H   0  0  0  0  0  0  0  0  0  0  0  0
    2.6290   -4.2606   -1.0444 H   0  0  0  0  0  0  0  0  0  0  0  0
    4.9291   -5.7026   -1.0123 H   0  0  0  0  0  0  0  0  0  0  0  0
    4.6550   -4.3641   -2.0639 H   0  0  0  0  0  0  0  0  0  0  0  0
    6.2506   -4.2130    0.5537 H   0  0  0  0  0  0  0  0  0  0  0  0
    6.7125   -3.6301   -1.0561 H   0  0  0  0  0  0  0  0  0  0  0  0
    5.5202   -2.0420    0.8900 H   0  0  0  0  0  0  0  0  0  0  0  0
    5.2733   -1.7447   -0.8258 H   0  0  0  0  0  0  0  0  0  0  0  0
    3.0206   -2.1013   -0.4944 H   0  0  0  0  0  0  0  0  0  0  0  0
    3.2427   -2.6006    1.1369 H   0  0  0  0  0  0  0  0  0  0  0  0
  1  2  1  0
  1 24  1  0
  1 25  1  0
  1 26  1  0
  2  3  1  0
  2 19  1  0
  3  4  2  0
  3  5  1  0
  5  9  1  0
  5  6  1  0
  5 27  1  1
  6  7  1  0
  6 28  1  0
  6 29  1  0
  7 17  1  0
  7  8  1  0
  7 30  1  1
  8  9  1  0
  9 10  1  0
  9 31  1  1
 10 11  1  0
 10 17  1  0
 11 16  1  0
 11 12  1  0
 11 32  1  0
 12 13  1  0
 12 33  1  0
 12 34  1  0
 13 14  1  0
 13 35  1  0
 13 36  1  0
 14 15  1  0
 14 37  1  0
 14 38  1  0
 15 16  1  0
 15 39  1  0
 15 40  1  0
 16 41  1  0
 16 42  1  0
 17 18  2  0
 19 23  1  0
 19 20  1  0
 19 43  1  0
 20 21  1  0
 20 44  1  0
 20 45  1  0
 21 22  1  0
 21 46  1  0
 21 47  1  0
 22 23  1  0
 22 48  1  0
 22 49  1  0
 23 50  1  0
 23 51  1  0
M  END
>  <i_m_ct_stereo_status>  (10) 
1

>  <s_m_source_file>  (10) 
/var/tmp/pbs.5076255.sched01/tmppv1df_bs/0l6e7d74h.sdf

>  <i_m_source_file_index>  (10) 
4

>  <i_lp_mmshare_version>  (10) 
48012

>  <i_f3d_flags>  (10) 
0

>  <s_epik_input>  (10) 
W0NIMl0xW0NIMl1bQ0gyXVtDSDJdW0NIXTFOKFtDSDNdKUMoPU8pW0NASF0oW0NIMl1bQ0BIXTIzKVtDQEBIXShPMilOKEMzPU8pW0NIXTRbQ0gyXVtDSDJdW0NIMl1bQ0gyXVtDSDJdNA==

>  <s_epik_cmdline>  (10) 
J2VwaWtfcHl0aG9uJywgJy1waHQnLCAnMi4wJywgJy1waCcsICc3LjAnLCAnLXRuJywgJzgnLCAnLW1hJywgJzIwMCcsICctaW1hZScsICc8aW5maWxlLm1hZT4nLCAnLW9tYWUnLCAnPG91dGZpbGUubWFlPic=

>  <r_lp_tautomer_probability>  (10) 
1

>  <r_epik_Ionization_Penalty>  (10) 
3.13748e-09

>  <r_epik_Ionization_Penalty_Charging>  (10) 
0

>  <r_epik_Ionization_Penalty_Neutral>  (10) 
3.13748e-09

>  <r_epik_State_Penalty>  (10) 
-0

>  <r_epik_Charging_Adjusted_Penalty>  (10) 
0

>  <i_epik_Tot_Q>  (10) 
0

>  <i_epik_Tot_abs_Q>  (10) 
0

>  <s_epik_Chemistry_Notes>  (10) 
This compound contains an acetal/aminal-like group ( X-CH(R)-Y where X, Y are N, S, or O) that may be acid/base labile, releasing an aldehyde.

>  <s_lp_Force_Field>  (10) 
OPLS3e

>  <r_lp_Energy>  (10) 
47.2039

>  <b_lp_Chiralities_Consistent>  (10) 
1

>  <s_lp_Variant>  (10) 
3:0-1

>  <s_i_glide_gridfile>  (10) 
pfpi4k_grid

>  <i_i_glide_lignum>  (10) 
4

>  <i_i_glide_rotatable_bonds>  (10) 
4

>  <r_i_docking_score>  (10) 
-3.10121

>  <r_i_glide_ligand_efficiency>  (10) 
-0.134835

>  <r_i_glide_ligand_efficiency_sa>  (10) 
-0.383453

>  <r_i_glide_ligand_efficiency_ln>  (10) 
-0.7499

>  <r_i_glide_gscore>  (10) 
-3.10121

>  <r_i_glide_lipo>  (10) 
-0.0756077

>  <r_i_glide_hbond>  (10) 
-0.502991

>  <r_i_glide_metal>  (10) 
-0

>  <r_i_glide_rewards>  (10) 
-1.22436

>  <r_i_glide_evdw>  (10) 
-18.534

>  <r_i_glide_ecoul>  (10) 
-6.22182

>  <r_i_glide_erotb>  (10) 
0.727457

>  <r_i_glide_esite>  (10) 
-0.165726

>  <r_i_glide_emodel>  (10) 
-24.3416

>  <r_i_glide_energy>  (10) 
-24.7559

>  <r_i_glide_einternal>  (10) 
8.46092

>  <r_i_glide_intrahb_reward>  (10) 
-0

>  <i_i_glide_confnum>  (10) 
5

>  <i_i_glide_posenum>  (10) 
15

>  <r_i_glide_eff_state_penalty>  (10) 
0

>  <ligand_id>  (10) 
3

>  <original_smiles>  (10) 
CN(C(=O)C1CC2OC1N(C1CCCCC1)C2=O)C1CCCC1

>  <smiles>  (10) 
[H]C([H])([H])N(C(=O)C1([H])C2([H])OC([H])(C(=O)N2C2([H])C([H])([H])C([H])([H])C([H])([H])C([H])([H])C2([H])[H])C1([H])[H])C1([H])C([H])([H])C([H])([H])C([H])([H])C1([H])[H]

$$$$
3:0:1
     RDKit          3D

 51 54  0  0  1  0  0  0  0  0999 V2000
    2.3598   -3.7955    3.9106 C   0  0  0  0  0  0  0  0  0  0  0  0
    2.0632   -2.3476    4.1506 N   0  0  0  0  0  0  0  0  0  0  0  0
    2.6564   -1.3484    3.4246 C   0  0  0  0  0  0  0  0  0  0  0  0
    2.4976   -0.1429    3.6617 O   0  0  0  0  0  0  0  0  0  0  0  0
    3.5801   -1.7666    2.2459 C   0  0  2  0  0  0  0  0  0  0  0  0
    5.0487   -2.0035    2.7209 C   0  0  0  0  0  0  0  0  0  0  0  0
    5.7805   -1.0066    1.7998 C   0  0  2  0  0  0  0  0  0  0  0  0
    4.8200    0.0373    1.7648 O   0  0  0  0  0  0  0  0  0  0  0  0
    3.7664   -0.6782    1.1738 C   0  0  1  0  0  0  0  0  0  0  0  0
    4.4323   -1.3139   -0.0127 N   0  0  0  0  0  0  0  0  0  0  0  0
    3.7617   -1.6371   -1.2914 C   0  0  0  0  0  0  0  0  0  0  0  0
    3.1093   -3.0386   -1.2766 C   0  0  0  0  0  0  0  0  0  0  0  0
    2.3003   -3.2549   -2.5722 C   0  0  0  0  0  0  0  0  0  0  0  0
    3.1878   -3.0874   -3.8143 C   0  0  0  0  0  0  0  0  0  0  0  0
    3.8976   -1.7194   -3.8197 C   0  0  0  0  0  0  0  0  0  0  0  0
    4.6827   -1.5041   -2.5153 C   0  0  0  0  0  0  0  0  0  0  0  0
    5.7510   -1.5387    0.3720 C   0  0  0  0  0  0  0  0  0  0  0  0
    6.6710   -1.9665   -0.2733 O   0  0  0  0  0  0  0  0  0  0  0  0
    1.1785   -2.0437    5.3141 C   0  0  0  0  0  0  0  0  0  0  0  0
    1.7328   -2.6288    6.6348 C   0  0  0  0  0  0  0  0  0  0  0  0
    1.1192   -4.0441    6.7840 C   0  0  0  0  0  0  0  0  0  0  0  0
   -0.2806   -3.8552    6.1480 C   0  0  0  0  0  0  0  0  0  0  0  0
   -0.2180   -2.6748    5.1406 C   0  0  0  0  0  0  0  0  0  0  0  0
    2.9758   -4.0689    3.0384 H   0  0  0  0  0  0  0  0  0  0  0  0
    1.4105   -4.3312    3.7470 H   0  0  0  0  0  0  0  0  0  0  0  0
    2.8595   -4.1712    4.7604 H   0  0  0  0  0  0  0  0  0  0  0  0
    3.1767   -2.6131    1.7017 H   0  0  0  0  0  0  0  0  0  0  0  0
    5.2179   -1.7405    3.7709 H   0  0  0  0  0  0  0  0  0  0  0  0
    5.3919   -3.0197    2.5643 H   0  0  0  0  0  0  0  0  0  0  0  0
    6.7969   -0.6810    2.1491 H   0  0  0  0  0  0  0  0  0  0  0  0
    2.8865   -0.1375    0.8639 H   0  0  0  0  0  0  0  0  0  0  0  0
    2.9696   -0.8921   -1.4141 H   0  0  0  0  0  0  0  0  0  0  0  0
    3.8531   -3.8295   -1.1706 H   0  0  0  0  0  0  0  0  0  0  0  0
    2.4327   -3.1299   -0.4316 H   0  0  0  0  0  0  0  0  0  0  0  0
    1.8187   -4.2333   -2.5702 H   0  0  0  0  0  0  0  0  0  0  0  0
    1.4792   -2.5455   -2.6124 H   0  0  0  0  0  0  0  0  0  0  0  0
    3.9263   -3.8882   -3.8428 H   0  0  0  0  0  0  0  0  0  0  0  0
    2.5825   -3.1842   -4.7123 H   0  0  0  0  0  0  0  0  0  0  0  0
    4.5641   -1.6305   -4.6817 H   0  0  0  0  0  0  0  0  0  0  0  0
    3.1585   -0.9230   -3.9207 H   0  0  0  0  0  0  0  0  0  0  0  0
    5.1191   -0.5064   -2.5224 H   0  0  0  0  0  0  0  0  0  0  0  0
    5.5094   -2.2175   -2.5028 H   0  0  0  0  0  0  0  0  0  0  0  0
    1.0342   -0.9657    5.4545 H   0  0  0  0  0  0  0  0  0  0  0  0
    2.8204   -2.6038    6.6808 H   0  0  0  0  0  0  0  0  0  0  0  0
    1.3977   -1.9938    7.4592 H   0  0  0  0  0  0  0  0  0  0  0  0
    1.6410   -4.7883    6.2293 H   0  0  0  0  0  0  0  0  0  0  0  0
    1.0612   -4.3497    7.8441 H   0  0  0  0  0  0  0  0  0  0  0  0
   -0.5959   -4.7722    5.6489 H   0  0  0  0  0  0  0  0  0  0  0  0
   -1.0207   -3.6259    6.9278 H   0  0  0  0  0  0  0  0  0  0  0  0
   -1.0164   -1.9531    5.3334 H   0  0  0  0  0  0  0  0  0  0  0  0
   -0.3883   -2.9822    4.1053 H   0  0  0  0  0  0  0  0  0  0  0  0
  1  2  1  0
  1 24  1  0
  1 25  1  0
  1 26  1  0
  2  3  1  0
  2 19  1  0
  3  4  2  0
  3  5  1  0
  5  9  1  0
  5  6  1  0
  5 27  1  6
  6  7  1  0
  6 28  1  0
  6 29  1  0
  7 17  1  0
  7  8  1  0
  7 30  1  1
  8  9  1  0
  9 10  1  0
  9 31  1  6
 10 11  1  0
 10 17  1  0
 11 16  1  0
 11 12  1  0
 11 32  1  0
 12 13  1  0
 12 33  1  0
 12 34  1  0
 13 14  1  0
 13 35  1  0
 13 36  1  0
 14 15  1  0
 14 37  1  0
 14 38  1  0
 15 16  1  0
 15 39  1  0
 15 40  1  0
 16 41  1  0
 16 42  1  0
 17 18  2  0
 19 23  1  0
 19 20  1  0
 19 43  1  0
 20 21  1  0
 20 44  1  0
 20 45  1  0
 21 22  1  0
 21 46  1  0
 21 47  1  0
 22 23  1  0
 22 48  1  0
 22 49  1  0
 23 50  1  0
 23 51  1  0
M  END
>  <i_m_ct_stereo_status>  (11) 
1

>  <s_m_source_file>  (11) 
/var/tmp/pbs.5076255.sched01/tmppv1df_bs/0l6e7d74h.sdf

>  <i_m_source_file_index>  (11) 
4

>  <i_lp_mmshare_version>  (11) 
48012

>  <i_f3d_flags>  (11) 
0

>  <s_epik_input>  (11) 
W0NIMl0xW0NIMl1bQ0gyXVtDSDJdW0NIXTFOKFtDSDNdKUMoPU8pW0NASF0oW0NIMl1bQ0BIXTIzKVtDQEBIXShPMilOKEMzPU8pW0NIXTRbQ0gyXVtDSDJdW0NIMl1bQ0gyXVtDSDJdNA==

>  <s_epik_cmdline>  (11) 
J2VwaWtfcHl0aG9uJywgJy1waHQnLCAnMi4wJywgJy1waCcsICc3LjAnLCAnLXRuJywgJzgnLCAnLW1hJywgJzIwMCcsICctaW1hZScsICc8aW5maWxlLm1hZT4nLCAnLW9tYWUnLCAnPG91dGZpbGUubWFlPic=

>  <r_lp_tautomer_probability>  (11) 
1

>  <r_epik_Ionization_Penalty>  (11) 
3.13748e-09

>  <r_epik_Ionization_Penalty_Charging>  (11) 
0

>  <r_epik_Ionization_Penalty_Neutral>  (11) 
3.13748e-09

>  <r_epik_State_Penalty>  (11) 
-0

>  <r_epik_Charging_Adjusted_Penalty>  (11) 
0

>  <i_epik_Tot_Q>  (11) 
0

>  <i_epik_Tot_abs_Q>  (11) 
0

>  <s_epik_Chemistry_Notes>  (11) 
This compound contains an acetal/aminal-like group ( X-CH(R)-Y where X, Y are N, S, or O) that may be acid/base labile, releasing an aldehyde.

>  <s_lp_Force_Field>  (11) 
OPLS3e

>  <r_lp_Energy>  (11) 
47.2039

>  <b_lp_Chiralities_Consistent>  (11) 
1

>  <s_lp_Variant>  (11) 
3:0-1

>  <s_i_glide_gridfile>  (11) 
pfpi4k_grid

>  <i_i_glide_lignum>  (11) 
4

>  <i_i_glide_rotatable_bonds>  (11) 
4

>  <r_i_docking_score>  (11) 
-3.0763

>  <r_i_glide_ligand_efficiency>  (11) 
-0.133752

>  <r_i_glide_ligand_efficiency_sa>  (11) 
-0.380373

>  <r_i_glide_ligand_efficiency_ln>  (11) 
-0.743876

>  <r_i_glide_gscore>  (11) 
-3.0763

>  <r_i_glide_lipo>  (11) 
-0.639248

>  <r_i_glide_hbond>  (11) 
-0.209928

>  <r_i_glide_metal>  (11) 
-0

>  <r_i_glide_rewards>  (11) 
-1.33574

>  <r_i_glide_evdw>  (11) 
-23.2915

>  <r_i_glide_ecoul>  (11) 
-2.86127

>  <r_i_glide_erotb>  (11) 
0.727457

>  <r_i_glide_esite>  (11) 
-0.0250756

>  <r_i_glide_emodel>  (11) 
-25.7137

>  <r_i_glide_energy>  (11) 
-26.1528

>  <r_i_glide_einternal>  (11) 
9.61814

>  <r_i_glide_intrahb_reward>  (11) 
-0

>  <i_i_glide_confnum>  (11) 
5

>  <i_i_glide_posenum>  (11) 
5

>  <r_i_glide_eff_state_penalty>  (11) 
0

>  <ligand_id>  (11) 
3

>  <original_smiles>  (11) 
CN(C(=O)C1CC2OC1N(C1CCCCC1)C2=O)C1CCCC1

>  <smiles>  (11) 
[H]C([H])([H])N(C(=O)C1([H])C2([H])OC([H])(C(=O)N2C2([H])C([H])([H])C([H])([H])C([H])([H])C([H])([H])C2([H])[H])C1([H])[H])C1([H])C([H])([H])C([H])([H])C([H])([H])C1([H])[H]

$$$$
3:0:2
     RDKit          3D

 51 54  0  0  1  0  0  0  0  0999 V2000
    2.1758   -8.3411    2.1755 C   0  0  0  0  0  0  0  0  0  0  0  0
    3.2487   -7.3658    1.8593 N   0  0  0  0  0  0  0  0  0  0  0  0
    2.8701   -6.1318    1.4226 C   0  0  0  0  0  0  0  0  0  0  0  0
    1.6861   -5.8031    1.3137 O   0  0  0  0  0  0  0  0  0  0  0  0
    3.9510   -5.0911    0.9942 C   0  0  2  0  0  0  0  0  0  0  0  0
    4.9949   -4.7502    2.0980 C   0  0  0  0  0  0  0  0  0  0  0  0
    4.7930   -3.2331    2.2851 C   0  0  2  0  0  0  0  0  0  0  0  0
    3.3720   -3.1380    2.0653 O   0  0  0  0  0  0  0  0  0  0  0  0
    3.3860   -3.6576    0.7821 C   0  0  1  0  0  0  0  0  0  0  0  0
    4.3923   -2.8339    0.0647 N   0  0  0  0  0  0  0  0  0  0  0  0
    4.4755   -2.4024   -1.3394 C   0  0  0  0  0  0  0  0  0  0  0  0
    3.6923   -1.1062   -1.6101 C   0  0  0  0  0  0  0  0  0  0  0  0
    3.9550   -0.6155   -3.0365 C   0  0  0  0  0  0  0  0  0  0  0  0
    3.5979   -1.7019   -4.0689 C   0  0  0  0  0  0  0  0  0  0  0  0
    4.3318   -3.0300   -3.7798 C   0  0  0  0  0  0  0  0  0  0  0  0
    4.0778   -3.5133   -2.3455 C   0  0  0  0  0  0  0  0  0  0  0  0
    5.3573   -2.5391    1.0323 C   0  0  0  0  0  0  0  0  0  0  0  0
    6.3592   -1.9134    0.8903 O   0  0  0  0  0  0  0  0  0  0  0  0
    4.6423   -7.8492    2.0515 C   0  0  0  0  0  0  0  0  0  0  0  0
    4.9329   -9.1595    1.3246 C   0  0  0  0  0  0  0  0  0  0  0  0
    4.7152  -10.2660    2.3485 C   0  0  0  0  0  0  0  0  0  0  0  0
    5.1243   -9.6326    3.6841 C   0  0  0  0  0  0  0  0  0  0  0  0
    4.9710   -8.1075    3.5424 C   0  0  0  0  0  0  0  0  0  0  0  0
    1.1555   -7.9631    2.1301 H   0  0  0  0  0  0  0  0  0  0  0  0
    2.3033   -8.7149    3.1894 H   0  0  0  0  0  0  0  0  0  0  0  0
    2.2518   -9.1942    1.4975 H   0  0  0  0  0  0  0  0  0  0  0  0
    4.4114   -5.4448    0.0770 H   0  0  0  0  0  0  0  0  0  0  0  0
    4.7987   -5.2365    3.0632 H   0  0  0  0  0  0  0  0  0  0  0  0
    6.0175   -4.9884    1.7940 H   0  0  0  0  0  0  0  0  0  0  0  0
    5.1812   -2.8338    3.2292 H   0  0  0  0  0  0  0  0  0  0  0  0
    2.4316   -3.5649    0.2506 H   0  0  0  0  0  0  0  0  0  0  0  0
    5.5225   -2.1994   -1.5209 H   0  0  0  0  0  0  0  0  0  0  0  0
    2.6286   -1.2874   -1.4719 H   0  0  0  0  0  0  0  0  0  0  0  0
    4.0110   -0.3532   -0.8865 H   0  0  0  0  0  0  0  0  0  0  0  0
    3.3728    0.2811   -3.2298 H   0  0  0  0  0  0  0  0  0  0  0  0
    5.0113   -0.3497   -3.1172 H   0  0  0  0  0  0  0  0  0  0  0  0
    2.5143   -1.8821   -4.0633 H   0  0  0  0  0  0  0  0  0  0  0  0
    3.8474   -1.3416   -5.0687 H   0  0  0  0  0  0  0  0  0  0  0  0
    4.0266   -3.7986   -4.4887 H   0  0  0  0  0  0  0  0  0  0  0  0
    5.4017   -2.8989   -3.9153 H   0  0  0  0  0  0  0  0  0  0  0  0
    4.6791   -4.4025   -2.1534 H   0  0  0  0  0  0  0  0  0  0  0  0
    3.0334   -3.7881   -2.2231 H   0  0  0  0  0  0  0  0  0  0  0  0
    5.3977   -7.1675    1.6400 H   0  0  0  0  0  0  0  0  0  0  0  0
    4.3860   -9.2590    0.3962 H   0  0  0  0  0  0  0  0  0  0  0  0
    5.9861   -9.1542    1.0401 H   0  0  0  0  0  0  0  0  0  0  0  0
    3.6577  -10.5459    2.4084 H   0  0  0  0  0  0  0  0  0  0  0  0
    5.2834  -11.1640    2.0919 H   0  0  0  0  0  0  0  0  0  0  0  0
    4.5201   -9.9975    4.5096 H   0  0  0  0  0  0  0  0  0  0  0  0
    6.1691   -9.8665    3.9091 H   0  0  0  0  0  0  0  0  0  0  0  0
    5.8824   -7.5876    3.8402 H   0  0  0  0  0  0  0  0  0  0  0  0
    4.1977   -7.6971    4.1966 H   0  0  0  0  0  0  0  0  0  0  0  0
  1  2  1  0
  1 24  1  0
  1 25  1  0
  1 26  1  0
  2  3  1  0
  2 19  1  0
  3  4  2  0
  3  5  1  0
  5  9  1  0
  5  6  1  0
  5 27  1  6
  6  7  1  0
  6 28  1  0
  6 29  1  0
  7 17  1  0
  7  8  1  0
  7 30  1  1
  8  9  1  0
  9 10  1  0
  9 31  1  6
 10 11  1  0
 10 17  1  0
 11 16  1  0
 11 12  1  0
 11 32  1  0
 12 13  1  0
 12 33  1  0
 12 34  1  0
 13 14  1  0
 13 35  1  0
 13 36  1  0
 14 15  1  0
 14 37  1  0
 14 38  1  0
 15 16  1  0
 15 39  1  0
 15 40  1  0
 16 41  1  0
 16 42  1  0
 17 18  2  0
 19 23  1  0
 19 20  1  0
 19 43  1  0
 20 21  1  0
 20 44  1  0
 20 45  1  0
 21 22  1  0
 21 46  1  0
 21 47  1  0
 22 23  1  0
 22 48  1  0
 22 49  1  0
 23 50  1  0
 23 51  1  0
M  END
>  <i_m_ct_stereo_status>  (12) 
1

>  <s_m_source_file>  (12) 
/var/tmp/pbs.5076255.sched01/tmppv1df_bs/0l6e7d74h.sdf

>  <i_m_source_file_index>  (12) 
4

>  <i_lp_mmshare_version>  (12) 
48012

>  <i_f3d_flags>  (12) 
0

>  <s_epik_input>  (12) 
W0NIMl0xW0NIMl1bQ0gyXVtDSDJdW0NIXTFOKFtDSDNdKUMoPU8pW0NASF0oW0NIMl1bQ0BIXTIzKVtDQEBIXShPMilOKEMzPU8pW0NIXTRbQ0gyXVtDSDJdW0NIMl1bQ0gyXVtDSDJdNA==

>  <s_epik_cmdline>  (12) 
J2VwaWtfcHl0aG9uJywgJy1waHQnLCAnMi4wJywgJy1waCcsICc3LjAnLCAnLXRuJywgJzgnLCAnLW1hJywgJzIwMCcsICctaW1hZScsICc8aW5maWxlLm1hZT4nLCAnLW9tYWUnLCAnPG91dGZpbGUubWFlPic=

>  <r_lp_tautomer_probability>  (12) 
1

>  <r_epik_Ionization_Penalty>  (12) 
3.13748e-09

>  <r_epik_Ionization_Penalty_Charging>  (12) 
0

>  <r_epik_Ionization_Penalty_Neutral>  (12) 
3.13748e-09

>  <r_epik_State_Penalty>  (12) 
-0

>  <r_epik_Charging_Adjusted_Penalty>  (12) 
0

>  <i_epik_Tot_Q>  (12) 
0

>  <i_epik_Tot_abs_Q>  (12) 
0

>  <s_epik_Chemistry_Notes>  (12) 
This compound contains an acetal/aminal-like group ( X-CH(R)-Y where X, Y are N, S, or O) that may be acid/base labile, releasing an aldehyde.

>  <s_lp_Force_Field>  (12) 
OPLS3e

>  <r_lp_Energy>  (12) 
47.2039

>  <b_lp_Chiralities_Consistent>  (12) 
1

>  <s_lp_Variant>  (12) 
3:0-1

>  <s_i_glide_gridfile>  (12) 
pfpi4k_grid

>  <i_i_glide_lignum>  (12) 
4

>  <i_i_glide_rotatable_bonds>  (12) 
4

>  <r_i_docking_score>  (12) 
-2.59424

>  <r_i_glide_ligand_efficiency>  (12) 
-0.112793

>  <r_i_glide_ligand_efficiency_sa>  (12) 
-0.320768

>  <r_i_glide_ligand_efficiency_ln>  (12) 
-0.62731

>  <r_i_glide_gscore>  (12) 
-2.59424

>  <r_i_glide_lipo>  (12) 
-0.389817

>  <r_i_glide_hbond>  (12) 
-0.0797884

>  <r_i_glide_metal>  (12) 
-0

>  <r_i_glide_rewards>  (12) 
-1.35627

>  <r_i_glide_evdw>  (12) 
-23.3023

>  <r_i_glide_ecoul>  (12) 
-2.18212

>  <r_i_glide_erotb>  (12) 
0.727457

>  <r_i_glide_esite>  (12) 
-0.0033807

>  <r_i_glide_emodel>  (12) 
-21.7501

>  <r_i_glide_energy>  (12) 
-25.4845

>  <r_i_glide_einternal>  (12) 
14.1489

>  <r_i_glide_intrahb_reward>  (12) 
-0

>  <i_i_glide_confnum>  (12) 
4

>  <i_i_glide_posenum>  (12) 
27

>  <r_i_glide_eff_state_penalty>  (12) 
0

>  <ligand_id>  (12) 
3

>  <original_smiles>  (12) 
CN(C(=O)C1CC2OC1N(C1CCCCC1)C2=O)C1CCCC1

>  <smiles>  (12) 
[H]C([H])([H])N(C(=O)C1([H])C2([H])OC([H])(C(=O)N2C2([H])C([H])([H])C([H])([H])C([H])([H])C([H])([H])C2([H])[H])C1([H])[H])C1([H])C([H])([H])C([H])([H])C([H])([H])C1([H])[H]

$$$$
4:0:0
     RDKit          3D

 82 88  0  0  1  0  0  0  0  0999 V2000
    4.8772   -6.9030    8.3250 C   0  0  0  0  0  0  0  0  0  0  0  0
    4.7861   -6.6970    6.8146 C   0  0  0  0  0  0  0  0  0  0  0  0
    4.1125   -7.8575    6.0609 C   0  0  0  0  0  0  0  0  0  0  0  0
    3.9251   -7.5765    4.5489 C   0  0  2  0  0  0  0  0  0  0  0  0
    3.2217   -8.7386    3.8139 C   0  0  0  0  0  0  0  0  0  0  0  0
    1.7494   -8.9912    4.2311 C   0  0  0  0  0  0  0  0  0  0  0  0
    1.1346   -9.9457    3.3730 O   0  0  0  0  0  0  0  0  0  0  0  0
    1.5255  -11.2917    3.6258 C   0  0  0  0  0  0  0  0  0  0  0  0
    5.2455   -7.2408    3.8620 C   0  0  0  0  0  0  0  0  0  0  0  0
    6.3559   -8.1221    3.9754 C   0  0  0  0  0  0  0  0  0  0  0  0
    7.6232   -7.8028    3.4198 C   0  0  0  0  0  0  0  0  0  0  0  0
    7.8119   -6.6030    2.6791 C   0  0  0  0  0  0  0  0  0  0  0  0
    8.9964   -6.2551    2.1408 O   0  0  0  0  0  0  0  0  0  0  0  0
    6.6969   -5.7536    2.5264 C   0  0  0  0  0  0  0  0  0  0  0  0
    5.4569   -6.0440    3.1223 C   0  0  0  0  0  0  0  0  0  0  0  0
    4.6526   -4.7598    3.0155 C   0  0  1  0  0  0  0  0  0  0  0  0
    5.1438   -3.8528    4.1858 C   0  0  0  0  0  0  0  0  0  0  0  0
    4.0906   -3.5308    5.2565 C   0  0  0  0  0  0  0  0  0  0  0  0
    2.9585   -4.3774    5.1512 O   0  0  0  0  0  0  0  0  0  0  0  0
    2.2528   -4.3555    3.9153 C   0  0  1  0  0  0  0  0  0  0  0  0
    1.2784   -3.1632    3.8584 C   0  0  0  0  0  0  0  0  0  0  0  0
    1.9180   -1.7906    3.5549 C   0  0  0  0  0  0  0  0  0  0  0  0
    3.1625   -1.8617    2.6396 C   0  0  0  0  0  0  0  0  0  0  0  0
    3.1727   -3.1798    1.8462 C   0  0  1  0  0  0  0  0  0  0  0  0
    4.3226   -3.4210    0.8449 C   0  0  1  0  0  0  0  0  0  0  0  0
    5.2576   -4.4137    1.6426 C   0  0  1  0  0  0  0  0  0  0  0  0
    6.6617   -4.5838    1.7906 O   0  0  0  0  0  0  0  0  0  0  0  0
    3.6643   -4.1347   -0.3022 N   0  0  2  0  0  0  0  0  0  0  0  0
    2.8294   -3.2605   -1.1692 C   0  0  0  0  0  0  0  0  0  0  0  0
    3.4030   -3.0469   -2.5792 C   0  0  0  0  0  0  0  0  0  0  0  0
    4.2587   -1.7962   -2.8547 C   0  0  0  0  0  0  0  0  0  0  0  0
    3.0167   -1.1135   -3.4237 C   0  0  0  0  0  0  0  0  0  0  0  0
    2.4459   -2.5127   -3.6612 C   0  0  0  0  0  0  0  0  0  0  0  0
    2.9973   -5.4045    0.1019 C   0  0  0  0  0  0  0  0  0  0  0  0
    2.5410   -5.5314    1.6104 C   0  0  0  0  0  0  0  0  0  0  0  0
    3.1490   -4.5135    2.6431 C   0  0  1  0  0  0  0  0  0  0  0  0
    5.3407   -6.0332    8.7949 H   0  0  0  0  0  0  0  0  0  0  0  0
    5.4727   -7.7828    8.5703 H   0  0  0  0  0  0  0  0  0  0  0  0
    3.8826   -7.0186    8.7586 H   0  0  0  0  0  0  0  0  0  0  0  0
    4.1894   -5.8109    6.6604 H   0  0  0  0  0  0  0  0  0  0  0  0
    5.7827   -6.4962    6.4154 H   0  0  0  0  0  0  0  0  0  0  0  0
    4.6827   -8.7691    6.2173 H   0  0  0  0  0  0  0  0  0  0  0  0
    3.1387   -8.0379    6.5177 H   0  0  0  0  0  0  0  0  0  0  0  0
    3.2809   -6.7181    4.4569 H   0  0  0  0  0  0  0  0  0  0  0  0
    3.2060   -8.5320    2.7447 H   0  0  0  0  0  0  0  0  0  0  0  0
    3.8256   -9.6314    3.9282 H   0  0  0  0  0  0  0  0  0  0  0  0
    1.6571   -9.2975    5.2747 H   0  0  0  0  0  0  0  0  0  0  0  0
    1.1782   -8.0638    4.1375 H   0  0  0  0  0  0  0  0  0  0  0  0
    1.0249  -11.9620    2.9269 H   0  0  0  0  0  0  0  0  0  0  0  0
    1.2563  -11.5898    4.6404 H   0  0  0  0  0  0  0  0  0  0  0  0
    2.5960  -11.4377    3.4937 H   0  0  0  0  0  0  0  0  0  0  0  0
    6.2529   -9.0362    4.5316 H   0  0  0  0  0  0  0  0  0  0  0  0
    8.4490   -8.4696    3.5772 H   0  0  0  0  0  0  0  0  0  0  0  0
    9.6293   -6.9664    2.0064 H   0  0  0  0  0  0  0  0  0  0  0  0
    5.9617   -4.3488    4.7138 H   0  0  0  0  0  0  0  0  0  0  0  0
    5.6154   -2.9439    3.8231 H   0  0  0  0  0  0  0  0  0  0  0  0
    4.5315   -3.6579    6.2449 H   0  0  0  0  0  0  0  0  0  0  0  0
    3.7973   -2.4872    5.2417 H   0  0  0  0  0  0  0  0  0  0  0  0
    1.6251   -5.2474    3.9768 H   0  0  0  0  0  0  0  0  0  0  0  0
    0.5496   -3.3739    3.0798 H   0  0  0  0  0  0  0  0  0  0  0  0
    0.7124   -3.1046    4.7888 H   0  0  0  0  0  0  0  0  0  0  0  0
    1.1623   -1.1726    3.0685 H   0  0  0  0  0  0  0  0  0  0  0  0
    2.1649   -1.2624    4.4774 H   0  0  0  0  0  0  0  0  0  0  0  0
    3.1312   -1.0188    1.9485 H   0  0  0  0  0  0  0  0  0  0  0  0
    4.0698   -1.6935    3.2077 H   0  0  0  0  0  0  0  0  0  0  0  0
    2.2240   -3.0953    1.3083 H   0  0  0  0  0  0  0  0  0  0  0  0
    4.8376   -2.5023    0.5592 H   0  0  0  0  0  0  0  0  0  0  0  0
    5.1726   -5.2711    0.9755 H   0  0  0  0  0  0  0  0  0  0  0  0
    1.8169   -3.6556   -1.2834 H   0  0  0  0  0  0  0  0  0  0  0  0
    2.6659   -2.2826   -0.6991 H   0  0  0  0  0  0  0  0  0  0  0  0
    3.8903   -3.9482   -2.9753 H   0  0  0  0  0  0  0  0  0  0  0  0
    4.6584   -1.3203   -1.9541 H   0  0  0  0  0  0  0  0  0  0  0  0
    5.0266   -1.9664   -3.6105 H   0  0  0  0  0  0  0  0  0  0  0  0
    2.4598   -0.5630   -2.6635 H   0  0  0  0  0  0  0  0  0  0  0  0
    3.1670   -0.5212   -4.3208 H   0  0  0  0  0  0  0  0  0  0  0  0
    2.6785   -2.8979   -4.6572 H   0  0  0  0  0  0  0  0  0  0  0  0
    1.3890   -2.6553   -3.4267 H   0  0  0  0  0  0  0  0  0  0  0  0
    2.1206   -5.6348   -0.5170 H   0  0  0  0  0  0  0  0  0  0  0  0
    3.6766   -6.2421   -0.1184 H   0  0  0  0  0  0  0  0  0  0  0  0
    1.4624   -5.3753    1.6214 H   0  0  0  0  0  0  0  0  0  0  0  0
    2.6835   -6.5504    1.9495 H   0  0  0  0  0  0  0  0  0  0  0  0
    4.4298   -4.4295   -0.9133 H   0  0  0  0  0  0  0  0  0  0  0  0
  1  2  1  0
  1 37  1  0
  1 38  1  0
  1 39  1  0
  2  3  1  0
  2 40  1  0
  2 41  1  0
  3  4  1  0
  3 42  1  0
  3 43  1  0
  4  5  1  0
  4  9  1  0
  4 44  1  1
  5  6  1  0
  5 45  1  0
  5 46  1  0
  6  7  1  0
  6 47  1  0
  6 48  1  0
  7  8  1  0
  8 49  1  0
  8 50  1  0
  8 51  1  0
  9 15  2  0
  9 10  1  0
 10 11  2  0
 10 52  1  0
 11 12  1  0
 11 53  1  0
 12 13  1  0
 12 14  2  0
 13 54  1  0
 14 27  1  0
 14 15  1  0
 15 16  1  0
 16 26  1  0
 16 36  1  0
 16 17  1  1
 17 18  1  0
 17 55  1  0
 17 56  1  0
 18 19  1  0
 18 57  1  0
 18 58  1  0
 19 20  1  0
 20 36  1  0
 20 21  1  0
 20 59  1  1
 21 22  1  0
 21 60  1  0
 21 61  1  0
 22 23  1  0
 22 62  1  0
 22 63  1  0
 23 24  1  0
 23 64  1  0
 23 65  1  0
 24 36  1  0
 24 25  1  0
 24 66  1  6
 25 26  1  0
 25 28  1  0
 25 67  1  6
 26 27  1  0
 26 68  1  6
 28 29  1  0
 28 34  1  0
 28 82  1  6
 29 30  1  0
 29 69  1  0
 29 70  1  0
 30 33  1  0
 30 31  1  0
 30 71  1  0
 31 32  1  0
 31 72  1  0
 31 73  1  0
 32 33  1  0
 32 74  1  0
 32 75  1  0
 33 76  1  0
 33 77  1  0
 34 35  1  0
 34 78  1  0
 34 79  1  0
 36 35  1  6
 35 80  1  0
 35 81  1  0
M  CHG  1  28   1
M  END
>  <i_m_ct_stereo_status>  (13) 
1

>  <s_m_source_file>  (13) 
/var/tmp/pbs.5076255.sched01/tmppv1df_bs/0l6e7d74h.sdf

>  <i_m_source_file_index>  (13) 
5

>  <i_lp_mmshare_version>  (13) 
48012

>  <i_f3d_flags>  (13) 
0

>  <s_epik_input>  (13) 
W0NIM11PW0NIMl1bQ0gyXVtDQEBIXShbQ0gyXVtDSDJdW0NIM10pYyhbY0hdW2NIXWMxW09IXSljMmMxT1tDQEBIXTNbQ0BASF0oTihbQ0gyXVtDSDJdNClbQ0gyXVtDSF01W0NIMl1bQ0gyXVtDSDJdNSlbQ0BASF02W0NIMl1bQ0gyXVtDSDJdW0NAQEhdKFtDQEBdNDZbQ0BAXTIzNylPW0NIMl1bQ0gyXTc=

>  <s_epik_cmdline>  (13) 
J2VwaWtfcHl0aG9uJywgJy1waHQnLCAnMi4wJywgJy1waCcsICc3LjAnLCAnLXRuJywgJzgnLCAnLW1hJywgJzIwMCcsICctaW1hZScsICc8aW5maWxlLm1hZT4nLCAnLW9tYWUnLCAnPG91dGZpbGUubWFlPic=

>  <r_lp_tautomer_probability>  (13) 
1

>  <r_epik_Ionization_Penalty>  (13) 
0.0273513

>  <r_epik_Ionization_Penalty_Charging>  (13) 
0.0252508

>  <r_epik_Ionization_Penalty_Neutral>  (13) 
0.00210056

>  <r_epik_State_Penalty>  (13) 
0.020545

>  <r_epik_Charging_Adjusted_Penalty>  (13) 
0.0457958

>  <i_epik_Tot_Q>  (13) 
1

>  <i_epik_Tot_abs_Q>  (13) 
1

>  <s_lp_Force_Field>  (13) 
OPLS3e

>  <r_lp_Energy>  (13) 
154.342

>  <b_lp_Chiralities_Consistent>  (13) 
1

>  <s_lp_Variant>  (13) 
4:0-1

>  <s_i_glide_gridfile>  (13) 
pfpi4k_grid

>  <i_i_glide_lignum>  (13) 
5

>  <i_i_glide_rotatable_bonds>  (13) 
9

>  <r_i_docking_score>  (13) 
-2.69255

>  <r_i_glide_ligand_efficiency>  (13) 
-0.0747929

>  <r_i_glide_ligand_efficiency_sa>  (13) 
-0.246961

>  <r_i_glide_ligand_efficiency_ln>  (13) 
-0.587441

>  <r_i_glide_gscore>  (13) 
-2.69255

>  <r_i_glide_lipo>  (13) 
-0.792117

>  <r_i_glide_hbond>  (13) 
0

>  <r_i_glide_metal>  (13) 
-0

>  <r_i_glide_rewards>  (13) 
-0.0224915

>  <r_i_glide_evdw>  (13) 
-24.1608

>  <r_i_glide_ecoul>  (13) 
-7.64731

>  <r_i_glide_erotb>  (13) 
0.495981

>  <r_i_glide_esite>  (13) 
-0.0187808

>  <r_i_glide_emodel>  (13) 
-34.8185

>  <r_i_glide_energy>  (13) 
-31.8081

>  <r_i_glide_einternal>  (13) 
4.4156

>  <r_i_glide_intrahb_reward>  (13) 
-0

>  <i_i_glide_confnum>  (13) 
5

>  <i_i_glide_posenum>  (13) 
40

>  <r_i_glide_eff_state_penalty>  (13) 
0

>  <ligand_id>  (13) 
4

>  <original_smiles>  (13) 
CCCC(CCOC)c1ccc(O)c2c1C13CCOC4CCCC5C(C1O2)N(CC1CCC1)CCC453

>  <smiles>  (13) 
[H]Oc1c([H])c([H])c(C([H])(C([H])([H])C([H])([H])OC([H])([H])[H])C([H])([H])C([H])([H])C([H])([H])[H])c2c1OC1([H])C23C([H])([H])C([H])([H])OC2([H])C([H])([H])C([H])([H])C([H])([H])C4([H])C23C([H])([H])C([H])([H])[N+]([H])(C([H])([H])C2([H])C([H])([H])C([H])([H])C2([H])[H])C14[H]

$$$$
4:0:1
     RDKit          3D

 82 88  0  0  1  0  0  0  0  0999 V2000
    3.3746   -9.9790    7.7882 C   0  0  0  0  0  0  0  0  0  0  0  0
    3.5495   -8.9878    6.6293 C   0  0  0  0  0  0  0  0  0  0  0  0
    2.5363   -9.2473    5.4880 C   0  0  0  0  0  0  0  0  0  0  0  0
    2.6848   -8.3006    4.2643 C   0  0  2  0  0  0  0  0  0  0  0  0
    1.6391   -8.6255    3.1636 C   0  0  0  0  0  0  0  0  0  0  0  0
    0.1615   -8.6113    3.6097 C   0  0  0  0  0  0  0  0  0  0  0  0
   -0.6266   -8.4634    2.4359 O   0  0  0  0  0  0  0  0  0  0  0  0
   -2.0076   -8.7122    2.6353 C   0  0  0  0  0  0  0  0  0  0  0  0
    4.1181   -8.2357    3.7105 C   0  0  0  0  0  0  0  0  0  0  0  0
    4.9241   -9.4244    3.7257 C   0  0  0  0  0  0  0  0  0  0  0  0
    6.2747   -9.4132    3.3453 C   0  0  0  0  0  0  0  0  0  0  0  0
    6.8733   -8.2353    2.8555 C   0  0  0  0  0  0  0  0  0  0  0  0
    8.1789   -8.2383    2.5047 O   0  0  0  0  0  0  0  0  0  0  0  0
    6.0825   -7.0839    2.7568 C   0  0  0  0  0  0  0  0  0  0  0  0
    4.7354   -7.0774    3.2042 C   0  0  0  0  0  0  0  0  0  0  0  0
    4.3676   -5.5833    3.2475 C   0  0  1  0  0  0  0  0  0  0  0  0
    4.9742   -5.0558    4.5912 C   0  0  0  0  0  0  0  0  0  0  0  0
    3.9453   -4.5935    5.6394 C   0  0  0  0  0  0  0  0  0  0  0  0
    2.6339   -5.0148    5.3027 O   0  0  0  0  0  0  0  0  0  0  0  0
    2.1176   -4.6060    4.0384 C   0  0  1  0  0  0  0  0  0  0  0  0
    1.5340   -3.1784    4.1266 C   0  0  0  0  0  0  0  0  0  0  0  0
    2.5782   -2.0314    4.0958 C   0  0  0  0  0  0  0  0  0  0  0  0
    3.8515   -2.3395    3.2785 C   0  0  0  0  0  0  0  0  0  0  0  0
    3.5763   -3.4664    2.2625 C   0  0  1  0  0  0  0  0  0  0  0  0
    4.7304   -3.9176    1.3250 C   0  0  1  0  0  0  0  0  0  0  0  0
    5.2072   -5.2521    1.9985 C   0  0  1  0  0  0  0  0  0  0  0  0
    6.4868   -5.8654    2.2362 O   0  0  0  0  0  0  0  0  0  0  0  0
    4.0497   -4.2193    0.0043 N   0  0  2  0  0  0  0  0  0  0  0  0
    3.5550   -3.0283   -0.7501 C   0  0  0  0  0  0  0  0  0  0  0  0
    3.9455   -3.0737   -2.2332 C   0  0  0  0  0  0  0  0  0  0  0  0
    5.2229   -2.3257   -2.6584 C   0  0  0  0  0  0  0  0  0  0  0  0
    4.3343   -1.1547   -3.0815 C   0  0  0  0  0  0  0  0  0  0  0  0
    3.1807   -2.1359   -3.1881 C   0  0  0  0  0  0  0  0  0  0  0  0
    2.9398   -5.2356    0.1360 C   0  0  0  0  0  0  0  0  0  0  0  0
    2.3054   -5.4131    1.5666 C   0  0  0  0  0  0  0  0  0  0  0  0
    3.0633   -4.8337    2.8152 C   0  0  1  0  0  0  0  0  0  0  0  0
    4.1133   -9.7762    8.5626 H   0  0  0  0  0  0  0  0  0  0  0  0
    3.5120  -11.0026    7.4389 H   0  0  0  0  0  0  0  0  0  0  0  0
    2.3766   -9.8964    8.2126 H   0  0  0  0  0  0  0  0  0  0  0  0
    3.4409   -7.9581    6.9803 H   0  0  0  0  0  0  0  0  0  0  0  0
    4.5820   -9.0793    6.2883 H   0  0  0  0  0  0  0  0  0  0  0  0
    2.6094  -10.2867    5.1513 H   0  0  0  0  0  0  0  0  0  0  0  0
    1.5308   -9.1649    5.9017 H   0  0  0  0  0  0  0  0  0  0  0  0
    2.4715   -7.3096    4.6687 H   0  0  0  0  0  0  0  0  0  0  0  0
    1.6433   -7.8837    2.4736 H   0  0  0  0  0  0  0  0  0  0  0  0
    1.8873   -9.5868    2.6591 H   0  0  0  0  0  0  0  0  0  0  0  0
   -0.1321   -9.5145    4.1630 H   0  0  0  0  0  0  0  0  0  0  0  0
   -0.0541   -7.7377    4.2404 H   0  0  0  0  0  0  0  0  0  0  0  0
   -2.5568   -8.6591    1.6971 H   0  0  0  0  0  0  0  0  0  0  0  0
   -2.4342   -7.9887    3.3286 H   0  0  0  0  0  0  0  0  0  0  0  0
   -2.1512   -9.7127    3.0358 H   0  0  0  0  0  0  0  0  0  0  0  0
    4.5312  -10.3607    4.1153 H   0  0  0  0  0  0  0  0  0  0  0  0
    6.8637  -10.3160    3.4651 H   0  0  0  0  0  0  0  0  0  0  0  0
    8.4820   -7.4343    2.0961 H   0  0  0  0  0  0  0  0  0  0  0  0
    5.5620   -5.8327    5.0828 H   0  0  0  0  0  0  0  0  0  0  0  0
    5.7282   -4.2769    4.4249 H   0  0  0  0  0  0  0  0  0  0  0  0
    4.2014   -5.0029    6.6184 H   0  0  0  0  0  0  0  0  0  0  0  0
    3.9675   -3.5221    5.7809 H   0  0  0  0  0  0  0  0  0  0  0  0
    1.2745   -5.2757    3.9181 H   0  0  0  0  0  0  0  0  0  0  0  0
    0.8587   -3.0522    3.2761 H   0  0  0  0  0  0  0  0  0  0  0  0
    0.9067   -3.0797    5.0131 H   0  0  0  0  0  0  0  0  0  0  0  0
    2.0885   -1.1618    3.6669 H   0  0  0  0  0  0  0  0  0  0  0  0
    2.8553   -1.7339    5.1051 H   0  0  0  0  0  0  0  0  0  0  0  0
    4.1446   -1.4428    2.7257 H   0  0  0  0  0  0  0  0  0  0  0  0
    4.6979   -2.5480    3.9277 H   0  0  0  0  0  0  0  0  0  0  0  0
    2.7784   -3.0058    1.6856 H   0  0  0  0  0  0  0  0  0  0  0  0
    5.5230   -3.1724    1.2247 H   0  0  0  0  0  0  0  0  0  0  0  0
    4.9537   -5.9536    1.1958 H   0  0  0  0  0  0  0  0  0  0  0  0
    2.4604   -2.9418   -0.6711 H   0  0  0  0  0  0  0  0  0  0  0  0
    3.9181   -2.1162   -0.2796 H   0  0  0  0  0  0  0  0  0  0  0  0
    3.9413   -4.0905   -2.6414 H   0  0  0  0  0  0  0  0  0  0  0  0
    5.9052   -2.1159   -1.8344 H   0  0  0  0  0  0  0  0  0  0  0  0
    5.7282   -2.8100   -3.4951 H   0  0  0  0  0  0  0  0  0  0  0  0
    4.1860   -0.4338   -2.2893 H   0  0  0  0  0  0  0  0  0  0  0  0
    4.5996   -0.6775   -4.0226 H   0  0  0  0  0  0  0  0  0  0  0  0
    3.0786   -2.5504   -4.1852 H   0  0  0  0  0  0  0  0  0  0  0  0
    2.2250   -1.7755   -2.8049 H   0  0  0  0  0  0  0  0  0  0  0  0
    2.1689   -5.0909   -0.6087 H   0  0  0  0  0  0  0  0  0  0  0  0
    3.3676   -6.1858   -0.1358 H   0  0  0  0  0  0  0  0  0  0  0  0
    1.3069   -4.9538    1.5526 H   0  0  0  0  0  0  0  0  0  0  0  0
    2.2650   -6.4368    1.5301 H   0  0  0  0  0  0  0  0  0  0  0  0
    4.7503   -4.6501   -0.5953 H   0  0  0  0  0  0  0  0  0  0  0  0
  1  2  1  0
  1 37  1  0
  1 38  1  0
  1 39  1  0
  2  3  1  0
  2 40  1  0
  2 41  1  0
  3  4  1  0
  3 42  1  0
  3 43  1  0
  4  5  1  0
  4  9  1  0
  4 44  1  1
  5  6  1  0
  5 45  1  0
  5 46  1  0
  6  7  1  0
  6 47  1  0
  6 48  1  0
  7  8  1  0
  8 49  1  0
  8 50  1  0
  8 51  1  0
  9 15  2  0
  9 10  1  0
 10 11  2  0
 10 52  1  0
 11 12  1  0
 11 53  1  0
 12 13  1  0
 12 14  2  0
 13 54  1  0
 14 27  1  0
 14 15  1  0
 15 16  1  0
 16 26  1  0
 16 36  1  0
 16 17  1  1
 17 18  1  0
 17 55  1  0
 17 56  1  0
 18 19  1  0
 18 57  1  0
 18 58  1  0
 19 20  1  0
 20 36  1  0
 20 21  1  0
 20 59  1  6
 21 22  1  0
 21 60  1  0
 21 61  1  0
 22 23  1  0
 22 62  1  0
 22 63  1  0
 23 24  1  0
 23 64  1  0
 23 65  1  0
 24 36  1  0
 24 25  1  0
 24 66  1  6
 25 26  1  0
 25 28  1  0
 25 67  1  6
 26 27  1  0
 26 68  1  6
 28 29  1  0
 28 34  1  0
 28 82  1  6
 29 30  1  0
 29 69  1  0
 29 70  1  0
 30 33  1  0
 30 31  1  0
 30 71  1  0
 31 32  1  0
 31 72  1  0
 31 73  1  0
 32 33  1  0
 32 74  1  0
 32 75  1  0
 33 76  1  0
 33 77  1  0
 34 35  1  0
 34 78  1  0
 34 79  1  0
 36 35  1  6
 35 80  1  0
 35 81  1  0
M  CHG  1  28   1
M  END
>  <i_m_ct_stereo_status>  (14) 
1

>  <s_m_source_file>  (14) 
/var/tmp/pbs.5076255.sched01/tmppv1df_bs/0l6e7d74h.sdf

>  <i_m_source_file_index>  (14) 
5

>  <i_lp_mmshare_version>  (14) 
48012

>  <i_f3d_flags>  (14) 
0

>  <s_epik_input>  (14) 
W0NIM11PW0NIMl1bQ0gyXVtDQEBIXShbQ0gyXVtDSDJdW0NIM10pYyhbY0hdW2NIXWMxW09IXSljMmMxT1tDQEBIXTNbQ0BASF0oTihbQ0gyXVtDSDJdNClbQ0gyXVtDSF01W0NIMl1bQ0gyXVtDSDJdNSlbQ0BASF02W0NIMl1bQ0gyXVtDSDJdW0NAQEhdKFtDQEBdNDZbQ0BAXTIzNylPW0NIMl1bQ0gyXTc=

>  <s_epik_cmdline>  (14) 
J2VwaWtfcHl0aG9uJywgJy1waHQnLCAnMi4wJywgJy1waCcsICc3LjAnLCAnLXRuJywgJzgnLCAnLW1hJywgJzIwMCcsICctaW1hZScsICc8aW5maWxlLm1hZT4nLCAnLW9tYWUnLCAnPG91dGZpbGUubWFlPic=

>  <r_lp_tautomer_probability>  (14) 
1

>  <r_epik_Ionization_Penalty>  (14) 
0.0273513

>  <r_epik_Ionization_Penalty_Charging>  (14) 
0.0252508

>  <r_epik_Ionization_Penalty_Neutral>  (14) 
0.00210056

>  <r_epik_State_Penalty>  (14) 
0.020545

>  <r_epik_Charging_Adjusted_Penalty>  (14) 
0.0457958

>  <i_epik_Tot_Q>  (14) 
1

>  <i_epik_Tot_abs_Q>  (14) 
1

>  <s_lp_Force_Field>  (14) 
OPLS3e

>  <r_lp_Energy>  (14) 
154.342

>  <b_lp_Chiralities_Consistent>  (14) 
1

>  <s_lp_Variant>  (14) 
4:0-1

>  <s_i_glide_gridfile>  (14) 
pfpi4k_grid

>  <i_i_glide_lignum>  (14) 
5

>  <i_i_glide_rotatable_bonds>  (14) 
9

>  <r_i_docking_score>  (14) 
-1.84706

>  <r_i_glide_ligand_efficiency>  (14) 
-0.0513072

>  <r_i_glide_ligand_efficiency_sa>  (14) 
-0.169413

>  <r_i_glide_ligand_efficiency_ln>  (14) 
-0.402978

>  <r_i_glide_gscore>  (14) 
-1.84706

>  <r_i_glide_lipo>  (14) 
-0.498256

>  <r_i_glide_hbond>  (14) 
0

>  <r_i_glide_metal>  (14) 
-0

>  <r_i_glide_rewards>  (14) 
-0.0224915

>  <r_i_glide_evdw>  (14) 
-24.9072

>  <r_i_glide_ecoul>  (14) 
-3.80895

>  <r_i_glide_erotb>  (14) 
0.495981

>  <r_i_glide_esite>  (14) 
-0.00559015

>  <r_i_glide_emodel>  (14) 
-27.1626

>  <r_i_glide_energy>  (14) 
-28.7161

>  <r_i_glide_einternal>  (14) 
3.48695

>  <r_i_glide_intrahb_reward>  (14) 
-0

>  <i_i_glide_confnum>  (14) 
5

>  <i_i_glide_posenum>  (14) 
2

>  <r_i_glide_eff_state_penalty>  (14) 
0

>  <ligand_id>  (14) 
4

>  <original_smiles>  (14) 
CCCC(CCOC)c1ccc(O)c2c1C13CCOC4CCCC5C(C1O2)N(CC1CCC1)CCC453

>  <smiles>  (14) 
[H]Oc1c([H])c([H])c(C([H])(C([H])([H])C([H])([H])OC([H])([H])[H])C([H])([H])C([H])([H])C([H])([H])[H])c2c1OC1([H])C23C([H])([H])C([H])([H])OC2([H])C([H])([H])C([H])([H])C([H])([H])C4([H])C23C([H])([H])C([H])([H])[N+]([H])(C([H])([H])C2([H])C([H])([H])C([H])([H])C2([H])[H])C14[H]

$$$$
4:0:2
     RDKit          3D

 82 88  0  0  1  0  0  0  0  0999 V2000
    8.8994   -3.9366   -0.3645 C   0  0  0  0  0  0  0  0  0  0  0  0
    8.2529   -2.6020   -0.7409 C   0  0  0  0  0  0  0  0  0  0  0  0
    7.2514   -2.1050    0.3130 C   0  0  0  0  0  0  0  0  0  0  0  0
    6.0454   -3.0462    0.5351 C   0  0  2  0  0  0  0  0  0  0  0  0
    5.3570   -3.3703   -0.7950 C   0  0  0  0  0  0  0  0  0  0  0  0
    4.7346   -2.2652   -1.6650 C   0  0  0  0  0  0  0  0  0  0  0  0
    3.9724   -2.8860   -2.7130 O   0  0  0  0  0  0  0  0  0  0  0  0
    4.6790   -3.8320   -3.5228 C   0  0  0  0  0  0  0  0  0  0  0  0
    5.1051   -2.6108    1.6593 C   0  0  0  0  0  0  0  0  0  0  0  0
    4.9649   -1.2318    1.9546 C   0  0  0  0  0  0  0  0  0  0  0  0
    4.1897   -0.7834    3.0492 C   0  0  0  0  0  0  0  0  0  0  0  0
    3.4870   -1.7089    3.8425 C   0  0  0  0  0  0  0  0  0  0  0  0
    2.7261   -1.2533    4.8919 O   0  0  0  0  0  0  0  0  0  0  0  0
    3.5701   -3.0769    3.5399 C   0  0  0  0  0  0  0  0  0  0  0  0
    4.3851   -3.5347    2.4763 C   0  0  0  0  0  0  0  0  0  0  0  0
    4.4707   -5.0480    2.6968 C   0  0  1  0  0  0  0  0  0  0  0  0
    5.5647   -5.2426    3.8088 C   0  0  0  0  0  0  0  0  0  0  0  0
    6.8371   -5.9775    3.3493 C   0  0  0  0  0  0  0  0  0  0  0  0
    6.9174   -6.0558    1.9395 O   0  0  0  0  0  0  0  0  0  0  0  0
    5.8454   -6.7223    1.2718 C   0  0  1  0  0  0  0  0  0  0  0  0
    6.0383   -8.2573    1.2978 C   0  0  0  0  0  0  0  0  0  0  0  0
    5.6573   -8.9517    2.6270 C   0  0  0  0  0  0  0  0  0  0  0  0
    4.5309   -8.2558    3.4179 C   0  0  0  0  0  0  0  0  0  0  0  0
    3.6868   -7.3752    2.4919 C   0  0  1  0  0  0  0  0  0  0  0  0
    2.4814   -6.6026    3.0739 C   0  0  1  0  0  0  0  0  0  0  0  0
    3.0260   -5.1393    3.2022 C   0  0  1  0  0  0  0  0  0  0  0  0
    2.9076   -4.1152    4.1765 O   0  0  0  0  0  0  0  0  0  0  0  0
    1.4169   -6.6770    1.9898 N   0  0  2  0  0  0  0  0  0  0  0  0
    0.7284   -7.9843    1.7612 C   0  0  0  0  0  0  0  0  0  0  0  0
   -0.0421   -8.4998    2.9534 C   0  0  0  0  0  0  0  0  0  0  0  0
    0.7190   -9.3419    3.9763 C   0  0  0  0  0  0  0  0  0  0  0  0
    0.2012  -10.5976    3.2841 C   0  0  0  0  0  0  0  0  0  0  0  0
   -0.9185   -9.7254    2.7165 C   0  0  0  0  0  0  0  0  0  0  0  0
    1.9035   -6.1267    0.6782 C   0  0  0  0  0  0  0  0  0  0  0  0
    3.4506   -6.1474    0.4434 C   0  0  0  0  0  0  0  0  0  0  0  0
    4.4069   -6.2595    1.6860 C   0  0  1  0  0  0  0  0  0  0  0  0
    9.6109   -4.2346   -1.1305 H   0  0  0  0  0  0  0  0  0  0  0  0
    8.1660   -4.7385   -0.2932 H   0  0  0  0  0  0  0  0  0  0  0  0
    9.4100   -3.8609    0.5966 H   0  0  0  0  0  0  0  0  0  0  0  0
    9.0314   -1.8537   -0.8462 H   0  0  0  0  0  0  0  0  0  0  0  0
    7.7790   -2.6781   -1.7232 H   0  0  0  0  0  0  0  0  0  0  0  0
    7.7470   -1.9717    1.2764 H   0  0  0  0  0  0  0  0  0  0  0  0
    6.8963   -1.1279   -0.0133 H   0  0  0  0  0  0  0  0  0  0  0  0
    6.4474   -3.9928    0.8834 H   0  0  0  0  0  0  0  0  0  0  0  0
    6.0566   -4.0123   -1.3419 H   0  0  0  0  0  0  0  0  0  0  0  0
    4.4828   -3.8847   -0.5893 H   0  0  0  0  0  0  0  0  0  0  0  0
    4.0206   -1.6836   -1.0577 H   0  0  0  0  0  0  0  0  0  0  0  0
    5.4943   -1.5839   -2.0746 H   0  0  0  0  0  0  0  0  0  0  0  0
    4.0615   -4.1937   -4.3471 H   0  0  0  0  0  0  0  0  0  0  0  0
    4.9529   -4.7327   -2.9721 H   0  0  0  0  0  0  0  0  0  0  0  0
    5.5941   -3.3880   -3.9186 H   0  0  0  0  0  0  0  0  0  0  0  0
    5.4859   -0.4828    1.3844 H   0  0  0  0  0  0  0  0  0  0  0  0
    4.1631    0.2746    3.2403 H   0  0  0  0  0  0  0  0  0  0  0  0
    2.7589   -0.3197    4.9856 H   0  0  0  0  0  0  0  0  0  0  0  0
    5.8943   -4.2770    4.1969 H   0  0  0  0  0  0  0  0  0  0  0  0
    5.1518   -5.7069    4.7021 H   0  0  0  0  0  0  0  0  0  0  0  0
    7.7265   -5.4679    3.7132 H   0  0  0  0  0  0  0  0  0  0  0  0
    6.9224   -6.9587    3.7963 H   0  0  0  0  0  0  0  0  0  0  0  0
    5.9981   -6.4055    0.2406 H   0  0  0  0  0  0  0  0  0  0  0  0
    5.4043   -8.6727    0.5140 H   0  0  0  0  0  0  0  0  0  0  0  0
    7.0583   -8.5214    1.0149 H   0  0  0  0  0  0  0  0  0  0  0  0
    5.3470   -9.9678    2.3872 H   0  0  0  0  0  0  0  0  0  0  0  0
    6.5259   -9.0707    3.2701 H   0  0  0  0  0  0  0  0  0  0  0  0
    3.9005   -9.0237    3.8522 H   0  0  0  0  0  0  0  0  0  0  0  0
    4.9111   -7.7168    4.2733 H   0  0  0  0  0  0  0  0  0  0  0  0
    3.3689   -8.1216    1.7696 H   0  0  0  0  0  0  0  0  0  0  0  0
    2.1109   -6.9878    4.0148 H   0  0  0  0  0  0  0  0  0  0  0  0
    2.3506   -4.6353    2.5056 H   0  0  0  0  0  0  0  0  0  0  0  0
    0.0378   -7.8413    0.9231 H   0  0  0  0  0  0  0  0  0  0  0  0
    1.4279   -8.7408    1.3926 H   0  0  0  0  0  0  0  0  0  0  0  0
   -0.6155   -7.7068    3.4305 H   0  0  0  0  0  0  0  0  0  0  0  0
    1.7966   -9.2429    3.9265 H   0  0  0  0  0  0  0  0  0  0  0  0
    0.3509   -9.2307    4.9932 H   0  0  0  0  0  0  0  0  0  0  0  0
    0.8692  -10.9758    2.5081 H   0  0  0  0  0  0  0  0  0  0  0  0
   -0.1066  -11.3848    3.9754 H   0  0  0  0  0  0  0  0  0  0  0  0
   -1.8147   -9.7442    3.3146 H   0  0  0  0  0  0  0  0  0  0  0  0
   -1.1727   -9.9438    1.6858 H   0  0  0  0  0  0  0  0  0  0  0  0
    1.3950   -6.5773   -0.1777 H   0  0  0  0  0  0  0  0  0  0  0  0
    1.5611   -5.0918    0.6042 H   0  0  0  0  0  0  0  0  0  0  0  0
    3.7482   -6.8989   -0.2943 H   0  0  0  0  0  0  0  0  0  0  0  0
    3.5005   -5.2330   -0.0370 H   0  0  0  0  0  0  0  0  0  0  0  0
    0.6601   -6.0553    2.2941 H   0  0  0  0  0  0  0  0  0  0  0  0
  1  2  1  0
  1 37  1  0
  1 38  1  0
  1 39  1  0
  2  3  1  0
  2 40  1  0
  2 41  1  0
  3  4  1  0
  3 42  1  0
  3 43  1  0
  4  5  1  0
  4  9  1  0
  4 44  1  1
  5  6  1  0
  5 45  1  0
  5 46  1  0
  6  7  1  0
  6 47  1  0
  6 48  1  0
  7  8  1  0
  8 49  1  0
  8 50  1  0
  8 51  1  0
  9 15  2  0
  9 10  1  0
 10 11  2  0
 10 52  1  0
 11 12  1  0
 11 53  1  0
 12 13  1  0
 12 14  2  0
 13 54  1  0
 14 27  1  0
 14 15  1  0
 15 16  1  0
 16 26  1  0
 16 36  1  0
 16 17  1  1
 17 18  1  0
 17 55  1  0
 17 56  1  0
 18 19  1  0
 18 57  1  0
 18 58  1  0
 19 20  1  0
 20 36  1  0
 20 21  1  0
 20 59  1  6
 21 22  1  0
 21 60  1  0
 21 61  1  0
 22 23  1  0
 22 62  1  0
 22 63  1  0
 23 24  1  0
 23 64  1  0
 23 65  1  0
 24 36  1  0
 24 25  1  0
 24 66  1  6
 25 26  1  0
 25 28  1  0
 25 67  1  1
 26 27  1  0
 26 68  1  6
 28 29  1  0
 28 34  1  0
 28 82  1  1
 29 30  1  0
 29 69  1  0
 29 70  1  0
 30 33  1  0
 30 31  1  0
 30 71  1  0
 31 32  1  0
 31 72  1  0
 31 73  1  0
 32 33  1  0
 32 74  1  0
 32 75  1  0
 33 76  1  0
 33 77  1  0
 34 35  1  0
 34 78  1  0
 34 79  1  0
 36 35  1  6
 35 80  1  0
 35 81  1  0
M  CHG  1  28   1
M  END
>  <i_m_ct_stereo_status>  (15) 
1

>  <s_m_source_file>  (15) 
/var/tmp/pbs.5076255.sched01/tmppv1df_bs/0l6e7d74h.sdf

>  <i_m_source_file_index>  (15) 
5

>  <i_lp_mmshare_version>  (15) 
48012

>  <i_f3d_flags>  (15) 
0

>  <s_epik_input>  (15) 
W0NIM11PW0NIMl1bQ0gyXVtDQEBIXShbQ0gyXVtDSDJdW0NIM10pYyhbY0hdW2NIXWMxW09IXSljMmMxT1tDQEBIXTNbQ0BASF0oTihbQ0gyXVtDSDJdNClbQ0gyXVtDSF01W0NIMl1bQ0gyXVtDSDJdNSlbQ0BASF02W0NIMl1bQ0gyXVtDSDJdW0NAQEhdKFtDQEBdNDZbQ0BAXTIzNylPW0NIMl1bQ0gyXTc=

>  <s_epik_cmdline>  (15) 
J2VwaWtfcHl0aG9uJywgJy1waHQnLCAnMi4wJywgJy1waCcsICc3LjAnLCAnLXRuJywgJzgnLCAnLW1hJywgJzIwMCcsICctaW1hZScsICc8aW5maWxlLm1hZT4nLCAnLW9tYWUnLCAnPG91dGZpbGUubWFlPic=

>  <r_lp_tautomer_probability>  (15) 
1

>  <r_epik_Ionization_Penalty>  (15) 
0.0273513

>  <r_epik_Ionization_Penalty_Charging>  (15) 
0.0252508

>  <r_epik_Ionization_Penalty_Neutral>  (15) 
0.00210056

>  <r_epik_State_Penalty>  (15) 
0.020545

>  <r_epik_Charging_Adjusted_Penalty>  (15) 
0.0457958

>  <i_epik_Tot_Q>  (15) 
1

>  <i_epik_Tot_abs_Q>  (15) 
1

>  <s_lp_Force_Field>  (15) 
OPLS3e

>  <r_lp_Energy>  (15) 
154.342

>  <b_lp_Chiralities_Consistent>  (15) 
1

>  <s_lp_Variant>  (15) 
4:0-1

>  <s_i_glide_gridfile>  (15) 
pfpi4k_grid

>  <i_i_glide_lignum>  (15) 
5

>  <i_i_glide_rotatable_bonds>  (15) 
9

>  <r_i_docking_score>  (15) 
-1.51225

>  <r_i_glide_ligand_efficiency>  (15) 
-0.042007

>  <r_i_glide_ligand_efficiency_sa>  (15) 
-0.138704

>  <r_i_glide_ligand_efficiency_ln>  (15) 
-0.329932

>  <r_i_glide_gscore>  (15) 
-1.51225

>  <r_i_glide_lipo>  (15) 
-0.675619

>  <r_i_glide_hbond>  (15) 
0

>  <r_i_glide_metal>  (15) 
-0

>  <r_i_glide_rewards>  (15) 
-0.0224915

>  <r_i_glide_evdw>  (15) 
-30.6664

>  <r_i_glide_ecoul>  (15) 
0.0147743

>  <r_i_glide_erotb>  (15) 
0.495981

>  <r_i_glide_esite>  (15) 
-0.0423559

>  <r_i_glide_emodel>  (15) 
-27.0458

>  <r_i_glide_energy>  (15) 
-30.6516

>  <r_i_glide_einternal>  (15) 
4.99839

>  <r_i_glide_intrahb_reward>  (15) 
-0

>  <i_i_glide_confnum>  (15) 
1

>  <i_i_glide_posenum>  (15) 
23

>  <r_i_glide_eff_state_penalty>  (15) 
0

>  <ligand_id>  (15) 
4

>  <original_smiles>  (15) 
CCCC(CCOC)c1ccc(O)c2c1C13CCOC4CCCC5C(C1O2)N(CC1CCC1)CCC453

>  <smiles>  (15) 
[H]Oc1c([H])c([H])c(C([H])(C([H])([H])C([H])([H])OC([H])([H])[H])C([H])([H])C([H])([H])C([H])([H])[H])c2c1OC1([H])C23C([H])([H])C([H])([H])OC2([H])C([H])([H])C([H])([H])C([H])([H])C4([H])C23C([H])([H])C([H])([H])[N+]([H])(C([H])([H])C2([H])C([H])([H])C([H])([H])C2([H])[H])C14[H]

$$$$
4:1:0
     RDKit          3D

 81 87  0  0  1  0  0  0  0  0999 V2000
    6.6166    1.1784    5.7754 C   0  0  0  0  0  0  0  0  0  0  0  0
    5.9934    0.4119    4.6015 C   0  0  0  0  0  0  0  0  0  0  0  0
    4.4731    0.6271    4.4832 C   0  0  0  0  0  0  0  0  0  0  0  0
    3.7742   -0.3131    3.4749 C   0  0  2  0  0  0  0  0  0  0  0  0
    4.1417    0.0127    2.0036 C   0  0  0  0  0  0  0  0  0  0  0  0
    3.7017   -1.0471    0.9855 C   0  0  0  0  0  0  0  0  0  0  0  0
    4.2897   -0.7403   -0.2687 O   0  0  0  0  0  0  0  0  0  0  0  0
    3.9893   -1.7020   -1.2671 C   0  0  0  0  0  0  0  0  0  0  0  0
    2.2687   -0.3260    3.7223 C   0  0  0  0  0  0  0  0  0  0  0  0
    1.4873    0.7904    3.3280 C   0  0  0  0  0  0  0  0  0  0  0  0
    0.1009    0.8571    3.5886 C   0  0  0  0  0  0  0  0  0  0  0  0
   -0.5546   -0.2049    4.2471 C   0  0  0  0  0  0  0  0  0  0  0  0
   -1.8954   -0.1621    4.4992 O   0  0  0  0  0  0  0  0  0  0  0  0
    0.2053   -1.3157    4.6350 C   0  0  0  0  0  0  0  0  0  0  0  0
    1.5924   -1.3775    4.3926 C   0  0  0  0  0  0  0  0  0  0  0  0
    2.0873   -2.5816    5.1868 C   0  0  1  0  0  0  0  0  0  0  0  0
    2.2693   -2.0768    6.6476 C   0  0  0  0  0  0  0  0  0  0  0  0
    3.7284   -2.0463    7.1317 C   0  0  0  0  0  0  0  0  0  0  0  0
    4.6436   -2.2182    6.0613 O   0  0  0  0  0  0  0  0  0  0  0  0
    4.5369   -3.4147    5.2878 C   0  0  1  0  0  0  0  0  0  0  0  0
    5.2369   -4.6066    5.9805 C   0  0  0  0  0  0  0  0  0  0  0  0
    4.4667   -5.2432    7.1642 C   0  0  0  0  0  0  0  0  0  0  0  0
    2.9295   -5.1927    7.0172 C   0  0  0  0  0  0  0  0  0  0  0  0
    2.5275   -4.9870    5.5456 C   0  0  1  0  0  0  0  0  0  0  0  0
    1.0264   -4.8851    5.2043 C   0  0  1  0  0  0  0  0  0  0  0  0
    0.7967   -3.3659    4.9292 C   0  0  1  0  0  0  0  0  0  0  0  0
   -0.2675   -2.4715    5.2388 O   0  0  0  0  0  0  0  0  0  0  0  0
    0.8956   -5.5550    3.8880 N   0  0  0  0  0  0  0  0  0  0  0  0
    0.5074   -6.9590    3.9639 C   0  0  0  0  0  0  0  0  0  0  0  0
   -0.6058   -7.2428    2.9487 C   0  0  0  0  0  0  0  0  0  0  0  0
   -1.9614   -7.7248    3.4989 C   0  0  0  0  0  0  0  0  0  0  0  0
   -1.4868   -9.1507    3.2445 C   0  0  0  0  0  0  0  0  0  0  0  0
   -0.5613   -8.5718    2.1847 C   0  0  0  0  0  0  0  0  0  0  0  0
    2.0327   -5.3330    2.9499 C   0  0  0  0  0  0  0  0  0  0  0  0
    2.9847   -4.1181    3.2763 C   0  0  0  0  0  0  0  0  0  0  0  0
    3.0884   -3.7296    4.7976 C   0  0  1  0  0  0  0  0  0  0  0  0
    7.6953    1.0142    5.8208 H   0  0  0  0  0  0  0  0  0  0  0  0
    6.1929    0.8552    6.7280 H   0  0  0  0  0  0  0  0  0  0  0  0
    6.4482    2.2515    5.6852 H   0  0  0  0  0  0  0  0  0  0  0  0
    6.4961    0.7041    3.6804 H   0  0  0  0  0  0  0  0  0  0  0  0
    6.2010   -0.6474    4.7385 H   0  0  0  0  0  0  0  0  0  0  0  0
    4.0441    0.4490    5.4691 H   0  0  0  0  0  0  0  0  0  0  0  0
    4.2539    1.6678    4.2468 H   0  0  0  0  0  0  0  0  0  0  0  0
    4.1302   -1.3185    3.6662 H   0  0  0  0  0  0  0  0  0  0  0  0
    3.7428    0.9790    1.7051 H   0  0  0  0  0  0  0  0  0  0  0  0
    5.2210    0.1098    1.9191 H   0  0  0  0  0  0  0  0  0  0  0  0
    4.0431   -2.0309    1.3066 H   0  0  0  0  0  0  0  0  0  0  0  0
    2.6139   -1.0774    0.9008 H   0  0  0  0  0  0  0  0  0  0  0  0
    4.4632   -1.4142   -2.2054 H   0  0  0  0  0  0  0  0  0  0  0  0
    2.9170   -1.7752   -1.4455 H   0  0  0  0  0  0  0  0  0  0  0  0
    4.3628   -2.6894   -0.9923 H   0  0  0  0  0  0  0  0  0  0  0  0
    1.9514    1.6362    2.8455 H   0  0  0  0  0  0  0  0  0  0  0  0
   -0.4502    1.7371    3.2906 H   0  0  0  0  0  0  0  0  0  0  0  0
   -2.3535    0.4888    3.9856 H   0  0  0  0  0  0  0  0  0  0  0  0
    1.8971   -1.0560    6.7370 H   0  0  0  0  0  0  0  0  0  0  0  0
    1.6300   -2.6173    7.3439 H   0  0  0  0  0  0  0  0  0  0  0  0
    3.9339   -1.0829    7.6010 H   0  0  0  0  0  0  0  0  0  0  0  0
    3.9072   -2.7723    7.9175 H   0  0  0  0  0  0  0  0  0  0  0  0
    5.1428   -3.1870    4.4137 H   0  0  0  0  0  0  0  0  0  0  0  0
    5.3887   -5.3798    5.2242 H   0  0  0  0  0  0  0  0  0  0  0  0
    6.2348   -4.3174    6.3082 H   0  0  0  0  0  0  0  0  0  0  0  0
    4.7799   -6.2855    7.2442 H   0  0  0  0  0  0  0  0  0  0  0  0
    4.7680   -4.7879    8.1095 H   0  0  0  0  0  0  0  0  0  0  0  0
    2.5191   -6.1373    7.3720 H   0  0  0  0  0  0  0  0  0  0  0  0
    2.5013   -4.4610    7.6908 H   0  0  0  0  0  0  0  0  0  0  0  0
    2.9603   -5.8951    5.1253 H   0  0  0  0  0  0  0  0  0  0  0  0
    0.3636   -5.2887    5.9701 H   0  0  0  0  0  0  0  0  0  0  0  0
    0.6150   -3.3793    3.8424 H   0  0  0  0  0  0  0  0  0  0  0  0
    1.3725   -7.6047    3.8092 H   0  0  0  0  0  0  0  0  0  0  0  0
    0.1555   -7.1984    4.9674 H   0  0  0  0  0  0  0  0  0  0  0  0
   -0.7387   -6.4420    2.2179 H   0  0  0  0  0  0  0  0  0  0  0  0
   -2.1444   -7.4905    4.5487 H   0  0  0  0  0  0  0  0  0  0  0  0
   -2.8125   -7.4637    2.8693 H   0  0  0  0  0  0  0  0  0  0  0  0
   -0.9261   -9.5605    4.0827 H   0  0  0  0  0  0  0  0  0  0  0  0
   -2.2379   -9.8379    2.8578 H   0  0  0  0  0  0  0  0  0  0  0  0
   -1.0491   -8.4985    1.2128 H   0  0  0  0  0  0  0  0  0  0  0  0
    0.4229   -9.0444    2.1249 H   0  0  0  0  0  0  0  0  0  0  0  0
    2.6561   -6.2285    2.9519 H   0  0  0  0  0  0  0  0  0  0  0  0
    1.6556   -5.2584    1.9318 H   0  0  0  0  0  0  0  0  0  0  0  0
    3.9723   -4.3653    2.8872 H   0  0  0  0  0  0  0  0  0  0  0  0
    2.6599   -3.2560    2.6969 H   0  0  0  0  0  0  0  0  0  0  0  0
  1  2  1  0
  1 37  1  0
  1 38  1  0
  1 39  1  0
  2  3  1  0
  2 40  1  0
  2 41  1  0
  3  4  1  0
  3 42  1  0
  3 43  1  0
  4  5  1  0
  4  9  1  0
  4 44  1  1
  5  6  1  0
  5 45  1  0
  5 46  1  0
  6  7  1  0
  6 47  1  0
  6 48  1  0
  7  8  1  0
  8 49  1  0
  8 50  1  0
  8 51  1  0
  9 15  2  0
  9 10  1  0
 10 11  2  0
 10 52  1  0
 11 12  1  0
 11 53  1  0
 12 13  1  0
 12 14  2  0
 13 54  1  0
 14 27  1  0
 14 15  1  0
 15 16  1  0
 16 26  1  0
 16 36  1  0
 16 17  1  1
 17 18  1  0
 17 55  1  0
 17 56  1  0
 18 19  1  0
 18 57  1  0
 18 58  1  0
 19 20  1  0
 20 36  1  0
 20 21  1  0
 20 59  1  6
 21 22  1  0
 21 60  1  0
 21 61  1  0
 22 23  1  0
 22 62  1  0
 22 63  1  0
 23 24  1  0
 23 64  1  0
 23 65  1  0
 24 36  1  0
 24 25  1  0
 24 66  1  6
 25 26  1  0
 25 28  1  0
 25 67  1  1
 26 27  1  0
 26 68  1  6
 28 29  1  0
 28 34  1  0
 29 30  1  0
 29 69  1  0
 29 70  1  0
 30 33  1  0
 30 31  1  0
 30 71  1  0
 31 32  1  0
 31 72  1  0
 31 73  1  0
 32 33  1  0
 32 74  1  0
 32 75  1  0
 33 76  1  0
 33 77  1  0
 34 35  1  0
 34 78  1  0
 34 79  1  0
 36 35  1  6
 35 80  1  0
 35 81  1  0
M  END
>  <i_m_ct_stereo_status>  (16) 
1

>  <s_m_source_file>  (16) 
/var/tmp/pbs.5076255.sched01/tmppv1df_bs/0l6e7d74h.sdf

>  <i_m_source_file_index>  (16) 
6

>  <i_lp_mmshare_version>  (16) 
48012

>  <i_f3d_flags>  (16) 
0

>  <s_epik_input>  (16) 
W0NIM11PW0NIMl1bQ0gyXVtDQEBIXShbQ0gyXVtDSDJdW0NIM10pYyhbY0hdW2NIXWMxW09IXSljMmMxT1tDQEBIXTNbQ0BASF0oTihbQ0gyXVtDSDJdNClbQ0gyXVtDSF01W0NIMl1bQ0gyXVtDSDJdNSlbQ0BASF02W0NIMl1bQ0gyXVtDSDJdW0NAQEhdKFtDQEBdNDZbQ0BAXTIzNylPW0NIMl1bQ0gyXTc=

>  <s_epik_cmdline>  (16) 
J2VwaWtfcHl0aG9uJywgJy1waHQnLCAnMi4wJywgJy1waCcsICc3LjAnLCAnLXRuJywgJzgnLCAnLW1hJywgJzIwMCcsICctaW1hZScsICc8aW5maWxlLm1hZT4nLCAnLW9tYWUnLCAnPG91dGZpbGUubWFlPic=

>  <r_lp_tautomer_probability>  (16) 
1

>  <r_epik_Ionization_Penalty>  (16) 
1.88353

>  <r_epik_Ionization_Penalty_Charging>  (16) 
0

>  <r_epik_Ionization_Penalty_Neutral>  (16) 
1.88353

>  <r_epik_State_Penalty>  (16) 
2.00201

>  <r_epik_Charging_Adjusted_Penalty>  (16) 
2.00201

>  <i_epik_Tot_Q>  (16) 
0

>  <i_epik_Tot_abs_Q>  (16) 
0

>  <s_lp_Force_Field>  (16) 
OPLS3e

>  <r_lp_Energy>  (16) 
147.698

>  <b_lp_Chiralities_Consistent>  (16) 
1

>  <s_lp_Variant>  (16) 
4:0-2

>  <s_i_glide_gridfile>  (16) 
pfpi4k_grid

>  <i_i_glide_lignum>  (16) 
6

>  <i_i_glide_rotatable_bonds>  (16) 
9

>  <r_i_docking_score>  (16) 
-1.55537

>  <r_i_glide_ligand_efficiency>  (16) 
-0.0432048

>  <r_i_glide_ligand_efficiency_sa>  (16) 
-0.142659

>  <r_i_glide_ligand_efficiency_ln>  (16) 
-0.33934

>  <r_i_glide_gscore>  (16) 
-1.55537

>  <r_i_glide_lipo>  (16) 
-0.351868

>  <r_i_glide_hbond>  (16) 
0

>  <r_i_glide_metal>  (16) 
-0

>  <r_i_glide_rewards>  (16) 
-0.0293639

>  <r_i_glide_evdw>  (16) 
-25.5992

>  <r_i_glide_ecoul>  (16) 
-2.6134

>  <r_i_glide_erotb>  (16) 
0.497831

>  <r_i_glide_esite>  (16) 
0

>  <r_i_glide_emodel>  (16) 
-29.3869

>  <r_i_glide_energy>  (16) 
-28.2126

>  <r_i_glide_einternal>  (16) 
3.33118

>  <r_i_glide_intrahb_reward>  (16) 
-0

>  <i_i_glide_confnum>  (16) 
1

>  <i_i_glide_posenum>  (16) 
34

>  <r_i_glide_eff_state_penalty>  (16) 
0

>  <ligand_id>  (16) 
4

>  <original_smiles>  (16) 
CCCC(CCOC)c1ccc(O)c2c1C13CCOC4CCCC5C(C1O2)N(CC1CCC1)CCC453

>  <smiles>  (16) 
[H]Oc1c([H])c([H])c(C([H])(C([H])([H])C([H])([H])OC([H])([H])[H])C([H])([H])C([H])([H])C([H])([H])[H])c2c1OC1([H])C3([H])N(C([H])([H])C4([H])C([H])([H])C([H])([H])C4([H])[H])C([H])([H])C([H])([H])C45C([H])(OC([H])([H])C([H])([H])C214)C([H])([H])C([H])([H])C([H])([H])C35[H]

$$$$
4:1:1
     RDKit          3D

 81 87  0  0  1  0  0  0  0  0999 V2000
    6.2641   -0.1807    7.2289 C   0  0  0  0  0  0  0  0  0  0  0  0
    5.6632   -0.6738    5.9141 C   0  0  0  0  0  0  0  0  0  0  0  0
    4.1595   -0.3370    5.7800 C   0  0  0  0  0  0  0  0  0  0  0  0
    3.4900   -0.9303    4.5244 C   0  0  2  0  0  0  0  0  0  0  0  0
    4.0961   -0.3100    3.2533 C   0  0  0  0  0  0  0  0  0  0  0  0
    3.5693   -0.8556    1.9130 C   0  0  0  0  0  0  0  0  0  0  0  0
    4.2843   -0.2706    0.8299 O   0  0  0  0  0  0  0  0  0  0  0  0
    5.6122   -0.7414    0.6591 C   0  0  0  0  0  0  0  0  0  0  0  0
    1.9709   -0.7809    4.5980 C   0  0  0  0  0  0  0  0  0  0  0  0
    1.3676    0.4199    4.1479 C   0  0  0  0  0  0  0  0  0  0  0  0
   -0.0239    0.6255    4.2353 C   0  0  0  0  0  0  0  0  0  0  0  0
   -0.8483   -0.3726    4.7811 C   0  0  0  0  0  0  0  0  0  0  0  0
   -2.1983   -0.1940    4.8838 O   0  0  0  0  0  0  0  0  0  0  0  0
   -0.2702   -1.5554    5.2294 C   0  0  0  0  0  0  0  0  0  0  0  0
    1.1291   -1.7677    5.1463 C   0  0  0  0  0  0  0  0  0  0  0  0
    1.3892   -3.0378    5.9555 C   0  0  1  0  0  0  0  0  0  0  0  0
    1.4550   -2.5888    7.4409 C   0  0  0  0  0  0  0  0  0  0  0  0
    2.8290   -2.7598    8.1107 C   0  0  0  0  0  0  0  0  0  0  0  0
    3.8588   -3.0318    7.1716 O   0  0  0  0  0  0  0  0  0  0  0  0
    3.7045   -4.1565    6.3092 C   0  0  1  0  0  0  0  0  0  0  0  0
    4.1823   -5.4369    7.0253 C   0  0  0  0  0  0  0  0  0  0  0  0
    3.2130   -5.9864    8.1031 C   0  0  0  0  0  0  0  0  0  0  0  0
    1.7183   -5.7582    7.7859 C   0  0  0  0  0  0  0  0  0  0  0  0
    1.5166   -5.4809    6.2878 C   0  0  1  0  0  0  0  0  0  0  0  0
    0.0842   -5.2074    5.7801 C   0  0  1  0  0  0  0  0  0  0  0  0
    0.0577   -3.6660    5.5306 C   0  0  1  0  0  0  0  0  0  0  0  0
   -0.9305   -2.6670    5.7473 O   0  0  0  0  0  0  0  0  0  0  0  0
    0.0314   -5.8274    4.4357 N   0  0  0  0  0  0  0  0  0  0  0  0
   -0.5228   -7.1783    4.4301 C   0  0  0  0  0  0  0  0  0  0  0  0
   -0.9991   -7.5580    3.0195 C   0  0  0  0  0  0  0  0  0  0  0  0
   -1.8717   -8.8161    2.8657 C   0  0  0  0  0  0  0  0  0  0  0  0
   -0.6033   -9.5935    2.5226 C   0  0  0  0  0  0  0  0  0  0  0  0
   -0.0085   -8.2551    2.0723 C   0  0  0  0  0  0  0  0  0  0  0  0
    1.3025   -5.7121    3.6533 C   0  0  0  0  0  0  0  0  0  0  0  0
    2.3311   -4.6163    4.1159 C   0  0  0  0  0  0  0  0  0  0  0  0
    2.2989   -4.2798    5.6484 C   0  0  1  0  0  0  0  0  0  0  0  0
    7.3371   -0.3813    7.2686 H   0  0  0  0  0  0  0  0  0  0  0  0
    5.8002   -0.6682    8.0878 H   0  0  0  0  0  0  0  0  0  0  0  0
    6.1280    0.8965    7.3341 H   0  0  0  0  0  0  0  0  0  0  0  0
    6.2437   -0.2126    5.1199 H   0  0  0  0  0  0  0  0  0  0  0  0
    5.8261   -1.7473    5.8247 H   0  0  0  0  0  0  0  0  0  0  0  0
    3.6388   -0.7071    6.6588 H   0  0  0  0  0  0  0  0  0  0  0  0
    4.0111    0.7421    5.8062 H   0  0  0  0  0  0  0  0  0  0  0  0
    3.6877   -1.9957    4.4729 H   0  0  0  0  0  0  0  0  0  0  0  0
    4.0039    0.7759    3.2683 H   0  0  0  0  0  0  0  0  0  0  0  0
    5.1609   -0.5043    3.3070 H   0  0  0  0  0  0  0  0  0  0  0  0
    3.6177   -1.9452    1.8765 H   0  0  0  0  0  0  0  0  0  0  0  0
    2.5171   -0.5994    1.7846 H   0  0  0  0  0  0  0  0  0  0  0  0
    6.0468   -0.2796   -0.2266 H   0  0  0  0  0  0  0  0  0  0  0  0
    5.6277   -1.8222    0.5270 H   0  0  0  0  0  0  0  0  0  0  0  0
    6.2527   -0.4842    1.5000 H   0  0  0  0  0  0  0  0  0  0  0  0
    1.9522    1.2292    3.7398 H   0  0  0  0  0  0  0  0  0  0  0  0
   -0.4451    1.5679    3.8904 H   0  0  0  0  0  0  0  0  0  0  0  0
   -2.5174    0.4685    4.2850 H   0  0  0  0  0  0  0  0  0  0  0  0
    1.1995   -1.5332    7.5121 H   0  0  0  0  0  0  0  0  0  0  0  0
    0.6675   -3.0575    8.0282 H   0  0  0  0  0  0  0  0  0  0  0  0
    3.0914   -1.8289    8.6118 H   0  0  0  0  0  0  0  0  0  0  0  0
    2.8017   -3.4916    8.9109 H   0  0  0  0  0  0  0  0  0  0  0  0
    4.4228   -3.9593    5.5190 H   0  0  0  0  0  0  0  0  0  0  0  0
    4.3423   -6.2131    6.2728 H   0  0  0  0  0  0  0  0  0  0  0  0
    5.1534   -5.2547    7.4813 H   0  0  0  0  0  0  0  0  0  0  0  0
    3.3961   -7.0574    8.1989 H   0  0  0  0  0  0  0  0  0  0  0  0
    3.4529   -5.5726    9.0853 H   0  0  0  0  0  0  0  0  0  0  0  0
    1.1681   -6.6565    8.0634 H   0  0  0  0  0  0  0  0  0  0  0  0
    1.2935   -4.9940    8.4255 H   0  0  0  0  0  0  0  0  0  0  0  0
    1.8910   -6.4269    5.8947 H   0  0  0  0  0  0  0  0  0  0  0  0
   -0.7057   -5.5506    6.4547 H   0  0  0  0  0  0  0  0  0  0  0  0
    0.0056   -3.6392    4.4276 H   0  0  0  0  0  0  0  0  0  0  0  0
    0.2103   -7.8866    4.8249 H   0  0  0  0  0  0  0  0  0  0  0  0
   -1.3794   -7.2129    5.1063 H   0  0  0  0  0  0  0  0  0  0  0  0
   -1.5136   -6.7349    2.5255 H   0  0  0  0  0  0  0  0  0  0  0  0
   -2.3761   -9.1158    3.7827 H   0  0  0  0  0  0  0  0  0  0  0  0
   -2.5697   -8.7671    2.0208 H   0  0  0  0  0  0  0  0  0  0  0  0
   -0.1083   -9.9848    3.4140 H   0  0  0  0  0  0  0  0  0  0  0  0
   -0.7062  -10.3519    1.7478 H   0  0  0  0  0  0  0  0  0  0  0  0
   -0.2075   -7.9904    1.0285 H   0  0  0  0  0  0  0  0  0  0  0  0
    1.0496   -8.1602    2.3150 H   0  0  0  0  0  0  0  0  0  0  0  0
    1.8219   -6.6666    3.7410 H   0  0  0  0  0  0  0  0  0  0  0  0
    1.0697   -5.5876    2.5979 H   0  0  0  0  0  0  0  0  0  0  0  0
    3.3188   -4.9779    3.8342 H   0  0  0  0  0  0  0  0  0  0  0  0
    2.1881   -3.7159    3.5188 H   0  0  0  0  0  0  0  0  0  0  0  0
  1  2  1  0
  1 37  1  0
  1 38  1  0
  1 39  1  0
  2  3  1  0
  2 40  1  0
  2 41  1  0
  3  4  1  0
  3 42  1  0
  3 43  1  0
  4  5  1  0
  4  9  1  0
  4 44  1  6
  5  6  1  0
  5 45  1  0
  5 46  1  0
  6  7  1  0
  6 47  1  0
  6 48  1  0
  7  8  1  0
  8 49  1  0
  8 50  1  0
  8 51  1  0
  9 15  2  0
  9 10  1  0
 10 11  2  0
 10 52  1  0
 11 12  1  0
 11 53  1  0
 12 13  1  0
 12 14  2  0
 13 54  1  0
 14 27  1  0
 14 15  1  0
 15 16  1  0
 16 26  1  0
 16 36  1  0
 16 17  1  1
 17 18  1  0
 17 55  1  0
 17 56  1  0
 18 19  1  0
 18 57  1  0
 18 58  1  0
 19 20  1  0
 20 36  1  0
 20 21  1  0
 20 59  1  6
 21 22  1  0
 21 60  1  0
 21 61  1  0
 22 23  1  0
 22 62  1  0
 22 63  1  0
 23 24  1  0
 23 64  1  0
 23 65  1  0
 24 36  1  0
 24 25  1  0
 24 66  1  6
 25 26  1  0
 25 28  1  0
 25 67  1  1
 26 27  1  0
 26 68  1  6
 28 29  1  0
 28 34  1  0
 29 30  1  0
 29 69  1  0
 29 70  1  0
 30 33  1  0
 30 31  1  0
 30 71  1  0
 31 32  1  0
 31 72  1  0
 31 73  1  0
 32 33  1  0
 32 74  1  0
 32 75  1  0
 33 76  1  0
 33 77  1  0
 34 35  1  0
 34 78  1  0
 34 79  1  0
 36 35  1  6
 35 80  1  0
 35 81  1  0
M  END
>  <i_m_ct_stereo_status>  (17) 
1

>  <s_m_source_file>  (17) 
/var/tmp/pbs.5076255.sched01/tmppv1df_bs/0l6e7d74h.sdf

>  <i_m_source_file_index>  (17) 
6

>  <i_lp_mmshare_version>  (17) 
48012

>  <i_f3d_flags>  (17) 
0

>  <s_epik_input>  (17) 
W0NIM11PW0NIMl1bQ0gyXVtDQEBIXShbQ0gyXVtDSDJdW0NIM10pYyhbY0hdW2NIXWMxW09IXSljMmMxT1tDQEBIXTNbQ0BASF0oTihbQ0gyXVtDSDJdNClbQ0gyXVtDSF01W0NIMl1bQ0gyXVtDSDJdNSlbQ0BASF02W0NIMl1bQ0gyXVtDSDJdW0NAQEhdKFtDQEBdNDZbQ0BAXTIzNylPW0NIMl1bQ0gyXTc=

>  <s_epik_cmdline>  (17) 
J2VwaWtfcHl0aG9uJywgJy1waHQnLCAnMi4wJywgJy1waCcsICc3LjAnLCAnLXRuJywgJzgnLCAnLW1hJywgJzIwMCcsICctaW1hZScsICc8aW5maWxlLm1hZT4nLCAnLW9tYWUnLCAnPG91dGZpbGUubWFlPic=

>  <r_lp_tautomer_probability>  (17) 
1

>  <r_epik_Ionization_Penalty>  (17) 
1.88353

>  <r_epik_Ionization_Penalty_Charging>  (17) 
0

>  <r_epik_Ionization_Penalty_Neutral>  (17) 
1.88353

>  <r_epik_State_Penalty>  (17) 
2.00201

>  <r_epik_Charging_Adjusted_Penalty>  (17) 
2.00201

>  <i_epik_Tot_Q>  (17) 
0

>  <i_epik_Tot_abs_Q>  (17) 
0

>  <s_lp_Force_Field>  (17) 
OPLS3e

>  <r_lp_Energy>  (17) 
147.698

>  <b_lp_Chiralities_Consistent>  (17) 
1

>  <s_lp_Variant>  (17) 
4:0-2

>  <s_i_glide_gridfile>  (17) 
pfpi4k_grid

>  <i_i_glide_lignum>  (17) 
6

>  <i_i_glide_rotatable_bonds>  (17) 
9

>  <r_i_docking_score>  (17) 
-1.5095

>  <r_i_glide_ligand_efficiency>  (17) 
-0.0419304

>  <r_i_glide_ligand_efficiency_sa>  (17) 
-0.138451

>  <r_i_glide_ligand_efficiency_ln>  (17) 
-0.329331

>  <r_i_glide_gscore>  (17) 
-1.5095

>  <r_i_glide_lipo>  (17) 
-0.290853

>  <r_i_glide_hbond>  (17) 
0

>  <r_i_glide_metal>  (17) 
-0

>  <r_i_glide_rewards>  (17) 
-0.0293639

>  <r_i_glide_evdw>  (17) 
-25.0107

>  <r_i_glide_ecoul>  (17) 
-2.91048

>  <r_i_glide_erotb>  (17) 
0.497831

>  <r_i_glide_esite>  (17) 
0

>  <r_i_glide_emodel>  (17) 
-28.9875

>  <r_i_glide_energy>  (17) 
-27.9212

>  <r_i_glide_einternal>  (17) 
2.20132

>  <r_i_glide_intrahb_reward>  (17) 
-0

>  <i_i_glide_confnum>  (17) 
5

>  <i_i_glide_posenum>  (17) 
17

>  <r_i_glide_eff_state_penalty>  (17) 
0

>  <ligand_id>  (17) 
4

>  <original_smiles>  (17) 
CCCC(CCOC)c1ccc(O)c2c1C13CCOC4CCCC5C(C1O2)N(CC1CCC1)CCC453

>  <smiles>  (17) 
[H]Oc1c([H])c([H])c(C([H])(C([H])([H])C([H])([H])OC([H])([H])[H])C([H])([H])C([H])([H])C([H])([H])[H])c2c1OC1([H])C3([H])N(C([H])([H])C4([H])C([H])([H])C([H])([H])C4([H])[H])C([H])([H])C([H])([H])C45C([H])(OC([H])([H])C([H])([H])C214)C([H])([H])C([H])([H])C([H])([H])C35[H]

$$$$
4:1:2
     RDKit          3D

 81 87  0  0  1  0  0  0  0  0999 V2000
    6.3596    0.7774    6.5052 C   0  0  0  0  0  0  0  0  0  0  0  0
    5.7208   -0.1227    5.4422 C   0  0  0  0  0  0  0  0  0  0  0  0
    4.1885    0.0154    5.3793 C   0  0  0  0  0  0  0  0  0  0  0  0
    3.4940   -0.9218    4.3613 C   0  0  2  0  0  0  0  0  0  0  0  0
    4.0036   -0.7189    2.9095 C   0  0  0  0  0  0  0  0  0  0  0  0
    3.4208   -1.6895    1.8753 C   0  0  0  0  0  0  0  0  0  0  0  0
    4.1187   -1.5394    0.6511 O   0  0  0  0  0  0  0  0  0  0  0  0
    3.6613   -2.4386   -0.3459 C   0  0  0  0  0  0  0  0  0  0  0  0
    1.9808   -0.7856    4.4761 C   0  0  0  0  0  0  0  0  0  0  0  0
    1.3595    0.4089    4.0351 C   0  0  0  0  0  0  0  0  0  0  0  0
   -0.0342    0.6169    4.1719 C   0  0  0  0  0  0  0  0  0  0  0  0
   -0.8511   -0.3814    4.7437 C   0  0  0  0  0  0  0  0  0  0  0  0
   -2.1914   -0.2118    4.8810 O   0  0  0  0  0  0  0  0  0  0  0  0
   -0.2440   -1.5676    5.1741 C   0  0  0  0  0  0  0  0  0  0  0  0
    1.1452   -1.7731    5.0561 C   0  0  0  0  0  0  0  0  0  0  0  0
    1.4280   -3.0371    5.8568 C   0  0  1  0  0  0  0  0  0  0  0  0
    1.5220   -2.5813    7.3386 C   0  0  0  0  0  0  0  0  0  0  0  0
    2.9254   -2.7111    7.9519 C   0  0  0  0  0  0  0  0  0  0  0  0
    3.9167   -2.9515    6.9649 O   0  0  0  0  0  0  0  0  0  0  0  0
    3.7609   -4.1191    6.1543 C   0  0  1  0  0  0  0  0  0  0  0  0
    4.2664   -5.3933    6.8714 C   0  0  0  0  0  0  0  0  0  0  0  0
    3.3270   -5.9721    7.9588 C   0  0  0  0  0  0  0  0  0  0  0  0
    1.8222   -5.7602    7.6751 C   0  0  0  0  0  0  0  0  0  0  0  0
    1.5812   -5.4822    6.1826 C   0  0  1  0  0  0  0  0  0  0  0  0
    0.1349   -5.2202    5.7013 C   0  0  1  0  0  0  0  0  0  0  0  0
    0.0920   -3.6746    5.4627 C   0  0  1  0  0  0  0  0  0  0  0  0
   -0.8906   -2.6698    5.7026 O   0  0  0  0  0  0  0  0  0  0  0  0
    0.0709   -5.8452    4.3558 N   0  0  0  0  0  0  0  0  0  0  0  0
   -0.4935   -7.1929    4.3547 C   0  0  0  0  0  0  0  0  0  0  0  0
   -0.6677   -7.7357    2.9288 C   0  0  0  0  0  0  0  0  0  0  0  0
   -1.5756   -8.9629    2.7225 C   0  0  0  0  0  0  0  0  0  0  0  0
   -0.3195   -9.8316    2.7813 C   0  0  0  0  0  0  0  0  0  0  0  0
    0.4688   -8.6007    2.3582 C   0  0  0  0  0  0  0  0  0  0  0  0
    1.3211   -5.7072    3.5555 C   0  0  0  0  0  0  0  0  0  0  0  0
    2.3368   -4.6012    3.9992 C   0  0  0  0  0  0  0  0  0  0  0  0
    2.3382   -4.2740    5.5314 C   0  0  1  0  0  0  0  0  0  0  0  0
    7.4464    0.6672    6.5010 H   0  0  0  0  0  0  0  0  0  0  0  0
    6.0005    0.5275    7.5045 H   0  0  0  0  0  0  0  0  0  0  0  0
    6.1357    1.8287    6.3164 H   0  0  0  0  0  0  0  0  0  0  0  0
    6.1690    0.1441    4.4858 H   0  0  0  0  0  0  0  0  0  0  0  0
    5.9841   -1.1613    5.6433 H   0  0  0  0  0  0  0  0  0  0  0  0
    3.7904   -0.1956    6.3728 H   0  0  0  0  0  0  0  0  0  0  0  0
    3.9332    1.0525    5.1677 H   0  0  0  0  0  0  0  0  0  0  0  0
    3.7450   -1.9390    4.6348 H   0  0  0  0  0  0  0  0  0  0  0  0
    3.8310    0.3056    2.5842 H   0  0  0  0  0  0  0  0  0  0  0  0
    5.0802   -0.8671    2.8865 H   0  0  0  0  0  0  0  0  0  0  0  0
    3.5700   -2.7114    2.2161 H   0  0  0  0  0  0  0  0  0  0  0  0
    2.3507   -1.5193    1.7360 H   0  0  0  0  0  0  0  0  0  0  0  0
    4.2405   -2.2968   -1.2573 H   0  0  0  0  0  0  0  0  0  0  0  0
    2.6167   -2.2547   -0.5811 H   0  0  0  0  0  0  0  0  0  0  0  0
    3.7694   -3.4810   -0.0409 H   0  0  0  0  0  0  0  0  0  0  0  0
    1.9554    1.2060    3.6150 H   0  0  0  0  0  0  0  0  0  0  0  0
   -0.4645    1.5522    3.8505 H   0  0  0  0  0  0  0  0  0  0  0  0
   -2.5345    0.4566    4.2989 H   0  0  0  0  0  0  0  0  0  0  0  0
    1.2473   -1.5296    7.4203 H   0  0  0  0  0  0  0  0  0  0  0  0
    0.7684   -3.0694    7.9546 H   0  0  0  0  0  0  0  0  0  0  0  0
    3.1795   -1.7843    8.4671 H   0  0  0  0  0  0  0  0  0  0  0  0
    2.9549   -3.4702    8.7249 H   0  0  0  0  0  0  0  0  0  0  0  0
    4.4647   -3.9443    5.3446 H   0  0  0  0  0  0  0  0  0  0  0  0
    4.4088   -6.1629    6.1082 H   0  0  0  0  0  0  0  0  0  0  0  0
    5.2534   -5.2183    7.2982 H   0  0  0  0  0  0  0  0  0  0  0  0
    3.5233   -7.0418    8.0347 H   0  0  0  0  0  0  0  0  0  0  0  0
    3.5810   -5.5683    8.9399 H   0  0  0  0  0  0  0  0  0  0  0  0
    1.2862   -6.6649    7.9591 H   0  0  0  0  0  0  0  0  0  0  0  0
    1.4087   -4.9997    8.3247 H   0  0  0  0  0  0  0  0  0  0  0  0
    1.9596   -6.4206    5.7784 H   0  0  0  0  0  0  0  0  0  0  0  0
   -0.6356   -5.5774    6.3869 H   0  0  0  0  0  0  0  0  0  0  0  0
    0.0090   -3.6436    4.3626 H   0  0  0  0  0  0  0  0  0  0  0  0
    0.1452   -7.8472    4.9509 H   0  0  0  0  0  0  0  0  0  0  0  0
   -1.4603   -7.1621    4.8621 H   0  0  0  0  0  0  0  0  0  0  0  0
   -0.9879   -6.9585    2.2279 H   0  0  0  0  0  0  0  0  0  0  0  0
   -2.2950   -9.1364    3.5285 H   0  0  0  0  0  0  0  0  0  0  0  0
   -2.0510   -8.9877    1.7395 H   0  0  0  0  0  0  0  0  0  0  0  0
   -0.0747  -10.1324    3.7991 H   0  0  0  0  0  0  0  0  0  0  0  0
   -0.2735  -10.6630    2.0788 H   0  0  0  0  0  0  0  0  0  0  0  0
    0.5640   -8.4670    1.2822 H   0  0  0  0  0  0  0  0  0  0  0  0
    1.4382   -8.5399    2.8508 H   0  0  0  0  0  0  0  0  0  0  0  0
    1.8734   -6.6405    3.6354 H   0  0  0  0  0  0  0  0  0  0  0  0
    1.0753   -5.5766    2.5033 H   0  0  0  0  0  0  0  0  0  0  0  0
    3.3253   -4.9365    3.6849 H   0  0  0  0  0  0  0  0  0  0  0  0
    2.1222   -3.7020    3.4290 H   0  0  0  0  0  0  0  0  0  0  0  0
  1  2  1  0
  1 37  1  0
  1 38  1  0
  1 39  1  0
  2  3  1  0
  2 40  1  0
  2 41  1  0
  3  4  1  0
  3 42  1  0
  3 43  1  0
  4  5  1  0
  4  9  1  0
  4 44  1  1
  5  6  1  0
  5 45  1  0
  5 46  1  0
  6  7  1  0
  6 47  1  0
  6 48  1  0
  7  8  1  0
  8 49  1  0
  8 50  1  0
  8 51  1  0
  9 15  2  0
  9 10  1  0
 10 11  2  0
 10 52  1  0
 11 12  1  0
 11 53  1  0
 12 13  1  0
 12 14  2  0
 13 54  1  0
 14 27  1  0
 14 15  1  0
 15 16  1  0
 16 26  1  0
 16 36  1  0
 16 17  1  1
 17 18  1  0
 17 55  1  0
 17 56  1  0
 18 19  1  0
 18 57  1  0
 18 58  1  0
 19 20  1  0
 20 36  1  0
 20 21  1  0
 20 59  1  6
 21 22  1  0
 21 60  1  0
 21 61  1  0
 22 23  1  0
 22 62  1  0
 22 63  1  0
 23 24  1  0
 23 64  1  0
 23 65  1  0
 24 36  1  0
 24 25  1  0
 24 66  1  6
 25 26  1  0
 25 28  1  0
 25 67  1  1
 26 27  1  0
 26 68  1  6
 28 29  1  0
 28 34  1  0
 29 30  1  0
 29 69  1  0
 29 70  1  0
 30 33  1  0
 30 31  1  0
 30 71  1  0
 31 32  1  0
 31 72  1  0
 31 73  1  0
 32 33  1  0
 32 74  1  0
 32 75  1  0
 33 76  1  0
 33 77  1  0
 34 35  1  0
 34 78  1  0
 34 79  1  0
 36 35  1  6
 35 80  1  0
 35 81  1  0
M  END
>  <i_m_ct_stereo_status>  (18) 
1

>  <s_m_source_file>  (18) 
/var/tmp/pbs.5076255.sched01/tmppv1df_bs/0l6e7d74h.sdf

>  <i_m_source_file_index>  (18) 
6

>  <i_lp_mmshare_version>  (18) 
48012

>  <i_f3d_flags>  (18) 
0

>  <s_epik_input>  (18) 
W0NIM11PW0NIMl1bQ0gyXVtDQEBIXShbQ0gyXVtDSDJdW0NIM10pYyhbY0hdW2NIXWMxW09IXSljMmMxT1tDQEBIXTNbQ0BASF0oTihbQ0gyXVtDSDJdNClbQ0gyXVtDSF01W0NIMl1bQ0gyXVtDSDJdNSlbQ0BASF02W0NIMl1bQ0gyXVtDSDJdW0NAQEhdKFtDQEBdNDZbQ0BAXTIzNylPW0NIMl1bQ0gyXTc=

>  <s_epik_cmdline>  (18) 
J2VwaWtfcHl0aG9uJywgJy1waHQnLCAnMi4wJywgJy1waCcsICc3LjAnLCAnLXRuJywgJzgnLCAnLW1hJywgJzIwMCcsICctaW1hZScsICc8aW5maWxlLm1hZT4nLCAnLW9tYWUnLCAnPG91dGZpbGUubWFlPic=

>  <r_lp_tautomer_probability>  (18) 
1

>  <r_epik_Ionization_Penalty>  (18) 
1.88353

>  <r_epik_Ionization_Penalty_Charging>  (18) 
0

>  <r_epik_Ionization_Penalty_Neutral>  (18) 
1.88353

>  <r_epik_State_Penalty>  (18) 
2.00201

>  <r_epik_Charging_Adjusted_Penalty>  (18) 
2.00201

>  <i_epik_Tot_Q>  (18) 
0

>  <i_epik_Tot_abs_Q>  (18) 
0

>  <s_lp_Force_Field>  (18) 
OPLS3e

>  <r_lp_Energy>  (18) 
147.698

>  <b_lp_Chiralities_Consistent>  (18) 
1

>  <s_lp_Variant>  (18) 
4:0-2

>  <s_i_glide_gridfile>  (18) 
pfpi4k_grid

>  <i_i_glide_lignum>  (18) 
6

>  <i_i_glide_rotatable_bonds>  (18) 
9

>  <r_i_docking_score>  (18) 
-1.48895

>  <r_i_glide_ligand_efficiency>  (18) 
-0.0413596

>  <r_i_glide_ligand_efficiency_sa>  (18) 
-0.136566

>  <r_i_glide_ligand_efficiency_ln>  (18) 
-0.324848

>  <r_i_glide_gscore>  (18) 
-1.48895

>  <r_i_glide_lipo>  (18) 
-0.198318

>  <r_i_glide_hbond>  (18) 
0

>  <r_i_glide_metal>  (18) 
-0

>  <r_i_glide_rewards>  (18) 
-0.0293639

>  <r_i_glide_evdw>  (18) 
-24.3164

>  <r_i_glide_ecoul>  (18) 
-3.62184

>  <r_i_glide_erotb>  (18) 
0.497831

>  <r_i_glide_esite>  (18) 
0

>  <r_i_glide_emodel>  (18) 
-29.6869

>  <r_i_glide_energy>  (18) 
-27.9382

>  <r_i_glide_einternal>  (18) 
1.41593

>  <r_i_glide_intrahb_reward>  (18) 
-0

>  <i_i_glide_confnum>  (18) 
2

>  <i_i_glide_posenum>  (18) 
21

>  <r_i_glide_eff_state_penalty>  (18) 
0

>  <ligand_id>  (18) 
4

>  <original_smiles>  (18) 
CCCC(CCOC)c1ccc(O)c2c1C13CCOC4CCCC5C(C1O2)N(CC1CCC1)CCC453

>  <smiles>  (18) 
[H]Oc1c([H])c([H])c(C([H])(C([H])([H])C([H])([H])OC([H])([H])[H])C([H])([H])C([H])([H])C([H])([H])[H])c2c1OC1([H])C3([H])N(C([H])([H])C4([H])C([H])([H])C([H])([H])C4([H])[H])C([H])([H])C([H])([H])C45C([H])(OC([H])([H])C([H])([H])C214)C([H])([H])C([H])([H])C([H])([H])C35[H]

$$$$
5:0:0
     RDKit          3D

 32 35  0  0  1  0  0  0  0  0999 V2000
    3.7548   -3.0371   -4.3142 O   0  0  0  0  0  0  0  0  0  0  0  0
    3.9224   -2.9451   -3.1032 C   0  0  0  0  0  0  0  0  0  0  0  0
    3.0220   -1.9896   -2.3316 C   0  0  0  0  0  0  0  0  0  0  0  0
    3.8173   -1.1369   -1.4231 N   0  0  0  0  0  0  0  0  0  0  0  0
    3.6980   -1.4490    0.0123 C   0  0  0  0  0  0  0  0  0  0  0  0
    4.4154   -2.7341    0.3966 C   0  0  2  0  0  0  0  0  0  0  0  0
    5.7950   -3.0201   -0.2401 C   0  0  1  0  0  0  0  0  0  0  0  0
    6.9669   -3.4667    0.6447 C   0  0  0  0  0  0  0  0  0  0  0  0
    6.6004   -4.3549    1.6948 O   0  0  0  0  0  0  0  0  0  0  0  0
    6.3610   -5.7047    1.3244 C   0  0  0  0  0  0  0  0  0  0  0  0
    4.8896   -6.0257    1.4687 C   0  0  2  0  0  0  0  0  0  0  0  0
    4.2287   -6.5013    0.2802 O   0  0  0  0  0  0  0  0  0  0  0  0
    3.7734   -5.2530    0.8045 C   0  0  2  0  0  0  0  0  0  0  0  0
    3.8908   -4.0774   -0.1598 C   0  0  2  0  0  0  0  0  0  0  0  0
    5.0851   -4.0425   -1.1344 C   0  0  1  0  0  0  0  0  0  0  0  0
    4.9573   -3.6000   -2.5059 O   0  0  0  0  0  0  0  0  0  0  0  0
    2.6115   -1.3166   -3.0792 H   0  0  0  0  0  0  0  0  0  0  0  0
    2.1652   -2.4677   -1.8578 H   0  0  0  0  0  0  0  0  0  0  0  0
    4.7829   -1.1356   -1.7123 H   0  0  0  0  0  0  0  0  0  0  0  0
    4.1071   -0.6248    0.5969 H   0  0  0  0  0  0  0  0  0  0  0  0
    2.6457   -1.5212    0.2780 H   0  0  0  0  0  0  0  0  0  0  0  0
    4.4823   -2.8125    1.4894 H   0  0  0  0  0  0  0  0  0  0  0  0
    6.1301   -2.1922   -0.8740 H   0  0  0  0  0  0  0  0  0  0  0  0
    7.7746   -3.8928    0.0518 H   0  0  0  0  0  0  0  0  0  0  0  0
    7.4002   -2.5878    1.1227 H   0  0  0  0  0  0  0  0  0  0  0  0
    6.6922   -5.9343    0.3136 H   0  0  0  0  0  0  0  0  0  0  0  0
    6.9232   -6.3605    1.9910 H   0  0  0  0  0  0  0  0  0  0  0  0
    4.6109   -6.5181    2.3985 H   0  0  0  0  0  0  0  0  0  0  0  0
    2.8166   -5.3216    1.3177 H   0  0  0  0  0  0  0  0  0  0  0  0
    2.9755   -4.0329   -0.7559 H   0  0  0  0  0  0  0  0  0  0  0  0
    5.5910   -5.0064   -1.1325 H   0  0  0  0  0  0  0  0  0  0  0  0
    3.4429   -0.2012   -1.5357 H   0  0  0  0  0  0  0  0  0  0  0  0
  1  2  2  0
  2 16  1  0
  2  3  1  0
  3  4  1  0
  3 17  1  0
  3 18  1  0
  4  5  1  0
  4 19  1  0
  4 32  1  0
  5  6  1  0
  5 20  1  0
  5 21  1  0
  6 14  1  0
  6  7  1  0
  6 22  1  1
  7 15  1  0
  7  8  1  0
  7 23  1  6
  8  9  1  0
  8 24  1  0
  8 25  1  0
  9 10  1  0
 10 11  1  0
 10 26  1  0
 10 27  1  0
 11 13  1  0
 11 12  1  0
 11 28  1  1
 12 13  1  0
 13 14  1  0
 13 29  1  1
 14 15  1  0
 14 30  1  6
 15 16  1  0
 15 31  1  6
M  CHG  1   4   1
M  END
>  <i_m_ct_stereo_status>  (19) 
1

>  <s_m_source_file>  (19) 
/var/tmp/pbs.5076255.sched01/tmppv1df_bs/0l6e7d74h.sdf

>  <i_m_source_file_index>  (19) 
7

>  <i_lp_mmshare_version>  (19) 
48012

>  <i_f3d_flags>  (19) 
0

>  <s_epik_input>  (19) 
W0NIMl0xW05IXVtDSDJdQyg9TylPW0NAQEhdKFtDQEhdMltDQEBIXTEzKVtDQEhdM1tDQEBIXTRbQ0BASF0oTzQpW0NIMl1PW0NIMl0y

>  <s_epik_cmdline>  (19) 
J2VwaWtfcHl0aG9uJywgJy1waHQnLCAnMi4wJywgJy1waCcsICc3LjAnLCAnLXRuJywgJzgnLCAnLW1hJywgJzIwMCcsICctaW1hZScsICc8aW5maWxlLm1hZT4nLCAnLW9tYWUnLCAnPG91dGZpbGUubWFlPic=

>  <r_epik_Ionization_Penalty>  (19) 
0.166098

>  <r_epik_Ionization_Penalty_Charging>  (19) 
0.166098

>  <r_epik_Ionization_Penalty_Neutral>  (19) 
6.5445e-12

>  <r_epik_State_Penalty>  (19) 
0.155444

>  <r_epik_Charging_Adjusted_Penalty>  (19) 
0.321542

>  <i_epik_Tot_Q>  (19) 
1

>  <i_epik_Tot_abs_Q>  (19) 
1

>  <s_epik_Chemistry_Notes>  (19) 
This compound has an ester and may undergo hydrolysis at high or low pH.

>  <s_lp_Force_Field>  (19) 
OPLS3e

>  <r_lp_Energy>  (19) 
57.2472

>  <b_lp_Chiralities_Consistent>  (19) 
1

>  <s_lp_Variant>  (19) 
5:0-1

>  <s_i_glide_gridfile>  (19) 
pfpi4k_grid

>  <i_i_glide_lignum>  (19) 
7

>  <i_i_glide_rotatable_bonds>  (19) 
0

>  <r_i_docking_score>  (19) 
-4.37325

>  <r_i_glide_ligand_efficiency>  (19) 
-0.273328

>  <r_i_glide_ligand_efficiency_sa>  (19) 
-0.688743

>  <r_i_glide_ligand_efficiency_ln>  (19) 
-1.15922

>  <r_i_glide_gscore>  (19) 
-4.37325

>  <r_i_glide_lipo>  (19) 
-0.302419

>  <r_i_glide_hbond>  (19) 
-0.248674

>  <r_i_glide_metal>  (19) 
-0

>  <r_i_glide_rewards>  (19) 
-1.97546

>  <r_i_glide_evdw>  (19) 
-20.4274

>  <r_i_glide_ecoul>  (19) 
-5.08535

>  <r_i_glide_erotb>  (19) 
0

>  <r_i_glide_esite>  (19) 
-0.0625212

>  <r_i_glide_emodel>  (19) 
-32.4369

>  <r_i_glide_energy>  (19) 
-25.5127

>  <r_i_glide_einternal>  (19) 
0

>  <r_i_glide_intrahb_reward>  (19) 
-0

>  <i_i_glide_confnum>  (19) 
1

>  <i_i_glide_posenum>  (19) 
3

>  <r_i_glide_eff_state_penalty>  (19) 
0

>  <ligand_id>  (19) 
5

>  <original_smiles>  (19) 
O=C1CNCC2C3COCC4OC4C2C3O1

>  <smiles>  (19) 
[H]C1([H])OC([H])([H])C2([H])C3([H])OC(=O)C([H])([H])[N+]([H])([H])C([H])([H])C2([H])C3([H])C2([H])OC12[H]

$$$$
5:0:1
     RDKit          3D

 32 35  0  0  1  0  0  0  0  0999 V2000
    2.0268   -6.2150    1.0005 O   0  0  0  0  0  0  0  0  0  0  0  0
    2.9566   -5.4766    0.6833 C   0  0  0  0  0  0  0  0  0  0  0  0
    4.3929   -5.9882    0.8660 C   0  0  0  0  0  0  0  0  0  0  0  0
    5.2758   -4.9742    1.4746 N   0  0  0  0  0  0  0  0  0  0  0  0
    6.2404   -4.3433    0.5472 C   0  0  0  0  0  0  0  0  0  0  0  0
    5.5826   -3.3707   -0.4234 C   0  0  2  0  0  0  0  0  0  0  0  0
    4.4602   -2.4578    0.1073 C   0  0  1  0  0  0  0  0  0  0  0  0
    4.4892   -0.9651   -0.2216 C   0  0  0  0  0  0  0  0  0  0  0  0
    4.9353   -0.6860   -1.5464 O   0  0  0  0  0  0  0  0  0  0  0  0
    3.9813   -0.8922   -2.5817 C   0  0  0  0  0  0  0  0  0  0  0  0
    4.4251   -2.0427   -3.4450 C   0  0  2  0  0  0  0  0  0  0  0  0
    3.5210   -3.1470   -3.6063 O   0  0  0  0  0  0  0  0  0  0  0  0
    4.7516   -3.4218   -2.9293 C   0  0  2  0  0  0  0  0  0  0  0  0
    4.6209   -3.9137   -1.4929 C   0  0  2  0  0  0  0  0  0  0  0  0
    3.4680   -3.3679   -0.6235 C   0  0  1  0  0  0  0  0  0  0  0  0
    2.7026   -4.2124    0.2483 O   0  0  0  0  0  0  0  0  0  0  0  0
    4.3117   -6.7942    1.5978 H   0  0  0  0  0  0  0  0  0  0  0  0
    4.7924   -6.4563   -0.0348 H   0  0  0  0  0  0  0  0  0  0  0  0
    4.7202   -4.2655    1.9386 H   0  0  0  0  0  0  0  0  0  0  0  0
    6.9893   -3.8102    1.1316 H   0  0  0  0  0  0  0  0  0  0  0  0
    6.7754   -5.1251    0.0139 H   0  0  0  0  0  0  0  0  0  0  0  0
    6.3478   -2.7790   -0.9298 H   0  0  0  0  0  0  0  0  0  0  0  0
    4.3194   -2.5782    1.1840 H   0  0  0  0  0  0  0  0  0  0  0  0
    3.5216   -0.5037   -0.0238 H   0  0  0  0  0  0  0  0  0  0  0  0
    5.1857   -0.4686    0.4546 H   0  0  0  0  0  0  0  0  0  0  0  0
    2.9678   -1.0549   -2.2189 H   0  0  0  0  0  0  0  0  0  0  0  0
    3.9414    0.0053   -3.1999 H   0  0  0  0  0  0  0  0  0  0  0  0
    4.9791   -1.7437   -4.3239 H   0  0  0  0  0  0  0  0  0  0  0  0
    5.4451   -4.0035   -3.5314 H   0  0  0  0  0  0  0  0  0  0  0  0
    4.5914   -5.0015   -1.5149 H   0  0  0  0  0  0  0  0  0  0  0  0
    2.7443   -2.8017   -1.2086 H   0  0  0  0  0  0  0  0  0  0  0  0
    5.8286   -5.4519    2.1775 H   0  0  0  0  0  0  0  0  0  0  0  0
  1  2  2  0
  2 16  1  0
  2  3  1  0
  3  4  1  0
  3 17  1  0
  3 18  1  0
  4  5  1  0
  4 19  1  0
  4 32  1  0
  5  6  1  0
  5 20  1  0
  5 21  1  0
  6 14  1  0
  6  7  1  0
  6 22  1  6
  7 15  1  0
  7  8  1  0
  7 23  1  1
  8  9  1  0
  8 24  1  0
  8 25  1  0
  9 10  1  0
 10 11  1  0
 10 26  1  0
 10 27  1  0
 11 13  1  0
 11 12  1  0
 11 28  1  6
 12 13  1  0
 13 14  1  0
 13 29  1  6
 14 15  1  0
 14 30  1  6
 15 16  1  0
 15 31  1  6
M  CHG  1   4   1
M  END
>  <i_m_ct_stereo_status>  (20) 
1

>  <s_m_source_file>  (20) 
/var/tmp/pbs.5076255.sched01/tmppv1df_bs/0l6e7d74h.sdf

>  <i_m_source_file_index>  (20) 
7

>  <i_lp_mmshare_version>  (20) 
48012

>  <i_f3d_flags>  (20) 
0

>  <s_epik_input>  (20) 
W0NIMl0xW05IXVtDSDJdQyg9TylPW0NAQEhdKFtDQEhdMltDQEBIXTEzKVtDQEhdM1tDQEBIXTRbQ0BASF0oTzQpW0NIMl1PW0NIMl0y

>  <s_epik_cmdline>  (20) 
J2VwaWtfcHl0aG9uJywgJy1waHQnLCAnMi4wJywgJy1waCcsICc3LjAnLCAnLXRuJywgJzgnLCAnLW1hJywgJzIwMCcsICctaW1hZScsICc8aW5maWxlLm1hZT4nLCAnLW9tYWUnLCAnPG91dGZpbGUubWFlPic=

>  <r_epik_Ionization_Penalty>  (20) 
0.166098

>  <r_epik_Ionization_Penalty_Charging>  (20) 
0.166098

>  <r_epik_Ionization_Penalty_Neutral>  (20) 
6.5445e-12

>  <r_epik_State_Penalty>  (20) 
0.155444

>  <r_epik_Charging_Adjusted_Penalty>  (20) 
0.321542

>  <i_epik_Tot_Q>  (20) 
1

>  <i_epik_Tot_abs_Q>  (20) 
1

>  <s_epik_Chemistry_Notes>  (20) 
This compound has an ester and may undergo hydrolysis at high or low pH.

>  <s_lp_Force_Field>  (20) 
OPLS3e

>  <r_lp_Energy>  (20) 
57.2472

>  <b_lp_Chiralities_Consistent>  (20) 
1

>  <s_lp_Variant>  (20) 
5:0-1

>  <s_i_glide_gridfile>  (20) 
pfpi4k_grid

>  <i_i_glide_lignum>  (20) 
7

>  <i_i_glide_rotatable_bonds>  (20) 
0

>  <r_i_docking_score>  (20) 
-3.92466

>  <r_i_glide_ligand_efficiency>  (20) 
-0.245291

>  <r_i_glide_ligand_efficiency_sa>  (20) 
-0.618095

>  <r_i_glide_ligand_efficiency_ln>  (20) 
-1.04031

>  <r_i_glide_gscore>  (20) 
-3.92466

>  <r_i_glide_lipo>  (20) 
-0.563911

>  <r_i_glide_hbond>  (20) 
0

>  <r_i_glide_metal>  (20) 
-0

>  <r_i_glide_rewards>  (20) 
-1.86648

>  <r_i_glide_evdw>  (20) 
-22.6293

>  <r_i_glide_ecoul>  (20) 
-2.2594

>  <r_i_glide_erotb>  (20) 
0

>  <r_i_glide_esite>  (20) 
-0.0238861

>  <r_i_glide_emodel>  (20) 
-30.9448

>  <r_i_glide_energy>  (20) 
-24.8887

>  <r_i_glide_einternal>  (20) 
0

>  <r_i_glide_intrahb_reward>  (20) 
-0

>  <i_i_glide_confnum>  (20) 
1

>  <i_i_glide_posenum>  (20) 
11

>  <r_i_glide_eff_state_penalty>  (20) 
0

>  <ligand_id>  (20) 
5

>  <original_smiles>  (20) 
O=C1CNCC2C3COCC4OC4C2C3O1

>  <smiles>  (20) 
[H]C1([H])OC([H])([H])C2([H])C3([H])OC(=O)C([H])([H])[N+]([H])([H])C([H])([H])C2([H])C3([H])C2([H])OC12[H]

$$$$
5:0:2
     RDKit          3D

 32 35  0  0  1  0  0  0  0  0999 V2000
    6.2167   -1.1591    1.8343 O   0  0  0  0  0  0  0  0  0  0  0  0
    5.5087   -1.7143    0.9881 C   0  0  0  0  0  0  0  0  0  0  0  0
    4.2348   -2.3853    1.4838 C   0  0  0  0  0  0  0  0  0  0  0  0
    4.0139   -3.7081    0.8628 N   0  0  0  0  0  0  0  0  0  0  0  0
    2.9423   -3.7236   -0.1495 C   0  0  0  0  0  0  0  0  0  0  0  0
    3.3507   -3.0385   -1.4371 C   0  0  2  0  0  0  0  0  0  0  0  0
    4.7735   -3.2680   -1.9592 C   0  0  1  0  0  0  0  0  0  0  0  0
    4.9511   -3.6319   -3.4244 C   0  0  0  0  0  0  0  0  0  0  0  0
    3.9606   -3.0172   -4.2614 O   0  0  0  0  0  0  0  0  0  0  0  0
    4.2043   -1.6293   -4.5325 C   0  0  0  0  0  0  0  0  0  0  0  0
    3.2745   -0.7045   -3.9571 C   0  0  2  0  0  0  0  0  0  0  0  0
    3.9380    0.2931   -3.1362 O   0  0  0  0  0  0  0  0  0  0  0  0
    3.0280   -0.6561   -2.5438 C   0  0  2  0  0  0  0  0  0  0  0  0
    3.6048   -1.5144   -1.4541 C   0  0  2  0  0  0  0  0  0  0  0  0
    5.0958   -1.8572   -1.4845 C   0  0  1  0  0  0  0  0  0  0  0  0
    5.8991   -1.7551   -0.3124 O   0  0  0  0  0  0  0  0  0  0  0  0
    4.4245   -2.5753    2.5375 H   0  0  0  0  0  0  0  0  0  0  0  0
    3.3778   -1.7093    1.4647 H   0  0  0  0  0  0  0  0  0  0  0  0
    4.8801   -4.0623    0.4633 H   0  0  0  0  0  0  0  0  0  0  0  0
    2.6735   -4.7587   -0.3545 H   0  0  0  0  0  0  0  0  0  0  0  0
    2.0460   -3.2551    0.2578 H   0  0  0  0  0  0  0  0  0  0  0  0
    2.6121   -3.2701   -2.2065 H   0  0  0  0  0  0  0  0  0  0  0  0
    5.3188   -3.9699   -1.3455 H   0  0  0  0  0  0  0  0  0  0  0  0
    5.9892   -3.4378   -3.7405 H   0  0  0  0  0  0  0  0  0  0  0  0
    4.7999   -4.7013   -3.5616 H   0  0  0  0  0  0  0  0  0  0  0  0
    5.1636   -1.3334   -4.1288 H   0  0  0  0  0  0  0  0  0  0  0  0
    4.2153   -1.3203   -5.5515 H   0  0  0  0  0  0  0  0  0  0  0  0
    2.5089   -0.3298   -4.6215 H   0  0  0  0  0  0  0  0  0  0  0  0
    2.0752   -0.2036   -2.3621 H   0  0  0  0  0  0  0  0  0  0  0  0
    3.3546   -1.0338   -0.5130 H   0  0  0  0  0  0  0  0  0  0  0  0
    5.5872   -1.2593   -2.2403 H   0  0  0  0  0  0  0  0  0  0  0  0
    3.7168   -4.3243    1.6085 H   0  0  0  0  0  0  0  0  0  0  0  0
  1  2  2  0
  2 16  1  0
  2  3  1  0
  3  4  1  0
  3 17  1  0
  3 18  1  0
  4  5  1  0
  4 19  1  0
  4 32  1  0
  5  6  1  0
  5 20  1  0
  5 21  1  0
  6 14  1  0
  6  7  1  0
  6 22  1  6
  7 15  1  0
  7  8  1  0
  7 23  1  1
  8  9  1  0
  8 24  1  0
  8 25  1  0
  9 10  1  0
 10 11  1  0
 10 26  1  0
 10 27  1  0
 11 13  1  0
 11 12  1  0
 11 28  1  6
 12 13  1  0
 13 14  1  0
 13 29  1  6
 14 15  1  0
 14 30  1  1
 15 16  1  0
 15 31  1  6
M  CHG  1   4   1
M  END
>  <i_m_ct_stereo_status>  (21) 
1

>  <s_m_source_file>  (21) 
/var/tmp/pbs.5076255.sched01/tmppv1df_bs/0l6e7d74h.sdf

>  <i_m_source_file_index>  (21) 
7

>  <i_lp_mmshare_version>  (21) 
48012

>  <i_f3d_flags>  (21) 
0

>  <s_epik_input>  (21) 
W0NIMl0xW05IXVtDSDJdQyg9TylPW0NAQEhdKFtDQEhdMltDQEBIXTEzKVtDQEhdM1tDQEBIXTRbQ0BASF0oTzQpW0NIMl1PW0NIMl0y

>  <s_epik_cmdline>  (21) 
J2VwaWtfcHl0aG9uJywgJy1waHQnLCAnMi4wJywgJy1waCcsICc3LjAnLCAnLXRuJywgJzgnLCAnLW1hJywgJzIwMCcsICctaW1hZScsICc8aW5maWxlLm1hZT4nLCAnLW9tYWUnLCAnPG91dGZpbGUubWFlPic=

>  <r_epik_Ionization_Penalty>  (21) 
0.166098

>  <r_epik_Ionization_Penalty_Charging>  (21) 
0.166098

>  <r_epik_Ionization_Penalty_Neutral>  (21) 
6.5445e-12

>  <r_epik_State_Penalty>  (21) 
0.155444

>  <r_epik_Charging_Adjusted_Penalty>  (21) 
0.321542

>  <i_epik_Tot_Q>  (21) 
1

>  <i_epik_Tot_abs_Q>  (21) 
1

>  <s_epik_Chemistry_Notes>  (21) 
This compound has an ester and may undergo hydrolysis at high or low pH.

>  <s_lp_Force_Field>  (21) 
OPLS3e

>  <r_lp_Energy>  (21) 
57.2472

>  <b_lp_Chiralities_Consistent>  (21) 
1

>  <s_lp_Variant>  (21) 
5:0-1

>  <s_i_glide_gridfile>  (21) 
pfpi4k_grid

>  <i_i_glide_lignum>  (21) 
7

>  <i_i_glide_rotatable_bonds>  (21) 
0

>  <r_i_docking_score>  (21) 
-3.56591

>  <r_i_glide_ligand_efficiency>  (21) 
-0.22287

>  <r_i_glide_ligand_efficiency_sa>  (21) 
-0.561596

>  <r_i_glide_ligand_efficiency_ln>  (21) 
-0.945217

>  <r_i_glide_gscore>  (21) 
-3.56591

>  <r_i_glide_lipo>  (21) 
-0.427978

>  <r_i_glide_hbond>  (21) 
-0.247301

>  <r_i_glide_metal>  (21) 
-0

>  <r_i_glide_rewards>  (21) 
-1.99827

>  <r_i_glide_evdw>  (21) 
-9.15213

>  <r_i_glide_ecoul>  (21) 
-2.89838

>  <r_i_glide_erotb>  (21) 
0

>  <r_i_glide_esite>  (21) 
0

>  <r_i_glide_emodel>  (21) 
-17.2617

>  <r_i_glide_energy>  (21) 
-12.0505

>  <r_i_glide_einternal>  (21) 
0

>  <r_i_glide_intrahb_reward>  (21) 
-0

>  <i_i_glide_confnum>  (21) 
1

>  <i_i_glide_posenum>  (21) 
7

>  <r_i_glide_eff_state_penalty>  (21) 
0

>  <ligand_id>  (21) 
5

>  <original_smiles>  (21) 
O=C1CNCC2C3COCC4OC4C2C3O1

>  <smiles>  (21) 
[H]C1([H])OC([H])([H])C2([H])C3([H])OC(=O)C([H])([H])[N+]([H])([H])C([H])([H])C2([H])C3([H])C2([H])OC12[H]

$$$$
5:1:0
     RDKit          3D

 31 34  0  0  1  0  0  0  0  0999 V2000
    3.8180    0.7582   -4.3477 O   0  0  0  0  0  0  0  0  0  0  0  0
    3.8151   -0.1976   -3.5842 C   0  0  0  0  0  0  0  0  0  0  0  0
    2.8601   -1.3329   -3.8671 C   0  0  0  0  0  0  0  0  0  0  0  0
    3.4800   -2.5326   -4.3337 N   0  0  0  0  0  0  0  0  0  0  0  0
    3.4429   -3.5637   -3.3412 C   0  0  0  0  0  0  0  0  0  0  0  0
    4.3172   -3.3182   -2.1264 C   0  0  2  0  0  0  0  0  0  0  0  0
    3.8750   -2.3058   -1.0576 C   0  0  1  0  0  0  0  0  0  0  0  0
    3.9131   -2.6990    0.4208 C   0  0  0  0  0  0  0  0  0  0  0  0
    5.0288   -3.5091    0.7741 O   0  0  0  0  0  0  0  0  0  0  0  0
    6.2840   -2.8567    0.8817 C   0  0  0  0  0  0  0  0  0  0  0  0
    7.2098   -3.2950   -0.2397 C   0  0  2  0  0  0  0  0  0  0  0  0
    7.7745   -2.2527   -1.0607 O   0  0  0  0  0  0  0  0  0  0  0  0
    6.8881   -3.1576   -1.7049 C   0  0  2  0  0  0  0  0  0  0  0  0
    5.6338   -2.5611   -2.3001 C   0  0  2  0  0  0  0  0  0  0  0  0
    4.9395   -1.3682   -1.6331 C   0  0  1  0  0  0  0  0  0  0  0  0
    4.6108   -0.2628   -2.4902 O   0  0  0  0  0  0  0  0  0  0  0  0
    2.1957   -1.5111   -3.0368 H   0  0  0  0  0  0  0  0  0  0  0  0
    2.2344   -0.9831   -4.6887 H   0  0  0  0  0  0  0  0  0  0  0  0
    2.8528   -2.8494   -5.0594 H   0  0  0  0  0  0  0  0  0  0  0  0
    2.4175   -3.8044   -3.0561 H   0  0  0  0  0  0  0  0  0  0  0  0
    3.8183   -4.4262   -3.8843 H   0  0  0  0  0  0  0  0  0  0  0  0
    4.5308   -4.2625   -1.6288 H   0  0  0  0  0  0  0  0  0  0  0  0
    2.8893   -1.9160   -1.2774 H   0  0  0  0  0  0  0  0  0  0  0  0
    3.8544   -1.8164    1.0560 H   0  0  0  0  0  0  0  0  0  0  0  0
    3.0212   -3.2834    0.6505 H   0  0  0  0  0  0  0  0  0  0  0  0
    6.2105   -1.7707    0.9176 H   0  0  0  0  0  0  0  0  0  0  0  0
    6.7389   -3.1594    1.8211 H   0  0  0  0  0  0  0  0  0  0  0  0
    7.8918   -4.1075    0.0110 H   0  0  0  0  0  0  0  0  0  0  0  0
    7.4045   -3.8339   -2.3819 H   0  0  0  0  0  0  0  0  0  0  0  0
    5.8104   -2.2911   -3.3366 H   0  0  0  0  0  0  0  0  0  0  0  0
    5.5437   -0.9622   -0.8315 H   0  0  0  0  0  0  0  0  0  0  0  0
  1  2  2  0
  2 16  1  0
  2  3  1  0
  3  4  1  0
  3 17  1  0
  3 18  1  0
  4  5  1  0
  4 19  1  0
  5  6  1  0
  5 20  1  0
  5 21  1  0
  6 14  1  0
  6  7  1  0
  6 22  1  1
  7 15  1  0
  7  8  1  0
  7 23  1  6
  8  9  1  0
  8 24  1  0
  8 25  1  0
  9 10  1  0
 10 11  1  0
 10 26  1  0
 10 27  1  0
 11 13  1  0
 11 12  1  0
 11 28  1  1
 12 13  1  0
 13 14  1  0
 13 29  1  6
 14 15  1  0
 14 30  1  6
 15 16  1  0
 15 31  1  1
M  END
>  <i_m_ct_stereo_status>  (22) 
1

>  <s_m_source_file>  (22) 
/var/tmp/pbs.5076255.sched01/tmppv1df_bs/0l6e7d74h.sdf

>  <i_m_source_file_index>  (22) 
8

>  <i_lp_mmshare_version>  (22) 
48012

>  <i_f3d_flags>  (22) 
0

>  <s_epik_input>  (22) 
W0NIMl0xW05IXVtDSDJdQyg9TylPW0NAQEhdKFtDQEhdMltDQEBIXTEzKVtDQEhdM1tDQEBIXTRbQ0BASF0oTzQpW0NIMl1PW0NIMl0y

>  <s_epik_cmdline>  (22) 
J2VwaWtfcHl0aG9uJywgJy1waHQnLCAnMi4wJywgJy1waCcsICc3LjAnLCAnLXRuJywgJzgnLCAnLW1hJywgJzIwMCcsICctaW1hZScsICc8aW5maWxlLm1hZT4nLCAnLW9tYWUnLCAnPG91dGZpbGUubWFlPic=

>  <r_epik_Ionization_Penalty>  (22) 
0.834604

>  <r_epik_Ionization_Penalty_Charging>  (22) 
0

>  <r_epik_Ionization_Penalty_Neutral>  (22) 
0.834604

>  <r_epik_State_Penalty>  (22) 
0.868794

>  <r_epik_Charging_Adjusted_Penalty>  (22) 
0.868794

>  <i_epik_Tot_Q>  (22) 
0

>  <i_epik_Tot_abs_Q>  (22) 
0

>  <s_epik_Chemistry_Notes>  (22) 
This compound has an ester and may undergo hydrolysis at high or low pH.

>  <s_lp_Force_Field>  (22) 
OPLS3e

>  <r_lp_Energy>  (22) 
51.1589

>  <b_lp_Chiralities_Consistent>  (22) 
1

>  <s_lp_Variant>  (22) 
5:0-2

>  <s_i_glide_gridfile>  (22) 
pfpi4k_grid

>  <i_i_glide_lignum>  (22) 
8

>  <i_i_glide_rotatable_bonds>  (22) 
0

>  <r_i_docking_score>  (22) 
-5.29322

>  <r_i_glide_ligand_efficiency>  (22) 
-0.330826

>  <r_i_glide_ligand_efficiency_sa>  (22) 
-0.83363

>  <r_i_glide_ligand_efficiency_ln>  (22) 
-1.40307

>  <r_i_glide_gscore>  (22) 
-5.29322

>  <r_i_glide_lipo>  (22) 
-0.508151

>  <r_i_glide_hbond>  (22) 
-0.718111

>  <r_i_glide_metal>  (22) 
-0

>  <r_i_glide_rewards>  (22) 
-2.1133

>  <r_i_glide_evdw>  (22) 
-18.8078

>  <r_i_glide_ecoul>  (22) 
-6.75513

>  <r_i_glide_erotb>  (22) 
0

>  <r_i_glide_esite>  (22) 
0

>  <r_i_glide_emodel>  (22) 
-32.4998

>  <r_i_glide_energy>  (22) 
-25.5629

>  <r_i_glide_einternal>  (22) 
0

>  <r_i_glide_intrahb_reward>  (22) 
-0

>  <i_i_glide_confnum>  (22) 
2

>  <i_i_glide_posenum>  (22) 
14

>  <r_i_glide_eff_state_penalty>  (22) 
0

>  <ligand_id>  (22) 
5

>  <original_smiles>  (22) 
O=C1CNCC2C3COCC4OC4C2C3O1

>  <smiles>  (22) 
[H]N1C([H])([H])C(=O)OC2([H])C3([H])C([H])([H])OC([H])([H])C4([H])OC4([H])C2([H])C3([H])C1([H])[H]

$$$$
5:1:1
     RDKit          3D

 31 34  0  0  1  0  0  0  0  0999 V2000
    3.8366    0.5666   -4.6089 O   0  0  0  0  0  0  0  0  0  0  0  0
    3.8295   -0.2683   -3.7081 C   0  0  0  0  0  0  0  0  0  0  0  0
    3.0323   -1.5225   -3.9233 C   0  0  0  0  0  0  0  0  0  0  0  0
    3.8432   -2.6984   -4.0704 N   0  0  0  0  0  0  0  0  0  0  0  0
    3.7189   -3.5006   -2.8789 C   0  0  0  0  0  0  0  0  0  0  0  0
    4.3238   -3.0062   -1.5907 C   0  0  2  0  0  0  0  0  0  0  0  0
    3.6278   -1.8661   -0.8458 C   0  0  1  0  0  0  0  0  0  0  0  0
    3.4017   -1.9737    0.6723 C   0  0  0  0  0  0  0  0  0  0  0  0
    4.4460   -2.6103    1.3957 O   0  0  0  0  0  0  0  0  0  0  0  0
    5.6197   -1.8487    1.6015 C   0  0  0  0  0  0  0  0  0  0  0  0
    6.7548   -2.4108    0.7723 C   0  0  2  0  0  0  0  0  0  0  0  0
    7.3916   -1.4669   -0.1107 O   0  0  0  0  0  0  0  0  0  0  0  0
    6.7384   -2.5735   -0.7323 C   0  0  2  0  0  0  0  0  0  0  0  0
    5.6157   -2.1978   -1.6754 C   0  0  2  0  0  0  0  0  0  0  0  0
    4.7406   -0.9688   -1.4099 C   0  0  1  0  0  0  0  0  0  0  0  0
    4.5659   -0.1143   -2.5607 O   0  0  0  0  0  0  0  0  0  0  0  0
    2.2146   -1.6405   -3.2316 H   0  0  0  0  0  0  0  0  0  0  0  0
    2.5879   -1.3396   -4.8936 H   0  0  0  0  0  0  0  0  0  0  0  0
    3.4099   -3.2848   -4.7645 H   0  0  0  0  0  0  0  0  0  0  0  0
    2.6737   -3.7833   -2.7524 H   0  0  0  0  0  0  0  0  0  0  0  0
    4.2649   -4.3912   -3.1511 H   0  0  0  0  0  0  0  0  0  0  0  0
    4.4665   -3.8360   -0.8956 H   0  0  0  0  0  0  0  0  0  0  0  0
    2.6792   -1.6201   -1.3227 H   0  0  0  0  0  0  0  0  0  0  0  0
    3.1747   -1.0035    1.1074 H   0  0  0  0  0  0  0  0  0  0  0  0
    2.5105   -2.5730    0.8503 H   0  0  0  0  0  0  0  0  0  0  0  0
    5.4923   -0.7915    1.3812 H   0  0  0  0  0  0  0  0  0  0  0  0
    5.9054   -1.9166    2.6497 H   0  0  0  0  0  0  0  0  0  0  0  0
    7.4289   -3.0827    1.3007 H   0  0  0  0  0  0  0  0  0  0  0  0
    7.4288   -3.3099   -1.1345 H   0  0  0  0  0  0  0  0  0  0  0  0
    5.9886   -2.0951   -2.6968 H   0  0  0  0  0  0  0  0  0  0  0  0
    5.1386   -0.3500   -0.6121 H   0  0  0  0  0  0  0  0  0  0  0  0
  1  2  2  0
  2 16  1  0
  2  3  1  0
  3  4  1  0
  3 17  1  0
  3 18  1  0
  4  5  1  0
  4 19  1  0
  5  6  1  0
  5 20  1  0
  5 21  1  0
  6 14  1  0
  6  7  1  0
  6 22  1  1
  7 15  1  0
  7  8  1  0
  7 23  1  6
  8  9  1  0
  8 24  1  0
  8 25  1  0
  9 10  1  0
 10 11  1  0
 10 26  1  0
 10 27  1  0
 11 13  1  0
 11 12  1  0
 11 28  1  1
 12 13  1  0
 13 14  1  0
 13 29  1  1
 14 15  1  0
 14 30  1  6
 15 16  1  0
 15 31  1  1
M  END
>  <i_m_ct_stereo_status>  (23) 
1

>  <s_m_source_file>  (23) 
/var/tmp/pbs.5076255.sched01/tmppv1df_bs/0l6e7d74h.sdf

>  <i_m_source_file_index>  (23) 
8

>  <i_lp_mmshare_version>  (23) 
48012

>  <i_f3d_flags>  (23) 
0

>  <s_epik_input>  (23) 
W0NIMl0xW05IXVtDSDJdQyg9TylPW0NAQEhdKFtDQEhdMltDQEBIXTEzKVtDQEhdM1tDQEBIXTRbQ0BASF0oTzQpW0NIMl1PW0NIMl0y

>  <s_epik_cmdline>  (23) 
J2VwaWtfcHl0aG9uJywgJy1waHQnLCAnMi4wJywgJy1waCcsICc3LjAnLCAnLXRuJywgJzgnLCAnLW1hJywgJzIwMCcsICctaW1hZScsICc8aW5maWxlLm1hZT4nLCAnLW9tYWUnLCAnPG91dGZpbGUubWFlPic=

>  <r_epik_Ionization_Penalty>  (23) 
0.834604

>  <r_epik_Ionization_Penalty_Charging>  (23) 
0

>  <r_epik_Ionization_Penalty_Neutral>  (23) 
0.834604

>  <r_epik_State_Penalty>  (23) 
0.868794

>  <r_epik_Charging_Adjusted_Penalty>  (23) 
0.868794

>  <i_epik_Tot_Q>  (23) 
0

>  <i_epik_Tot_abs_Q>  (23) 
0

>  <s_epik_Chemistry_Notes>  (23) 
This compound has an ester and may undergo hydrolysis at high or low pH.

>  <s_lp_Force_Field>  (23) 
OPLS3e

>  <r_lp_Energy>  (23) 
51.1589

>  <b_lp_Chiralities_Consistent>  (23) 
1

>  <s_lp_Variant>  (23) 
5:0-2

>  <s_i_glide_gridfile>  (23) 
pfpi4k_grid

>  <i_i_glide_lignum>  (23) 
8

>  <i_i_glide_rotatable_bonds>  (23) 
0

>  <r_i_docking_score>  (23) 
-4.57884

>  <r_i_glide_ligand_efficiency>  (23) 
-0.286177

>  <r_i_glide_ligand_efficiency_sa>  (23) 
-0.721122

>  <r_i_glide_ligand_efficiency_ln>  (23) 
-1.21371

>  <r_i_glide_gscore>  (23) 
-4.57884

>  <r_i_glide_lipo>  (23) 
-0.294299

>  <r_i_glide_hbond>  (23) 
-0.356748

>  <r_i_glide_metal>  (23) 
-0

>  <r_i_glide_rewards>  (23) 
-2.18065

>  <r_i_glide_evdw>  (23) 
-18.4039

>  <r_i_glide_ecoul>  (23) 
-5.51295

>  <r_i_glide_erotb>  (23) 
0

>  <r_i_glide_esite>  (23) 
0

>  <r_i_glide_emodel>  (23) 
-29.3749

>  <r_i_glide_energy>  (23) 
-23.9169

>  <r_i_glide_einternal>  (23) 
0

>  <r_i_glide_intrahb_reward>  (23) 
-0

>  <i_i_glide_confnum>  (23) 
2

>  <i_i_glide_posenum>  (23) 
20

>  <r_i_glide_eff_state_penalty>  (23) 
0

>  <ligand_id>  (23) 
5

>  <original_smiles>  (23) 
O=C1CNCC2C3COCC4OC4C2C3O1

>  <smiles>  (23) 
[H]N1C([H])([H])C(=O)OC2([H])C3([H])C([H])([H])OC([H])([H])C4([H])OC4([H])C2([H])C3([H])C1([H])[H]

$$$$
5:1:2
     RDKit          3D

 31 34  0  0  1  0  0  0  0  0999 V2000
    5.4287   -5.5183    2.3262 O   0  0  0  0  0  0  0  0  0  0  0  0
    4.7220   -4.7875    1.6325 C   0  0  0  0  0  0  0  0  0  0  0  0
    3.8521   -3.7309    2.3219 C   0  0  0  0  0  0  0  0  0  0  0  0
    4.2617   -2.3476    2.1294 N   0  0  0  0  0  0  0  0  0  0  0  0
    3.3805   -1.6142    1.2306 C   0  0  0  0  0  0  0  0  0  0  0  0
    3.4476   -2.1270   -0.2052 C   0  0  2  0  0  0  0  0  0  0  0  0
    2.7564   -3.4401   -0.6198 C   0  0  1  0  0  0  0  0  0  0  0  0
    1.8181   -3.4571   -1.8369 C   0  0  0  0  0  0  0  0  0  0  0  0
    2.2503   -2.6542   -2.9186 O   0  0  0  0  0  0  0  0  0  0  0  0
    3.3226   -3.1464   -3.6976 C   0  0  0  0  0  0  0  0  0  0  0  0
    4.5706   -2.3314   -3.4682 C   0  0  2  0  0  0  0  0  0  0  0  0
    5.7440   -3.0577   -3.0413 O   0  0  0  0  0  0  0  0  0  0  0  0
    5.2139   -2.0958   -2.1269 C   0  0  2  0  0  0  0  0  0  0  0  0
    4.7707   -2.6454   -0.7879 C   0  0  2  0  0  0  0  0  0  0  0  0
    4.1549   -4.0474   -0.7128 C   0  0  1  0  0  0  0  0  0  0  0  0
    4.6550   -4.9471    0.2857 O   0  0  0  0  0  0  0  0  0  0  0  0
    2.7919   -3.8947    2.1437 H   0  0  0  0  0  0  0  0  0  0  0  0
    3.9672   -3.9304    3.3854 H   0  0  0  0  0  0  0  0  0  0  0  0
    4.2556   -1.8879    3.0266 H   0  0  0  0  0  0  0  0  0  0  0  0
    2.3509   -1.5960    1.5959 H   0  0  0  0  0  0  0  0  0  0  0  0
    3.7184   -0.5789    1.2492 H   0  0  0  0  0  0  0  0  0  0  0  0
    3.0735   -1.3587   -0.8752 H   0  0  0  0  0  0  0  0  0  0  0  0
    2.2389   -3.8685    0.2273 H   0  0  0  0  0  0  0  0  0  0  0  0
    1.5745   -4.4760   -2.1503 H   0  0  0  0  0  0  0  0  0  0  0  0
    0.8512   -3.0608   -1.5480 H   0  0  0  0  0  0  0  0  0  0  0  0
    3.5350   -4.2011   -3.5410 H   0  0  0  0  0  0  0  0  0  0  0  0
    3.0375   -3.0438   -4.7417 H   0  0  0  0  0  0  0  0  0  0  0  0
    4.7374   -1.5340   -4.1886 H   0  0  0  0  0  0  0  0  0  0  0  0
    5.8016   -1.1872   -2.0579 H   0  0  0  0  0  0  0  0  0  0  0  0
    5.5959   -2.6253   -0.0773 H   0  0  0  0  0  0  0  0  0  0  0  0
    4.2720   -4.5701   -1.6506 H   0  0  0  0  0  0  0  0  0  0  0  0
  1  2  2  0
  2 16  1  0
  2  3  1  0
  3  4  1  0
  3 17  1  0
  3 18  1  0
  4  5  1  0
  4 19  1  0
  5  6  1  0
  5 20  1  0
  5 21  1  0
  6 14  1  0
  6  7  1  0
  6 22  1  6
  7 15  1  0
  7  8  1  0
  7 23  1  1
  8  9  1  0
  8 24  1  0
  8 25  1  0
  9 10  1  0
 10 11  1  0
 10 26  1  0
 10 27  1  0
 11 13  1  0
 11 12  1  0
 11 28  1  6
 12 13  1  0
 13 14  1  0
 13 29  1  1
 14 15  1  0
 14 30  1  1
 15 16  1  0
 15 31  1  6
M  END
>  <i_m_ct_stereo_status>  (24) 
1

>  <s_m_source_file>  (24) 
/var/tmp/pbs.5076255.sched01/tmppv1df_bs/0l6e7d74h.sdf

>  <i_m_source_file_index>  (24) 
8

>  <i_lp_mmshare_version>  (24) 
48012

>  <i_f3d_flags>  (24) 
0

>  <s_epik_input>  (24) 
W0NIMl0xW05IXVtDSDJdQyg9TylPW0NAQEhdKFtDQEhdMltDQEBIXTEzKVtDQEhdM1tDQEBIXTRbQ0BASF0oTzQpW0NIMl1PW0NIMl0y

>  <s_epik_cmdline>  (24) 
J2VwaWtfcHl0aG9uJywgJy1waHQnLCAnMi4wJywgJy1waCcsICc3LjAnLCAnLXRuJywgJzgnLCAnLW1hJywgJzIwMCcsICctaW1hZScsICc8aW5maWxlLm1hZT4nLCAnLW9tYWUnLCAnPG91dGZpbGUubWFlPic=

>  <r_epik_Ionization_Penalty>  (24) 
0.834604

>  <r_epik_Ionization_Penalty_Charging>  (24) 
0

>  <r_epik_Ionization_Penalty_Neutral>  (24) 
0.834604

>  <r_epik_State_Penalty>  (24) 
0.868794

>  <r_epik_Charging_Adjusted_Penalty>  (24) 
0.868794

>  <i_epik_Tot_Q>  (24) 
0

>  <i_epik_Tot_abs_Q>  (24) 
0

>  <s_epik_Chemistry_Notes>  (24) 
This compound has an ester and may undergo hydrolysis at high or low pH.

>  <s_lp_Force_Field>  (24) 
OPLS3e

>  <r_lp_Energy>  (24) 
51.1589

>  <b_lp_Chiralities_Consistent>  (24) 
1

>  <s_lp_Variant>  (24) 
5:0-2

>  <s_i_glide_gridfile>  (24) 
pfpi4k_grid

>  <i_i_glide_lignum>  (24) 
8

>  <i_i_glide_rotatable_bonds>  (24) 
0

>  <r_i_docking_score>  (24) 
-3.23256

>  <r_i_glide_ligand_efficiency>  (24) 
-0.202035

>  <r_i_glide_ligand_efficiency_sa>  (24) 
-0.509096

>  <r_i_glide_ligand_efficiency_ln>  (24) 
-0.856854

>  <r_i_glide_gscore>  (24) 
-3.23256

>  <r_i_glide_lipo>  (24) 
-0.319636

>  <r_i_glide_hbond>  (24) 
0

>  <r_i_glide_metal>  (24) 
-0

>  <r_i_glide_rewards>  (24) 
-1.9093

>  <r_i_glide_evdw>  (24) 
-19.202

>  <r_i_glide_ecoul>  (24) 
-0.29013

>  <r_i_glide_erotb>  (24) 
0

>  <r_i_glide_esite>  (24) 
0

>  <r_i_glide_emodel>  (24) 
-23.886

>  <r_i_glide_energy>  (24) 
-19.4921

>  <r_i_glide_einternal>  (24) 
0

>  <r_i_glide_intrahb_reward>  (24) 
-0

>  <i_i_glide_confnum>  (24) 
2

>  <i_i_glide_posenum>  (24) 
24

>  <r_i_glide_eff_state_penalty>  (24) 
0

>  <ligand_id>  (24) 
5

>  <original_smiles>  (24) 
O=C1CNCC2C3COCC4OC4C2C3O1

>  <smiles>  (24) 
[H]N1C([H])([H])C(=O)OC2([H])C3([H])C([H])([H])OC([H])([H])C4([H])OC4([H])C2([H])C3([H])C1([H])[H]

$$$$
6:0:0
     RDKit          3D

 83 91  0  0  1  0  0  0  0  0999 V2000
    3.5618   -3.0351    1.9973 C   0  0  0  0  0  0  0  0  0  0  0  0
    3.3248   -2.5626    3.4556 C   0  0  2  0  0  0  0  0  0  0  0  0
    1.7929   -2.9895    3.9630 C   0  0  1  0  0  0  0  0  0  0  0  0
    1.9495   -4.2891    4.5260 O   0  0  0  0  0  0  0  0  0  0  0  0
    0.7552   -2.1492    4.9170 C   0  0  2  0  0  0  0  0  0  0  0  0
    0.0938   -3.0318    5.8044 O   0  0  0  0  0  0  0  0  0  0  0  0
   -0.3011   -0.9432    4.4576 C   0  0  1  0  0  0  0  0  0  0  0  0
   -1.1326    0.1586    5.2764 C   0  0  0  0  0  0  0  0  0  0  0  0
   -0.5801    1.6856    5.6693 C   0  0  2  0  0  0  0  0  0  0  0  0
   -1.9127    2.3582    6.0770 C   0  0  0  0  0  0  0  0  0  0  0  0
   -2.5321    2.8843    4.7910 C   0  0  0  0  0  0  0  0  0  0  0  0
   -1.3964    3.1670    3.7992 C   0  0  0  0  0  0  0  0  0  0  0  0
   -1.5904    2.2851    2.5475 C   0  0  0  0  0  0  0  0  0  0  0  0
   -1.5269    4.6412    3.3725 C   0  0  0  0  0  0  0  0  0  0  0  0
   -0.0886    2.8097    4.5959 C   0  0  2  0  0  0  0  0  0  0  0  0
    1.2927    2.8796    3.7200 C   0  0  1  0  0  0  0  0  0  0  0  0
    1.3436    4.2225    3.2852 O   0  0  0  0  0  0  0  0  0  0  0  0
    2.8608    2.7239    4.1231 C   0  0  0  0  0  0  0  0  0  0  0  0
    3.6922    1.3917    4.5416 C   0  0  2  0  0  0  0  0  0  0  0  0
    3.4392    0.0938    4.0690 C   0  0  2  0  0  0  0  0  0  0  0  0
    2.7371    0.2633    2.6847 C   0  0  0  0  0  0  0  0  0  0  0  0
    1.3359   -0.2043    2.7208 C   0  0  1  0  0  0  0  0  0  0  0  0
    1.0556   -1.2638    1.8441 O   0  0  0  0  0  0  0  0  0  0  0  0
    0.9328   -0.2885    4.1856 C   0  0  2  0  0  0  0  0  0  0  0  0
    1.3887   -1.0020    5.5404 C   0  0  2  0  0  0  0  0  0  0  0  0
    2.6399   -0.8087    6.3990 C   0  0  2  0  0  0  0  0  0  0  0  0
    3.6385   -2.0187    6.5485 C   0  0  0  0  0  0  0  0  0  0  0  0
    2.1909   -0.8789    7.9773 C   0  0  1  0  0  0  0  0  0  0  0  0
    3.2217   -0.9029    8.9526 O   0  0  0  0  0  0  0  0  0  0  0  0
    0.9783   -0.2143    8.6335 C   0  0  1  0  0  0  0  0  0  0  0  0
    1.0749    1.1232    9.1192 O   0  0  0  0  0  0  0  0  0  0  0  0
    0.1415    0.8981    8.0665 C   0  0  1  0  0  0  0  0  0  0  0  0
    0.4086    1.8113    6.8979 C   0  0  1  0  0  0  0  0  0  0  0  0
    1.7240    2.3079    6.5933 O   0  0  0  0  0  0  0  0  0  0  0  0
    2.9930    1.7170    6.7217 C   0  0  1  0  0  0  0  0  0  0  0  0
    3.4840    1.5865    8.0320 O   0  0  0  0  0  0  0  0  0  0  0  0
    3.2479    0.5191    5.7515 C   0  0  1  0  0  0  0  0  0  0  0  0
    4.1999   -1.2041    3.7459 C   0  0  1  0  0  0  0  0  0  0  0  0
    5.3798   -1.3577    4.4935 O   0  0  0  0  0  0  0  0  0  0  0  0
    3.1494   -2.3705    1.2413 H   0  0  0  0  0  0  0  0  0  0  0  0
    3.1347   -4.0255    1.8232 H   0  0  0  0  0  0  0  0  0  0  0  0
    4.6295   -3.1120    1.7797 H   0  0  0  0  0  0  0  0  0  0  0  0
    3.9628   -3.3318    3.8911 H   0  0  0  0  0  0  0  0  0  0  0  0
    1.2297   -3.2698    3.0738 H   0  0  0  0  0  0  0  0  0  0  0  0
    2.5503   -4.2446    5.2524 H   0  0  0  0  0  0  0  0  0  0  0  0
    0.7740   -3.5135    6.2518 H   0  0  0  0  0  0  0  0  0  0  0  0
   -0.8278   -1.2597    3.5763 H   0  0  0  0  0  0  0  0  0  0  0  0
   -2.0538    0.2727    4.7142 H   0  0  0  0  0  0  0  0  0  0  0  0
   -1.4956   -0.3123    6.1879 H   0  0  0  0  0  0  0  0  0  0  0  0
   -2.5904    1.7009    6.6230 H   0  0  0  0  0  0  0  0  0  0  0  0
   -1.7625    3.2249    6.7240 H   0  0  0  0  0  0  0  0  0  0  0  0
   -3.2101    2.1764    4.3251 H   0  0  0  0  0  0  0  0  0  0  0  0
   -3.1383    3.7430    5.0442 H   0  0  0  0  0  0  0  0  0  0  0  0
   -0.8617    2.5289    1.7790 H   0  0  0  0  0  0  0  0  0  0  0  0
   -2.5761    2.4497    2.1048 H   0  0  0  0  0  0  0  0  0  0  0  0
   -1.5056    1.2211    2.7538 H   0  0  0  0  0  0  0  0  0  0  0  0
   -0.9459    4.9010    2.4949 H   0  0  0  0  0  0  0  0  0  0  0  0
   -1.2197    5.3074    4.1783 H   0  0  0  0  0  0  0  0  0  0  0  0
   -2.5547    4.8806    3.0974 H   0  0  0  0  0  0  0  0  0  0  0  0
    0.0572    3.6789    5.2409 H   0  0  0  0  0  0  0  0  0  0  0  0
    1.1228    2.3939    2.7760 H   0  0  0  0  0  0  0  0  0  0  0  0
    0.9320    4.2729    2.4196 H   0  0  0  0  0  0  0  0  0  0  0  0
    3.4048    3.0635    3.2387 H   0  0  0  0  0  0  0  0  0  0  0  0
    3.1062    3.5406    4.7988 H   0  0  0  0  0  0  0  0  0  0  0  0
    4.7522    1.6201    4.5487 H   0  0  0  0  0  0  0  0  0  0  0  0
    2.8171    1.2502    2.2575 H   0  0  0  0  0  0  0  0  0  0  0  0
    3.2298   -0.2407    1.8560 H   0  0  0  0  0  0  0  0  0  0  0  0
    0.6947    0.5283    2.2401 H   0  0  0  0  0  0  0  0  0  0  0  0
    1.0170   -0.9442    0.9421 H   0  0  0  0  0  0  0  0  0  0  0  0
    1.0451    0.6962    4.5097 H   0  0  0  0  0  0  0  0  0  0  0  0
    0.6889   -0.8047    6.3333 H   0  0  0  0  0  0  0  0  0  0  0  0
    4.6278   -1.6492    6.8242 H   0  0  0  0  0  0  0  0  0  0  0  0
    3.7254   -2.7039    5.7491 H   0  0  0  0  0  0  0  0  0  0  0  0
    3.4226   -2.7581    7.3196 H   0  0  0  0  0  0  0  0  0  0  0  0
    1.7945   -1.8920    8.0566 H   0  0  0  0  0  0  0  0  0  0  0  0
    3.5737   -0.0189    8.9670 H   0  0  0  0  0  0  0  0  0  0  0  0
    0.4575   -0.8753    9.3252 H   0  0  0  0  0  0  0  0  0  0  0  0
   -0.8916    0.9338    8.4140 H   0  0  0  0  0  0  0  0  0  0  0  0
    0.1286    2.7550    7.3640 H   0  0  0  0  0  0  0  0  0  0  0  0
    3.6497    2.5456    6.4680 H   0  0  0  0  0  0  0  0  0  0  0  0
    3.4928    2.4487    8.4201 H   0  0  0  0  0  0  0  0  0  0  0  0
    4.7688   -1.0226    2.8359 H   0  0  0  0  0  0  0  0  0  0  0  0
    5.8846   -2.0606    4.1169 H   0  0  0  0  0  0  0  0  0  0  0  0
  1  2  1  0
  1 40  1  0
  1 41  1  0
  1 42  1  0
  2 38  1  0
  2  3  1  0
  2 43  1  1
  3  4  1  0
  3  5  1  0
  3 44  1  6
  4 45  1  0
  5 25  1  0
  5  6  1  1
  5  7  1  0
  6 46  1  0
  7 24  1  0
  7  8  1  0
  7 47  1  6
  8  9  1  0
  8 48  1  0
  8 49  1  0
  9 15  1  0
  9 33  1  0
  9 10  1  1
 10 11  1  0
 10 50  1  0
 10 51  1  0
 11 12  1  0
 11 52  1  0
 11 53  1  0
 12 13  1  0
 12 14  1  0
 12 15  1  0
 13 54  1  0
 13 55  1  0
 13 56  1  0
 14 57  1  0
 14 58  1  0
 14 59  1  0
 15 16  1  0
 15 60  1  1
 16 17  1  0
 16 18  1  0
 16 61  1  6
 17 62  1  0
 18 19  1  0
 18 63  1  0
 18 64  1  0
 19 37  1  0
 19 20  1  0
 19 65  1  1
 37 20  1  1
 20 21  1  6
 20 38  1  0
 21 22  1  0
 21 66  1  0
 21 67  1  0
 22 23  1  0
 22 24  1  0
 22 68  1  6
 23 69  1  0
 24 25  1  0
 24 70  1  1
 25 26  1  0
 25 71  1  1
 26 37  1  0
 26 27  1  6
 26 28  1  0
 27 72  1  0
 27 73  1  0
 27 74  1  0
 28 29  1  0
 28 30  1  0
 28 75  1  6
 29 76  1  0
 30 32  1  0
 30 31  1  0
 30 77  1  1
 31 32  1  0
 32 33  1  0
 32 78  1  1
 33 34  1  0
 33 79  1  1
 34 35  1  0
 35 36  1  0
 35 37  1  0
 35 80  1  6
 36 81  1  0
 38 39  1  0
 38 82  1  6
 39 83  1  0
M  END
>  <i_m_ct_stereo_status>  (25) 
1

>  <s_m_source_file>  (25) 
/var/tmp/pbs.5076255.sched01/tmppv1df_bs/0l6e7d74h.sdf

>  <i_m_source_file_index>  (25) 
9

>  <i_lp_mmshare_version>  (25) 
48012

>  <i_f3d_flags>  (25) 
2

>  <s_epik_input>  (25) 
W09IXVtDQEBIXTFPW0NAQEhdMltDQEhdKE8zKVtDQEhdM1tDQEhdKFtPSF0pW0NAQF0oW0NIM10pKFtDQEhdNFtDQF0oW09IXSkoW0NASF0oW09IXSlbQ0BASF0oW0NIM10pW0NAQEhdNVtPSF0pW0NASF0oW0NIMl02KVtDQEhdNFtDQEBIXShbQ0gyXTcpW09IXSlDMThbQ0BdNTdbQ0BIXThbQ0gyXVtDQEhdKFtPSF0pW0NAQEhdKFtDQF0yNjkpQyhbQ0gzXSkoW0NIM10pW0NIMl1bQ0gyXTk=

>  <s_epik_cmdline>  (25) 
J2VwaWtfcHl0aG9uJywgJy1waHQnLCAnMi4wJywgJy1waCcsICc3LjAnLCAnLXRuJywgJzgnLCAnLW1hJywgJzIwMCcsICctaW1hZScsICc8aW5maWxlLm1hZT4nLCAnLW9tYWUnLCAnPG91dGZpbGUubWFlPic=

>  <r_lp_tautomer_probability>  (25) 
1

>  <r_epik_Ionization_Penalty>  (25) 
2.87905e-06

>  <r_epik_Ionization_Penalty_Charging>  (25) 
0

>  <r_epik_Ionization_Penalty_Neutral>  (25) 
2.87905e-06

>  <r_epik_State_Penalty>  (25) 
-0

>  <r_epik_Charging_Adjusted_Penalty>  (25) 
0

>  <i_epik_Tot_Q>  (25) 
0

>  <i_epik_Tot_abs_Q>  (25) 
0

>  <s_epik_Chemistry_Notes>  (25) 
This compound contains an acetal/aminal-like group ( X-CH(R)-Y where X, Y are N, S, or O) that may be acid/base labile, releasing an aldehyde.

>  <s_lp_Force_Field>  (25) 
OPLS3e

>  <r_lp_Energy>  (25) 
470.355

>  <b_lp_Chiralities_Consistent>  (25) 
0

>  <s_lp_Variant>  (25) 
6:0-1

>  <s_i_glide_gridfile>  (25) 
pfpi4k_grid

>  <i_i_glide_lignum>  (25) 
9

>  <i_i_glide_rotatable_bonds>  (25) 
7

>  <r_i_docking_score>  (25) 
-2.54065

>  <r_i_glide_ligand_efficiency>  (25) 
-0.0651449

>  <r_i_glide_ligand_efficiency_sa>  (25) 
-0.22092

>  <r_i_glide_ligand_efficiency_ln>  (25) 
-0.544788

>  <r_i_glide_gscore>  (25) 
-2.54065

>  <r_i_glide_lipo>  (25) 
-0.0557625

>  <r_i_glide_hbond>  (25) 
-0.304

>  <r_i_glide_metal>  (25) 
-0

>  <r_i_glide_rewards>  (25) 
-0.5

>  <r_i_glide_evdw>  (25) 
-20.3905

>  <r_i_glide_ecoul>  (25) 
-4.4091

>  <r_i_glide_erotb>  (25) 
0

>  <r_i_glide_esite>  (25) 
0

>  <r_i_glide_emodel>  (25) 
-32.9043

>  <r_i_glide_energy>  (25) 
-24.7996

>  <r_i_glide_einternal>  (25) 
2.67488

>  <r_i_glide_intrahb_reward>  (25) 
-0.5

>  <i_i_glide_confnum>  (25) 
1

>  <i_i_glide_posenum>  (25) 
21

>  <r_i_glide_eff_state_penalty>  (25) 
0

>  <ligand_id>  (25) 
6

>  <original_smiles>  (25) 
CC1C(O)C2(O)C3CC45CCC(C)(C)C4C(O)CC4C6(CC(O)C3C2C2(C)C(O)C3OC3C5OC(O)C426)C1O

>  <smiles>  (25) 
[H]OC1([H])OC2([H])C3([H])OC3([H])C([H])(O[H])C3(C([H])([H])[H])C4([H])C5([H])C([H])(O[H])C([H])([H])C67C([H])(O[H])C([H])(C([H])([H])[H])C([H])(O[H])C4(O[H])C5([H])C([H])([H])C24C([H])([H])C([H])([H])C(C([H])([H])[H])(C([H])([H])[H])C4([H])C([H])(O[H])C([H])([H])C6([H])C137

$$$$
6:0:1
     RDKit          3D

 83 91  0  0  1  0  0  0  0  0999 V2000
    6.0415    0.5209    5.5593 C   0  0  0  0  0  0  0  0  0  0  0  0
    5.1161    1.1187    6.6507 C   0  0  2  0  0  0  0  0  0  0  0  0
    3.8810    0.0563    7.0150 C   0  0  1  0  0  0  0  0  0  0  0  0
    4.4078   -0.7599    8.0571 O   0  0  0  0  0  0  0  0  0  0  0  0
    2.3143    0.3892    7.3452 C   0  0  2  0  0  0  0  0  0  0  0  0
    1.8580   -0.4772    8.3665 O   0  0  0  0  0  0  0  0  0  0  0  0
    1.0707    0.6527    6.2664 C   0  0  1  0  0  0  0  0  0  0  0  0
   -0.4025    1.2784    6.4248 C   0  0  0  0  0  0  0  0  0  0  0  0
   -0.7748    2.9047    6.2801 C   0  0  2  0  0  0  0  0  0  0  0  0
   -2.3093    2.8148    6.1487 C   0  0  0  0  0  0  0  0  0  0  0  0
   -2.5813    2.5673    4.6702 C   0  0  0  0  0  0  0  0  0  0  0  0
   -1.4405    3.1897    3.8651 C   0  0  0  0  0  0  0  0  0  0  0  0
   -0.7603    2.0876    3.0213 C   0  0  0  0  0  0  0  0  0  0  0  0
   -2.1083    4.1859    2.9002 C   0  0  0  0  0  0  0  0  0  0  0  0
   -0.4968    3.8155    4.9562 C   0  0  2  0  0  0  0  0  0  0  0  0
    0.9096    4.4102    4.3775 C   0  0  1  0  0  0  0  0  0  0  0  0
    0.5003    5.3957    3.4510 O   0  0  0  0  0  0  0  0  0  0  0  0
    2.1097    5.2524    5.0810 C   0  0  0  0  0  0  0  0  0  0  0  0
    3.2328    4.7439    6.1360 C   0  0  2  0  0  0  0  0  0  0  0  0
    3.7834    3.4471    6.1904 C   0  0  2  0  0  0  0  0  0  0  0  0
    3.6258    2.8415    4.7609 C   0  0  0  0  0  0  0  0  0  0  0  0
    2.6916    1.7057    4.7123 C   0  0  1  0  0  0  0  0  0  0  0  0
    3.2267    0.4814    4.2489 O   0  0  0  0  0  0  0  0  0  0  0  0
    1.8858    1.7751    5.9848 C   0  0  2  0  0  0  0  0  0  0  0  0
    2.0806    1.8032    7.5721 C   0  0  2  0  0  0  0  0  0  0  0  0
    2.7029    2.8547    8.4922 C   0  0  2  0  0  0  0  0  0  0  0  0
    4.0179    2.4783    9.2739 C   0  0  0  0  0  0  0  0  0  0  0  0
    1.8051    2.9272    9.8644 C   0  0  1  0  0  0  0  0  0  0  0  0
    2.3129    3.7103   10.9334 O   0  0  0  0  0  0  0  0  0  0  0  0
    0.2870    2.9514    9.9810 C   0  0  1  0  0  0  0  0  0  0  0  0
   -0.4111    4.1985    9.9003 O   0  0  0  0  0  0  0  0  0  0  0  0
   -0.6973    3.2375    8.8770 C   0  0  1  0  0  0  0  0  0  0  0  0
   -0.4780    3.8433    7.5174 C   0  0  1  0  0  0  0  0  0  0  0  0
    0.4803    4.8890    7.2771 O   0  0  0  0  0  0  0  0  0  0  0  0
    1.7368    5.1433    7.8498 C   0  0  1  0  0  0  0  0  0  0  0  0
    1.7286    5.6300    9.1751 O   0  0  0  0  0  0  0  0  0  0  0  0
    2.8343    4.0934    7.5014 C   0  0  1  0  0  0  0  0  0  0  0  0
    5.1184    2.7553    6.5392 C   0  0  1  0  0  0  0  0  0  0  0  0
    5.9108    3.4466    7.4830 O   0  0  0  0  0  0  0  0  0  0  0  0
    5.6803    0.6458    4.5393 H   0  0  0  0  0  0  0  0  0  0  0  0
    6.2040   -0.5461    5.7259 H   0  0  0  0  0  0  0  0  0  0  0  0
    7.0294    0.9896    5.5898 H   0  0  0  0  0  0  0  0  0  0  0  0
    5.8370    0.9673    7.4549 H   0  0  0  0  0  0  0  0  0  0  0  0
    3.8781   -0.6963    6.2272 H   0  0  0  0  0  0  0  0  0  0  0  0
    4.5199   -0.2402    8.8331 H   0  0  0  0  0  0  0  0  0  0  0  0
    2.3439   -0.2571    9.1420 H   0  0  0  0  0  0  0  0  0  0  0  0
    1.1120   -0.1219    5.5023 H   0  0  0  0  0  0  0  0  0  0  0  0
   -1.0111    0.7265    5.7139 H   0  0  0  0  0  0  0  0  0  0  0  0
   -0.8132    0.9261    7.3754 H   0  0  0  0  0  0  0  0  0  0  0  0
   -2.7687    2.0454    6.7726 H   0  0  0  0  0  0  0  0  0  0  0  0
   -2.8197    3.7442    6.4045 H   0  0  0  0  0  0  0  0  0  0  0  0
   -2.5814    1.5018    4.4497 H   0  0  0  0  0  0  0  0  0  0  0  0
   -3.5641    2.9601    4.4038 H   0  0  0  0  0  0  0  0  0  0  0  0
   -0.0069    2.4941    2.3492 H   0  0  0  0  0  0  0  0  0  0  0  0
   -1.4878    1.5707    2.3914 H   0  0  0  0  0  0  0  0  0  0  0  0
   -0.2831    1.3307    3.6401 H   0  0  0  0  0  0  0  0  0  0  0  0
   -1.4214    4.5308    2.1336 H   0  0  0  0  0  0  0  0  0  0  0  0
   -2.4846    5.0592    3.4062 H   0  0  0  0  0  0  0  0  0  0  0  0
   -2.9450    3.7397    2.3610 H   0  0  0  0  0  0  0  0  0  0  0  0
   -1.0063    4.7456    5.2231 H   0  0  0  0  0  0  0  0  0  0  0  0
    1.3296    3.6966    3.6957 H   0  0  0  0  0  0  0  0  0  0  0  0
    0.3268    4.9848    2.6073 H   0  0  0  0  0  0  0  0  0  0  0  0
    2.7220    5.6132    4.2495 H   0  0  0  0  0  0  0  0  0  0  0  0
    1.6914    6.2006    5.4149 H   0  0  0  0  0  0  0  0  0  0  0  0
    3.9902    5.5151    6.2433 H   0  0  0  0  0  0  0  0  0  0  0  0
    3.4118    3.5714    3.9999 H   0  0  0  0  0  0  0  0  0  0  0  0
    4.5472    2.4935    4.3171 H   0  0  0  0  0  0  0  0  0  0  0  0
    2.0110    1.8465    3.8796 H   0  0  0  0  0  0  0  0  0  0  0  0
    3.9184    0.2019    4.8205 H   0  0  0  0  0  0  0  0  0  0  0  0
    1.4136    2.6995    5.9164 H   0  0  0  0  0  0  0  0  0  0  0  0
    1.1362    1.7510    8.0808 H   0  0  0  0  0  0  0  0  0  0  0  0
    4.5635    3.3818    9.5484 H   0  0  0  0  0  0  0  0  0  0  0  0
    4.6899    1.7873    8.8442 H   0  0  0  0  0  0  0  0  0  0  0  0
    3.9022    1.9538   10.2196 H   0  0  0  0  0  0  0  0  0  0  0  0
    1.9199    1.9202   10.2659 H   0  0  0  0  0  0  0  0  0  0  0  0
    2.1201    4.6079   10.6932 H   0  0  0  0  0  0  0  0  0  0  0  0
   -0.0923    2.3079   10.7686 H   0  0  0  0  0  0  0  0  0  0  0  0
   -1.6770    2.7852    9.0037 H   0  0  0  0  0  0  0  0  0  0  0  0
   -1.3048    4.5551    7.5182 H   0  0  0  0  0  0  0  0  0  0  0  0
    1.9875    6.1038    7.4093 H   0  0  0  0  0  0  0  0  0  0  0  0
    1.1968    6.4057    9.1916 H   0  0  0  0  0  0  0  0  0  0  0  0
    5.8162    2.9973    5.7364 H   0  0  0  0  0  0  0  0  0  0  0  0
    5.9906    4.3455    7.2131 H   0  0  0  0  0  0  0  0  0  0  0  0
  1  2  1  0
  1 40  1  0
  1 41  1  0
  1 42  1  0
  2 38  1  0
  2  3  1  0
  2 43  1  1
  3  4  1  0
  3  5  1  0
  3 44  1  6
  4 45  1  0
  5 25  1  0
  5  6  1  1
  5  7  1  0
  6 46  1  0
  7 24  1  0
  7  8  1  0
  7 47  1  6
  8  9  1  0
  8 48  1  0
  8 49  1  0
  9 15  1  0
  9 33  1  0
  9 10  1  1
 10 11  1  0
 10 50  1  0
 10 51  1  0
 11 12  1  0
 11 52  1  0
 11 53  1  0
 12 13  1  0
 12 14  1  0
 12 15  1  0
 13 54  1  0
 13 55  1  0
 13 56  1  0
 14 57  1  0
 14 58  1  0
 14 59  1  0
 15 16  1  0
 15 60  1  1
 16 17  1  0
 16 18  1  0
 16 61  1  6
 17 62  1  0
 18 19  1  0
 18 63  1  0
 18 64  1  0
 19 37  1  0
 19 20  1  0
 19 65  1  1
 37 20  1  1
 20 21  1  6
 20 38  1  0
 21 22  1  0
 21 66  1  0
 21 67  1  0
 22 23  1  0
 22 24  1  0
 22 68  1  6
 23 69  1  0
 24 25  1  0
 24 70  1  6
 25 26  1  0
 25 71  1  1
 26 37  1  0
 26 27  1  1
 26 28  1  0
 27 72  1  0
 27 73  1  0
 27 74  1  0
 28 29  1  0
 28 30  1  0
 28 75  1  1
 29 76  1  0
 30 32  1  0
 30 31  1  0
 30 77  1  1
 31 32  1  0
 32 33  1  0
 32 78  1  6
 33 34  1  0
 33 79  1  6
 34 35  1  0
 35 36  1  0
 35 37  1  0
 35 80  1  6
 36 81  1  0
 38 39  1  0
 38 82  1  6
 39 83  1  0
M  END
>  <i_m_ct_stereo_status>  (26) 
1

>  <s_m_source_file>  (26) 
/var/tmp/pbs.5076255.sched01/tmppv1df_bs/0l6e7d74h.sdf

>  <i_m_source_file_index>  (26) 
9

>  <i_lp_mmshare_version>  (26) 
48012

>  <i_f3d_flags>  (26) 
2

>  <s_epik_input>  (26) 
W09IXVtDQEBIXTFPW0NAQEhdMltDQEhdKE8zKVtDQEhdM1tDQEhdKFtPSF0pW0NAQF0oW0NIM10pKFtDQEhdNFtDQF0oW09IXSkoW0NASF0oW09IXSlbQ0BASF0oW0NIM10pW0NAQEhdNVtPSF0pW0NASF0oW0NIMl02KVtDQEhdNFtDQEBIXShbQ0gyXTcpW09IXSlDMThbQ0BdNTdbQ0BIXThbQ0gyXVtDQEhdKFtPSF0pW0NAQEhdKFtDQF0yNjkpQyhbQ0gzXSkoW0NIM10pW0NIMl1bQ0gyXTk=

>  <s_epik_cmdline>  (26) 
J2VwaWtfcHl0aG9uJywgJy1waHQnLCAnMi4wJywgJy1waCcsICc3LjAnLCAnLXRuJywgJzgnLCAnLW1hJywgJzIwMCcsICctaW1hZScsICc8aW5maWxlLm1hZT4nLCAnLW9tYWUnLCAnPG91dGZpbGUubWFlPic=

>  <r_lp_tautomer_probability>  (26) 
1

>  <r_epik_Ionization_Penalty>  (26) 
2.87905e-06

>  <r_epik_Ionization_Penalty_Charging>  (26) 
0

>  <r_epik_Ionization_Penalty_Neutral>  (26) 
2.87905e-06

>  <r_epik_State_Penalty>  (26) 
-0

>  <r_epik_Charging_Adjusted_Penalty>  (26) 
0

>  <i_epik_Tot_Q>  (26) 
0

>  <i_epik_Tot_abs_Q>  (26) 
0

>  <s_epik_Chemistry_Notes>  (26) 
This compound contains an acetal/aminal-like group ( X-CH(R)-Y where X, Y are N, S, or O) that may be acid/base labile, releasing an aldehyde.

>  <s_lp_Force_Field>  (26) 
OPLS3e

>  <r_lp_Energy>  (26) 
470.355

>  <b_lp_Chiralities_Consistent>  (26) 
0

>  <s_lp_Variant>  (26) 
6:0-1

>  <s_i_glide_gridfile>  (26) 
pfpi4k_grid

>  <i_i_glide_lignum>  (26) 
9

>  <i_i_glide_rotatable_bonds>  (26) 
7

>  <r_i_docking_score>  (26) 
-2.25328

>  <r_i_glide_ligand_efficiency>  (26) 
-0.0577764

>  <r_i_glide_ligand_efficiency_sa>  (26) 
-0.195932

>  <r_i_glide_ligand_efficiency_ln>  (26) 
-0.483167

>  <r_i_glide_gscore>  (26) 
-2.25328

>  <r_i_glide_lipo>  (26) 
-0.232094

>  <r_i_glide_hbond>  (26) 
-0.16

>  <r_i_glide_metal>  (26) 
-0

>  <r_i_glide_rewards>  (26) 
-0.5

>  <r_i_glide_evdw>  (26) 
-20.8391

>  <r_i_glide_ecoul>  (26) 
-2.12821

>  <r_i_glide_erotb>  (26) 
0

>  <r_i_glide_esite>  (26) 
0

>  <r_i_glide_emodel>  (26) 
-30.9994

>  <r_i_glide_energy>  (26) 
-22.9673

>  <r_i_glide_einternal>  (26) 
2.05539

>  <r_i_glide_intrahb_reward>  (26) 
-0.5

>  <i_i_glide_confnum>  (26) 
2

>  <i_i_glide_posenum>  (26) 
19

>  <r_i_glide_eff_state_penalty>  (26) 
0

>  <ligand_id>  (26) 
6

>  <original_smiles>  (26) 
CC1C(O)C2(O)C3CC45CCC(C)(C)C4C(O)CC4C6(CC(O)C3C2C2(C)C(O)C3OC3C5OC(O)C426)C1O

>  <smiles>  (26) 
[H]OC1([H])OC2([H])C3([H])OC3([H])C([H])(O[H])C3(C([H])([H])[H])C4([H])C5([H])C([H])(O[H])C([H])([H])C67C([H])(O[H])C([H])(C([H])([H])[H])C([H])(O[H])C4(O[H])C5([H])C([H])([H])C24C([H])([H])C([H])([H])C(C([H])([H])[H])(C([H])([H])[H])C4([H])C([H])(O[H])C([H])([H])C6([H])C137

$$$$
6:0:2
     RDKit          3D

 83 91  0  0  1  0  0  0  0  0999 V2000
    4.8685   -2.2340    2.8860 C   0  0  0  0  0  0  0  0  0  0  0  0
    4.3956   -1.7664    4.2844 C   0  0  2  0  0  0  0  0  0  0  0  0
    2.9042   -2.4340    4.6282 C   0  0  1  0  0  0  0  0  0  0  0  0
    3.2132   -3.6756    5.2529 O   0  0  0  0  0  0  0  0  0  0  0  0
    1.6451   -1.7497    5.4196 C   0  0  2  0  0  0  0  0  0  0  0  0
    1.0679   -2.7108    6.2883 O   0  0  0  0  0  0  0  0  0  0  0  0
    0.4444   -0.7818    4.7863 C   0  0  1  0  0  0  0  0  0  0  0  0
   -0.6495    0.1906    5.4529 C   0  0  0  0  0  0  0  0  0  0  0  0
   -0.4033    1.8060    5.8268 C   0  0  2  0  0  0  0  0  0  0  0  0
   -1.8662    2.2525    6.0627 C   0  0  0  0  0  0  0  0  0  0  0  0
   -2.4248    2.6155    4.6930 C   0  0  0  0  0  0  0  0  0  0  0  0
   -1.2452    3.0620    3.8134 C   0  0  0  0  0  0  0  0  0  0  0  0
   -1.1477    2.1187    2.5997 C   0  0  0  0  0  0  0  0  0  0  0  0
   -1.5855    4.4817    3.3098 C   0  0  0  0  0  0  0  0  0  0  0  0
    0.0110    2.9645    4.7549 C   0  0  2  0  0  0  0  0  0  0  0  0
    1.4511    3.2407    4.0221 C   0  0  1  0  0  0  0  0  0  0  0  0
    1.3382    4.5490    3.4877 O   0  0  0  0  0  0  0  0  0  0  0  0
    2.9635    3.3768    4.6059 C   0  0  0  0  0  0  0  0  0  0  0  0
    3.9417    2.2236    5.1912 C   0  0  2  0  0  0  0  0  0  0  0  0
    3.9737    0.8820    4.7645 C   0  0  2  0  0  0  0  0  0  0  0  0
    3.4138    0.8561    3.3044 C   0  0  0  0  0  0  0  0  0  0  0  0
    2.1159    0.1568    3.1999 C   0  0  1  0  0  0  0  0  0  0  0  0
    2.0749   -0.9532    2.3270 O   0  0  0  0  0  0  0  0  0  0  0  0
    1.5777    0.0580    4.6072 C   0  0  2  0  0  0  0  0  0  0  0  0
    1.9941   -0.4963    6.0494 C   0  0  2  0  0  0  0  0  0  0  0  0
    3.0811   -0.0584    7.0357 C   0  0  2  0  0  0  0  0  0  0  0  0
    4.2566   -1.0606    7.3496 C   0  0  0  0  0  0  0  0  0  0  0  0
    2.4658   -0.1674    8.5511 C   0  0  1  0  0  0  0  0  0  0  0  0
    3.3630    0.0439    9.6340 O   0  0  0  0  0  0  0  0  0  0  0  0
    1.0984    0.2895    9.0265 C   0  0  1  0  0  0  0  0  0  0  0  0
    0.9412    1.6431    9.4516 O   0  0  0  0  0  0  0  0  0  0  0  0
    0.1616    1.2350    8.3220 C   0  0  1  0  0  0  0  0  0  0  0  0
    0.3951    2.1464    7.1499 C   0  0  1  0  0  0  0  0  0  0  0  0
    1.6330    2.8465    6.9511 O   0  0  0  0  0  0  0  0  0  0  0  0
    2.9516    2.4898    7.2539 C   0  0  1  0  0  0  0  0  0  0  0  0
    3.2981    2.5074    8.6187 O   0  0  0  0  0  0  0  0  0  0  0  0
    3.5250    1.3250    6.3919 C   0  0  1  0  0  0  0  0  0  0  0  0
    4.9865   -0.2654    4.5920 C   0  0  1  0  0  0  0  0  0  0  0  0
    6.0957   -0.1738    5.4647 O   0  0  0  0  0  0  0  0  0  0  0  0
    4.4266   -1.6784    2.0617 H   0  0  0  0  0  0  0  0  0  0  0  0
    4.6405   -3.2881    2.7192 H   0  0  0  0  0  0  0  0  0  0  0  0
    5.9510   -2.1281    2.7830 H   0  0  0  0  0  0  0  0  0  0  0  0
    5.1042   -2.3918    4.8285 H   0  0  0  0  0  0  0  0  0  0  0  0
    2.5127   -2.8259    3.6881 H   0  0  0  0  0  0  0  0  0  0  0  0
    3.8141   -4.1435    4.6986 H   0  0  0  0  0  0  0  0  0  0  0  0
    0.9692   -3.4994    5.7760 H   0  0  0  0  0  0  0  0  0  0  0  0
    0.0888   -1.2330    3.8602 H   0  0  0  0  0  0  0  0  0  0  0  0
   -1.5156    0.1265    4.8002 H   0  0  0  0  0  0  0  0  0  0  0  0
   -1.0165   -0.3026    6.3545 H   0  0  0  0  0  0  0  0  0  0  0  0
   -2.4832    1.5076    6.5659 H   0  0  0  0  0  0  0  0  0  0  0  0
   -1.9426    3.1567    6.6701 H   0  0  0  0  0  0  0  0  0  0  0  0
   -2.9277    1.7763    4.2121 H   0  0  0  0  0  0  0  0  0  0  0  0
   -3.2019    3.3708    4.8055 H   0  0  0  0  0  0  0  0  0  0  0  0
   -0.4025    2.4605    1.8859 H   0  0  0  0  0  0  0  0  0  0  0  0
   -2.1042    2.0839    2.0790 H   0  0  0  0  0  0  0  0  0  0  0  0
   -0.8976    1.0963    2.8685 H   0  0  0  0  0  0  0  0  0  0  0  0
   -0.9729    4.8171    2.4809 H   0  0  0  0  0  0  0  0  0  0  0  0
   -1.4551    5.2019    4.1139 H   0  0  0  0  0  0  0  0  0  0  0  0
   -2.6068    4.5373    2.9276 H   0  0  0  0  0  0  0  0  0  0  0  0
   -0.0657    3.8664    5.3677 H   0  0  0  0  0  0  0  0  0  0  0  0
    1.4741    2.6907    3.1011 H   0  0  0  0  0  0  0  0  0  0  0  0
    0.8747    4.5120    2.6570 H   0  0  0  0  0  0  0  0  0  0  0  0
    3.5499    3.7715    3.7715 H   0  0  0  0  0  0  0  0  0  0  0  0
    2.9847    4.2442    5.2612 H   0  0  0  0  0  0  0  0  0  0  0  0
    4.9396    2.6346    5.3071 H   0  0  0  0  0  0  0  0  0  0  0  0
    3.3756    1.8281    2.8455 H   0  0  0  0  0  0  0  0  0  0  0  0
    4.0827    0.4241    2.5661 H   0  0  0  0  0  0  0  0  0  0  0  0
    1.4275    0.7727    2.6324 H   0  0  0  0  0  0  0  0  0  0  0  0
    1.9463   -0.6545    1.4383 H   0  0  0  0  0  0  0  0  0  0  0  0
    1.4811    1.0513    4.9000 H   0  0  0  0  0  0  0  0  0  0  0  0
    1.1736   -0.4139    6.7375 H   0  0  0  0  0  0  0  0  0  0  0  0
    5.1263   -0.5200    7.7273 H   0  0  0  0  0  0  0  0  0  0  0  0
    4.5483   -1.7603    6.6110 H   0  0  0  0  0  0  0  0  0  0  0  0
    4.0782   -1.8041    8.1245 H   0  0  0  0  0  0  0  0  0  0  0  0
    2.2512   -1.2353    8.6354 H   0  0  0  0  0  0  0  0  0  0  0  0
    2.9588   -0.2587   10.4305 H   0  0  0  0  0  0  0  0  0  0  0  0
    0.6205   -0.4095    9.7035 H   0  0  0  0  0  0  0  0  0  0  0  0
   -0.8902    1.1118    8.5762 H   0  0  0  0  0  0  0  0  0  0  0  0
   -0.0892    3.0443    7.5347 H   0  0  0  0  0  0  0  0  0  0  0  0
    3.4841    3.4102    7.0322 H   0  0  0  0  0  0  0  0  0  0  0  0
    2.9516    1.7383    9.0446 H   0  0  0  0  0  0  0  0  0  0  0  0
    5.6147   -0.0170    3.7349 H   0  0  0  0  0  0  0  0  0  0  0  0
    5.8154   -0.3899    6.3365 H   0  0  0  0  0  0  0  0  0  0  0  0
  1  2  1  0
  1 40  1  0
  1 41  1  0
  1 42  1  0
  2 38  1  0
  2  3  1  0
  2 43  1  1
  3  4  1  0
  3  5  1  0
  3 44  1  6
  4 45  1  0
  5 25  1  0
  5  6  1  1
  5  7  1  0
  6 46  1  0
  7 24  1  0
  7  8  1  0
  7 47  1  6
  8  9  1  0
  8 48  1  0
  8 49  1  0
  9 15  1  0
  9 33  1  0
  9 10  1  1
 10 11  1  0
 10 50  1  0
 10 51  1  0
 11 12  1  0
 11 52  1  0
 11 53  1  0
 12 13  1  0
 12 14  1  0
 12 15  1  0
 13 54  1  0
 13 55  1  0
 13 56  1  0
 14 57  1  0
 14 58  1  0
 14 59  1  0
 15 16  1  0
 15 60  1  1
 16 17  1  0
 16 18  1  0
 16 61  1  6
 17 62  1  0
 18 19  1  0
 18 63  1  0
 18 64  1  0
 19 37  1  0
 19 20  1  0
 19 65  1  1
 37 20  1  1
 20 21  1  6
 20 38  1  0
 21 22  1  0
 21 66  1  0
 21 67  1  0
 22 23  1  0
 22 24  1  0
 22 68  1  6
 23 69  1  0
 24 25  1  0
 24 70  1  1
 25 26  1  0
 25 71  1  1
 26 37  1  0
 26 27  1  1
 26 28  1  0
 27 72  1  0
 27 73  1  0
 27 74  1  0
 28 29  1  0
 28 30  1  0
 28 75  1  1
 29 76  1  0
 30 32  1  0
 30 31  1  0
 30 77  1  1
 31 32  1  0
 32 33  1  0
 32 78  1  1
 33 34  1  0
 33 79  1  1
 34 35  1  0
 35 36  1  0
 35 37  1  0
 35 80  1  6
 36 81  1  0
 38 39  1  0
 38 82  1  6
 39 83  1  0
M  END
>  <i_m_ct_stereo_status>  (27) 
1

>  <s_m_source_file>  (27) 
/var/tmp/pbs.5076255.sched01/tmppv1df_bs/0l6e7d74h.sdf

>  <i_m_source_file_index>  (27) 
9

>  <i_lp_mmshare_version>  (27) 
48012

>  <i_f3d_flags>  (27) 
2

>  <s_epik_input>  (27) 
W09IXVtDQEBIXTFPW0NAQEhdMltDQEhdKE8zKVtDQEhdM1tDQEhdKFtPSF0pW0NAQF0oW0NIM10pKFtDQEhdNFtDQF0oW09IXSkoW0NASF0oW09IXSlbQ0BASF0oW0NIM10pW0NAQEhdNVtPSF0pW0NASF0oW0NIMl02KVtDQEhdNFtDQEBIXShbQ0gyXTcpW09IXSlDMThbQ0BdNTdbQ0BIXThbQ0gyXVtDQEhdKFtPSF0pW0NAQEhdKFtDQF0yNjkpQyhbQ0gzXSkoW0NIM10pW0NIMl1bQ0gyXTk=

>  <s_epik_cmdline>  (27) 
J2VwaWtfcHl0aG9uJywgJy1waHQnLCAnMi4wJywgJy1waCcsICc3LjAnLCAnLXRuJywgJzgnLCAnLW1hJywgJzIwMCcsICctaW1hZScsICc8aW5maWxlLm1hZT4nLCAnLW9tYWUnLCAnPG91dGZpbGUubWFlPic=

>  <r_lp_tautomer_probability>  (27) 
1

>  <r_epik_Ionization_Penalty>  (27) 
2.87905e-06

>  <r_epik_Ionization_Penalty_Charging>  (27) 
0

>  <r_epik_Ionization_Penalty_Neutral>  (27) 
2.87905e-06

>  <r_epik_State_Penalty>  (27) 
-0

>  <r_epik_Charging_Adjusted_Penalty>  (27) 
0

>  <i_epik_Tot_Q>  (27) 
0

>  <i_epik_Tot_abs_Q>  (27) 
0

>  <s_epik_Chemistry_Notes>  (27) 
This compound contains an acetal/aminal-like group ( X-CH(R)-Y where X, Y are N, S, or O) that may be acid/base labile, releasing an aldehyde.

>  <s_lp_Force_Field>  (27) 
OPLS3e

>  <r_lp_Energy>  (27) 
470.355

>  <b_lp_Chiralities_Consistent>  (27) 
0

>  <s_lp_Variant>  (27) 
6:0-1

>  <s_i_glide_gridfile>  (27) 
pfpi4k_grid

>  <i_i_glide_lignum>  (27) 
9

>  <i_i_glide_rotatable_bonds>  (27) 
7

>  <r_i_docking_score>  (27) 
-2.03888

>  <r_i_glide_ligand_efficiency>  (27) 
-0.052279

>  <r_i_glide_ligand_efficiency_sa>  (27) 
-0.177289

>  <r_i_glide_ligand_efficiency_ln>  (27) 
-0.437194

>  <r_i_glide_gscore>  (27) 
-2.03888

>  <r_i_glide_lipo>  (27) 
-0.142095

>  <r_i_glide_hbond>  (27) 
-0.150748

>  <r_i_glide_metal>  (27) 
-0

>  <r_i_glide_rewards>  (27) 
0

>  <r_i_glide_evdw>  (27) 
-24.0397

>  <r_i_glide_ecoul>  (27) 
-3.62704

>  <r_i_glide_erotb>  (27) 
0

>  <r_i_glide_esite>  (27) 
0

>  <r_i_glide_emodel>  (27) 
-29.5349

>  <r_i_glide_energy>  (27) 
-27.6667

>  <r_i_glide_einternal>  (27) 
2.74834

>  <r_i_glide_intrahb_reward>  (27) 
-0

>  <i_i_glide_confnum>  (27) 
1

>  <i_i_glide_posenum>  (27) 
18

>  <r_i_glide_eff_state_penalty>  (27) 
0

>  <ligand_id>  (27) 
6

>  <original_smiles>  (27) 
CC1C(O)C2(O)C3CC45CCC(C)(C)C4C(O)CC4C6(CC(O)C3C2C2(C)C(O)C3OC3C5OC(O)C426)C1O

>  <smiles>  (27) 
[H]OC1([H])OC2([H])C3([H])OC3([H])C([H])(O[H])C3(C([H])([H])[H])C4([H])C5([H])C([H])(O[H])C([H])([H])C67C([H])(O[H])C([H])(C([H])([H])[H])C([H])(O[H])C4(O[H])C5([H])C([H])([H])C24C([H])([H])C([H])([H])C(C([H])([H])[H])(C([H])([H])[H])C4([H])C([H])(O[H])C([H])([H])C6([H])C137

$$$$
6:1:0
     RDKit          3D

 83 91  0  0  1  0  0  0  0  0999 V2000
    3.8661    4.5413    5.7658 C   0  0  0  0  0  0  0  0  0  0  0  0
    4.0894    3.0188    5.9550 C   0  0  2  0  0  0  0  0  0  0  0  0
    3.1330    2.1621    5.0800 C   0  0  1  0  0  0  0  0  0  0  0  0
    3.0813    2.6426    3.7397 O   0  0  0  0  0  0  0  0  0  0  0  0
    3.3315    0.6453    5.1210 C   0  0  2  0  0  0  0  0  0  0  0  0
    4.7349    0.7144    4.7963 O   0  0  0  0  0  0  0  0  0  0  0  0
    2.7798   -0.2837    4.1551 C   0  0  2  0  0  0  0  0  0  0  0  0
    1.2607    0.1683    3.6911 C   0  0  0  0  0  0  0  0  0  0  0  0
   -0.0057    0.8688    4.5664 C   0  0  2  0  0  0  0  0  0  0  0  0
   -1.0183    0.9155    3.3563 C   0  0  0  0  0  0  0  0  0  0  0  0
   -1.0627    2.3210    2.8133 C   0  0  0  0  0  0  0  0  0  0  0  0
   -1.1041    3.1775    4.0651 C   0  0  0  0  0  0  0  0  0  0  0  0
   -0.7184    4.6276    3.6977 C   0  0  0  0  0  0  0  0  0  0  0  0
   -2.5612    3.2026    4.5793 C   0  0  0  0  0  0  0  0  0  0  0  0
   -0.0419    2.4476    4.9792 C   0  0  1  0  0  0  0  0  0  0  0  0
   -0.0003    3.0321    6.5013 C   0  0  1  0  0  0  0  0  0  0  0  0
   -1.2711    3.0171    7.1262 O   0  0  0  0  0  0  0  0  0  0  0  0
    1.1469    3.0161    7.6552 C   0  0  0  0  0  0  0  0  0  0  0  0
    1.9161    1.7311    8.2654 C   0  0  2  0  0  0  0  0  0  0  0  0
    3.2163    1.2216    7.7250 C   0  0  1  0  0  0  0  0  0  0  0  0
    4.4314    0.0240    7.5853 C   0  0  0  0  0  0  0  0  0  0  0  0
    4.4835   -1.2565    6.4762 C   0  0  1  0  0  0  0  0  0  0  0  0
    4.6522   -2.5245    7.0731 O   0  0  0  0  0  0  0  0  0  0  0  0
    3.3285   -1.3682    5.3361 C   0  0  1  0  0  0  0  0  0  0  0  0
    2.4627   -0.5642    6.0419 C   0  0  1  0  0  0  0  0  0  0  0  0
    1.8990   -0.9246    7.5013 C   0  0  2  0  0  0  0  0  0  0  0  0
    2.5630   -1.3518    8.8982 C   0  0  0  0  0  0  0  0  0  0  0  0
    0.9238   -2.2316    7.2999 C   0  0  1  0  0  0  0  0  0  0  0  0
    0.2653   -2.8617    8.3921 O   0  0  0  0  0  0  0  0  0  0  0  0
    0.0311   -2.5175    6.0944 C   0  0  1  0  0  0  0  0  0  0  0  0
   -1.3827   -2.3080    6.2950 O   0  0  0  0  0  0  0  0  0  0  0  0
   -0.7495   -1.4866    5.3221 C   0  0  1  0  0  0  0  0  0  0  0  0
   -0.7666   -0.0206    5.6602 C   0  0  1  0  0  0  0  0  0  0  0  0
   -0.8784    0.2432    7.0837 O   0  0  0  0  0  0  0  0  0  0  0  0
    0.0793    0.4806    8.0901 C   0  0  1  0  0  0  0  0  0  0  0  0
   -0.1424   -0.2786    9.2579 O   0  0  0  0  0  0  0  0  0  0  0  0
    1.5630    0.5309    7.5689 C   0  0  2  0  0  0  0  0  0  0  0  0
    4.0015    2.5601    7.4354 C   0  0  1  0  0  0  0  0  0  0  0  0
    5.2835    2.6553    8.0352 O   0  0  0  0  0  0  0  0  0  0  0  0
    2.8251    4.8441    5.8699 H   0  0  0  0  0  0  0  0  0  0  0  0
    4.1778    4.8513    4.7671 H   0  0  0  0  0  0  0  0  0  0  0  0
    4.4618    5.1137    6.4775 H   0  0  0  0  0  0  0  0  0  0  0  0
    5.1204    2.8824    5.6352 H   0  0  0  0  0  0  0  0  0  0  0  0
    2.2278    2.3160    5.5854 H   0  0  0  0  0  0  0  0  0  0  0  0
    3.9398    2.6078    3.3395 H   0  0  0  0  0  0  0  0  0  0  0  0
    4.7993    0.9875    3.8973 H   0  0  0  0  0  0  0  0  0  0  0  0
    3.4118   -0.4116    3.2778 H   0  0  0  0  0  0  0  0  0  0  0  0
    1.4151    0.8238    2.8380 H   0  0  0  0  0  0  0  0  0  0  0  0
    0.8744   -0.7395    3.2271 H   0  0  0  0  0  0  0  0  0  0  0  0
   -0.8303    0.2258    2.5350 H   0  0  0  0  0  0  0  0  0  0  0  0
   -2.0426    0.6837    3.6327 H   0  0  0  0  0  0  0  0  0  0  0  0
   -0.1626    2.5223    2.2273 H   0  0  0  0  0  0  0  0  0  0  0  0
   -1.9171    2.4747    2.1522 H   0  0  0  0  0  0  0  0  0  0  0  0
   -0.7599    5.2908    4.5607 H   0  0  0  0  0  0  0  0  0  0  0  0
   -1.3946    5.0283    2.9404 H   0  0  0  0  0  0  0  0  0  0  0  0
    0.2866    4.6963    3.2787 H   0  0  0  0  0  0  0  0  0  0  0  0
   -2.7163    3.9939    5.3093 H   0  0  0  0  0  0  0  0  0  0  0  0
   -2.8432    2.2677    5.0525 H   0  0  0  0  0  0  0  0  0  0  0  0
   -3.2709    3.3829    3.7701 H   0  0  0  0  0  0  0  0  0  0  0  0
    0.7915    2.8797    4.4556 H   0  0  0  0  0  0  0  0  0  0  0  0
    0.0504    4.0939    6.2720 H   0  0  0  0  0  0  0  0  0  0  0  0
   -1.2539    3.5875    7.8777 H   0  0  0  0  0  0  0  0  0  0  0  0
    1.8069    3.8344    7.4169 H   0  0  0  0  0  0  0  0  0  0  0  0
    0.6672    3.4490    8.5366 H   0  0  0  0  0  0  0  0  0  0  0  0
    1.9053    1.7193    9.3520 H   0  0  0  0  0  0  0  0  0  0  0  0
    5.3371    0.5091    7.2399 H   0  0  0  0  0  0  0  0  0  0  0  0
    4.8094   -0.2810    8.5620 H   0  0  0  0  0  0  0  0  0  0  0  0
    5.4554   -1.2110    5.9810 H   0  0  0  0  0  0  0  0  0  0  0  0
    4.8736   -3.1513    6.4037 H   0  0  0  0  0  0  0  0  0  0  0  0
    2.9386   -2.3698    5.1618 H   0  0  0  0  0  0  0  0  0  0  0  0
    1.5039   -0.7635    5.6658 H   0  0  0  0  0  0  0  0  0  0  0  0
    1.8348   -1.6466    9.6449 H   0  0  0  0  0  0  0  0  0  0  0  0
    3.0196   -0.5601    9.4862 H   0  0  0  0  0  0  0  0  0  0  0  0
    3.2158   -2.2138    8.8727 H   0  0  0  0  0  0  0  0  0  0  0  0
    1.6983   -2.9844    7.1451 H   0  0  0  0  0  0  0  0  0  0  0  0
    0.9096   -3.0490    9.0551 H   0  0  0  0  0  0  0  0  0  0  0  0
    0.2620   -3.4389    5.5659 H   0  0  0  0  0  0  0  0  0  0  0  0
   -1.0428   -1.7427    4.3061 H   0  0  0  0  0  0  0  0  0  0  0  0
   -1.8216    0.2087    5.5354 H   0  0  0  0  0  0  0  0  0  0  0  0
   -0.3180    1.3979    8.4934 H   0  0  0  0  0  0  0  0  0  0  0  0
    0.1321    0.2330   10.0028 H   0  0  0  0  0  0  0  0  0  0  0  0
    3.6005    3.3593    8.0462 H   0  0  0  0  0  0  0  0  0  0  0  0
    5.8563    2.0383    7.6127 H   0  0  0  0  0  0  0  0  0  0  0  0
  1  2  1  0
  1 40  1  0
  1 41  1  0
  1 42  1  0
  2 38  1  0
  2  3  1  0
  2 43  1  6
  3  4  1  0
  3  5  1  0
  3 44  1  1
  4 45  1  0
  5 25  1  0
  5  6  1  1
  5  7  1  0
  6 46  1  0
  7 24  1  0
  7  8  1  0
  7 47  1  6
  8  9  1  0
  8 48  1  0
  8 49  1  0
  9 15  1  0
  9 33  1  0
  9 10  1  6
 10 11  1  0
 10 50  1  0
 10 51  1  0
 11 12  1  0
 11 52  1  0
 11 53  1  0
 12 13  1  0
 12 14  1  0
 12 15  1  0
 13 54  1  0
 13 55  1  0
 13 56  1  0
 14 57  1  0
 14 58  1  0
 14 59  1  0
 15 16  1  0
 15 60  1  6
 16 17  1  0
 16 18  1  0
 16 61  1  6
 17 62  1  0
 18 19  1  0
 18 63  1  0
 18 64  1  0
 19 37  1  0
 19 20  1  0
 19 65  1  1
 37 20  1  6
 20 21  1  1
 20 38  1  0
 21 22  1  0
 21 66  1  0
 21 67  1  0
 22 23  1  0
 22 24  1  0
 22 68  1  6
 23 69  1  0
 24 25  1  0
 24 70  1  6
 25 26  1  0
 25 71  1  6
 26 37  1  0
 26 27  1  1
 26 28  1  0
 27 72  1  0
 27 73  1  0
 27 74  1  0
 28 29  1  0
 28 30  1  0
 28 75  1  6
 29 76  1  0
 30 32  1  0
 30 31  1  0
 30 77  1  6
 31 32  1  0
 32 33  1  0
 32 78  1  6
 33 34  1  0
 33 79  1  6
 34 35  1  0
 35 36  1  0
 35 37  1  0
 35 80  1  1
 36 81  1  0
 38 39  1  0
 38 82  1  1
 39 83  1  0
M  END
>  <i_m_ct_stereo_status>  (28) 
1

>  <s_m_source_file>  (28) 
/var/tmp/pbs.5076255.sched01/tmppv1df_bs/0l6e7d74h.sdf

>  <i_m_source_file_index>  (28) 
10

>  <i_lp_mmshare_version>  (28) 
48012

>  <i_f3d_flags>  (28) 
0

>  <s_epik_input>  (28) 
W09IXVtDQEBIXTFPW0NAQEhdMltDQEhdKE8zKVtDQEhdM1tDQEhdKFtPSF0pW0NAQF0oW0NIM10pKFtDQEhdNFtDQF0oW09IXSkoW0NASF0oW09IXSlbQ0BASF0oW0NIM10pW0NAQEhdNVtPSF0pW0NASF0oW0NIMl02KVtDQEhdNFtDQEBIXShbQ0gyXTcpW09IXSlDMThbQ0BdNTdbQ0BIXThbQ0gyXVtDQEhdKFtPSF0pW0NAQEhdKFtDQF0yNjkpQyhbQ0gzXSkoW0NIM10pW0NIMl1bQ0gyXTk=

>  <s_epik_cmdline>  (28) 
J2VwaWtfcHl0aG9uJywgJy1waHQnLCAnMi4wJywgJy1waCcsICc3LjAnLCAnLXRuJywgJzgnLCAnLW1hJywgJzIwMCcsICctaW1hZScsICc8aW5maWxlLm1hZT4nLCAnLW9tYWUnLCAnPG91dGZpbGUubWFlPic=

>  <r_lp_tautomer_probability>  (28) 
1

>  <r_epik_Ionization_Penalty>  (28) 
2.87905e-06

>  <r_epik_Ionization_Penalty_Charging>  (28) 
0

>  <r_epik_Ionization_Penalty_Neutral>  (28) 
2.87905e-06

>  <r_epik_State_Penalty>  (28) 
-0

>  <r_epik_Charging_Adjusted_Penalty>  (28) 
0

>  <i_epik_Tot_Q>  (28) 
0

>  <i_epik_Tot_abs_Q>  (28) 
0

>  <s_epik_Chemistry_Notes>  (28) 
This compound contains an acetal/aminal-like group ( X-CH(R)-Y where X, Y are N, S, or O) that may be acid/base labile, releasing an aldehyde.

>  <s_lp_Force_Field>  (28) 
OPLS3e

>  <r_lp_Energy>  (28) 
598.811

>  <b_lp_Chiralities_Consistent>  (28) 
1

>  <s_lp_Variant>  (28) 
6:0-2

>  <s_i_glide_gridfile>  (28) 
pfpi4k_grid

>  <i_i_glide_lignum>  (28) 
10

>  <i_i_glide_rotatable_bonds>  (28) 
7

>  <r_i_docking_score>  (28) 
-2.93532

>  <r_i_glide_ligand_efficiency>  (28) 
-0.0752645

>  <r_i_glide_ligand_efficiency_sa>  (28) 
-0.255238

>  <r_i_glide_ligand_efficiency_ln>  (28) 
-0.629415

>  <r_i_glide_gscore>  (28) 
-2.93532

>  <r_i_glide_lipo>  (28) 
-0.000499262

>  <r_i_glide_hbond>  (28) 
-0.112053

>  <r_i_glide_metal>  (28) 
-0

>  <r_i_glide_rewards>  (28) 
0

>  <r_i_glide_evdw>  (28) 
-23.2425

>  <r_i_glide_ecoul>  (28) 
-10.8748

>  <r_i_glide_erotb>  (28) 
0

>  <r_i_glide_esite>  (28) 
-0.0294191

>  <r_i_glide_emodel>  (28) 
-39.1937

>  <r_i_glide_energy>  (28) 
-34.1173

>  <r_i_glide_einternal>  (28) 
2.91177

>  <r_i_glide_intrahb_reward>  (28) 
-0

>  <i_i_glide_confnum>  (28) 
2

>  <i_i_glide_posenum>  (28) 
40

>  <r_i_glide_eff_state_penalty>  (28) 
0

>  <ligand_id>  (28) 
6

>  <original_smiles>  (28) 
CC1C(O)C2(O)C3CC45CCC(C)(C)C4C(O)CC4C6(CC(O)C3C2C2(C)C(O)C3OC3C5OC(O)C426)C1O

>  <smiles>  (28) 
[H]OC1([H])OC2([H])C3([H])OC3([H])C([H])(O[H])C3(C([H])([H])[H])C4([H])C5([H])C([H])(O[H])C([H])([H])C67C([H])(O[H])C([H])(C([H])([H])[H])C([H])(O[H])C4(O[H])C5([H])C([H])([H])C24C([H])([H])C([H])([H])C(C([H])([H])[H])(C([H])([H])[H])C4([H])C([H])(O[H])C([H])([H])C6([H])C137

$$$$
6:1:1
     RDKit          3D

 83 91  0  0  1  0  0  0  0  0999 V2000
    3.9147    4.4453    5.6423 C   0  0  0  0  0  0  0  0  0  0  0  0
    4.1463    2.9227    5.7770 C   0  0  2  0  0  0  0  0  0  0  0  0
    3.1342    2.0959    4.9260 C   0  0  1  0  0  0  0  0  0  0  0  0
    3.0080    2.6090    3.6003 O   0  0  0  0  0  0  0  0  0  0  0  0
    3.3265    0.5779    4.9161 C   0  0  2  0  0  0  0  0  0  0  0  0
    4.6998    0.6630    4.5134 O   0  0  0  0  0  0  0  0  0  0  0  0
    2.7446   -0.3283    3.9570 C   0  0  2  0  0  0  0  0  0  0  0  0
    1.1945    0.1330    3.5870 C   0  0  0  0  0  0  0  0  0  0  0  0
   -0.0194    0.8149    4.5484 C   0  0  2  0  0  0  0  0  0  0  0  0
   -1.0908    0.8985    3.3867 C   0  0  0  0  0  0  0  0  0  0  0  0
   -1.1557    2.3149    2.8856 C   0  0  0  0  0  0  0  0  0  0  0  0
   -1.1320    3.1368    4.1612 C   0  0  0  0  0  0  0  0  0  0  0  0
   -0.7615    4.5909    3.8056 C   0  0  0  0  0  0  0  0  0  0  0  0
   -2.5604    3.1419    4.7471 C   0  0  0  0  0  0  0  0  0  0  0  0
   -0.0289    2.3843    4.9966 C   0  0  1  0  0  0  0  0  0  0  0  0
    0.0861    2.9289    6.5238 C   0  0  1  0  0  0  0  0  0  0  0  0
   -1.1495    2.8878    7.2141 O   0  0  0  0  0  0  0  0  0  0  0  0
    1.2893    2.8861    7.6093 C   0  0  0  0  0  0  0  0  0  0  0  0
    2.0887    1.5815    8.1493 C   0  0  2  0  0  0  0  0  0  0  0  0
    3.3616    1.0904    7.5389 C   0  0  1  0  0  0  0  0  0  0  0  0
    4.5663   -0.0990    7.3107 C   0  0  0  0  0  0  0  0  0  0  0  0
    4.5654   -1.3466    6.1658 C   0  0  1  0  0  0  0  0  0  0  0  0
    4.7608   -2.6309    6.7162 O   0  0  0  0  0  0  0  0  0  0  0  0
    3.3461   -1.4392    5.0901 C   0  0  1  0  0  0  0  0  0  0  0  0
    2.5140   -0.6566    5.8456 C   0  0  1  0  0  0  0  0  0  0  0  0
    2.0359   -1.0485    7.3248 C   0  0  2  0  0  0  0  0  0  0  0  0
    2.7731   -1.5129    8.6737 C   0  0  0  0  0  0  0  0  0  0  0  0
    1.0450   -2.3396    7.1512 C   0  0  1  0  0  0  0  0  0  0  0  0
    0.4275   -2.9102    8.2982 O   0  0  0  0  0  0  0  0  0  0  0  0
    0.0748   -2.6047    5.9949 C   0  0  1  0  0  0  0  0  0  0  0  0
   -1.3123   -2.3764    6.2672 O   0  0  0  0  0  0  0  0  0  0  0  0
   -0.7269   -1.5558    5.2837 C   0  0  1  0  0  0  0  0  0  0  0  0
   -0.7257   -0.0987    5.6499 C   0  0  1  0  0  0  0  0  0  0  0  0
   -0.7497    0.1099    7.0884 O   0  0  0  0  0  0  0  0  0  0  0  0
    0.2562    0.3396    8.0463 C   0  0  1  0  0  0  0  0  0  0  0  0
    0.1451   -0.4372    9.2055 O   0  0  0  0  0  0  0  0  0  0  0  0
    1.6986    0.4162    7.4354 C   0  0  2  0  0  0  0  0  0  0  0  0
    4.1369    2.4293    7.2458 C   0  0  1  0  0  0  0  0  0  0  0  0
    5.4495    2.5083    7.7816 O   0  0  0  0  0  0  0  0  0  0  0  0
    2.8796    4.7359    5.8029 H   0  0  0  0  0  0  0  0  0  0  0  0
    4.1745    4.7719    4.6363 H   0  0  0  0  0  0  0  0  0  0  0  0
    4.5469    4.9931    6.3401 H   0  0  0  0  0  0  0  0  0  0  0  0
    5.1606    2.7824    5.4082 H   0  0  0  0  0  0  0  0  0  0  0  0
    2.2677    2.2488    5.4901 H   0  0  0  0  0  0  0  0  0  0  0  0
    3.8496    2.6341    3.1704 H   0  0  0  0  0  0  0  0  0  0  0  0
    4.7095    1.0217    3.6399 H   0  0  0  0  0  0  0  0  0  0  0  0
    3.3309   -0.4370    3.0602 H   0  0  0  0  0  0  0  0  0  0  0  0
    1.3060    0.8059    2.7484 H   0  0  0  0  0  0  0  0  0  0  0  0
    0.7827   -0.7612    3.1169 H   0  0  0  0  0  0  0  0  0  0  0  0
   -0.9384    0.2441    2.5333 H   0  0  0  0  0  0  0  0  0  0  0  0
   -2.1024    0.6552    3.6950 H   0  0  0  0  0  0  0  0  0  0  0  0
   -0.2859    2.5332    2.2632 H   0  0  0  0  0  0  0  0  0  0  0  0
   -2.0474    2.4828    2.2792 H   0  0  0  0  0  0  0  0  0  0  0  0
   -0.7609    5.2328    4.6848 H   0  0  0  0  0  0  0  0  0  0  0  0
   -1.4794    5.0003    3.0922 H   0  0  0  0  0  0  0  0  0  0  0  0
    0.2183    4.6672    3.3325 H   0  0  0  0  0  0  0  0  0  0  0  0
   -2.6839    3.9165    5.4993 H   0  0  0  0  0  0  0  0  0  0  0  0
   -2.7982    2.1934    5.2161 H   0  0  0  0  0  0  0  0  0  0  0  0
   -3.3120    3.3339    3.9794 H   0  0  0  0  0  0  0  0  0  0  0  0
    0.7768    2.8315    4.4451 H   0  0  0  0  0  0  0  0  0  0  0  0
    0.1253    3.9955    6.3215 H   0  0  0  0  0  0  0  0  0  0  0  0
   -1.1043    3.4583    7.9682 H   0  0  0  0  0  0  0  0  0  0  0  0
    1.9413    3.7049    7.3583 H   0  0  0  0  0  0  0  0  0  0  0  0
    0.8568    3.2938    8.5302 H   0  0  0  0  0  0  0  0  0  0  0  0
    2.1162    1.5437    9.2315 H   0  0  0  0  0  0  0  0  0  0  0  0
    5.4440    0.3971    6.9130 H   0  0  0  0  0  0  0  0  0  0  0  0
    4.9961   -0.4134    8.2587 H   0  0  0  0  0  0  0  0  0  0  0  0
    5.5132   -1.2790    5.6216 H   0  0  0  0  0  0  0  0  0  0  0  0
    5.5819   -2.6279    7.1834 H   0  0  0  0  0  0  0  0  0  0  0  0
    2.9611   -2.4344    4.9092 H   0  0  0  0  0  0  0  0  0  0  0  0
    1.5474   -0.8667    5.5034 H   0  0  0  0  0  0  0  0  0  0  0  0
    2.1108   -1.8271    9.4685 H   0  0  0  0  0  0  0  0  0  0  0  0
    3.2590   -0.7372    9.2536 H   0  0  0  0  0  0  0  0  0  0  0  0
    3.4074   -2.3839    8.5822 H   0  0  0  0  0  0  0  0  0  0  0  0
    1.7957   -3.1029    6.9495 H   0  0  0  0  0  0  0  0  0  0  0  0
    1.1107   -3.3042    8.8300 H   0  0  0  0  0  0  0  0  0  0  0  0
    0.2828   -3.5058    5.4297 H   0  0  0  0  0  0  0  0  0  0  0  0
   -1.0551   -1.7856    4.2703 H   0  0  0  0  0  0  0  0  0  0  0  0
   -1.7863    0.1306    5.5769 H   0  0  0  0  0  0  0  0  0  0  0  0
   -0.1237    1.2430    8.4872 H   0  0  0  0  0  0  0  0  0  0  0  0
    0.4529   -1.3189    8.9975 H   0  0  0  0  0  0  0  0  0  0  0  0
    3.7628    3.1983    7.8997 H   0  0  0  0  0  0  0  0  0  0  0  0
    5.3972    2.3515    8.7118 H   0  0  0  0  0  0  0  0  0  0  0  0
  1  2  1  0
  1 40  1  0
  1 41  1  0
  1 42  1  0
  2 38  1  0
  2  3  1  0
  2 43  1  6
  3  4  1  0
  3  5  1  0
  3 44  1  1
  4 45  1  0
  5 25  1  0
  5  6  1  1
  5  7  1  0
  6 46  1  0
  7 24  1  0
  7  8  1  0
  7 47  1  6
  8  9  1  0
  8 48  1  0
  8 49  1  0
  9 15  1  0
  9 33  1  0
  9 10  1  6
 10 11  1  0
 10 50  1  0
 10 51  1  0
 11 12  1  0
 11 52  1  0
 11 53  1  0
 12 13  1  0
 12 14  1  0
 12 15  1  0
 13 54  1  0
 13 55  1  0
 13 56  1  0
 14 57  1  0
 14 58  1  0
 14 59  1  0
 15 16  1  0
 15 60  1  6
 16 17  1  0
 16 18  1  0
 16 61  1  6
 17 62  1  0
 18 19  1  0
 18 63  1  0
 18 64  1  0
 19 37  1  0
 19 20  1  0
 19 65  1  1
 37 20  1  6
 20 21  1  1
 20 38  1  0
 21 22  1  0
 21 66  1  0
 21 67  1  0
 22 23  1  0
 22 24  1  0
 22 68  1  6
 23 69  1  0
 24 25  1  0
 24 70  1  6
 25 26  1  0
 25 71  1  6
 26 37  1  0
 26 27  1  1
 26 28  1  0
 27 72  1  0
 27 73  1  0
 27 74  1  0
 28 29  1  0
 28 30  1  0
 28 75  1  6
 29 76  1  0
 30 32  1  0
 30 31  1  0
 30 77  1  6
 31 32  1  0
 32 33  1  0
 32 78  1  6
 33 34  1  0
 33 79  1  6
 34 35  1  0
 35 36  1  0
 35 37  1  0
 35 80  1  1
 36 81  1  0
 38 39  1  0
 38 82  1  1
 39 83  1  0
M  END
>  <i_m_ct_stereo_status>  (29) 
1

>  <s_m_source_file>  (29) 
/var/tmp/pbs.5076255.sched01/tmppv1df_bs/0l6e7d74h.sdf

>  <i_m_source_file_index>  (29) 
10

>  <i_lp_mmshare_version>  (29) 
48012

>  <i_f3d_flags>  (29) 
0

>  <s_epik_input>  (29) 
W09IXVtDQEBIXTFPW0NAQEhdMltDQEhdKE8zKVtDQEhdM1tDQEhdKFtPSF0pW0NAQF0oW0NIM10pKFtDQEhdNFtDQF0oW09IXSkoW0NASF0oW09IXSlbQ0BASF0oW0NIM10pW0NAQEhdNVtPSF0pW0NASF0oW0NIMl02KVtDQEhdNFtDQEBIXShbQ0gyXTcpW09IXSlDMThbQ0BdNTdbQ0BIXThbQ0gyXVtDQEhdKFtPSF0pW0NAQEhdKFtDQF0yNjkpQyhbQ0gzXSkoW0NIM10pW0NIMl1bQ0gyXTk=

>  <s_epik_cmdline>  (29) 
J2VwaWtfcHl0aG9uJywgJy1waHQnLCAnMi4wJywgJy1waCcsICc3LjAnLCAnLXRuJywgJzgnLCAnLW1hJywgJzIwMCcsICctaW1hZScsICc8aW5maWxlLm1hZT4nLCAnLW9tYWUnLCAnPG91dGZpbGUubWFlPic=

>  <r_lp_tautomer_probability>  (29) 
1

>  <r_epik_Ionization_Penalty>  (29) 
2.87905e-06

>  <r_epik_Ionization_Penalty_Charging>  (29) 
0

>  <r_epik_Ionization_Penalty_Neutral>  (29) 
2.87905e-06

>  <r_epik_State_Penalty>  (29) 
-0

>  <r_epik_Charging_Adjusted_Penalty>  (29) 
0

>  <i_epik_Tot_Q>  (29) 
0

>  <i_epik_Tot_abs_Q>  (29) 
0

>  <s_epik_Chemistry_Notes>  (29) 
This compound contains an acetal/aminal-like group ( X-CH(R)-Y where X, Y are N, S, or O) that may be acid/base labile, releasing an aldehyde.

>  <s_lp_Force_Field>  (29) 
OPLS3e

>  <r_lp_Energy>  (29) 
598.811

>  <b_lp_Chiralities_Consistent>  (29) 
1

>  <s_lp_Variant>  (29) 
6:0-2

>  <s_i_glide_gridfile>  (29) 
pfpi4k_grid

>  <i_i_glide_lignum>  (29) 
10

>  <i_i_glide_rotatable_bonds>  (29) 
7

>  <r_i_docking_score>  (29) 
-2.64917

>  <r_i_glide_ligand_efficiency>  (29) 
-0.0679275

>  <r_i_glide_ligand_efficiency_sa>  (29) 
-0.230357

>  <r_i_glide_ligand_efficiency_ln>  (29) 
-0.568058

>  <r_i_glide_gscore>  (29) 
-2.64917

>  <r_i_glide_lipo>  (29) 
-0.0040537

>  <r_i_glide_hbond>  (29) 
-0.0851663

>  <r_i_glide_metal>  (29) 
-0

>  <r_i_glide_rewards>  (29) 
0

>  <r_i_glide_evdw>  (29) 
-24.0641

>  <r_i_glide_ecoul>  (29) 
-8.86524

>  <r_i_glide_erotb>  (29) 
0

>  <r_i_glide_esite>  (29) 
-0.0269653

>  <r_i_glide_emodel>  (29) 
-37.5119

>  <r_i_glide_energy>  (29) 
-32.9293

>  <r_i_glide_einternal>  (29) 
2.05155

>  <r_i_glide_intrahb_reward>  (29) 
-0

>  <i_i_glide_confnum>  (29) 
1

>  <i_i_glide_posenum>  (29) 
7

>  <r_i_glide_eff_state_penalty>  (29) 
0

>  <ligand_id>  (29) 
6

>  <original_smiles>  (29) 
CC1C(O)C2(O)C3CC45CCC(C)(C)C4C(O)CC4C6(CC(O)C3C2C2(C)C(O)C3OC3C5OC(O)C426)C1O

>  <smiles>  (29) 
[H]OC1([H])OC2([H])C3([H])OC3([H])C([H])(O[H])C3(C([H])([H])[H])C4([H])C5([H])C([H])(O[H])C([H])([H])C67C([H])(O[H])C([H])(C([H])([H])[H])C([H])(O[H])C4(O[H])C5([H])C([H])([H])C24C([H])([H])C([H])([H])C(C([H])([H])[H])(C([H])([H])[H])C4([H])C([H])(O[H])C([H])([H])C6([H])C137

$$$$
6:1:2
     RDKit          3D

 83 91  0  0  1  0  0  0  0  0999 V2000
    1.4575   -1.6041    2.9518 C   0  0  0  0  0  0  0  0  0  0  0  0
    2.0465   -1.5043    4.3841 C   0  0  2  0  0  0  0  0  0  0  0  0
    1.1706   -0.6476    5.3363 C   0  0  1  0  0  0  0  0  0  0  0  0
   -0.1940   -1.0382    5.2230 O   0  0  0  0  0  0  0  0  0  0  0  0
    1.6110   -0.5599    6.8007 C   0  0  2  0  0  0  0  0  0  0  0  0
    1.6642   -1.9904    6.9933 O   0  0  0  0  0  0  0  0  0  0  0  0
    0.7781   -0.0961    7.8903 C   0  0  2  0  0  0  0  0  0  0  0  0
   -0.1861    1.1565    7.4184 C   0  0  0  0  0  0  0  0  0  0  0  0
    0.1010    2.4565    6.3774 C   0  0  2  0  0  0  0  0  0  0  0  0
   -1.3242    3.1280    6.5577 C   0  0  0  0  0  0  0  0  0  0  0  0
   -2.1674    2.7795    5.3524 C   0  0  0  0  0  0  0  0  0  0  0  0
   -1.2040    2.9730    4.1917 C   0  0  0  0  0  0  0  0  0  0  0  0
   -1.7675    2.2600    2.9440 C   0  0  0  0  0  0  0  0  0  0  0  0
   -1.1318    4.4818    3.8628 C   0  0  0  0  0  0  0  0  0  0  0  0
    0.1140    2.3104    4.7513 C   0  0  1  0  0  0  0  0  0  0  0  0
    1.4086    2.5315    3.7804 C   0  0  1  0  0  0  0  0  0  0  0  0
    1.6389    3.8888    3.4473 O   0  0  0  0  0  0  0  0  0  0  0  0
    2.8025    1.7108    3.6074 C   0  0  0  0  0  0  0  0  0  0  0  0
    3.8878    1.3520    4.7522 C   0  0  2  0  0  0  0  0  0  0  0  0
    3.8697    0.0727    5.5248 C   0  0  1  0  0  0  0  0  0  0  0  0
    4.3633   -0.9092    6.8364 C   0  0  0  0  0  0  0  0  0  0  0  0
    3.6456   -0.9964    8.3693 C   0  0  1  0  0  0  0  0  0  0  0  0
    4.5485   -0.8178    9.4404 O   0  0  0  0  0  0  0  0  0  0  0  0
    2.2868   -0.1473    8.6620 C   0  0  1  0  0  0  0  0  0  0  0  0
    2.5136    0.7039    7.6086 C   0  0  1  0  0  0  0  0  0  0  0  0
    3.7989    1.6543    7.4952 C   0  0  2  0  0  0  0  0  0  0  0  0
    5.3869    1.4331    7.5927 C   0  0  0  0  0  0  0  0  0  0  0  0
    3.6452    2.7535    8.7030 C   0  0  1  0  0  0  0  0  0  0  0  0
    4.6148    3.7661    8.9037 O   0  0  0  0  0  0  0  0  0  0  0  0
    2.3442    3.3800    9.1947 C   0  0  1  0  0  0  0  0  0  0  0  0
    2.1160    4.7380    8.7646 O   0  0  0  0  0  0  0  0  0  0  0  0
    1.1701    3.7654    8.3360 C   0  0  1  0  0  0  0  0  0  0  0  0
    1.1205    3.5929    6.8444 C   0  0  1  0  0  0  0  0  0  0  0  0
    2.3420    3.9919    6.1752 O   0  0  0  0  0  0  0  0  0  0  0  0
    3.4985    3.2928    5.7889 C   0  0  1  0  0  0  0  0  0  0  0  0
    4.6795    3.9457    6.2006 O   0  0  0  0  0  0  0  0  0  0  0  0
    3.4275    1.7390    6.0484 C   0  0  2  0  0  0  0  0  0  0  0  0
    3.5050   -0.9819    4.4074 C   0  0  1  0  0  0  0  0  0  0  0  0
    4.3872   -2.0863    4.2918 O   0  0  0  0  0  0  0  0  0  0  0  0
    1.1905   -0.6419    2.5159 H   0  0  0  0  0  0  0  0  0  0  0  0
    0.5494   -2.2068    2.9562 H   0  0  0  0  0  0  0  0  0  0  0  0
    2.1504   -2.0987    2.2705 H   0  0  0  0  0  0  0  0  0  0  0  0
    2.0527   -2.5418    4.7201 H   0  0  0  0  0  0  0  0  0  0  0  0
    1.3440    0.3107    4.9497 H   0  0  0  0  0  0  0  0  0  0  0  0
   -0.4504   -0.9147    4.3237 H   0  0  0  0  0  0  0  0  0  0  0  0
    2.5158   -2.2833    6.7113 H   0  0  0  0  0  0  0  0  0  0  0  0
    0.1707   -0.8916    8.3199 H   0  0  0  0  0  0  0  0  0  0  0  0
   -1.0834    0.6806    7.0356 H   0  0  0  0  0  0  0  0  0  0  0  0
   -0.5104    1.5703    8.3724 H   0  0  0  0  0  0  0  0  0  0  0  0
   -1.8660    2.8636    7.4648 H   0  0  0  0  0  0  0  0  0  0  0  0
   -1.3089    4.2150    6.6071 H   0  0  0  0  0  0  0  0  0  0  0  0
   -2.4909    1.7394    5.4193 H   0  0  0  0  0  0  0  0  0  0  0  0
   -3.0675    3.3923    5.2823 H   0  0  0  0  0  0  0  0  0  0  0  0
   -1.1194    2.4024    2.0788 H   0  0  0  0  0  0  0  0  0  0  0  0
   -2.7498    2.6476    2.6739 H   0  0  0  0  0  0  0  0  0  0  0  0
   -1.8726    1.1864    3.0973 H   0  0  0  0  0  0  0  0  0  0  0  0
   -0.6857    4.6672    2.8831 H   0  0  0  0  0  0  0  0  0  0  0  0
   -0.5648    5.0493    4.5981 H   0  0  0  0  0  0  0  0  0  0  0  0
   -2.1308    4.9083    3.8036 H   0  0  0  0  0  0  0  0  0  0  0  0
   -0.2370    1.3101    4.5716 H   0  0  0  0  0  0  0  0  0  0  0  0
    0.9665    2.2335    2.8335 H   0  0  0  0  0  0  0  0  0  0  0  0
    1.1568    4.1004    2.6548 H   0  0  0  0  0  0  0  0  0  0  0  0
    2.5814    0.8832    2.9527 H   0  0  0  0  0  0  0  0  0  0  0  0
    3.3875    2.3141    2.9063 H   0  0  0  0  0  0  0  0  0  0  0  0
    4.8994    1.6309    4.4706 H   0  0  0  0  0  0  0  0  0  0  0  0
    4.1950   -1.9446    6.5612 H   0  0  0  0  0  0  0  0  0  0  0  0
    5.4490   -0.9730    6.8989 H   0  0  0  0  0  0  0  0  0  0  0  0
    3.4393   -2.0497    8.5628 H   0  0  0  0  0  0  0  0  0  0  0  0
    4.8425    0.0760    9.4511 H   0  0  0  0  0  0  0  0  0  0  0  0
    2.2515    0.3523    9.6275 H   0  0  0  0  0  0  0  0  0  0  0  0
    1.9423    1.5652    7.7937 H   0  0  0  0  0  0  0  0  0  0  0  0
    5.9391    2.3660    7.5892 H   0  0  0  0  0  0  0  0  0  0  0  0
    5.8768    1.0065    6.7229 H   0  0  0  0  0  0  0  0  0  0  0  0
    5.7534    0.9640    8.4952 H   0  0  0  0  0  0  0  0  0  0  0  0
    3.8973    2.1212    9.5541 H   0  0  0  0  0  0  0  0  0  0  0  0
    4.5111    4.3778    8.1882 H   0  0  0  0  0  0  0  0  0  0  0  0
    2.1248    3.2075   10.2446 H   0  0  0  0  0  0  0  0  0  0  0  0
    0.2061    3.8579    8.8338 H   0  0  0  0  0  0  0  0  0  0  0  0
    0.6546    4.5267    6.5430 H   0  0  0  0  0  0  0  0  0  0  0  0
    3.5640    3.5993    4.7542 H   0  0  0  0  0  0  0  0  0  0  0  0
    4.6939    4.7837    5.7740 H   0  0  0  0  0  0  0  0  0  0  0  0
    3.7818   -0.5928    3.4352 H   0  0  0  0  0  0  0  0  0  0  0  0
    4.1806   -2.5502    3.4983 H   0  0  0  0  0  0  0  0  0  0  0  0
  1  2  1  0
  1 40  1  0
  1 41  1  0
  1 42  1  0
  2 38  1  0
  2  3  1  0
  2 43  1  1
  3  4  1  0
  3  5  1  0
  3 44  1  6
  4 45  1  0
  5 25  1  0
  5  6  1  1
  5  7  1  0
  6 46  1  0
  7 24  1  0
  7  8  1  0
  7 47  1  1
  8  9  1  0
  8 48  1  0
  8 49  1  0
  9 15  1  0
  9 33  1  0
  9 10  1  6
 10 11  1  0
 10 50  1  0
 10 51  1  0
 11 12  1  0
 11 52  1  0
 11 53  1  0
 12 13  1  0
 12 14  1  0
 12 15  1  0
 13 54  1  0
 13 55  1  0
 13 56  1  0
 14 57  1  0
 14 58  1  0
 14 59  1  0
 15 16  1  0
 15 60  1  1
 16 17  1  0
 16 18  1  0
 16 61  1  6
 17 62  1  0
 18 19  1  0
 18 63  1  0
 18 64  1  0
 19 37  1  0
 19 20  1  0
 19 65  1  6
 37 20  1  1
 20 21  1  1
 20 38  1  0
 21 22  1  0
 21 66  1  0
 21 67  1  0
 22 23  1  0
 22 24  1  0
 22 68  1  1
 23 69  1  0
 24 25  1  0
 24 70  1  1
 25 26  1  0
 25 71  1  1
 26 37  1  0
 26 27  1  6
 26 28  1  0
 27 72  1  0
 27 73  1  0
 27 74  1  0
 28 29  1  0
 28 30  1  0
 28 75  1  1
 29 76  1  0
 30 32  1  0
 30 31  1  0
 30 77  1  1
 31 32  1  0
 32 33  1  0
 32 78  1  1
 33 34  1  0
 33 79  1  6
 34 35  1  0
 35 36  1  0
 35 37  1  0
 35 80  1  6
 36 81  1  0
 38 39  1  0
 38 82  1  6
 39 83  1  0
M  END
>  <i_m_ct_stereo_status>  (30) 
1

>  <s_m_source_file>  (30) 
/var/tmp/pbs.5076255.sched01/tmppv1df_bs/0l6e7d74h.sdf

>  <i_m_source_file_index>  (30) 
10

>  <i_lp_mmshare_version>  (30) 
48012

>  <i_f3d_flags>  (30) 
0

>  <s_epik_input>  (30) 
W09IXVtDQEBIXTFPW0NAQEhdMltDQEhdKE8zKVtDQEhdM1tDQEhdKFtPSF0pW0NAQF0oW0NIM10pKFtDQEhdNFtDQF0oW09IXSkoW0NASF0oW09IXSlbQ0BASF0oW0NIM10pW0NAQEhdNVtPSF0pW0NASF0oW0NIMl02KVtDQEhdNFtDQEBIXShbQ0gyXTcpW09IXSlDMThbQ0BdNTdbQ0BIXThbQ0gyXVtDQEhdKFtPSF0pW0NAQEhdKFtDQF0yNjkpQyhbQ0gzXSkoW0NIM10pW0NIMl1bQ0gyXTk=

>  <s_epik_cmdline>  (30) 
J2VwaWtfcHl0aG9uJywgJy1waHQnLCAnMi4wJywgJy1waCcsICc3LjAnLCAnLXRuJywgJzgnLCAnLW1hJywgJzIwMCcsICctaW1hZScsICc8aW5maWxlLm1hZT4nLCAnLW9tYWUnLCAnPG91dGZpbGUubWFlPic=

>  <r_lp_tautomer_probability>  (30) 
1

>  <r_epik_Ionization_Penalty>  (30) 
2.87905e-06

>  <r_epik_Ionization_Penalty_Charging>  (30) 
0

>  <r_epik_Ionization_Penalty_Neutral>  (30) 
2.87905e-06

>  <r_epik_State_Penalty>  (30) 
-0

>  <r_epik_Charging_Adjusted_Penalty>  (30) 
0

>  <i_epik_Tot_Q>  (30) 
0

>  <i_epik_Tot_abs_Q>  (30) 
0

>  <s_epik_Chemistry_Notes>  (30) 
This compound contains an acetal/aminal-like group ( X-CH(R)-Y where X, Y are N, S, or O) that may be acid/base labile, releasing an aldehyde.

>  <s_lp_Force_Field>  (30) 
OPLS3e

>  <r_lp_Energy>  (30) 
598.811

>  <b_lp_Chiralities_Consistent>  (30) 
1

>  <s_lp_Variant>  (30) 
6:0-2

>  <s_i_glide_gridfile>  (30) 
pfpi4k_grid

>  <i_i_glide_lignum>  (30) 
10

>  <i_i_glide_rotatable_bonds>  (30) 
7

>  <r_i_docking_score>  (30) 
-2.40097

>  <r_i_glide_ligand_efficiency>  (30) 
-0.0615634

>  <r_i_glide_ligand_efficiency_sa>  (30) 
-0.208775

>  <r_i_glide_ligand_efficiency_ln>  (30) 
-0.514837

>  <r_i_glide_gscore>  (30) 
-2.40097

>  <r_i_glide_lipo>  (30) 
-0.0475464

>  <r_i_glide_hbond>  (30) 
0

>  <r_i_glide_metal>  (30) 
-0

>  <r_i_glide_rewards>  (30) 
-0.5

>  <r_i_glide_evdw>  (30) 
-23.1501

>  <r_i_glide_ecoul>  (30) 
-4.63947

>  <r_i_glide_erotb>  (30) 
0

>  <r_i_glide_esite>  (30) 
0

>  <r_i_glide_emodel>  (30) 
-36.7563

>  <r_i_glide_energy>  (30) 
-27.7896

>  <r_i_glide_einternal>  (30) 
2.40731

>  <r_i_glide_intrahb_reward>  (30) 
-0.5

>  <i_i_glide_confnum>  (30) 
2

>  <i_i_glide_posenum>  (30) 
33

>  <r_i_glide_eff_state_penalty>  (30) 
0

>  <ligand_id>  (30) 
6

>  <original_smiles>  (30) 
CC1C(O)C2(O)C3CC45CCC(C)(C)C4C(O)CC4C6(CC(O)C3C2C2(C)C(O)C3OC3C5OC(O)C426)C1O

>  <smiles>  (30) 
[H]OC1([H])OC2([H])C3([H])OC3([H])C([H])(O[H])C3(C([H])([H])[H])C4([H])C5([H])C([H])(O[H])C([H])([H])C67C([H])(O[H])C([H])(C([H])([H])[H])C([H])(O[H])C4(O[H])C5([H])C([H])([H])C24C([H])([H])C([H])([H])C(C([H])([H])[H])(C([H])([H])[H])C4([H])C([H])(O[H])C([H])([H])C6([H])C137

$$$$
7:0:0
     RDKit          3D

 39 42  0  0  1  0  0  0  0  0999 V2000
    7.9106   -3.8128    0.2120 C   0  0  0  0  0  0  0  0  0  0  0  0
    6.5695   -3.3174   -0.3706 C   0  0  2  0  0  0  0  0  0  0  0  0
    6.7376   -3.0497   -1.8927 C   0  0  0  0  0  0  0  0  0  0  0  0
    5.5177   -3.3734   -2.7787 C   0  0  0  0  0  0  0  0  0  0  0  0
    4.1801   -2.7039   -2.4220 C   0  0  2  0  0  0  0  0  0  0  0  0
    3.0913   -3.0443   -3.4489 C   0  0  0  0  0  0  0  0  0  0  0  0
    4.2249   -1.2777   -2.4400 O   0  0  0  0  0  0  0  0  0  0  0  0
    5.0968   -0.7435   -1.3151 O   0  0  0  0  0  0  0  0  0  0  0  0
    4.7523   -1.3637   -0.0750 C   0  0  2  0  0  0  0  0  0  0  0  0
    4.3387   -0.2548    0.9229 C   0  0  0  0  0  0  0  0  0  0  0  0
    3.7166   -0.8770    2.1974 C   0  0  0  0  0  0  0  0  0  0  0  0
    3.7101   -2.4258    2.1678 C   0  0  2  0  0  0  0  0  0  0  0  0
    2.8532   -2.9829    3.3193 C   0  0  0  0  0  0  0  0  0  0  0  0
    4.9780   -3.0411    2.3281 O   0  0  0  0  0  0  0  0  0  0  0  0
    6.0890   -2.1454    1.8151 O   0  0  0  0  0  0  0  0  0  0  0  0
    6.0715   -2.0499    0.3938 C   0  0  1  0  0  0  0  0  0  0  0  0
    3.0944   -2.8793    0.9776 O   0  0  0  0  0  0  0  0  0  0  0  0
    3.5092   -2.3048   -0.2283 C   0  0  2  0  0  0  0  0  0  0  0  0
    3.7649   -3.2560   -1.1848 O   0  0  0  0  0  0  0  0  0  0  0  0
    8.6959   -3.0616    0.1172 H   0  0  0  0  0  0  0  0  0  0  0  0
    8.2551   -4.7084   -0.3084 H   0  0  0  0  0  0  0  0  0  0  0  0
    7.8216   -4.0803    1.2674 H   0  0  0  0  0  0  0  0  0  0  0  0
    5.8693   -4.1411   -0.2231 H   0  0  0  0  0  0  0  0  0  0  0  0
    7.0626   -2.0305   -2.0626 H   0  0  0  0  0  0  0  0  0  0  0  0
    7.5708   -3.6421   -2.2730 H   0  0  0  0  0  0  0  0  0  0  0  0
    5.7803   -3.1583   -3.8128 H   0  0  0  0  0  0  0  0  0  0  0  0
    5.3718   -4.4524   -2.7577 H   0  0  0  0  0  0  0  0  0  0  0  0
    2.1456   -2.5717   -3.1698 H   0  0  0  0  0  0  0  0  0  0  0  0
    2.9155   -4.1166   -3.5256 H   0  0  0  0  0  0  0  0  0  0  0  0
    3.3557   -2.6916   -4.4491 H   0  0  0  0  0  0  0  0  0  0  0  0
    5.2081    0.3503    1.1885 H   0  0  0  0  0  0  0  0  0  0  0  0
    3.6113    0.4194    0.4809 H   0  0  0  0  0  0  0  0  0  0  0  0
    4.2062   -0.4962    3.0989 H   0  0  0  0  0  0  0  0  0  0  0  0
    2.6731   -0.5484    2.2514 H   0  0  0  0  0  0  0  0  0  0  0  0
    2.8388   -4.0761    3.3252 H   0  0  0  0  0  0  0  0  0  0  0  0
    1.8224   -2.6427    3.2187 H   0  0  0  0  0  0  0  0  0  0  0  0
    3.2170   -2.6446    4.2950 H   0  0  0  0  0  0  0  0  0  0  0  0
    6.8546   -1.2935    0.2348 H   0  0  0  0  0  0  0  0  0  0  0  0
    2.6501   -1.7369   -0.5743 H   0  0  0  0  0  0  0  0  0  0  0  0
  1  2  1  0
  1 20  1  0
  1 21  1  0
  1 22  1  0
  2 16  1  0
  2  3  1  0
  2 23  1  6
  3  4  1  0
  3 24  1  0
  3 25  1  0
  4  5  1  0
  4 26  1  0
  4 27  1  0
  5 19  1  0
  5  6  1  6
  5  7  1  0
  6 28  1  0
  6 29  1  0
  6 30  1  0
  7  8  1  0
  9  8  1  6
  9 16  1  0
  9 18  1  0
  9 10  1  0
 10 11  1  0
 10 31  1  0
 10 32  1  0
 11 12  1  0
 11 33  1  0
 11 34  1  0
 12 13  1  1
 12 14  1  0
 12 17  1  0
 13 35  1  0
 13 36  1  0
 13 37  1  0
 14 15  1  0
 15 16  1  0
 16 38  1  1
 17 18  1  0
 18 19  1  0
 18 39  1  6
M  END
>  <i_m_ct_stereo_status>  (31) 
1

>  <s_m_source_file>  (31) 
/var/tmp/pbs.5076255.sched01/tmppv1df_bs/0l6e7d74h.sdf

>  <i_m_source_file_index>  (31) 
11

>  <i_lp_mmshare_version>  (31) 
48012

>  <i_f3d_flags>  (31) 
0

>  <s_epik_input>  (31) 
W0NAQF0xMjNbQ0BASF00W0NASF0oW0NIM10pW0NIMl1bQ0gyXVtDQF0oW0NIM10pKE9PMSlPW0NASF0zT1tDQEBdKFtDSDNdKShPTzQpW0NIMl1bQ0gyXTI=

>  <s_epik_cmdline>  (31) 
J2VwaWtfcHl0aG9uJywgJy1waHQnLCAnMi4wJywgJy1waCcsICc3LjAnLCAnLXRuJywgJzgnLCAnLW1hJywgJzIwMCcsICctaW1hZScsICc8aW5maWxlLm1hZT4nLCAnLW9tYWUnLCAnPG91dGZpbGUubWFlPic=

>  <r_lp_tautomer_probability>  (31) 
1

>  <r_epik_Ionization_Penalty>  (31) 
0

>  <r_epik_Ionization_Penalty_Charging>  (31) 
0

>  <r_epik_Ionization_Penalty_Neutral>  (31) 
0

>  <r_epik_State_Penalty>  (31) 
-0

>  <r_epik_Charging_Adjusted_Penalty>  (31) 
0

>  <i_epik_Tot_Q>  (31) 
0

>  <i_epik_Tot_abs_Q>  (31) 
0

>  <s_epik_Chemistry_Notes>  (31) 
This compound contains an acetal/aminal-like group ( X-CH(R)-Y where X, Y are N, S, or O) that may be acid/base labile, releasing an aldehyde.

>  <s_lp_Force_Field>  (31) 
OPLS3e

>  <r_lp_Energy>  (31) 
28.9952

>  <b_lp_Chiralities_Consistent>  (31) 
1

>  <s_lp_Variant>  (31) 
7:0-1

>  <s_i_glide_gridfile>  (31) 
pfpi4k_grid

>  <i_i_glide_lignum>  (31) 
11

>  <i_i_glide_rotatable_bonds>  (31) 
0

>  <r_i_docking_score>  (31) 
-3.78497

>  <r_i_glide_ligand_efficiency>  (31) 
-0.199209

>  <r_i_glide_ligand_efficiency_sa>  (31) 
-0.53157

>  <r_i_glide_ligand_efficiency_ln>  (31) 
-0.959572

>  <r_i_glide_gscore>  (31) 
-3.78497

>  <r_i_glide_lipo>  (31) 
-0.930595

>  <r_i_glide_hbond>  (31) 
0

>  <r_i_glide_metal>  (31) 
-0

>  <r_i_glide_rewards>  (31) 
-1.57595

>  <r_i_glide_evdw>  (31) 
-24.3672

>  <r_i_glide_ecoul>  (31) 
-0.0498888

>  <r_i_glide_erotb>  (31) 
0

>  <r_i_glide_esite>  (31) 
-0.0525865

>  <r_i_glide_emodel>  (31) 
-30.0384

>  <r_i_glide_energy>  (31) 
-24.4171

>  <r_i_glide_einternal>  (31) 
0

>  <r_i_glide_intrahb_reward>  (31) 
-0

>  <i_i_glide_confnum>  (31) 
1

>  <i_i_glide_posenum>  (31) 
3

>  <r_i_glide_eff_state_penalty>  (31) 
0

>  <ligand_id>  (31) 
7

>  <original_smiles>  (31) 
CC1CCC2(C)OOC34CCC(C)(OOC13)OC4O2

>  <smiles>  (31) 
[H]C([H])([H])C12OOC34C([H])(O1)OC(C([H])([H])[H])(OOC3([H])C([H])(C([H])([H])[H])C([H])([H])C2([H])[H])C([H])([H])C4([H])[H]

$$$$
7:0:1
     RDKit          3D

 39 42  0  0  1  0  0  0  0  0999 V2000
    7.8147   -3.3620   -0.8699 C   0  0  0  0  0  0  0  0  0  0  0  0
    6.5222   -2.7352   -0.3120 C   0  0  2  0  0  0  0  0  0  0  0  0
    6.5152   -2.9262    1.2194 C   0  0  0  0  0  0  0  0  0  0  0  0
    5.9245   -1.7669    2.0656 C   0  0  0  0  0  0  0  0  0  0  0  0
    4.4951   -1.3184    1.7449 C   0  0  2  0  0  0  0  0  0  0  0  0
    4.0309   -0.2265    2.7030 C   0  0  0  0  0  0  0  0  0  0  0  0
    3.5104   -2.3235    1.8752 O   0  0  0  0  0  0  0  0  0  0  0  0
    3.7679   -3.4210    0.8727 O   0  0  0  0  0  0  0  0  0  0  0  0
    3.8774   -2.8613   -0.4320 C   0  0  2  0  0  0  0  0  0  0  0  0
    2.7237   -3.4174   -1.2812 C   0  0  0  0  0  0  0  0  0  0  0  0
    2.6742   -2.7087   -2.6664 C   0  0  0  0  0  0  0  0  0  0  0  0
    3.7635   -1.6307   -2.8087 C   0  0  2  0  0  0  0  0  0  0  0  0
    3.4847   -0.7183   -4.0250 C   0  0  0  0  0  0  0  0  0  0  0  0
    5.0569   -2.1530   -3.0369 O   0  0  0  0  0  0  0  0  0  0  0  0
    5.2216   -3.4972   -2.3642 O   0  0  0  0  0  0  0  0  0  0  0  0
    5.2493   -3.3694   -0.9520 C   0  0  1  0  0  0  0  0  0  0  0  0
    3.7957   -0.7529   -1.7007 O   0  0  0  0  0  0  0  0  0  0  0  0
    3.6846   -1.3215   -0.4201 C   0  0  2  0  0  0  0  0  0  0  0  0
    4.5629   -0.7322    0.4565 O   0  0  0  0  0  0  0  0  0  0  0  0
    7.8712   -4.4217   -0.6162 H   0  0  0  0  0  0  0  0  0  0  0  0
    8.6997   -2.8985   -0.4315 H   0  0  0  0  0  0  0  0  0  0  0  0
    7.8893   -3.2532   -1.9506 H   0  0  0  0  0  0  0  0  0  0  0  0
    6.5945   -1.6685   -0.5514 H   0  0  0  0  0  0  0  0  0  0  0  0
    6.0337   -3.8631    1.5025 H   0  0  0  0  0  0  0  0  0  0  0  0
    7.5395   -3.0718    1.5586 H   0  0  0  0  0  0  0  0  0  0  0  0
    5.9985   -2.0303    3.1217 H   0  0  0  0  0  0  0  0  0  0  0  0
    6.5855   -0.9170    1.9351 H   0  0  0  0  0  0  0  0  0  0  0  0
    3.0176    0.0891    2.4388 H   0  0  0  0  0  0  0  0  0  0  0  0
    4.6881    0.6295    2.6432 H   0  0  0  0  0  0  0  0  0  0  0  0
    4.0306   -0.5797    3.7365 H   0  0  0  0  0  0  0  0  0  0  0  0
    2.8766   -4.4797   -1.3891 H   0  0  0  0  0  0  0  0  0  0  0  0
    1.7693   -3.2810   -0.7749 H   0  0  0  0  0  0  0  0  0  0  0  0
    2.7313   -3.4404   -3.4782 H   0  0  0  0  0  0  0  0  0  0  0  0
    1.6987   -2.2398   -2.7408 H   0  0  0  0  0  0  0  0  0  0  0  0
    4.2441    0.0577   -4.1394 H   0  0  0  0  0  0  0  0  0  0  0  0
    2.5265   -0.2133   -3.8941 H   0  0  0  0  0  0  0  0  0  0  0  0
    3.4320   -1.2988   -4.9479 H   0  0  0  0  0  0  0  0  0  0  0  0
    5.2754   -4.4279   -0.6555 H   0  0  0  0  0  0  0  0  0  0  0  0
    2.6879   -1.0846   -0.0396 H   0  0  0  0  0  0  0  0  0  0  0  0
  1  2  1  0
  1 20  1  0
  1 21  1  0
  1 22  1  0
  2 16  1  0
  2  3  1  0
  2 23  1  1
  3  4  1  0
  3 24  1  0
  3 25  1  0
  4  5  1  0
  4 26  1  0
  4 27  1  0
  5 19  1  0
  5  6  1  1
  5  7  1  0
  6 28  1  0
  6 29  1  0
  6 30  1  0
  7  8  1  0
  9  8  1  1
  9 16  1  0
  9 18  1  0
  9 10  1  0
 10 11  1  0
 10 31  1  0
 10 32  1  0
 11 12  1  0
 11 33  1  0
 11 34  1  0
 12 13  1  6
 12 14  1  0
 12 17  1  0
 13 35  1  0
 13 36  1  0
 13 37  1  0
 14 15  1  0
 15 16  1  0
 16 38  1  1
 17 18  1  0
 18 19  1  0
 18 39  1  1
M  END
>  <i_m_ct_stereo_status>  (32) 
1

>  <s_m_source_file>  (32) 
/var/tmp/pbs.5076255.sched01/tmppv1df_bs/0l6e7d74h.sdf

>  <i_m_source_file_index>  (32) 
11

>  <i_lp_mmshare_version>  (32) 
48012

>  <i_f3d_flags>  (32) 
0

>  <s_epik_input>  (32) 
W0NAQF0xMjNbQ0BASF00W0NASF0oW0NIM10pW0NIMl1bQ0gyXVtDQF0oW0NIM10pKE9PMSlPW0NASF0zT1tDQEBdKFtDSDNdKShPTzQpW0NIMl1bQ0gyXTI=

>  <s_epik_cmdline>  (32) 
J2VwaWtfcHl0aG9uJywgJy1waHQnLCAnMi4wJywgJy1waCcsICc3LjAnLCAnLXRuJywgJzgnLCAnLW1hJywgJzIwMCcsICctaW1hZScsICc8aW5maWxlLm1hZT4nLCAnLW9tYWUnLCAnPG91dGZpbGUubWFlPic=

>  <r_lp_tautomer_probability>  (32) 
1

>  <r_epik_Ionization_Penalty>  (32) 
0

>  <r_epik_Ionization_Penalty_Charging>  (32) 
0

>  <r_epik_Ionization_Penalty_Neutral>  (32) 
0

>  <r_epik_State_Penalty>  (32) 
-0

>  <r_epik_Charging_Adjusted_Penalty>  (32) 
0

>  <i_epik_Tot_Q>  (32) 
0

>  <i_epik_Tot_abs_Q>  (32) 
0

>  <s_epik_Chemistry_Notes>  (32) 
This compound contains an acetal/aminal-like group ( X-CH(R)-Y where X, Y are N, S, or O) that may be acid/base labile, releasing an aldehyde.

>  <s_lp_Force_Field>  (32) 
OPLS3e

>  <r_lp_Energy>  (32) 
28.9952

>  <b_lp_Chiralities_Consistent>  (32) 
1

>  <s_lp_Variant>  (32) 
7:0-1

>  <s_i_glide_gridfile>  (32) 
pfpi4k_grid

>  <i_i_glide_lignum>  (32) 
11

>  <i_i_glide_rotatable_bonds>  (32) 
0

>  <r_i_docking_score>  (32) 
-3.61235

>  <r_i_glide_ligand_efficiency>  (32) 
-0.190124

>  <r_i_glide_ligand_efficiency_sa>  (32) 
-0.507326

>  <r_i_glide_ligand_efficiency_ln>  (32) 
-0.915808

>  <r_i_glide_gscore>  (32) 
-3.61235

>  <r_i_glide_lipo>  (32) 
-0.711132

>  <r_i_glide_hbond>  (32) 
0

>  <r_i_glide_metal>  (32) 
-0

>  <r_i_glide_rewards>  (32) 
-1.59453

>  <r_i_glide_evdw>  (32) 
-20.2073

>  <r_i_glide_ecoul>  (32) 
-1.30348

>  <r_i_glide_erotb>  (32) 
0

>  <r_i_glide_esite>  (32) 
-0.100801

>  <r_i_glide_emodel>  (32) 
-26.6393

>  <r_i_glide_energy>  (32) 
-21.5108

>  <r_i_glide_einternal>  (32) 
0

>  <r_i_glide_intrahb_reward>  (32) 
-0

>  <i_i_glide_confnum>  (32) 
2

>  <i_i_glide_posenum>  (32) 
35

>  <r_i_glide_eff_state_penalty>  (32) 
0

>  <ligand_id>  (32) 
7

>  <original_smiles>  (32) 
CC1CCC2(C)OOC34CCC(C)(OOC13)OC4O2

>  <smiles>  (32) 
[H]C([H])([H])C12OOC34C([H])(O1)OC(C([H])([H])[H])(OOC3([H])C([H])(C([H])([H])[H])C([H])([H])C2([H])[H])C([H])([H])C4([H])[H]

$$$$
7:0:2
     RDKit          3D

 39 42  0  0  1  0  0  0  0  0999 V2000
    5.7867   -0.7596    2.1227 C   0  0  0  0  0  0  0  0  0  0  0  0
    5.0355   -1.9925    1.5865 C   0  0  2  0  0  0  0  0  0  0  0  0
    5.1227   -3.1332    2.6422 C   0  0  0  0  0  0  0  0  0  0  0  0
    3.8816   -4.0370    2.7740 C   0  0  0  0  0  0  0  0  0  0  0  0
    3.3727   -4.7242    1.4907 C   0  0  2  0  0  0  0  0  0  0  0  0
    2.1799   -5.6377    1.7877 C   0  0  0  0  0  0  0  0  0  0  0  0
    4.3183   -5.5829    0.8643 O   0  0  0  0  0  0  0  0  0  0  0  0
    5.4812   -4.7882    0.2981 O   0  0  0  0  0  0  0  0  0  0  0  0
    4.9970   -3.6891   -0.4811 C   0  0  2  0  0  0  0  0  0  0  0  0
    5.5408   -3.8365   -1.9182 C   0  0  0  0  0  0  0  0  0  0  0  0
    4.8639   -2.8405   -2.8818 C   0  0  0  0  0  0  0  0  0  0  0  0
    3.8665   -1.9152   -2.1597 C   0  0  2  0  0  0  0  0  0  0  0  0
    3.0399   -1.1302   -3.1925 C   0  0  0  0  0  0  0  0  0  0  0  0
    4.4510   -0.9307   -1.3120 O   0  0  0  0  0  0  0  0  0  0  0  0
    5.7801   -1.3983   -0.7674 O   0  0  0  0  0  0  0  0  0  0  0  0
    5.6081   -2.4296    0.1992 C   0  0  1  0  0  0  0  0  0  0  0  0
    2.9418   -2.7102   -1.4358 O   0  0  0  0  0  0  0  0  0  0  0  0
    3.4485   -3.7232   -0.6141 C   0  0  2  0  0  0  0  0  0  0  0  0
    2.8717   -3.7021    0.6404 O   0  0  0  0  0  0  0  0  0  0  0  0
    6.8483   -0.9616    2.2633 H   0  0  0  0  0  0  0  0  0  0  0  0
    5.3856   -0.4485    3.0888 H   0  0  0  0  0  0  0  0  0  0  0  0
    5.6925    0.0923    1.4481 H   0  0  0  0  0  0  0  0  0  0  0  0
    3.9971   -1.6757    1.4784 H   0  0  0  0  0  0  0  0  0  0  0  0
    6.0071   -3.7432    2.4732 H   0  0  0  0  0  0  0  0  0  0  0  0
    5.2913   -2.6977    3.6285 H   0  0  0  0  0  0  0  0  0  0  0  0
    4.0792   -4.7825    3.5455 H   0  0  0  0  0  0  0  0  0  0  0  0
    3.0762   -3.4274    3.1790 H   0  0  0  0  0  0  0  0  0  0  0  0
    1.8258   -6.1106    0.8678 H   0  0  0  0  0  0  0  0  0  0  0  0
    1.3509   -5.0800    2.2229 H   0  0  0  0  0  0  0  0  0  0  0  0
    2.4484   -6.4358    2.4866 H   0  0  0  0  0  0  0  0  0  0  0  0
    6.6222   -3.6882   -1.9382 H   0  0  0  0  0  0  0  0  0  0  0  0
    5.3451   -4.8462   -2.2789 H   0  0  0  0  0  0  0  0  0  0  0  0
    5.6060   -2.2672   -3.4387 H   0  0  0  0  0  0  0  0  0  0  0  0
    4.3114   -3.4230   -3.6251 H   0  0  0  0  0  0  0  0  0  0  0  0
    2.3272   -0.4598   -2.7106 H   0  0  0  0  0  0  0  0  0  0  0  0
    2.4675   -1.8135   -3.8232 H   0  0  0  0  0  0  0  0  0  0  0  0
    3.6724   -0.5224   -3.8453 H   0  0  0  0  0  0  0  0  0  0  0  0
    6.6494   -2.6969    0.4004 H   0  0  0  0  0  0  0  0  0  0  0  0
    3.1387   -4.6509   -1.0915 H   0  0  0  0  0  0  0  0  0  0  0  0
  1  2  1  0
  1 20  1  0
  1 21  1  0
  1 22  1  0
  2 16  1  0
  2  3  1  0
  2 23  1  6
  3  4  1  0
  3 24  1  0
  3 25  1  0
  4  5  1  0
  4 26  1  0
  4 27  1  0
  5 19  1  0
  5  6  1  1
  5  7  1  0
  6 28  1  0
  6 29  1  0
  6 30  1  0
  7  8  1  0
  9  8  1  1
  9 16  1  0
  9 18  1  0
  9 10  1  0
 10 11  1  0
 10 31  1  0
 10 32  1  0
 11 12  1  0
 11 33  1  0
 11 34  1  0
 12 13  1  6
 12 14  1  0
 12 17  1  0
 13 35  1  0
 13 36  1  0
 13 37  1  0
 14 15  1  0
 15 16  1  0
 16 38  1  1
 17 18  1  0
 18 19  1  0
 18 39  1  6
M  END
>  <i_m_ct_stereo_status>  (33) 
1

>  <s_m_source_file>  (33) 
/var/tmp/pbs.5076255.sched01/tmppv1df_bs/0l6e7d74h.sdf

>  <i_m_source_file_index>  (33) 
11

>  <i_lp_mmshare_version>  (33) 
48012

>  <i_f3d_flags>  (33) 
0

>  <s_epik_input>  (33) 
W0NAQF0xMjNbQ0BASF00W0NASF0oW0NIM10pW0NIMl1bQ0gyXVtDQF0oW0NIM10pKE9PMSlPW0NASF0zT1tDQEBdKFtDSDNdKShPTzQpW0NIMl1bQ0gyXTI=

>  <s_epik_cmdline>  (33) 
J2VwaWtfcHl0aG9uJywgJy1waHQnLCAnMi4wJywgJy1waCcsICc3LjAnLCAnLXRuJywgJzgnLCAnLW1hJywgJzIwMCcsICctaW1hZScsICc8aW5maWxlLm1hZT4nLCAnLW9tYWUnLCAnPG91dGZpbGUubWFlPic=

>  <r_lp_tautomer_probability>  (33) 
1

>  <r_epik_Ionization_Penalty>  (33) 
0

>  <r_epik_Ionization_Penalty_Charging>  (33) 
0

>  <r_epik_Ionization_Penalty_Neutral>  (33) 
0

>  <r_epik_State_Penalty>  (33) 
-0

>  <r_epik_Charging_Adjusted_Penalty>  (33) 
0

>  <i_epik_Tot_Q>  (33) 
0

>  <i_epik_Tot_abs_Q>  (33) 
0

>  <s_epik_Chemistry_Notes>  (33) 
This compound contains an acetal/aminal-like group ( X-CH(R)-Y where X, Y are N, S, or O) that may be acid/base labile, releasing an aldehyde.

>  <s_lp_Force_Field>  (33) 
OPLS3e

>  <r_lp_Energy>  (33) 
28.9952

>  <b_lp_Chiralities_Consistent>  (33) 
1

>  <s_lp_Variant>  (33) 
7:0-1

>  <s_i_glide_gridfile>  (33) 
pfpi4k_grid

>  <i_i_glide_lignum>  (33) 
11

>  <i_i_glide_rotatable_bonds>  (33) 
0

>  <r_i_docking_score>  (33) 
-3.13686

>  <r_i_glide_ligand_efficiency>  (33) 
-0.165098

>  <r_i_glide_ligand_efficiency_sa>  (33) 
-0.440547

>  <r_i_glide_ligand_efficiency_ln>  (33) 
-0.795261

>  <r_i_glide_gscore>  (33) 
-3.13686

>  <r_i_glide_lipo>  (33) 
-0.480707

>  <r_i_glide_hbond>  (33) 
-0.029214

>  <r_i_glide_metal>  (33) 
-0

>  <r_i_glide_rewards>  (33) 
-1.56014

>  <r_i_glide_evdw>  (33) 
-20.9995

>  <r_i_glide_ecoul>  (33) 
0.103512

>  <r_i_glide_erotb>  (33) 
0

>  <r_i_glide_esite>  (33) 
-0.0323463

>  <r_i_glide_emodel>  (33) 
-25.4761

>  <r_i_glide_energy>  (33) 
-20.896

>  <r_i_glide_einternal>  (33) 
0

>  <r_i_glide_intrahb_reward>  (33) 
-0

>  <i_i_glide_confnum>  (33) 
2

>  <i_i_glide_posenum>  (33) 
28

>  <r_i_glide_eff_state_penalty>  (33) 
0

>  <ligand_id>  (33) 
7

>  <original_smiles>  (33) 
CC1CCC2(C)OOC34CCC(C)(OOC13)OC4O2

>  <smiles>  (33) 
[H]C([H])([H])C12OOC34C([H])(O1)OC(C([H])([H])[H])(OOC3([H])C([H])(C([H])([H])[H])C([H])([H])C2([H])[H])C([H])([H])C4([H])[H]

$$$$
8:0:0
     RDKit          3D

 68 72  0  0  1  0  0  0  0  0999 V2000
    2.6692  -10.7776    2.9349 C   0  0  0  0  0  0  0  0  0  0  0  0
    3.2494   -9.4079    3.3184 C   0  0  2  0  0  0  0  0  0  0  0  0
    3.9554   -8.6822    2.1548 C   0  0  0  0  0  0  0  0  0  0  0  0
    5.3071   -8.1893    2.7027 C   0  0  1  0  0  0  0  0  0  0  0  0
    5.8657   -6.8902    2.0664 C   0  0  2  0  0  0  0  0  0  0  0  0
    7.3844   -6.7572    2.2706 C   0  0  0  0  0  0  0  0  0  0  0  0
    7.8945   -5.4695    1.6774 C   0  0  0  0  0  0  0  0  0  0  0  0
    7.1480   -4.3742    1.4082 C   0  0  0  0  0  0  0  0  0  0  0  0
    7.7309   -3.1671    0.6685 C   0  0  1  0  0  0  0  0  0  0  0  0
    9.1274   -3.2855    0.4178 O   0  0  0  0  0  0  0  0  0  0  0  0
    7.0265   -3.0098   -0.6688 C   0  0  0  0  0  0  0  0  0  0  0  0
    5.5088   -2.8403   -0.5050 C   0  0  2  0  0  0  0  0  0  0  0  0
    5.1582   -1.3641   -0.2525 C   0  0  0  0  0  0  0  0  0  0  0  0
    3.6513   -1.1525   -0.1612 C   0  0  1  0  0  0  0  0  0  0  0  0
    3.0201   -1.4548   -1.3868 O   0  0  0  0  0  0  0  0  0  0  0  0
    3.0320   -2.0252    0.9217 C   0  0  0  0  0  0  0  0  0  0  0  0
    3.3253   -3.5146    0.6859 C   0  0  0  0  0  0  0  0  0  0  0  0
    4.8204   -3.9135    0.4356 C   0  0  1  0  0  0  0  0  0  0  0  0
    4.7230   -5.1884   -0.4203 C   0  0  0  0  0  0  0  0  0  0  0  0
    5.6395   -4.2627    1.7690 C   0  0  2  0  0  0  0  0  0  0  0  0
    5.4559   -3.0847    2.7636 C   0  0  0  0  0  0  0  0  0  0  0  0
    5.1362   -5.5890    2.5105 C   0  0  2  0  0  0  0  0  0  0  0  0
    5.1469   -5.5822    4.0723 C   0  0  0  0  0  0  0  0  0  0  0  0
    4.4644   -6.8250    4.6609 C   0  0  0  0  0  0  0  0  0  0  0  0
    5.1244   -8.1495    4.2282 C   0  0  1  0  0  0  0  0  0  0  0  0
    4.2386   -9.3882    4.5070 C   0  0  1  0  0  0  0  0  0  0  0  0
    3.5470   -9.4242    5.8844 C   0  0  0  0  0  0  0  0  0  0  0  0
    5.0842  -10.5196    4.4526 O   0  0  0  0  0  0  0  0  0  0  0  0
    3.4332  -11.4583    2.5590 H   0  0  0  0  0  0  0  0  0  0  0  0
    1.9311  -10.6480    2.1455 H   0  0  0  0  0  0  0  0  0  0  0  0
    2.1726  -11.2600    3.7758 H   0  0  0  0  0  0  0  0  0  0  0  0
    2.3969   -8.7891    3.5999 H   0  0  0  0  0  0  0  0  0  0  0  0
    4.1047   -9.3358    1.2935 H   0  0  0  0  0  0  0  0  0  0  0  0
    3.3285   -7.8554    1.8207 H   0  0  0  0  0  0  0  0  0  0  0  0
    6.0091   -8.9992    2.4908 H   0  0  0  0  0  0  0  0  0  0  0  0
    5.7443   -7.0367    1.0002 H   0  0  0  0  0  0  0  0  0  0  0  0
    7.6684   -6.8006    3.3235 H   0  0  0  0  0  0  0  0  0  0  0  0
    7.8986   -7.5831    1.7704 H   0  0  0  0  0  0  0  0  0  0  0  0
    8.9520   -5.4924    1.4368 H   0  0  0  0  0  0  0  0  0  0  0  0
    7.5651   -2.2679    1.2551 H   0  0  0  0  0  0  0  0  0  0  0  0
    9.4175   -2.5293   -0.0826 H   0  0  0  0  0  0  0  0  0  0  0  0
    7.4518   -2.1943   -1.2522 H   0  0  0  0  0  0  0  0  0  0  0  0
    7.2121   -3.8917   -1.2621 H   0  0  0  0  0  0  0  0  0  0  0  0
    5.1131   -3.0007   -1.5065 H   0  0  0  0  0  0  0  0  0  0  0  0
    5.6285   -0.9746    0.6473 H   0  0  0  0  0  0  0  0  0  0  0  0
    5.5437   -0.7451   -1.0648 H   0  0  0  0  0  0  0  0  0  0  0  0
    3.4698   -0.1077    0.0872 H   0  0  0  0  0  0  0  0  0  0  0  0
    2.0532   -1.3454   -1.2251 H   0  0  0  0  0  0  0  0  0  0  0  0
    3.3738   -1.6792    1.8915 H   0  0  0  0  0  0  0  0  0  0  0  0
    1.9545   -1.8621    0.9365 H   0  0  0  0  0  0  0  0  0  0  0  0
    2.8958   -4.0701    1.5125 H   0  0  0  0  0  0  0  0  0  0  0  0
    2.7306   -3.8025   -0.1861 H   0  0  0  0  0  0  0  0  0  0  0  0
    4.0957   -5.9646    0.0268 H   0  0  0  0  0  0  0  0  0  0  0  0
    5.7031   -5.6074   -0.6552 H   0  0  0  0  0  0  0  0  0  0  0  0
    4.2568   -4.9480   -1.3716 H   0  0  0  0  0  0  0  0  0  0  0  0
    4.4416   -3.0066    3.1616 H   0  0  0  0  0  0  0  0  0  0  0  0
    5.7153   -2.1127    2.3602 H   0  0  0  0  0  0  0  0  0  0  0  0
    6.1095   -3.1981    3.6204 H   0  0  0  0  0  0  0  0  0  0  0  0
    4.0898   -5.7116    2.2649 H   0  0  0  0  0  0  0  0  0  0  0  0
    6.1599   -5.5012    4.4666 H   0  0  0  0  0  0  0  0  0  0  0  0
    4.5973   -4.7375    4.4803 H   0  0  0  0  0  0  0  0  0  0  0  0
    4.4767   -6.7514    5.7485 H   0  0  0  0  0  0  0  0  0  0  0  0
    3.4148   -6.8151    4.3605 H   0  0  0  0  0  0  0  0  0  0  0  0
    6.0847   -8.2426    4.7365 H   0  0  0  0  0  0  0  0  0  0  0  0
    2.8208   -8.6212    6.0063 H   0  0  0  0  0  0  0  0  0  0  0  0
    4.2680   -9.3373    6.6967 H   0  0  0  0  0  0  0  0  0  0  0  0
    3.0051  -10.3602    6.0334 H   0  0  0  0  0  0  0  0  0  0  0  0
    5.5482  -10.5780    5.2763 H   0  0  0  0  0  0  0  0  0  0  0  0
  1  2  1  0
  1 29  1  0
  1 30  1  0
  1 31  1  0
  2 26  1  0
  2  3  1  0
  2 32  1  1
  3  4  1  0
  3 33  1  0
  3 34  1  0
  4 25  1  0
  4  5  1  0
  4 35  1  1
  5 22  1  0
  5  6  1  0
  5 36  1  6
  6  7  1  0
  6 37  1  0
  6 38  1  0
  7  8  2  0
  7 39  1  0
  8 20  1  0
  8  9  1  0
  9 10  1  0
  9 11  1  0
  9 40  1  1
 10 41  1  0
 11 12  1  0
 11 42  1  0
 11 43  1  0
 12 18  1  0
 12 13  1  0
 12 44  1  6
 13 14  1  0
 13 45  1  0
 13 46  1  0
 14 15  1  0
 14 16  1  0
 14 47  1  1
 15 48  1  0
 16 17  1  0
 16 49  1  0
 16 50  1  0
 17 18  1  0
 17 51  1  0
 17 52  1  0
 18 19  1  6
 18 20  1  0
 19 53  1  0
 19 54  1  0
 19 55  1  0
 20 21  1  1
 20 22  1  0
 21 56  1  0
 21 57  1  0
 21 58  1  0
 22 23  1  0
 22 59  1  1
 23 24  1  0
 23 60  1  0
 23 61  1  0
 24 25  1  0
 24 62  1  0
 24 63  1  0
 25 26  1  0
 25 64  1  1
 26 27  1  0
 26 28  1  6
 27 65  1  0
 27 66  1  0
 27 67  1  0
 28 68  1  0
M  END
>  <i_m_ct_stereo_status>  (34) 
1

>  <s_m_source_file>  (34) 
/var/tmp/pbs.5076255.sched01/tmppv1df_bs/0l6e7d74h.sdf

>  <i_m_source_file_index>  (34) 
12

>  <i_lp_mmshare_version>  (34) 
48012

>  <i_f3d_flags>  (34) 
0

>  <s_epik_input>  (34) 
W0NIM11bQ0BIXShbQ0gyXTEpW0NAQF0oW0NIM10pKFtPSF0pW0NASF0oW0NIMl1bQ0gyXTIpW0NAQEhdMVtDQEhdKFtDSDJdW0NIXT0zKVtDQEBIXTJbQ0BAXTQoW0NIM10pQzNbQ0BASF0oW09IXSlbQ0gyXVtDQEBIXShbQ0BAXTQ1W0NIM10pW0NIMl1bQ0BASF0oW09IXSlbQ0gyXVtDSDJdNQ==

>  <s_epik_cmdline>  (34) 
J2VwaWtfcHl0aG9uJywgJy1waHQnLCAnMi4wJywgJy1waCcsICc3LjAnLCAnLXRuJywgJzgnLCAnLW1hJywgJzIwMCcsICctaW1hZScsICc8aW5maWxlLm1hZT4nLCAnLW9tYWUnLCAnPG91dGZpbGUubWFlPic=

>  <r_lp_tautomer_probability>  (34) 
1

>  <r_epik_Ionization_Penalty>  (34) 
5.46347e-06

>  <r_epik_Ionization_Penalty_Charging>  (34) 
0

>  <r_epik_Ionization_Penalty_Neutral>  (34) 
5.46347e-06

>  <r_epik_State_Penalty>  (34) 
-0

>  <r_epik_Charging_Adjusted_Penalty>  (34) 
0

>  <i_epik_Tot_Q>  (34) 
0

>  <i_epik_Tot_abs_Q>  (34) 
0

>  <s_lp_Force_Field>  (34) 
OPLS3e

>  <r_lp_Energy>  (34) 
59.7803

>  <b_lp_Chiralities_Consistent>  (34) 
1

>  <s_lp_Variant>  (34) 
8:0-1

>  <s_i_glide_gridfile>  (34) 
pfpi4k_grid

>  <i_i_glide_lignum>  (34) 
12

>  <i_i_glide_rotatable_bonds>  (34) 
3

>  <r_i_docking_score>  (34) 
-3.79572

>  <r_i_glide_ligand_efficiency>  (34) 
-0.135562

>  <r_i_glide_ligand_efficiency_sa>  (34) 
-0.411645

>  <r_i_glide_ligand_efficiency_ln>  (34) 
-0.876164

>  <r_i_glide_gscore>  (34) 
-3.79572

>  <r_i_glide_lipo>  (34) 
-0.558998

>  <r_i_glide_hbond>  (34) 
-0.165031

>  <r_i_glide_metal>  (34) 
-0

>  <r_i_glide_rewards>  (34) 
-0.759659

>  <r_i_glide_evdw>  (34) 
-14.9037

>  <r_i_glide_ecoul>  (34) 
-10.4457

>  <r_i_glide_erotb>  (34) 
0

>  <r_i_glide_esite>  (34) 
0

>  <r_i_glide_emodel>  (34) 
-30.477

>  <r_i_glide_energy>  (34) 
-25.3494

>  <r_i_glide_einternal>  (34) 
1.00012

>  <r_i_glide_intrahb_reward>  (34) 
-0

>  <i_i_glide_confnum>  (34) 
1

>  <i_i_glide_posenum>  (34) 
13

>  <r_i_glide_eff_state_penalty>  (34) 
0

>  <ligand_id>  (34) 
8

>  <original_smiles>  (34) 
CC1CC2C3CC=C4C(O)CC5CC(O)CCC5(C)C4(C)C3CCC2C1(C)O

>  <smiles>  (34) 
[H]OC1([H])C2=C([H])C([H])([H])C3([H])C4([H])C([H])([H])C([H])(C([H])([H])[H])C(O[H])(C([H])([H])[H])C4([H])C([H])([H])C([H])([H])C3([H])C2(C([H])([H])[H])C2(C([H])([H])[H])C([H])([H])C([H])([H])C([H])(O[H])C([H])([H])C2([H])C1([H])[H]

$$$$
8:0:1
     RDKit          3D

 68 72  0  0  1  0  0  0  0  0999 V2000
    1.9175   -9.6404    2.5792 C   0  0  0  0  0  0  0  0  0  0  0  0
    1.9344   -8.0991    2.5340 C   0  0  2  0  0  0  0  0  0  0  0  0
    3.1202   -7.5160    1.7558 C   0  0  0  0  0  0  0  0  0  0  0  0
    3.7326   -6.4204    2.6469 C   0  0  1  0  0  0  0  0  0  0  0  0
    4.4044   -5.2291    1.9007 C   0  0  2  0  0  0  0  0  0  0  0  0
    5.3847   -4.4841    2.7841 C   0  0  0  0  0  0  0  0  0  0  0  0
    5.9857   -3.3000    2.0468 C   0  0  0  0  0  0  0  0  0  0  0  0
    5.4362   -2.6814    0.9799 C   0  0  0  0  0  0  0  0  0  0  0  0
    6.2151   -1.6116    0.1966 C   0  0  1  0  0  0  0  0  0  0  0  0
    7.4469   -1.2441    0.7726 O   0  0  0  0  0  0  0  0  0  0  0  0
    6.5283   -2.1938   -1.1704 C   0  0  0  0  0  0  0  0  0  0  0  0
    5.2595   -2.5058   -1.9490 C   0  0  2  0  0  0  0  0  0  0  0  0
    4.6475   -1.2421   -2.5962 C   0  0  0  0  0  0  0  0  0  0  0  0
    3.4659   -1.5561   -3.5080 C   0  0  1  0  0  0  0  0  0  0  0  0
    3.8080   -2.3239   -4.6120 O   0  0  0  0  0  0  0  0  0  0  0  0
    2.4549   -2.3013   -2.6879 C   0  0  0  0  0  0  0  0  0  0  0  0
    2.9943   -3.5174   -1.9797 C   0  0  0  0  0  0  0  0  0  0  0  0
    4.2933   -3.4233   -1.1420 C   0  0  1  0  0  0  0  0  0  0  0  0
    4.9837   -4.7884   -1.1942 C   0  0  0  0  0  0  0  0  0  0  0  0
    4.0932   -3.0494    0.4027 C   0  0  2  0  0  0  0  0  0  0  0  0
    3.2291   -1.7890    0.5360 C   0  0  0  0  0  0  0  0  0  0  0  0
    3.3945   -4.2320    1.2480 C   0  0  2  0  0  0  0  0  0  0  0  0
    2.4269   -3.7861    2.3732 C   0  0  0  0  0  0  0  0  0  0  0  0
    1.6812   -4.9901    2.9828 C   0  0  0  0  0  0  0  0  0  0  0  0
    2.6176   -6.0269    3.6270 C   0  0  1  0  0  0  0  0  0  0  0  0
    1.9182   -7.3882    3.9034 C   0  0  1  0  0  0  0  0  0  0  0  0
    0.5267   -7.2861    4.5413 C   0  0  0  0  0  0  0  0  0  0  0  0
    2.7363   -8.0957    4.8168 O   0  0  0  0  0  0  0  0  0  0  0  0
    2.8237  -10.0541    3.0347 H   0  0  0  0  0  0  0  0  0  0  0  0
    1.8549  -10.0463    1.5683 H   0  0  0  0  0  0  0  0  0  0  0  0
    1.0580  -10.0203    3.1353 H   0  0  0  0  0  0  0  0  0  0  0  0
    1.0325   -7.8020    2.0020 H   0  0  0  0  0  0  0  0  0  0  0  0
    3.8712   -8.2649    1.5030 H   0  0  0  0  0  0  0  0  0  0  0  0
    2.7642   -7.0849    0.8244 H   0  0  0  0  0  0  0  0  0  0  0  0
    4.5118   -6.9215    3.2313 H   0  0  0  0  0  0  0  0  0  0  0  0
    5.0159   -5.7112    1.1411 H   0  0  0  0  0  0  0  0  0  0  0  0
    4.9450   -4.1292    3.7122 H   0  0  0  0  0  0  0  0  0  0  0  0
    6.2092   -5.1415    3.0530 H   0  0  0  0  0  0  0  0  0  0  0  0
    6.9331   -2.9780    2.3374 H   0  0  0  0  0  0  0  0  0  0  0  0
    5.6288   -0.6988    0.1112 H   0  0  0  0  0  0  0  0  0  0  0  0
    7.3549   -0.4502    1.2632 H   0  0  0  0  0  0  0  0  0  0  0  0
    7.0544   -1.4965   -1.7789 H   0  0  0  0  0  0  0  0  0  0  0  0
    7.1690   -3.0751   -1.0725 H   0  0  0  0  0  0  0  0  0  0  0  0
    5.6185   -3.0652   -2.8147 H   0  0  0  0  0  0  0  0  0  0  0  0
    4.3524   -0.4919   -1.8745 H   0  0  0  0  0  0  0  0  0  0  0  0
    5.3895   -0.7528   -3.1704 H   0  0  0  0  0  0  0  0  0  0  0  0
    3.0063   -0.6421   -3.8738 H   0  0  0  0  0  0  0  0  0  0  0  0
    2.9708   -2.5646   -5.0262 H   0  0  0  0  0  0  0  0  0  0  0  0
    2.2216   -1.5947   -1.9215 H   0  0  0  0  0  0  0  0  0  0  0  0
    1.5709   -2.5902   -3.2820 H   0  0  0  0  0  0  0  0  0  0  0  0
    2.1844   -3.9483   -1.3846 H   0  0  0  0  0  0  0  0  0  0  0  0
    3.1912   -4.2081   -2.8004 H   0  0  0  0  0  0  0  0  0  0  0  0
    4.3199   -5.5868   -0.8404 H   0  0  0  0  0  0  0  0  0  0  0  0
    5.9303   -4.8729   -0.6827 H   0  0  0  0  0  0  0  0  0  0  0  0
    5.1323   -5.0393   -2.2463 H   0  0  0  0  0  0  0  0  0  0  0  0
    2.2350   -2.0424    0.2578 H   0  0  0  0  0  0  0  0  0  0  0  0
    3.5396   -0.9659   -0.0937 H   0  0  0  0  0  0  0  0  0  0  0  0
    3.2413   -1.3906    1.5539 H   0  0  0  0  0  0  0  0  0  0  0  0
    2.7866   -4.7939    0.5499 H   0  0  0  0  0  0  0  0  0  0  0  0
    2.9385   -3.2307    3.1518 H   0  0  0  0  0  0  0  0  0  0  0  0
    1.6526   -3.1232    2.0010 H   0  0  0  0  0  0  0  0  0  0  0  0
    0.9881   -4.6125    3.7332 H   0  0  0  0  0  0  0  0  0  0  0  0
    1.0820   -5.4588    2.2097 H   0  0  0  0  0  0  0  0  0  0  0  0
    3.0347   -5.6144    4.5430 H   0  0  0  0  0  0  0  0  0  0  0  0
   -0.2058   -6.8111    3.8849 H   0  0  0  0  0  0  0  0  0  0  0  0
    0.5523   -6.7116    5.4746 H   0  0  0  0  0  0  0  0  0  0  0  0
    0.1266   -8.2757    4.7903 H   0  0  0  0  0  0  0  0  0  0  0  0
    2.3326   -8.9237    4.9845 H   0  0  0  0  0  0  0  0  0  0  0  0
  1  2  1  0
  1 29  1  0
  1 30  1  0
  1 31  1  0
  2 26  1  0
  2  3  1  0
  2 32  1  6
  3  4  1  0
  3 33  1  0
  3 34  1  0
  4 25  1  0
  4  5  1  0
  4 35  1  1
  5 22  1  0
  5  6  1  0
  5 36  1  6
  6  7  1  0
  6 37  1  0
  6 38  1  0
  7  8  2  0
  7 39  1  0
  8 20  1  0
  8  9  1  0
  9 10  1  0
  9 11  1  0
  9 40  1  6
 10 41  1  0
 11 12  1  0
 11 42  1  0
 11 43  1  0
 12 18  1  0
 12 13  1  0
 12 44  1  6
 13 14  1  0
 13 45  1  0
 13 46  1  0
 14 15  1  0
 14 16  1  0
 14 47  1  6
 15 48  1  0
 16 17  1  0
 16 49  1  0
 16 50  1  0
 17 18  1  0
 17 51  1  0
 17 52  1  0
 18 19  1  1
 18 20  1  0
 19 53  1  0
 19 54  1  0
 19 55  1  0
 20 21  1  6
 20 22  1  0
 21 56  1  0
 21 57  1  0
 21 58  1  0
 22 23  1  0
 22 59  1  6
 23 24  1  0
 23 60  1  0
 23 61  1  0
 24 25  1  0
 24 62  1  0
 24 63  1  0
 25 26  1  0
 25 64  1  1
 26 27  1  0
 26 28  1  1
 27 65  1  0
 27 66  1  0
 27 67  1  0
 28 68  1  0
M  END
>  <i_m_ct_stereo_status>  (35) 
1

>  <s_m_source_file>  (35) 
/var/tmp/pbs.5076255.sched01/tmppv1df_bs/0l6e7d74h.sdf

>  <i_m_source_file_index>  (35) 
12

>  <i_lp_mmshare_version>  (35) 
48012

>  <i_f3d_flags>  (35) 
0

>  <s_epik_input>  (35) 
W0NIM11bQ0BIXShbQ0gyXTEpW0NAQF0oW0NIM10pKFtPSF0pW0NASF0oW0NIMl1bQ0gyXTIpW0NAQEhdMVtDQEhdKFtDSDJdW0NIXT0zKVtDQEBIXTJbQ0BAXTQoW0NIM10pQzNbQ0BASF0oW09IXSlbQ0gyXVtDQEBIXShbQ0BAXTQ1W0NIM10pW0NIMl1bQ0BASF0oW09IXSlbQ0gyXVtDSDJdNQ==

>  <s_epik_cmdline>  (35) 
J2VwaWtfcHl0aG9uJywgJy1waHQnLCAnMi4wJywgJy1waCcsICc3LjAnLCAnLXRuJywgJzgnLCAnLW1hJywgJzIwMCcsICctaW1hZScsICc8aW5maWxlLm1hZT4nLCAnLW9tYWUnLCAnPG91dGZpbGUubWFlPic=

>  <r_lp_tautomer_probability>  (35) 
1

>  <r_epik_Ionization_Penalty>  (35) 
5.46347e-06

>  <r_epik_Ionization_Penalty_Charging>  (35) 
0

>  <r_epik_Ionization_Penalty_Neutral>  (35) 
5.46347e-06

>  <r_epik_State_Penalty>  (35) 
-0

>  <r_epik_Charging_Adjusted_Penalty>  (35) 
0

>  <i_epik_Tot_Q>  (35) 
0

>  <i_epik_Tot_abs_Q>  (35) 
0

>  <s_lp_Force_Field>  (35) 
OPLS3e

>  <r_lp_Energy>  (35) 
59.7803

>  <b_lp_Chiralities_Consistent>  (35) 
1

>  <s_lp_Variant>  (35) 
8:0-1

>  <s_i_glide_gridfile>  (35) 
pfpi4k_grid

>  <i_i_glide_lignum>  (35) 
12

>  <i_i_glide_rotatable_bonds>  (35) 
3

>  <r_i_docking_score>  (35) 
-3.69004

>  <r_i_glide_ligand_efficiency>  (35) 
-0.131787

>  <r_i_glide_ligand_efficiency_sa>  (35) 
-0.400183

>  <r_i_glide_ligand_efficiency_ln>  (35) 
-0.85177

>  <r_i_glide_gscore>  (35) 
-3.69004

>  <r_i_glide_lipo>  (35) 
-0.48602

>  <r_i_glide_hbond>  (35) 
-0.831401

>  <r_i_glide_metal>  (35) 
-0

>  <r_i_glide_rewards>  (35) 
-0.759659

>  <r_i_glide_evdw>  (35) 
-3.92886

>  <r_i_glide_ecoul>  (35) 
-9.44345

>  <r_i_glide_erotb>  (35) 
0

>  <r_i_glide_esite>  (35) 
0

>  <r_i_glide_emodel>  (35) 
-17.7702

>  <r_i_glide_energy>  (35) 
-13.3723

>  <r_i_glide_einternal>  (35) 
1.11615

>  <r_i_glide_intrahb_reward>  (35) 
-0

>  <i_i_glide_confnum>  (35) 
2

>  <i_i_glide_posenum>  (35) 
39

>  <r_i_glide_eff_state_penalty>  (35) 
0

>  <ligand_id>  (35) 
8

>  <original_smiles>  (35) 
CC1CC2C3CC=C4C(O)CC5CC(O)CCC5(C)C4(C)C3CCC2C1(C)O

>  <smiles>  (35) 
[H]OC1([H])C2=C([H])C([H])([H])C3([H])C4([H])C([H])([H])C([H])(C([H])([H])[H])C(O[H])(C([H])([H])[H])C4([H])C([H])([H])C([H])([H])C3([H])C2(C([H])([H])[H])C2(C([H])([H])[H])C([H])([H])C([H])([H])C([H])(O[H])C([H])([H])C2([H])C1([H])[H]

$$$$
8:0:2
     RDKit          3D

 68 72  0  0  1  0  0  0  0  0999 V2000
    1.9261   -9.6430    2.5409 C   0  0  0  0  0  0  0  0  0  0  0  0
    1.9465   -8.1045    2.5051 C   0  0  2  0  0  0  0  0  0  0  0  0
    3.1317   -7.5166    1.7212 C   0  0  0  0  0  0  0  0  0  0  0  0
    3.7527   -6.4297    2.6166 C   0  0  1  0  0  0  0  0  0  0  0  0
    4.4233   -5.2415    1.8685 C   0  0  2  0  0  0  0  0  0  0  0  0
    5.4156   -4.5014    2.7481 C   0  0  0  0  0  0  0  0  0  0  0  0
    6.0187   -3.3233    2.0071 C   0  0  0  0  0  0  0  0  0  0  0  0
    5.4670   -2.7041    0.9512 C   0  0  0  0  0  0  0  0  0  0  0  0
    6.2483   -1.6411    0.1572 C   0  0  1  0  0  0  0  0  0  0  0  0
    7.5058   -1.2970    0.7064 O   0  0  0  0  0  0  0  0  0  0  0  0
    6.5383   -2.2130   -1.2164 C   0  0  0  0  0  0  0  0  0  0  0  0
    5.2605   -2.5001   -1.9802 C   0  0  2  0  0  0  0  0  0  0  0  0
    4.6497   -1.2292   -2.6139 C   0  0  0  0  0  0  0  0  0  0  0  0
    3.4654   -1.5302   -3.5145 C   0  0  1  0  0  0  0  0  0  0  0  0
    3.8029   -2.2817   -4.6376 O   0  0  0  0  0  0  0  0  0  0  0  0
    2.4550   -2.2649   -2.6866 C   0  0  0  0  0  0  0  0  0  0  0  0
    2.9926   -3.4938   -1.9949 C   0  0  0  0  0  0  0  0  0  0  0  0
    4.2982   -3.4122   -1.1651 C   0  0  1  0  0  0  0  0  0  0  0  0
    4.9867   -4.7780   -1.2341 C   0  0  0  0  0  0  0  0  0  0  0  0
    4.1125   -3.0498    0.3805 C   0  0  2  0  0  0  0  0  0  0  0  0
    3.2611   -1.7851    0.5298 C   0  0  0  0  0  0  0  0  0  0  0  0
    3.4126   -4.2348    1.2275 C   0  0  2  0  0  0  0  0  0  0  0  0
    2.4517   -3.7919    2.3588 C   0  0  0  0  0  0  0  0  0  0  0  0
    1.7074   -4.9938    2.9688 C   0  0  0  0  0  0  0  0  0  0  0  0
    2.6426   -6.0393    3.6028 C   0  0  1  0  0  0  0  0  0  0  0  0
    1.9424   -7.3950    3.8785 C   0  0  1  0  0  0  0  0  0  0  0  0
    0.5510   -7.2946    4.5265 C   0  0  0  0  0  0  0  0  0  0  0  0
    2.7571   -8.1092    4.7880 O   0  0  0  0  0  0  0  0  0  0  0  0
    2.8328  -10.0614    2.9905 H   0  0  0  0  0  0  0  0  0  0  0  0
    1.8563  -10.0422    1.5307 H   0  0  0  0  0  0  0  0  0  0  0  0
    1.0684  -10.0232    3.1016 H   0  0  0  0  0  0  0  0  0  0  0  0
    1.0424   -7.7996    1.9794 H   0  0  0  0  0  0  0  0  0  0  0  0
    3.8757   -8.2688    1.4594 H   0  0  0  0  0  0  0  0  0  0  0  0
    2.7705   -7.0781    0.7948 H   0  0  0  0  0  0  0  0  0  0  0  0
    4.5316   -6.9363    3.1907 H   0  0  0  0  0  0  0  0  0  0  0  0
    5.0255   -5.7183    1.1044 H   0  0  0  0  0  0  0  0  0  0  0  0
    4.9789   -4.1467    3.6837 H   0  0  0  0  0  0  0  0  0  0  0  0
    6.2355   -5.1659    3.0138 H   0  0  0  0  0  0  0  0  0  0  0  0
    6.9720   -3.0106    2.2948 H   0  0  0  0  0  0  0  0  0  0  0  0
    5.6703   -0.7269    0.1004 H   0  0  0  0  0  0  0  0  0  0  0  0
    8.0100   -2.0424    0.8413 H   0  0  0  0  0  0  0  0  0  0  0  0
    7.0610   -1.4997   -1.8202 H   0  0  0  0  0  0  0  0  0  0  0  0
    7.1750   -3.0921   -1.1375 H   0  0  0  0  0  0  0  0  0  0  0  0
    5.6070   -3.0548   -2.8526 H   0  0  0  0  0  0  0  0  0  0  0  0
    4.3613   -0.4827   -1.8833 H   0  0  0  0  0  0  0  0  0  0  0  0
    5.3882   -0.7345   -3.1877 H   0  0  0  0  0  0  0  0  0  0  0  0
    3.0058   -0.6132   -3.8746 H   0  0  0  0  0  0  0  0  0  0  0  0
    2.9697   -2.5002   -5.0630 H   0  0  0  0  0  0  0  0  0  0  0  0
    2.2175   -1.5634   -1.9190 H   0  0  0  0  0  0  0  0  0  0  0  0
    1.5696   -2.5459   -3.2664 H   0  0  0  0  0  0  0  0  0  0  0  0
    2.1867   -3.9300   -1.3993 H   0  0  0  0  0  0  0  0  0  0  0  0
    3.1780   -4.1863   -2.8223 H   0  0  0  0  0  0  0  0  0  0  0  0
    4.3238   -5.5739   -0.8779 H   0  0  0  0  0  0  0  0  0  0  0  0
    5.9283   -4.8653   -0.7072 H   0  0  0  0  0  0  0  0  0  0  0  0
    5.1338   -5.0325   -2.2830 H   0  0  0  0  0  0  0  0  0  0  0  0
    2.2584   -2.0265    0.2518 H   0  0  0  0  0  0  0  0  0  0  0  0
    3.5668   -0.9596   -0.0934 H   0  0  0  0  0  0  0  0  0  0  0  0
    3.2698   -1.3938    1.5479 H   0  0  0  0  0  0  0  0  0  0  0  0
    2.7960   -4.7913    0.5300 H   0  0  0  0  0  0  0  0  0  0  0  0
    2.9719   -3.2392    3.1389 H   0  0  0  0  0  0  0  0  0  0  0  0
    1.6787   -3.1229    1.9936 H   0  0  0  0  0  0  0  0  0  0  0  0
    1.0189   -4.6184    3.7268 H   0  0  0  0  0  0  0  0  0  0  0  0
    1.1014   -5.4569    2.1983 H   0  0  0  0  0  0  0  0  0  0  0  0
    3.0687   -5.6300    4.5186 H   0  0  0  0  0  0  0  0  0  0  0  0
   -0.1800   -6.8130    3.8746 H   0  0  0  0  0  0  0  0  0  0  0  0
    0.5877   -6.7243    5.4593 H   0  0  0  0  0  0  0  0  0  0  0  0
    0.1531   -8.2816    4.7701 H   0  0  0  0  0  0  0  0  0  0  0  0
    2.3393   -8.9265    4.9768 H   0  0  0  0  0  0  0  0  0  0  0  0
  1  2  1  0
  1 29  1  0
  1 30  1  0
  1 31  1  0
  2 26  1  0
  2  3  1  0
  2 32  1  6
  3  4  1  0
  3 33  1  0
  3 34  1  0
  4 25  1  0
  4  5  1  0
  4 35  1  1
  5 22  1  0
  5  6  1  0
  5 36  1  6
  6  7  1  0
  6 37  1  0
  6 38  1  0
  7  8  2  0
  7 39  1  0
  8 20  1  0
  8  9  1  0
  9 10  1  0
  9 11  1  0
  9 40  1  6
 10 41  1  0
 11 12  1  0
 11 42  1  0
 11 43  1  0
 12 18  1  0
 12 13  1  0
 12 44  1  6
 13 14  1  0
 13 45  1  0
 13 46  1  0
 14 15  1  0
 14 16  1  0
 14 47  1  6
 15 48  1  0
 16 17  1  0
 16 49  1  0
 16 50  1  0
 17 18  1  0
 17 51  1  0
 17 52  1  0
 18 19  1  1
 18 20  1  0
 19 53  1  0
 19 54  1  0
 19 55  1  0
 20 21  1  6
 20 22  1  0
 21 56  1  0
 21 57  1  0
 21 58  1  0
 22 23  1  0
 22 59  1  6
 23 24  1  0
 23 60  1  0
 23 61  1  0
 24 25  1  0
 24 62  1  0
 24 63  1  0
 25 26  1  0
 25 64  1  1
 26 27  1  0
 26 28  1  1
 27 65  1  0
 27 66  1  0
 27 67  1  0
 28 68  1  0
M  END
>  <i_m_ct_stereo_status>  (36) 
1

>  <s_m_source_file>  (36) 
/var/tmp/pbs.5076255.sched01/tmppv1df_bs/0l6e7d74h.sdf

>  <i_m_source_file_index>  (36) 
12

>  <i_lp_mmshare_version>  (36) 
48012

>  <i_f3d_flags>  (36) 
0

>  <s_epik_input>  (36) 
W0NIM11bQ0BIXShbQ0gyXTEpW0NAQF0oW0NIM10pKFtPSF0pW0NASF0oW0NIMl1bQ0gyXTIpW0NAQEhdMVtDQEhdKFtDSDJdW0NIXT0zKVtDQEBIXTJbQ0BAXTQoW0NIM10pQzNbQ0BASF0oW09IXSlbQ0gyXVtDQEBIXShbQ0BAXTQ1W0NIM10pW0NIMl1bQ0BASF0oW09IXSlbQ0gyXVtDSDJdNQ==

>  <s_epik_cmdline>  (36) 
J2VwaWtfcHl0aG9uJywgJy1waHQnLCAnMi4wJywgJy1waCcsICc3LjAnLCAnLXRuJywgJzgnLCAnLW1hJywgJzIwMCcsICctaW1hZScsICc8aW5maWxlLm1hZT4nLCAnLW9tYWUnLCAnPG91dGZpbGUubWFlPic=

>  <r_lp_tautomer_probability>  (36) 
1

>  <r_epik_Ionization_Penalty>  (36) 
5.46347e-06

>  <r_epik_Ionization_Penalty_Charging>  (36) 
0

>  <r_epik_Ionization_Penalty_Neutral>  (36) 
5.46347e-06

>  <r_epik_State_Penalty>  (36) 
-0

>  <r_epik_Charging_Adjusted_Penalty>  (36) 
0

>  <i_epik_Tot_Q>  (36) 
0

>  <i_epik_Tot_abs_Q>  (36) 
0

>  <s_lp_Force_Field>  (36) 
OPLS3e

>  <r_lp_Energy>  (36) 
59.7803

>  <b_lp_Chiralities_Consistent>  (36) 
1

>  <s_lp_Variant>  (36) 
8:0-1

>  <s_i_glide_gridfile>  (36) 
pfpi4k_grid

>  <i_i_glide_lignum>  (36) 
12

>  <i_i_glide_rotatable_bonds>  (36) 
3

>  <r_i_docking_score>  (36) 
-2.91968

>  <r_i_glide_ligand_efficiency>  (36) 
-0.104274

>  <r_i_glide_ligand_efficiency_sa>  (36) 
-0.316638

>  <r_i_glide_ligand_efficiency_ln>  (36) 
-0.673948

>  <r_i_glide_gscore>  (36) 
-2.91968

>  <r_i_glide_lipo>  (36) 
-0.489184

>  <r_i_glide_hbond>  (36) 
-0.587032

>  <r_i_glide_metal>  (36) 
-0

>  <r_i_glide_rewards>  (36) 
-0.759659

>  <r_i_glide_evdw>  (36) 
-3.96034

>  <r_i_glide_ecoul>  (36) 
-5.90526

>  <r_i_glide_erotb>  (36) 
0

>  <r_i_glide_esite>  (36) 
0

>  <r_i_glide_emodel>  (36) 
-13.5927

>  <r_i_glide_energy>  (36) 
-9.86559

>  <r_i_glide_einternal>  (36) 
0.344986

>  <r_i_glide_intrahb_reward>  (36) 
-0

>  <i_i_glide_confnum>  (36) 
2

>  <i_i_glide_posenum>  (36) 
1

>  <r_i_glide_eff_state_penalty>  (36) 
0

>  <ligand_id>  (36) 
8

>  <original_smiles>  (36) 
CC1CC2C3CC=C4C(O)CC5CC(O)CCC5(C)C4(C)C3CCC2C1(C)O

>  <smiles>  (36) 
[H]OC1([H])C2=C([H])C([H])([H])C3([H])C4([H])C([H])([H])C([H])(C([H])([H])[H])C(O[H])(C([H])([H])[H])C4([H])C([H])([H])C([H])([H])C3([H])C2(C([H])([H])[H])C2(C([H])([H])[H])C([H])([H])C([H])([H])C([H])(O[H])C([H])([H])C2([H])C1([H])[H]

$$$$
9:0:0
     RDKit          3D

 60 64  0  0  1  0  0  0  0  0999 V2000
    6.5892   -7.9768    1.9196 C   0  0  0  0  0  0  0  0  0  0  0  0
    5.3033   -7.8375    1.5356 C   0  0  0  0  0  0  0  0  0  0  0  0
    4.6675   -6.5365    0.9744 C   0  0  2  0  0  0  0  0  0  0  0  0
    5.6436   -5.3329    0.7386 C   0  0  1  0  0  0  0  0  0  0  0  0
    5.3339   -4.6385   -0.4675 O   0  0  0  0  0  0  0  0  0  0  0  0
    6.3124   -3.6412   -0.7776 C   0  0  1  0  0  0  0  0  0  0  0  0
    5.8582   -2.9035   -2.0438 C   0  0  0  0  0  0  0  0  0  0  0  0
    6.5920   -2.6761    0.4007 C   0  0  0  0  0  0  0  0  0  0  0  0
    6.2100   -3.1633    1.7126 N   0  0  0  0  0  0  0  0  0  0  0  0
    5.6805   -4.3073    1.8784 C   0  0  0  0  0  0  0  0  0  0  0  0
    4.9722   -4.6812    3.1733 C   0  0  0  0  0  0  0  0  0  0  0  0
    5.2947   -4.1973    4.2549 O   0  0  0  0  0  0  0  0  0  0  0  0
    3.9281   -5.5406    3.0664 O   0  0  0  0  0  0  0  0  0  0  0  0
    3.4447   -6.0837    1.8354 C   0  0  1  0  0  0  0  0  0  0  0  0
    2.6034   -5.0066    1.0899 C   0  0  0  0  0  0  0  0  0  0  0  0
    2.5249   -7.2976    2.1708 C   0  0  2  0  0  0  0  0  0  0  0  0
    1.2977   -7.1271    3.0940 C   0  0  0  0  0  0  0  0  0  0  0  0
    0.8248   -8.5934    3.3496 C   0  0  2  0  0  0  0  0  0  0  0  0
   -0.5207   -8.8625    2.6556 C   0  0  0  0  0  0  0  0  0  0  0  0
    0.7375   -9.0643    4.7928 C   0  0  0  0  0  0  0  0  0  0  0  0
   -0.1131   -8.3662    5.8224 C   0  0  0  0  0  0  0  0  0  0  0  0
    1.3748  -10.2167    4.9886 C   0  0  0  0  0  0  0  0  0  0  0  0
    2.1018  -10.7035    3.7733 C   0  0  1  0  0  0  0  0  0  0  0  0
    1.4161  -11.8254    3.2762 O   0  0  0  0  0  0  0  0  0  0  0  0
    1.9707   -9.5027    2.7959 C   0  0  2  0  0  0  0  0  0  0  0  0
    3.2134   -8.5588    2.7201 C   0  0  2  0  0  0  0  0  0  0  0  0
    3.8594   -8.3061    4.1285 C   0  0  0  0  0  0  0  0  0  0  0  0
    4.3330   -9.0020    1.7500 C   0  0  1  0  0  0  0  0  0  0  0  0
    3.8270   -9.4482    0.5079 O   0  0  0  0  0  0  0  0  0  0  0  0
    6.9276   -8.9098    2.3486 H   0  0  0  0  0  0  0  0  0  0  0  0
    7.3237   -7.1909    1.8634 H   0  0  0  0  0  0  0  0  0  0  0  0
    4.3064   -6.8382   -0.0110 H   0  0  0  0  0  0  0  0  0  0  0  0
    6.6506   -5.7098    0.5816 H   0  0  0  0  0  0  0  0  0  0  0  0
    7.2669   -4.1181   -0.9801 H   0  0  0  0  0  0  0  0  0  0  0  0
    6.5747   -2.1299   -2.3158 H   0  0  0  0  0  0  0  0  0  0  0  0
    4.8870   -2.4261   -1.8924 H   0  0  0  0  0  0  0  0  0  0  0  0
    5.7756   -3.5824   -2.8928 H   0  0  0  0  0  0  0  0  0  0  0  0
    7.6544   -2.4039    0.3933 H   0  0  0  0  0  0  0  0  0  0  0  0
    6.0530   -1.7433    0.2206 H   0  0  0  0  0  0  0  0  0  0  0  0
    2.2152   -5.3849    0.1446 H   0  0  0  0  0  0  0  0  0  0  0  0
    3.1736   -4.1075    0.8430 H   0  0  0  0  0  0  0  0  0  0  0  0
    1.7771   -4.6732    1.7045 H   0  0  0  0  0  0  0  0  0  0  0  0
    2.1107   -7.5828    1.2065 H   0  0  0  0  0  0  0  0  0  0  0  0
    1.5195   -6.5832    4.0117 H   0  0  0  0  0  0  0  0  0  0  0  0
    0.5269   -6.5586    2.5718 H   0  0  0  0  0  0  0  0  0  0  0  0
   -0.4609   -8.6483    1.5917 H   0  0  0  0  0  0  0  0  0  0  0  0
   -1.3227   -8.2448    3.0632 H   0  0  0  0  0  0  0  0  0  0  0  0
   -0.8300   -9.9047    2.7663 H   0  0  0  0  0  0  0  0  0  0  0  0
   -1.1343   -8.3294    5.4553 H   0  0  0  0  0  0  0  0  0  0  0  0
    0.2460   -7.3546    6.0211 H   0  0  0  0  0  0  0  0  0  0  0  0
   -0.1166   -8.9172    6.7662 H   0  0  0  0  0  0  0  0  0  0  0  0
    1.3349  -10.7845    5.9034 H   0  0  0  0  0  0  0  0  0  0  0  0
    3.1338  -10.9675    4.0080 H   0  0  0  0  0  0  0  0  0  0  0  0
    1.7844  -12.6187    3.6369 H   0  0  0  0  0  0  0  0  0  0  0  0
    1.7065   -9.8559    1.7929 H   0  0  0  0  0  0  0  0  0  0  0  0
    4.2789   -9.2106    4.5580 H   0  0  0  0  0  0  0  0  0  0  0  0
    3.1643   -7.9023    4.8646 H   0  0  0  0  0  0  0  0  0  0  0  0
    4.6923   -7.6085    4.0980 H   0  0  0  0  0  0  0  0  0  0  0  0
    4.8650   -9.8442    2.1969 H   0  0  0  0  0  0  0  0  0  0  0  0
    3.8579  -10.4110    0.4896 H   0  0  0  0  0  0  0  0  0  0  0  0
  1  2  2  0
  1 30  1  0
  1 31  1  0
  2 28  1  0
  2  3  1  0
  3 14  1  0
  3  4  1  0
  3 32  1  6
  4 10  1  0
  4  5  1  0
  4 33  1  6
  5  6  1  0
  6  7  1  0
  6  8  1  0
  6 34  1  6
  7 35  1  0
  7 36  1  0
  7 37  1  0
  8  9  1  0
  8 38  1  0
  8 39  1  0
  9 10  2  0
 10 11  1  0
 11 12  2  0
 11 13  1  0
 13 14  1  0
 14 15  1  6
 14 16  1  0
 15 40  1  0
 15 41  1  0
 15 42  1  0
 16 26  1  0
 16 17  1  0
 16 43  1  6
 17 18  1  0
 17 44  1  0
 17 45  1  0
 18 25  1  0
 18 19  1  6
 18 20  1  0
 19 46  1  0
 19 47  1  0
 19 48  1  0
 20 21  1  0
 20 22  2  0
 21 49  1  0
 21 50  1  0
 21 51  1  0
 22 23  1  0
 22 52  1  0
 23 24  1  0
 23 25  1  0
 23 53  1  1
 24 54  1  0
 25 26  1  0
 25 55  1  6
 26 27  1  1
 26 28  1  0
 27 56  1  0
 27 57  1  0
 27 58  1  0
 28 29  1  0
 28 59  1  1
 29 60  1  0
M  END
>  <i_m_ct_stereo_status>  (37) 
1

>  <s_m_source_file>  (37) 
/var/tmp/pbs.5076255.sched01/tmppv1df_bs/0l6e7d74h.sdf

>  <i_m_source_file_index>  (37) 
13

>  <i_lp_mmshare_version>  (37) 
48012

>  <i_f3d_flags>  (37) 
0

>  <s_epik_input>  (37) 
TzFbQ0BASF0oW0NIM10pW0NIMl1OPUMoQyg9TylPMilbQ0BIXTFbQ0BIXShbQ0BdMjNbQ0gzXSlDKD1bQ0gyXSlbQ0BIXShbT0hdKVtDQEBdNChbQ0gzXSlbQ0BIXTNbQ0gyXVtDQEBdNShbQ0gzXSlbQ0BASF00W0NASF0oW09IXSlbQ0hdPUM1W0NIM10=

>  <s_epik_cmdline>  (37) 
J2VwaWtfcHl0aG9uJywgJy1waHQnLCAnMi4wJywgJy1waCcsICc3LjAnLCAnLXRuJywgJzgnLCAnLW1hJywgJzIwMCcsICctaW1hZScsICc8aW5maWxlLm1hZT4nLCAnLW9tYWUnLCAnPG91dGZpbGUubWFlPic=

>  <r_lp_tautomer_probability>  (37) 
1

>  <r_epik_Ionization_Penalty>  (37) 
5.0632e-06

>  <r_epik_Ionization_Penalty_Charging>  (37) 
0

>  <r_epik_Ionization_Penalty_Neutral>  (37) 
5.0632e-06

>  <r_epik_State_Penalty>  (37) 
-0

>  <r_epik_Charging_Adjusted_Penalty>  (37) 
0

>  <i_epik_Tot_Q>  (37) 
0

>  <i_epik_Tot_abs_Q>  (37) 
0

>  <s_epik_Chemistry_Notes>  (37) 
This compound has an ester and may undergo hydrolysis at high or low pH. This compound has an imine and may undergo hydrolysis.

>  <s_lp_Force_Field>  (37) 
OPLS3e

>  <r_lp_Energy>  (37) 
51.0012

>  <b_lp_Chiralities_Consistent>  (37) 
1

>  <s_lp_Variant>  (37) 
9:0-1

>  <s_i_glide_gridfile>  (37) 
pfpi4k_grid

>  <i_i_glide_lignum>  (37) 
13

>  <i_i_glide_rotatable_bonds>  (37) 
2

>  <r_i_docking_score>  (37) 
-4.12844

>  <r_i_glide_ligand_efficiency>  (37) 
-0.14236

>  <r_i_glide_ligand_efficiency_sa>  (37) 
-0.437375

>  <r_i_glide_ligand_efficiency_ln>  (37) 
-0.945307

>  <r_i_glide_gscore>  (37) 
-4.12844

>  <r_i_glide_lipo>  (37) 
-0.706435

>  <r_i_glide_hbond>  (37) 
-0.405455

>  <r_i_glide_metal>  (37) 
-0

>  <r_i_glide_rewards>  (37) 
-0.741151

>  <r_i_glide_evdw>  (37) 
-28.35

>  <r_i_glide_ecoul>  (37) 
-5.7193

>  <r_i_glide_erotb>  (37) 
0

>  <r_i_glide_esite>  (37) 
0

>  <r_i_glide_emodel>  (37) 
-42.093

>  <r_i_glide_energy>  (37) 
-34.0693

>  <r_i_glide_einternal>  (37) 
1.21739

>  <r_i_glide_intrahb_reward>  (37) 
-0

>  <i_i_glide_confnum>  (37) 
2

>  <i_i_glide_posenum>  (37) 
26

>  <r_i_glide_eff_state_penalty>  (37) 
0

>  <ligand_id>  (37) 
9

>  <original_smiles>  (37) 
C=C1C2C3OC(C)CN=C3C(=O)OC2(C)C2CC3(C)C(C)=CC(O)C3C2(C)C1O

>  <smiles>  (37) 
[H]OC1([H])C([H])=C(C([H])([H])[H])C2(C([H])([H])[H])C([H])([H])C3([H])C4(C([H])([H])[H])OC(=O)C5=NC([H])([H])C([H])(C([H])([H])[H])OC5([H])C4([H])C(=C([H])[H])C([H])(O[H])C3(C([H])([H])[H])C12[H]

$$$$
9:0:1
     RDKit          3D

 60 64  0  0  1  0  0  0  0  0999 V2000
    7.4303   -7.2696    2.3248 C   0  0  0  0  0  0  0  0  0  0  0  0
    6.1950   -7.5745    1.8790 C   0  0  0  0  0  0  0  0  0  0  0  0
    5.2107   -6.5929    1.1923 C   0  0  2  0  0  0  0  0  0  0  0  0
    5.7559   -5.1542    0.9117 C   0  0  1  0  0  0  0  0  0  0  0  0
    5.3237   -4.6688   -0.3558 O   0  0  0  0  0  0  0  0  0  0  0  0
    5.9669   -3.4441   -0.7024 C   0  0  1  0  0  0  0  0  0  0  0  0
    5.3677   -2.9515   -2.0286 C   0  0  0  0  0  0  0  0  0  0  0  0
    5.8290   -2.3739    0.4215 C   0  0  0  0  0  0  0  0  0  0  0  0
    5.5473   -2.8767    1.7622 N   0  0  0  0  0  0  0  0  0  0  0  0
    5.3822   -4.1177    1.9802 C   0  0  0  0  0  0  0  0  0  0  0  0
    4.7535   -4.6309    3.2632 C   0  0  0  0  0  0  0  0  0  0  0  0
    4.8314   -4.0186    4.3271 O   0  0  0  0  0  0  0  0  0  0  0  0
    4.0456   -5.7893    3.1751 O   0  0  0  0  0  0  0  0  0  0  0  0
    3.8468   -6.5258    1.9581 C   0  0  1  0  0  0  0  0  0  0  0  0
    2.7497   -5.8250    1.1048 C   0  0  0  0  0  0  0  0  0  0  0  0
    3.3545   -7.9565    2.3367 C   0  0  2  0  0  0  0  0  0  0  0  0
    2.0832   -8.1639    3.1848 C   0  0  0  0  0  0  0  0  0  0  0  0
    2.0992   -9.6822    3.5221 C   0  0  2  0  0  0  0  0  0  0  0  0
    0.9680  -10.4176    2.7921 C   0  0  0  0  0  0  0  0  0  0  0  0
    2.0548  -10.0852    4.9863 C   0  0  0  0  0  0  0  0  0  0  0  0
    0.9565   -9.6337    5.9340 C   0  0  0  0  0  0  0  0  0  0  0  0
    3.0140  -10.9646    5.2804 C   0  0  0  0  0  0  0  0  0  0  0  0
    3.9632  -11.2276    4.1436 C   0  0  1  0  0  0  0  0  0  0  0  0
    3.8374  -12.5516    3.6841 O   0  0  0  0  0  0  0  0  0  0  0  0
    3.5147  -10.1889    3.0916 C   0  0  2  0  0  0  0  0  0  0  0  0
    4.3762   -8.8848    3.0060 C   0  0  2  0  0  0  0  0  0  0  0  0
    4.8158   -8.3707    4.4229 C   0  0  0  0  0  0  0  0  0  0  0  0
    5.6401   -8.9804    2.1185 C   0  0  1  0  0  0  0  0  0  0  0  0
    5.3843   -9.6003    0.8861 O   0  0  0  0  0  0  0  0  0  0  0  0
    8.0312   -8.0211    2.8197 H   0  0  0  0  0  0  0  0  0  0  0  0
    7.8763   -6.2948    2.2354 H   0  0  0  0  0  0  0  0  0  0  0  0
    5.0212   -7.0508    0.2187 H   0  0  0  0  0  0  0  0  0  0  0  0
    6.8393   -5.1920    0.8336 H   0  0  0  0  0  0  0  0  0  0  0  0
    7.0290   -3.6339   -0.8564 H   0  0  0  0  0  0  0  0  0  0  0  0
    5.7936   -1.9905   -2.3182 H   0  0  0  0  0  0  0  0  0  0  0  0
    4.2862   -2.8175   -1.9462 H   0  0  0  0  0  0  0  0  0  0  0  0
    5.5538   -3.6592   -2.8379 H   0  0  0  0  0  0  0  0  0  0  0  0
    6.7267   -1.7498    0.4344 H   0  0  0  0  0  0  0  0  0  0  0  0
    5.0211   -1.6892    0.1501 H   0  0  0  0  0  0  0  0  0  0  0  0
    2.5754   -6.3471    0.1662 H   0  0  0  0  0  0  0  0  0  0  0  0
    3.0128   -4.8068    0.8266 H   0  0  0  0  0  0  0  0  0  0  0  0
    1.8090   -5.7687    1.6447 H   0  0  0  0  0  0  0  0  0  0  0  0
    3.1186   -8.4134    1.3739 H   0  0  0  0  0  0  0  0  0  0  0  0
    2.0632   -7.5302    4.0784 H   0  0  0  0  0  0  0  0  0  0  0  0
    1.2032   -7.8982    2.5991 H   0  0  0  0  0  0  0  0  0  0  0  0
    1.0322  -10.2530    1.7193 H   0  0  0  0  0  0  0  0  0  0  0  0
   -0.0120  -10.0746    3.1122 H   0  0  0  0  0  0  0  0  0  0  0  0
    1.0027  -11.4890    2.9715 H   0  0  0  0  0  0  0  0  0  0  0  0
   -0.0244   -9.9372    5.5668 H   0  0  0  0  0  0  0  0  0  0  0  0
    0.9701   -8.5528    6.0767 H   0  0  0  0  0  0  0  0  0  0  0  0
    1.0933  -10.1034    6.9121 H   0  0  0  0  0  0  0  0  0  0  0  0
    3.1158  -11.4525    6.2403 H   0  0  0  0  0  0  0  0  0  0  0  0
    4.9953  -11.0997    4.4606 H   0  0  0  0  0  0  0  0  0  0  0  0
    2.9366  -12.7100    3.4205 H   0  0  0  0  0  0  0  0  0  0  0  0
    3.4424  -10.6569    2.1034 H   0  0  0  0  0  0  0  0  0  0  0  0
    5.4799   -9.0640    4.9310 H   0  0  0  0  0  0  0  0  0  0  0  0
    3.9827   -8.1816    5.0910 H   0  0  0  0  0  0  0  0  0  0  0  0
    5.3757   -7.4430    4.3788 H   0  0  0  0  0  0  0  0  0  0  0  0
    6.3854   -9.5922    2.6408 H   0  0  0  0  0  0  0  0  0  0  0  0
    4.9804  -10.4541    1.0037 H   0  0  0  0  0  0  0  0  0  0  0  0
  1  2  2  0
  1 30  1  0
  1 31  1  0
  2 28  1  0
  2  3  1  0
  3 14  1  0
  3  4  1  0
  3 32  1  6
  4 10  1  0
  4  5  1  0
  4 33  1  6
  5  6  1  0
  6  7  1  0
  6  8  1  0
  6 34  1  6
  7 35  1  0
  7 36  1  0
  7 37  1  0
  8  9  1  0
  8 38  1  0
  8 39  1  0
  9 10  2  0
 10 11  1  0
 11 12  2  0
 11 13  1  0
 13 14  1  0
 14 15  1  6
 14 16  1  0
 15 40  1  0
 15 41  1  0
 15 42  1  0
 16 26  1  0
 16 17  1  0
 16 43  1  6
 17 18  1  0
 17 44  1  0
 17 45  1  0
 18 25  1  0
 18 19  1  6
 18 20  1  0
 19 46  1  0
 19 47  1  0
 19 48  1  0
 20 21  1  0
 20 22  2  0
 21 49  1  0
 21 50  1  0
 21 51  1  0
 22 23  1  0
 22 52  1  0
 23 24  1  0
 23 25  1  0
 23 53  1  1
 24 54  1  0
 25 26  1  0
 25 55  1  6
 26 27  1  1
 26 28  1  0
 27 56  1  0
 27 57  1  0
 27 58  1  0
 28 29  1  0
 28 59  1  1
 29 60  1  0
M  END
>  <i_m_ct_stereo_status>  (38) 
1

>  <s_m_source_file>  (38) 
/var/tmp/pbs.5076255.sched01/tmppv1df_bs/0l6e7d74h.sdf

>  <i_m_source_file_index>  (38) 
13

>  <i_lp_mmshare_version>  (38) 
48012

>  <i_f3d_flags>  (38) 
0

>  <s_epik_input>  (38) 
TzFbQ0BASF0oW0NIM10pW0NIMl1OPUMoQyg9TylPMilbQ0BIXTFbQ0BIXShbQ0BdMjNbQ0gzXSlDKD1bQ0gyXSlbQ0BIXShbT0hdKVtDQEBdNChbQ0gzXSlbQ0BIXTNbQ0gyXVtDQEBdNShbQ0gzXSlbQ0BASF00W0NASF0oW09IXSlbQ0hdPUM1W0NIM10=

>  <s_epik_cmdline>  (38) 
J2VwaWtfcHl0aG9uJywgJy1waHQnLCAnMi4wJywgJy1waCcsICc3LjAnLCAnLXRuJywgJzgnLCAnLW1hJywgJzIwMCcsICctaW1hZScsICc8aW5maWxlLm1hZT4nLCAnLW9tYWUnLCAnPG91dGZpbGUubWFlPic=

>  <r_lp_tautomer_probability>  (38) 
1

>  <r_epik_Ionization_Penalty>  (38) 
5.0632e-06

>  <r_epik_Ionization_Penalty_Charging>  (38) 
0

>  <r_epik_Ionization_Penalty_Neutral>  (38) 
5.0632e-06

>  <r_epik_State_Penalty>  (38) 
-0

>  <r_epik_Charging_Adjusted_Penalty>  (38) 
0

>  <i_epik_Tot_Q>  (38) 
0

>  <i_epik_Tot_abs_Q>  (38) 
0

>  <s_epik_Chemistry_Notes>  (38) 
This compound has an ester and may undergo hydrolysis at high or low pH. This compound has an imine and may undergo hydrolysis.

>  <s_lp_Force_Field>  (38) 
OPLS3e

>  <r_lp_Energy>  (38) 
51.0012

>  <b_lp_Chiralities_Consistent>  (38) 
1

>  <s_lp_Variant>  (38) 
9:0-1

>  <s_i_glide_gridfile>  (38) 
pfpi4k_grid

>  <i_i_glide_lignum>  (38) 
13

>  <i_i_glide_rotatable_bonds>  (38) 
2

>  <r_i_docking_score>  (38) 
-3.82205

>  <r_i_glide_ligand_efficiency>  (38) 
-0.131795

>  <r_i_glide_ligand_efficiency_sa>  (38) 
-0.404915

>  <r_i_glide_ligand_efficiency_ln>  (38) 
-0.875152

>  <r_i_glide_gscore>  (38) 
-3.82205

>  <r_i_glide_lipo>  (38) 
-0.678872

>  <r_i_glide_hbond>  (38) 
-0.265837

>  <r_i_glide_metal>  (38) 
-0

>  <r_i_glide_rewards>  (38) 
-0.729326

>  <r_i_glide_evdw>  (38) 
-29.4

>  <r_i_glide_ecoul>  (38) 
-4.5201

>  <r_i_glide_erotb>  (38) 
0

>  <r_i_glide_esite>  (38) 
0

>  <r_i_glide_emodel>  (38) 
-41.769

>  <r_i_glide_energy>  (38) 
-33.9201

>  <r_i_glide_einternal>  (38) 
0.508195

>  <r_i_glide_intrahb_reward>  (38) 
-0

>  <i_i_glide_confnum>  (38) 
2

>  <i_i_glide_posenum>  (38) 
15

>  <r_i_glide_eff_state_penalty>  (38) 
0

>  <ligand_id>  (38) 
9

>  <original_smiles>  (38) 
C=C1C2C3OC(C)CN=C3C(=O)OC2(C)C2CC3(C)C(C)=CC(O)C3C2(C)C1O

>  <smiles>  (38) 
[H]OC1([H])C([H])=C(C([H])([H])[H])C2(C([H])([H])[H])C([H])([H])C3([H])C4(C([H])([H])[H])OC(=O)C5=NC([H])([H])C([H])(C([H])([H])[H])OC5([H])C4([H])C(=C([H])[H])C([H])(O[H])C3(C([H])([H])[H])C12[H]

$$$$
9:0:2
     RDKit          3D

 60 64  0  0  1  0  0  0  0  0999 V2000
    7.3027   -6.9977    2.2638 C   0  0  0  0  0  0  0  0  0  0  0  0
    6.0804   -7.3501    1.8158 C   0  0  0  0  0  0  0  0  0  0  0  0
    5.0760   -6.4082    1.1020 C   0  0  2  0  0  0  0  0  0  0  0  0
    5.5869   -4.9631    0.7858 C   0  0  1  0  0  0  0  0  0  0  0  0
    5.1481   -4.5244   -0.4965 O   0  0  0  0  0  0  0  0  0  0  0  0
    5.7577   -3.2909   -0.8738 C   0  0  1  0  0  0  0  0  0  0  0  0
    5.1507   -2.8511   -2.2152 C   0  0  0  0  0  0  0  0  0  0  0  0
    5.5870   -2.1955    0.2224 C   0  0  0  0  0  0  0  0  0  0  0  0
    5.3163   -2.6696    1.5750 N   0  0  0  0  0  0  0  0  0  0  0  0
    5.1814   -3.9078    1.8244 C   0  0  0  0  0  0  0  0  0  0  0  0
    4.5563   -4.3991    3.1176 C   0  0  0  0  0  0  0  0  0  0  0  0
    4.6096   -3.7520    4.1629 O   0  0  0  0  0  0  0  0  0  0  0  0
    3.8784   -5.5767    3.0583 O   0  0  0  0  0  0  0  0  0  0  0  0
    3.7070   -6.3525    1.8629 C   0  0  1  0  0  0  0  0  0  0  0  0
    2.5951   -5.7037    0.9886 C   0  0  0  0  0  0  0  0  0  0  0  0
    3.2475   -7.7833    2.2787 C   0  0  2  0  0  0  0  0  0  0  0  0
    1.9754   -7.9983    3.1264 C   0  0  0  0  0  0  0  0  0  0  0  0
    2.0290   -9.5055    3.5095 C   0  0  2  0  0  0  0  0  0  0  0  0
    0.9251  -10.2922    2.7903 C   0  0  0  0  0  0  0  0  0  0  0  0
    1.9896   -9.8748    4.9844 C   0  0  0  0  0  0  0  0  0  0  0  0
    0.8757   -9.4323    5.9176 C   0  0  0  0  0  0  0  0  0  0  0  0
    2.9729  -10.7209    5.3017 C   0  0  0  0  0  0  0  0  0  0  0  0
    3.9349  -10.9802    4.1715 C   0  0  1  0  0  0  0  0  0  0  0  0
    3.8143  -12.2983    3.7004 O   0  0  0  0  0  0  0  0  0  0  0  0
    3.4584   -9.9803    3.0988 C   0  0  2  0  0  0  0  0  0  0  0  0
    4.2899   -8.6648    2.9789 C   0  0  2  0  0  0  0  0  0  0  0  0
    4.7094   -8.1003    4.3826 C   0  0  0  0  0  0  0  0  0  0  0  0
    5.5561   -8.7638    2.0945 C   0  0  1  0  0  0  0  0  0  0  0  0
    5.3154   -9.4479    0.8864 O   0  0  0  0  0  0  0  0  0  0  0  0
    7.9212   -7.7156    2.7858 H   0  0  0  0  0  0  0  0  0  0  0  0
    7.7212   -6.0117    2.1552 H   0  0  0  0  0  0  0  0  0  0  0  0
    4.9102   -6.8974    0.1399 H   0  0  0  0  0  0  0  0  0  0  0  0
    6.6713   -4.9750    0.7127 H   0  0  0  0  0  0  0  0  0  0  0  0
    6.8247   -3.4581   -1.0196 H   0  0  0  0  0  0  0  0  0  0  0  0
    5.5498   -1.8873   -2.5309 H   0  0  0  0  0  0  0  0  0  0  0  0
    4.0660   -2.7442   -2.1407 H   0  0  0  0  0  0  0  0  0  0  0  0
    5.3598   -3.5763   -3.0025 H   0  0  0  0  0  0  0  0  0  0  0  0
    6.4679   -1.5481    0.2241 H   0  0  0  0  0  0  0  0  0  0  0  0
    4.7620   -1.5389   -0.0669 H   0  0  0  0  0  0  0  0  0  0  0  0
    2.4361   -6.2559    0.0667 H   0  0  0  0  0  0  0  0  0  0  0  0
    2.8338   -4.6890    0.6763 H   0  0  0  0  0  0  0  0  0  0  0  0
    1.6506   -5.6559    1.5235 H   0  0  0  0  0  0  0  0  0  0  0  0
    3.0293   -8.2715    1.3280 H   0  0  0  0  0  0  0  0  0  0  0  0
    1.9335   -7.3397    3.9986 H   0  0  0  0  0  0  0  0  0  0  0  0
    1.0926   -7.7750    2.5268 H   0  0  0  0  0  0  0  0  0  0  0  0
    0.9964  -10.1753    1.7123 H   0  0  0  0  0  0  0  0  0  0  0  0
   -0.0672   -9.9661    3.0933 H   0  0  0  0  0  0  0  0  0  0  0  0
    0.9872  -11.3560    3.0030 H   0  0  0  0  0  0  0  0  0  0  0  0
   -0.0963   -9.7682    5.5547 H   0  0  0  0  0  0  0  0  0  0  0  0
    0.8597   -8.3477    6.0266 H   0  0  0  0  0  0  0  0  0  0  0  0
    1.0168   -9.8643    6.9126 H   0  0  0  0  0  0  0  0  0  0  0  0
    3.0853  -11.1869    6.2704 H   0  0  0  0  0  0  0  0  0  0  0  0
    4.9658  -10.8311    4.4826 H   0  0  0  0  0  0  0  0  0  0  0  0
    3.8135  -12.2872    2.7492 H   0  0  0  0  0  0  0  0  0  0  0  0
    3.3964  -10.4699    2.1217 H   0  0  0  0  0  0  0  0  0  0  0  0
    5.3870   -8.7630    4.9142 H   0  0  0  0  0  0  0  0  0  0  0  0
    3.8669   -7.9149    5.0424 H   0  0  0  0  0  0  0  0  0  0  0  0
    5.2457   -7.1595    4.3170 H   0  0  0  0  0  0  0  0  0  0  0  0
    6.3160   -9.3354    2.6385 H   0  0  0  0  0  0  0  0  0  0  0  0
    4.9853  -10.3246    1.0428 H   0  0  0  0  0  0  0  0  0  0  0  0
  1  2  2  0
  1 30  1  0
  1 31  1  0
  2 28  1  0
  2  3  1  0
  3 14  1  0
  3  4  1  0
  3 32  1  6
  4 10  1  0
  4  5  1  0
  4 33  1  6
  5  6  1  0
  6  7  1  0
  6  8  1  0
  6 34  1  6
  7 35  1  0
  7 36  1  0
  7 37  1  0
  8  9  1  0
  8 38  1  0
  8 39  1  0
  9 10  2  0
 10 11  1  0
 11 12  2  0
 11 13  1  0
 13 14  1  0
 14 15  1  6
 14 16  1  0
 15 40  1  0
 15 41  1  0
 15 42  1  0
 16 26  1  0
 16 17  1  0
 16 43  1  6
 17 18  1  0
 17 44  1  0
 17 45  1  0
 18 25  1  0
 18 19  1  6
 18 20  1  0
 19 46  1  0
 19 47  1  0
 19 48  1  0
 20 21  1  0
 20 22  2  0
 21 49  1  0
 21 50  1  0
 21 51  1  0
 22 23  1  0
 22 52  1  0
 23 24  1  0
 23 25  1  0
 23 53  1  1
 24 54  1  0
 25 26  1  0
 25 55  1  6
 26 27  1  1
 26 28  1  0
 27 56  1  0
 27 57  1  0
 27 58  1  0
 28 29  1  0
 28 59  1  1
 29 60  1  0
M  END
>  <i_m_ct_stereo_status>  (39) 
1

>  <s_m_source_file>  (39) 
/var/tmp/pbs.5076255.sched01/tmppv1df_bs/0l6e7d74h.sdf

>  <i_m_source_file_index>  (39) 
13

>  <i_lp_mmshare_version>  (39) 
48012

>  <i_f3d_flags>  (39) 
0

>  <s_epik_input>  (39) 
TzFbQ0BASF0oW0NIM10pW0NIMl1OPUMoQyg9TylPMilbQ0BIXTFbQ0BIXShbQ0BdMjNbQ0gzXSlDKD1bQ0gyXSlbQ0BIXShbT0hdKVtDQEBdNChbQ0gzXSlbQ0BIXTNbQ0gyXVtDQEBdNShbQ0gzXSlbQ0BASF00W0NASF0oW09IXSlbQ0hdPUM1W0NIM10=

>  <s_epik_cmdline>  (39) 
J2VwaWtfcHl0aG9uJywgJy1waHQnLCAnMi4wJywgJy1waCcsICc3LjAnLCAnLXRuJywgJzgnLCAnLW1hJywgJzIwMCcsICctaW1hZScsICc8aW5maWxlLm1hZT4nLCAnLW9tYWUnLCAnPG91dGZpbGUubWFlPic=

>  <r_lp_tautomer_probability>  (39) 
1

>  <r_epik_Ionization_Penalty>  (39) 
5.0632e-06

>  <r_epik_Ionization_Penalty_Charging>  (39) 
0

>  <r_epik_Ionization_Penalty_Neutral>  (39) 
5.0632e-06

>  <r_epik_State_Penalty>  (39) 
-0

>  <r_epik_Charging_Adjusted_Penalty>  (39) 
0

>  <i_epik_Tot_Q>  (39) 
0

>  <i_epik_Tot_abs_Q>  (39) 
0

>  <s_epik_Chemistry_Notes>  (39) 
This compound has an ester and may undergo hydrolysis at high or low pH. This compound has an imine and may undergo hydrolysis.

>  <s_lp_Force_Field>  (39) 
OPLS3e

>  <r_lp_Energy>  (39) 
51.0012

>  <b_lp_Chiralities_Consistent>  (39) 
1

>  <s_lp_Variant>  (39) 
9:0-1

>  <s_i_glide_gridfile>  (39) 
pfpi4k_grid

>  <i_i_glide_lignum>  (39) 
13

>  <i_i_glide_rotatable_bonds>  (39) 
2

>  <r_i_docking_score>  (39) 
-3.55307

>  <r_i_glide_ligand_efficiency>  (39) 
-0.12252

>  <r_i_glide_ligand_efficiency_sa>  (39) 
-0.376419

>  <r_i_glide_ligand_efficiency_ln>  (39) 
-0.813562

>  <r_i_glide_gscore>  (39) 
-3.55307

>  <r_i_glide_lipo>  (39) 
-0.677442

>  <r_i_glide_hbond>  (39) 
-0.12153

>  <r_i_glide_metal>  (39) 
-0

>  <r_i_glide_rewards>  (39) 
-0.731225

>  <r_i_glide_evdw>  (39) 
-30.9391

>  <r_i_glide_ecoul>  (39) 
-3.17275

>  <r_i_glide_erotb>  (39) 
0

>  <r_i_glide_esite>  (39) 
0

>  <r_i_glide_emodel>  (39) 
-40.9892

>  <r_i_glide_energy>  (39) 
-34.1119

>  <r_i_glide_einternal>  (39) 
1.26272

>  <r_i_glide_intrahb_reward>  (39) 
-0

>  <i_i_glide_confnum>  (39) 
2

>  <i_i_glide_posenum>  (39) 
6

>  <r_i_glide_eff_state_penalty>  (39) 
0

>  <ligand_id>  (39) 
9

>  <original_smiles>  (39) 
C=C1C2C3OC(C)CN=C3C(=O)OC2(C)C2CC3(C)C(C)=CC(O)C3C2(C)C1O

>  <smiles>  (39) 
[H]OC1([H])C([H])=C(C([H])([H])[H])C2(C([H])([H])[H])C([H])([H])C3([H])C4(C([H])([H])[H])OC(=O)C5=NC([H])([H])C([H])(C([H])([H])[H])OC5([H])C4([H])C(=C([H])[H])C([H])(O[H])C3(C([H])([H])[H])C12[H]

$$$$
10:0:0
     RDKit          3D

 67 72  0  0  1  0  0  0  0  0999 V2000
    2.4779   -5.1781    0.3582 C   0  0  0  0  0  0  0  0  0  0  0  0
    3.1051   -3.9104   -0.0938 N   0  0  1  0  0  0  0  0  0  0  0  0
    2.6532   -3.5218   -1.4668 C   0  0  0  0  0  0  0  0  0  0  0  0
    3.4993   -3.3931   -2.4996 C   0  0  0  0  0  0  0  0  0  0  0  0
    3.2163   -2.3956   -3.5780 C   0  0  0  0  0  0  0  0  0  0  0  0
    3.9953   -1.1213   -3.2157 C   0  0  0  0  0  0  0  0  0  0  0  0
    3.9954   -0.7103   -1.7183 C   0  0  0  0  0  0  0  0  0  0  0  0
    4.9455   -1.3866   -0.6951 C   0  0  1  0  0  0  0  0  0  0  0  0
    6.0753   -1.8510   -1.4216 O   0  0  0  0  0  0  0  0  0  0  0  0
    5.4149   -0.4831    0.4407 C   0  0  0  0  0  0  0  0  0  0  0  0
    5.3266   -1.6092    1.4714 C   0  0  1  0  0  0  0  0  0  0  0  0
    6.5586   -2.2626    1.6671 O   0  0  0  0  0  0  0  0  0  0  0  0
    4.8291   -1.1912    2.8893 C   0  0  1  0  0  0  0  0  0  0  0  0
    5.8050   -0.2396    3.4342 N   0  0  0  0  0  0  0  0  0  0  0  0
    3.3781   -0.6179    2.9145 C   0  0  2  0  0  0  0  0  0  0  0  0
    3.1101    0.5427    3.8937 C   0  0  0  0  0  0  0  0  0  0  0  0
    3.0490    0.0650    5.3419 C   0  0  0  0  0  0  0  0  0  0  0  0
    1.8629   -0.8900    5.5513 C   0  0  2  0  0  0  0  0  0  0  0  0
    1.9134   -1.5308    6.9515 C   0  0  0  0  0  0  0  0  0  0  0  0
    2.4012   -2.9753    6.7780 C   0  0  1  0  0  0  0  0  0  0  0  0
    1.3802   -3.8855    7.1468 O   0  0  0  0  0  0  0  0  0  0  0  0
    2.7570   -3.1170    5.2904 C   0  0  0  0  0  0  0  0  0  0  0  0
    1.8991   -2.0740    4.5531 C   0  0  1  0  0  0  0  0  0  0  0  0
    0.5935   -2.6180    4.4465 O   0  0  0  0  0  0  0  0  0  0  0  0
    2.2999   -1.7118    3.0780 C   0  0  2  0  0  0  0  0  0  0  0  0
    2.5372   -2.9889    2.2259 C   0  0  0  0  0  0  0  0  0  0  0  0
    2.9664   -2.7108    0.7722 C   0  0  1  0  0  0  0  0  0  0  0  0
    4.4408   -2.3577    0.4480 C   0  0  1  0  0  0  0  0  0  0  0  0
    4.5494   -3.8761    0.2230 C   0  0  0  0  0  0  0  0  0  0  0  0
    2.7509   -5.4752    1.3759 H   0  0  0  0  0  0  0  0  0  0  0  0
    2.7804   -5.9832   -0.3148 H   0  0  0  0  0  0  0  0  0  0  0  0
    1.3982   -5.0821    0.3063 H   0  0  0  0  0  0  0  0  0  0  0  0
    1.6915   -3.0459   -1.4953 H   0  0  0  0  0  0  0  0  0  0  0  0
    4.5168   -3.7237   -2.4694 H   0  0  0  0  0  0  0  0  0  0  0  0
    3.4890   -2.7774   -4.5709 H   0  0  0  0  0  0  0  0  0  0  0  0
    2.1363   -2.1857   -3.5954 H   0  0  0  0  0  0  0  0  0  0  0  0
    4.9995   -1.2011   -3.6070 H   0  0  0  0  0  0  0  0  0  0  0  0
    3.5351   -0.2958   -3.7713 H   0  0  0  0  0  0  0  0  0  0  0  0
    4.3102    0.3118   -1.8156 H   0  0  0  0  0  0  0  0  0  0  0  0
    2.9668   -0.6779   -1.3384 H   0  0  0  0  0  0  0  0  0  0  0  0
    5.8269   -2.6214   -1.8931 H   0  0  0  0  0  0  0  0  0  0  0  0
    6.4508   -0.1569    0.3151 H   0  0  0  0  0  0  0  0  0  0  0  0
    4.7322    0.3626    0.6073 H   0  0  0  0  0  0  0  0  0  0  0  0
    6.3676   -3.0861    2.0752 H   0  0  0  0  0  0  0  0  0  0  0  0
    4.8797   -2.0468    3.5593 H   0  0  0  0  0  0  0  0  0  0  0  0
    5.8254    0.5917    2.8664 H   0  0  0  0  0  0  0  0  0  0  0  0
    6.7273   -0.6515    3.4261 H   0  0  0  0  0  0  0  0  0  0  0  0
    3.2029   -0.1646    1.9455 H   0  0  0  0  0  0  0  0  0  0  0  0
    3.8208    1.3620    3.7825 H   0  0  0  0  0  0  0  0  0  0  0  0
    2.1457    0.9846    3.6509 H   0  0  0  0  0  0  0  0  0  0  0  0
    3.9772   -0.4275    5.6312 H   0  0  0  0  0  0  0  0  0  0  0  0
    2.9343    0.9298    5.9965 H   0  0  0  0  0  0  0  0  0  0  0  0
    0.9457   -0.3083    5.4365 H   0  0  0  0  0  0  0  0  0  0  0  0
    2.5714   -0.9786    7.6174 H   0  0  0  0  0  0  0  0  0  0  0  0
    0.9258   -1.5210    7.4054 H   0  0  0  0  0  0  0  0  0  0  0  0
    3.2780   -3.1776    7.3930 H   0  0  0  0  0  0  0  0  0  0  0  0
    1.6977   -4.7551    6.9817 H   0  0  0  0  0  0  0  0  0  0  0  0
    3.8112   -2.8576    5.1987 H   0  0  0  0  0  0  0  0  0  0  0  0
    2.6353   -4.1280    4.8985 H   0  0  0  0  0  0  0  0  0  0  0  0
    0.0381   -1.9602    4.0643 H   0  0  0  0  0  0  0  0  0  0  0  0
    1.4214   -1.2351    2.6416 H   0  0  0  0  0  0  0  0  0  0  0  0
    3.2648   -3.6324    2.7190 H   0  0  0  0  0  0  0  0  0  0  0  0
    1.6069   -3.5600    2.2430 H   0  0  0  0  0  0  0  0  0  0  0  0
    2.3097   -1.9538    0.3527 H   0  0  0  0  0  0  0  0  0  0  0  0
    4.7907   -4.4183    1.1499 H   0  0  0  0  0  0  0  0  0  0  0  0
    5.2272   -4.2237   -0.5620 H   0  0  0  0  0  0  0  0  0  0  0  0
    5.5345    0.0296    4.3756 H   0  0  0  0  0  0  0  0  0  0  0  0
  2  1  1  1
  1 30  1  0
  1 31  1  0
  1 32  1  0
  2 27  1  0
  2 29  1  0
  2  3  1  0
  3  4  2  3
  3 33  1  0
  4  5  1  0
  4 34  1  0
  5  6  1  0
  5 35  1  0
  5 36  1  0
  6  7  1  0
  6 37  1  0
  6 38  1  0
  7  8  1  0
  7 39  1  0
  7 40  1  0
  8 28  1  0
  8  9  1  6
  8 10  1  0
  9 41  1  0
 10 11  1  0
 10 42  1  0
 10 43  1  0
 11 28  1  0
 11 12  1  1
 11 13  1  0
 12 44  1  0
 13 14  1  0
 13 15  1  0
 13 45  1  1
 14 46  1  0
 14 47  1  0
 14 67  1  0
 15 25  1  0
 15 16  1  0
 15 48  1  6
 16 17  1  0
 16 49  1  0
 16 50  1  0
 17 18  1  0
 17 51  1  0
 17 52  1  0
 18 23  1  0
 18 19  1  0
 18 53  1  1
 19 20  1  0
 19 54  1  0
 19 55  1  0
 20 21  1  0
 20 22  1  0
 20 56  1  1
 21 57  1  0
 22 23  1  0
 22 58  1  0
 22 59  1  0
 23 24  1  6
 23 25  1  0
 24 60  1  0
 25 26  1  0
 25 61  1  6
 26 27  1  0
 26 62  1  0
 26 63  1  0
 27 28  1  0
 27 64  1  6
 28 29  1  6
 29 65  1  0
 29 66  1  0
M  CHG  2   2   1  14   1
M  END
>  <i_m_ct_stereo_status>  (40) 
1

>  <s_m_source_file>  (40) 
/var/tmp/pbs.5076255.sched01/tmppv1df_bs/0l6e7d74h.sdf

>  <i_m_source_file_index>  (40) 
14

>  <i_lp_mmshare_version>  (40) 
48012

>  <i_f3d_flags>  (40) 
0

>  <s_epik_input>  (40) 
W09IXVtDQF0xKFtDQEBdMjM0KVtDSDJdW0NIMl1bQ0gyXVxbQ0hdPVtDSF1cW05AQCtdKFtDSDNdKShbQ0gyXTQpW0NASF0zW0NIMl1bQ0BASF01W0NASF0oW0NASF0oW05IMl0pW0NAQF0yKFtDSDJdMSlbT0hdKVtDSDJdW0NIMl1bQ0BIXTZbQ0BdNShbT0hdKVtDSDJdW0NAQEhdKFtDSDJdNilbT0hd

>  <s_epik_cmdline>  (40) 
J2VwaWtfcHl0aG9uJywgJy1waHQnLCAnMi4wJywgJy1waCcsICc3LjAnLCAnLXRuJywgJzgnLCAnLW1hJywgJzIwMCcsICctaW1hZScsICc8aW5maWxlLm1hZT4nLCAnLW9tYWUnLCAnPG91dGZpbGUubWFlPic=

>  <r_epik_Ionization_Penalty>  (40) 
0.0234705

>  <r_epik_Ionization_Penalty_Charging>  (40) 
0.0234634

>  <r_epik_Ionization_Penalty_Neutral>  (40) 
7.08681e-06

>  <r_epik_State_Penalty>  (40) 
0.0189912

>  <r_epik_Charging_Adjusted_Penalty>  (40) 
0.0424546

>  <i_epik_Tot_Q>  (40) 
2

>  <i_epik_Tot_abs_Q>  (40) 
2

>  <s_lp_Force_Field>  (40) 
OPLS3e

>  <r_lp_Energy>  (40) 
92.8222

>  <b_lp_Chiralities_Consistent>  (40) 
1

>  <s_lp_Variant>  (40) 
10:0-1

>  <s_i_glide_gridfile>  (40) 
pfpi4k_grid

>  <i_i_glide_lignum>  (40) 
14

>  <i_i_glide_rotatable_bonds>  (40) 
4

>  <r_i_docking_score>  (40) 
-3.04286

>  <r_i_glide_ligand_efficiency>  (40) 
-0.104926

>  <r_i_glide_ligand_efficiency_sa>  (40) 
-0.322366

>  <r_i_glide_ligand_efficiency_ln>  (40) 
-0.696737

>  <r_i_glide_gscore>  (40) 
-3.04286

>  <r_i_glide_lipo>  (40) 
-0.79215

>  <r_i_glide_hbond>  (40) 
0

>  <r_i_glide_metal>  (40) 
-0

>  <r_i_glide_rewards>  (40) 
-0.637099

>  <r_i_glide_evdw>  (40) 
-15.3331

>  <r_i_glide_ecoul>  (40) 
-5.54864

>  <r_i_glide_erotb>  (40) 
0

>  <r_i_glide_esite>  (40) 
-0.0146587

>  <r_i_glide_emodel>  (40) 
-23.1634

>  <r_i_glide_energy>  (40) 
-20.8817

>  <r_i_glide_einternal>  (40) 
1.76389

>  <r_i_glide_intrahb_reward>  (40) 
-0

>  <i_i_glide_confnum>  (40) 
2

>  <i_i_glide_posenum>  (40) 
29

>  <r_i_glide_eff_state_penalty>  (40) 
0

>  <ligand_id>  (40) 
10

>  <original_smiles>  (40) 
C[N+]12C=CCCCC3(O)CC4(O)C(N)C5CCC6CC(O)CC6(O)C5CC1C34C2

>  <smiles>  (40) 
[H]OC1([H])C([H])([H])C2([H])C([H])([H])C([H])([H])C3([H])C([H])(C([H])([H])C4([H])C56C(O[H])(C([H])([H])C([H])([H])C([H])([H])C([H])=C([H])[N+]4(C([H])([H])[H])C5([H])[H])C([H])([H])C6(O[H])C3([H])[N+]([H])([H])[H])C2(O[H])C1([H])[H]

$$$$
10:0:1
     RDKit          3D

 67 72  0  0  1  0  0  0  0  0999 V2000
    1.9892   -4.9397   -0.3992 C   0  0  0  0  0  0  0  0  0  0  0  0
    2.8491   -3.8598   -0.9519 N   0  0  1  0  0  0  0  0  0  0  0  0
    2.3363   -3.3850   -2.2614 C   0  0  0  0  0  0  0  0  0  0  0  0
    3.0786   -3.4076   -3.3506 C   0  0  0  0  0  0  0  0  0  0  0  0
    2.9581   -2.2985   -4.3094 C   0  0  0  0  0  0  0  0  0  0  0  0
    4.1004   -1.2852   -4.1294 C   0  0  0  0  0  0  0  0  0  0  0  0
    4.4318   -0.9202   -2.6584 C   0  0  0  0  0  0  0  0  0  0  0  0
    5.2279   -1.9386   -1.7898 C   0  0  1  0  0  0  0  0  0  0  0  0
    6.0373   -2.7241   -2.6486 O   0  0  0  0  0  0  0  0  0  0  0  0
    6.0613   -1.2792   -0.7200 C   0  0  0  0  0  0  0  0  0  0  0  0
    5.7481   -2.3257    0.3176 C   0  0  1  0  0  0  0  0  0  0  0  0
    6.8056   -3.2666    0.4319 O   0  0  0  0  0  0  0  0  0  0  0  0
    5.5811   -1.7501    1.7271 C   0  0  1  0  0  0  0  0  0  0  0  0
    6.8019   -1.0494    2.0251 N   0  0  0  0  0  0  0  0  0  0  0  0
    4.3734   -0.8103    1.9353 C   0  0  2  0  0  0  0  0  0  0  0  0
    4.5881    0.3107    2.9821 C   0  0  0  0  0  0  0  0  0  0  0  0
    4.5749   -0.1587    4.4130 C   0  0  0  0  0  0  0  0  0  0  0  0
    3.1994   -0.7124    4.7552 C   0  0  2  0  0  0  0  0  0  0  0  0
    3.2517   -1.3624    6.1463 C   0  0  0  0  0  0  0  0  0  0  0  0
    3.2834   -2.8808    5.9205 C   0  0  1  0  0  0  0  0  0  0  0  0
    2.1063   -3.4854    6.4208 O   0  0  0  0  0  0  0  0  0  0  0  0
    3.4117   -3.0861    4.4047 C   0  0  0  0  0  0  0  0  0  0  0  0
    2.7884   -1.8329    3.7666 C   0  0  1  0  0  0  0  0  0  0  0  0
    1.3849   -1.9880    3.8373 O   0  0  0  0  0  0  0  0  0  0  0  0
    3.0633   -1.5662    2.2448 C   0  0  2  0  0  0  0  0  0  0  0  0
    2.8430   -2.8251    1.3845 C   0  0  0  0  0  0  0  0  0  0  0  0
    3.1504   -2.6718   -0.1171 C   0  0  1  0  0  0  0  0  0  0  0  0
    4.5994   -2.7614   -0.6118 C   0  0  1  0  0  0  0  0  0  0  0  0
    4.2741   -4.2419   -0.8444 C   0  0  0  0  0  0  0  0  0  0  0  0
    2.2528   -5.2766    0.6024 H   0  0  0  0  0  0  0  0  0  0  0  0
    1.8199   -5.7830   -1.0506 H   0  0  0  0  0  0  0  0  0  0  0  0
    1.0037   -4.5282   -0.4773 H   0  0  0  0  0  0  0  0  0  0  0  0
    1.5149   -2.6806   -2.1937 H   0  0  0  0  0  0  0  0  0  0  0  0
    3.9723   -4.0139   -3.4804 H   0  0  0  0  0  0  0  0  0  0  0  0
    3.0718   -2.8903   -5.1897 H   0  0  0  0  0  0  0  0  0  0  0  0
    1.9788   -1.8230   -4.2991 H   0  0  0  0  0  0  0  0  0  0  0  0
    4.9826   -1.6254   -4.6492 H   0  0  0  0  0  0  0  0  0  0  0  0
    3.8247   -0.3769   -4.6554 H   0  0  0  0  0  0  0  0  0  0  0  0
    5.0124   -0.0064   -2.7123 H   0  0  0  0  0  0  0  0  0  0  0  0
    3.5180   -0.6435   -2.1622 H   0  0  0  0  0  0  0  0  0  0  0  0
    6.6422   -3.2121   -2.1047 H   0  0  0  0  0  0  0  0  0  0  0  0
    7.1256   -1.3718   -0.8220 H   0  0  0  0  0  0  0  0  0  0  0  0
    5.7255   -0.2711   -0.4875 H   0  0  0  0  0  0  0  0  0  0  0  0
    6.4939   -4.0433    0.8688 H   0  0  0  0  0  0  0  0  0  0  0  0
    5.5411   -2.5691    2.4421 H   0  0  0  0  0  0  0  0  0  0  0  0
    7.0030   -0.2142    1.4614 H   0  0  0  0  0  0  0  0  0  0  0  0
    7.5545   -1.7075    1.8934 H   0  0  0  0  0  0  0  0  0  0  0  0
    4.2196   -0.2760    0.9943 H   0  0  0  0  0  0  0  0  0  0  0  0
    5.5515    0.8006    2.9212 H   0  0  0  0  0  0  0  0  0  0  0  0
    3.8212    1.0776    2.8334 H   0  0  0  0  0  0  0  0  0  0  0  0
    5.3714   -0.8909    4.5559 H   0  0  0  0  0  0  0  0  0  0  0  0
    4.8187    0.6951    5.0495 H   0  0  0  0  0  0  0  0  0  0  0  0
    2.4944    0.1192    4.7411 H   0  0  0  0  0  0  0  0  0  0  0  0
    4.1276   -1.0401    6.7175 H   0  0  0  0  0  0  0  0  0  0  0  0
    2.3865   -1.0707    6.7337 H   0  0  0  0  0  0  0  0  0  0  0  0
    4.1133   -3.3423    6.4505 H   0  0  0  0  0  0  0  0  0  0  0  0
    1.3624   -3.1964    5.9239 H   0  0  0  0  0  0  0  0  0  0  0  0
    4.4761   -3.1294    4.1863 H   0  0  0  0  0  0  0  0  0  0  0  0
    2.9644   -4.0210    4.0586 H   0  0  0  0  0  0  0  0  0  0  0  0
    1.1364   -1.9152    4.7405 H   0  0  0  0  0  0  0  0  0  0  0  0
    2.3158   -0.8324    1.9349 H   0  0  0  0  0  0  0  0  0  0  0  0
    3.4343   -3.6372    1.7862 H   0  0  0  0  0  0  0  0  0  0  0  0
    1.8106   -3.1086    1.5173 H   0  0  0  0  0  0  0  0  0  0  0  0
    2.6822   -1.7621   -0.5133 H   0  0  0  0  0  0  0  0  0  0  0  0
    4.4589   -4.8385    0.0496 H   0  0  0  0  0  0  0  0  0  0  0  0
    4.7276   -4.7231   -1.7119 H   0  0  0  0  0  0  0  0  0  0  0  0
    6.7392   -0.7417    2.9738 H   0  0  0  0  0  0  0  0  0  0  0  0
  2  1  1  1
  1 30  1  0
  1 31  1  0
  1 32  1  0
  2 27  1  0
  2 29  1  0
  2  3  1  0
  3  4  2  3
  3 33  1  0
  4  5  1  0
  4 34  1  0
  5  6  1  0
  5 35  1  0
  5 36  1  0
  6  7  1  0
  6 37  1  0
  6 38  1  0
  7  8  1  0
  7 39  1  0
  7 40  1  0
  8 28  1  0
  8  9  1  6
  8 10  1  0
  9 41  1  0
 10 11  1  0
 10 42  1  0
 10 43  1  0
 11 28  1  0
 11 12  1  1
 11 13  1  0
 12 44  1  0
 13 14  1  0
 13 15  1  0
 13 45  1  1
 14 46  1  0
 14 47  1  0
 14 67  1  0
 15 25  1  0
 15 16  1  0
 15 48  1  6
 16 17  1  0
 16 49  1  0
 16 50  1  0
 17 18  1  0
 17 51  1  0
 17 52  1  0
 18 23  1  0
 18 19  1  0
 18 53  1  1
 19 20  1  0
 19 54  1  0
 19 55  1  0
 20 21  1  0
 20 22  1  0
 20 56  1  1
 21 57  1  0
 22 23  1  0
 22 58  1  0
 22 59  1  0
 23 24  1  6
 23 25  1  0
 24 60  1  0
 25 26  1  0
 25 61  1  6
 26 27  1  0
 26 62  1  0
 26 63  1  0
 27 28  1  0
 27 64  1  6
 28 29  1  6
 29 65  1  0
 29 66  1  0
M  CHG  2   2   1  14   1
M  END
>  <i_m_ct_stereo_status>  (41) 
1

>  <s_m_source_file>  (41) 
/var/tmp/pbs.5076255.sched01/tmppv1df_bs/0l6e7d74h.sdf

>  <i_m_source_file_index>  (41) 
14

>  <i_lp_mmshare_version>  (41) 
48012

>  <i_f3d_flags>  (41) 
0

>  <s_epik_input>  (41) 
W09IXVtDQF0xKFtDQEBdMjM0KVtDSDJdW0NIMl1bQ0gyXVxbQ0hdPVtDSF1cW05AQCtdKFtDSDNdKShbQ0gyXTQpW0NASF0zW0NIMl1bQ0BASF01W0NASF0oW0NASF0oW05IMl0pW0NAQF0yKFtDSDJdMSlbT0hdKVtDSDJdW0NIMl1bQ0BIXTZbQ0BdNShbT0hdKVtDSDJdW0NAQEhdKFtDSDJdNilbT0hd

>  <s_epik_cmdline>  (41) 
J2VwaWtfcHl0aG9uJywgJy1waHQnLCAnMi4wJywgJy1waCcsICc3LjAnLCAnLXRuJywgJzgnLCAnLW1hJywgJzIwMCcsICctaW1hZScsICc8aW5maWxlLm1hZT4nLCAnLW9tYWUnLCAnPG91dGZpbGUubWFlPic=

>  <r_epik_Ionization_Penalty>  (41) 
0.0234705

>  <r_epik_Ionization_Penalty_Charging>  (41) 
0.0234634

>  <r_epik_Ionization_Penalty_Neutral>  (41) 
7.08681e-06

>  <r_epik_State_Penalty>  (41) 
0.0189912

>  <r_epik_Charging_Adjusted_Penalty>  (41) 
0.0424546

>  <i_epik_Tot_Q>  (41) 
2

>  <i_epik_Tot_abs_Q>  (41) 
2

>  <s_lp_Force_Field>  (41) 
OPLS3e

>  <r_lp_Energy>  (41) 
92.8222

>  <b_lp_Chiralities_Consistent>  (41) 
1

>  <s_lp_Variant>  (41) 
10:0-1

>  <s_i_glide_gridfile>  (41) 
pfpi4k_grid

>  <i_i_glide_lignum>  (41) 
14

>  <i_i_glide_rotatable_bonds>  (41) 
4

>  <r_i_docking_score>  (41) 
-2.32297

>  <r_i_glide_ligand_efficiency>  (41) 
-0.0801025

>  <r_i_glide_ligand_efficiency_sa>  (41) 
-0.2461

>  <r_i_glide_ligand_efficiency_ln>  (41) 
-0.531902

>  <r_i_glide_gscore>  (41) 
-2.32297

>  <r_i_glide_lipo>  (41) 
-0.588377

>  <r_i_glide_hbond>  (41) 
0

>  <r_i_glide_metal>  (41) 
-0

>  <r_i_glide_rewards>  (41) 
-0.637099

>  <r_i_glide_evdw>  (41) 
-6.02475

>  <r_i_glide_ecoul>  (41) 
-5.19173

>  <r_i_glide_erotb>  (41) 
0

>  <r_i_glide_esite>  (41) 
-0.0175009

>  <r_i_glide_emodel>  (41) 
-10.2677

>  <r_i_glide_energy>  (41) 
-11.2165

>  <r_i_glide_einternal>  (41) 
0.71903

>  <r_i_glide_intrahb_reward>  (41) 
-0

>  <i_i_glide_confnum>  (41) 
2

>  <i_i_glide_posenum>  (41) 
36

>  <r_i_glide_eff_state_penalty>  (41) 
0

>  <ligand_id>  (41) 
10

>  <original_smiles>  (41) 
C[N+]12C=CCCCC3(O)CC4(O)C(N)C5CCC6CC(O)CC6(O)C5CC1C34C2

>  <smiles>  (41) 
[H]OC1([H])C([H])([H])C2([H])C([H])([H])C([H])([H])C3([H])C([H])(C([H])([H])C4([H])C56C(O[H])(C([H])([H])C([H])([H])C([H])([H])C([H])=C([H])[N+]4(C([H])([H])[H])C5([H])[H])C([H])([H])C6(O[H])C3([H])[N+]([H])([H])[H])C2(O[H])C1([H])[H]

$$$$
10:0:2
     RDKit          3D

 67 72  0  0  1  0  0  0  0  0999 V2000
    1.7644   -4.6320   -0.6880 C   0  0  0  0  0  0  0  0  0  0  0  0
    2.7621   -3.5656   -1.0717 N   0  0  1  0  0  0  0  0  0  0  0  0
    2.4040   -3.0415   -2.4127 C   0  0  0  0  0  0  0  0  0  0  0  0
    3.2380   -2.9692   -3.4260 C   0  0  0  0  0  0  0  0  0  0  0  0
    3.1790   -1.7589   -4.3117 C   0  0  0  0  0  0  0  0  0  0  0  0
    4.2647   -0.7818   -3.8984 C   0  0  0  0  0  0  0  0  0  0  0  0
    4.4690   -0.5290   -2.3731 C   0  0  0  0  0  0  0  0  0  0  0  0
    5.2152   -1.5653   -1.4587 C   0  0  1  0  0  0  0  0  0  0  0  0
    6.1278   -2.2568   -2.2737 O   0  0  0  0  0  0  0  0  0  0  0  0
    5.9085   -0.9316   -0.2506 C   0  0  0  0  0  0  0  0  0  0  0  0
    5.5115   -2.0998    0.6573 C   0  0  1  0  0  0  0  0  0  0  0  0
    6.4949   -3.1075    0.8073 O   0  0  0  0  0  0  0  0  0  0  0  0
    5.1092   -1.6437    2.0868 C   0  0  1  0  0  0  0  0  0  0  0  0
    6.2478   -0.9367    2.6691 N   0  0  0  0  0  0  0  0  0  0  0  0
    3.8631   -0.7197    2.2080 C   0  0  2  0  0  0  0  0  0  0  0  0
    3.9169    0.3597    3.3187 C   0  0  0  0  0  0  0  0  0  0  0  0
    3.7552   -0.2263    4.7151 C   0  0  0  0  0  0  0  0  0  0  0  0
    2.3651   -0.8520    4.8699 C   0  0  2  0  0  0  0  0  0  0  0  0
    2.2565   -1.6151    6.2056 C   0  0  0  0  0  0  0  0  0  0  0  0
    2.3507   -3.1130    5.8831 C   0  0  1  0  0  0  0  0  0  0  0  0
    1.1287   -3.7579    6.1868 O   0  0  0  0  0  0  0  0  0  0  0  0
    2.6590   -3.1933    4.3813 C   0  0  0  0  0  0  0  0  0  0  0  0
    2.0915   -1.9024    3.7666 C   0  0  1  0  0  0  0  0  0  0  0  0
    0.6854   -2.0560    3.6758 O   0  0  0  0  0  0  0  0  0  0  0  0
    2.5515   -1.5051    2.3138 C   0  0  2  0  0  0  0  0  0  0  0  0
    2.4916   -2.6885    1.3345 C   0  0  0  0  0  0  0  0  0  0  0  0
    2.9804   -2.3896   -0.1272 C   0  0  1  0  0  0  0  0  0  0  0  0
    4.4822   -2.4913   -0.4249 C   0  0  1  0  0  0  0  0  0  0  0  0
    4.1833   -3.9605   -0.8000 C   0  0  0  0  0  0  0  0  0  0  0  0
    1.9262   -5.0483    0.3076 H   0  0  0  0  0  0  0  0  0  0  0  0
    1.5775   -5.4508   -1.3606 H   0  0  0  0  0  0  0  0  0  0  0  0
    0.8037   -4.1683   -0.7900 H   0  0  0  0  0  0  0  0  0  0  0  0
    1.5641   -2.3630   -2.3505 H   0  0  0  0  0  0  0  0  0  0  0  0
    4.1691   -3.5273   -3.4699 H   0  0  0  0  0  0  0  0  0  0  0  0
    3.4173   -2.0254   -5.3257 H   0  0  0  0  0  0  0  0  0  0  0  0
    2.2045   -1.2793   -4.3101 H   0  0  0  0  0  0  0  0  0  0  0  0
    5.1477   -1.1458   -4.3912 H   0  0  0  0  0  0  0  0  0  0  0  0
    4.0706    0.1755   -4.3768 H   0  0  0  0  0  0  0  0  0  0  0  0
    5.0316    0.3937   -2.3375 H   0  0  0  0  0  0  0  0  0  0  0  0
    3.4972   -0.2543   -1.9883 H   0  0  0  0  0  0  0  0  0  0  0  0
    6.4162   -3.0131   -1.7760 H   0  0  0  0  0  0  0  0  0  0  0  0
    6.9860   -0.8207   -0.3178 H   0  0  0  0  0  0  0  0  0  0  0  0
    5.4487    0.0243    0.0175 H   0  0  0  0  0  0  0  0  0  0  0  0
    7.2368   -2.7433    1.2749 H   0  0  0  0  0  0  0  0  0  0  0  0
    4.9777   -2.5232    2.7115 H   0  0  0  0  0  0  0  0  0  0  0  0
    6.5145   -0.1020    2.1558 H   0  0  0  0  0  0  0  0  0  0  0  0
    7.0373   -1.5712    2.6697 H   0  0  0  0  0  0  0  0  0  0  0  0
    3.8008   -0.1362    1.2943 H   0  0  0  0  0  0  0  0  0  0  0  0
    4.8372    0.9314    3.2800 H   0  0  0  0  0  0  0  0  0  0  0  0
    3.1266    1.0923    3.1470 H   0  0  0  0  0  0  0  0  0  0  0  0
    4.5326   -0.9678    4.9087 H   0  0  0  0  0  0  0  0  0  0  0  0
    3.8885    0.5622    5.4569 H   0  0  0  0  0  0  0  0  0  0  0  0
    1.6307   -0.0417    4.8341 H   0  0  0  0  0  0  0  0  0  0  0  0
    3.0470   -1.3178    6.8980 H   0  0  0  0  0  0  0  0  0  0  0  0
    1.3138   -1.3820    6.6956 H   0  0  0  0  0  0  0  0  0  0  0  0
    3.1365   -3.5945    6.4624 H   0  0  0  0  0  0  0  0  0  0  0  0
    1.2085   -4.6672    5.9514 H   0  0  0  0  0  0  0  0  0  0  0  0
    3.7390   -3.2068    4.2794 H   0  0  0  0  0  0  0  0  0  0  0  0
    2.2791   -4.1017    3.9076 H   0  0  0  0  0  0  0  0  0  0  0  0
    0.3233   -1.2570    3.3234 H   0  0  0  0  0  0  0  0  0  0  0  0
    1.8183   -0.7862    1.9475 H   0  0  0  0  0  0  0  0  0  0  0  0
    3.0026   -3.5564    1.7742 H   0  0  0  0  0  0  0  0  0  0  0  0
    1.4467   -2.9628    1.3439 H   0  0  0  0  0  0  0  0  0  0  0  0
    2.6488   -1.3824   -0.4894 H   0  0  0  0  0  0  0  0  0  0  0  0
    4.2505   -4.6442    0.0592 H   0  0  0  0  0  0  0  0  0  0  0  0
    4.7221   -4.3919   -1.6502 H   0  0  0  0  0  0  0  0  0  0  0  0
    6.0419   -0.6903    3.6318 H   0  0  0  0  0  0  0  0  0  0  0  0
  2  1  1  1
  1 30  1  0
  1 31  1  0
  1 32  1  0
  2 27  1  0
  2 29  1  0
  2  3  1  0
  3  4  2  3
  3 33  1  0
  4  5  1  0
  4 34  1  0
  5  6  1  0
  5 35  1  0
  5 36  1  0
  6  7  1  0
  6 37  1  0
  6 38  1  0
  7  8  1  0
  7 39  1  0
  7 40  1  0
  8 28  1  0
  8  9  1  6
  8 10  1  0
  9 41  1  0
 10 11  1  0
 10 42  1  0
 10 43  1  0
 11 28  1  0
 11 12  1  1
 11 13  1  0
 12 44  1  0
 13 14  1  0
 13 15  1  0
 13 45  1  1
 14 46  1  0
 14 47  1  0
 14 67  1  0
 15 25  1  0
 15 16  1  0
 15 48  1  6
 16 17  1  0
 16 49  1  0
 16 50  1  0
 17 18  1  0
 17 51  1  0
 17 52  1  0
 18 23  1  0
 18 19  1  0
 18 53  1  1
 19 20  1  0
 19 54  1  0
 19 55  1  0
 20 21  1  0
 20 22  1  0
 20 56  1  1
 21 57  1  0
 22 23  1  0
 22 58  1  0
 22 59  1  0
 23 24  1  6
 23 25  1  0
 24 60  1  0
 25 26  1  0
 25 61  1  6
 26 27  1  0
 26 62  1  0
 26 63  1  0
 27 28  1  0
 27 64  1  6
 28 29  1  6
 29 65  1  0
 29 66  1  0
M  CHG  2   2   1  14   1
M  END
>  <i_m_ct_stereo_status>  (42) 
1

>  <s_m_source_file>  (42) 
/var/tmp/pbs.5076255.sched01/tmppv1df_bs/0l6e7d74h.sdf

>  <i_m_source_file_index>  (42) 
14

>  <i_lp_mmshare_version>  (42) 
48012

>  <i_f3d_flags>  (42) 
0

>  <s_epik_input>  (42) 
W09IXVtDQF0xKFtDQEBdMjM0KVtDSDJdW0NIMl1bQ0gyXVxbQ0hdPVtDSF1cW05AQCtdKFtDSDNdKShbQ0gyXTQpW0NASF0zW0NIMl1bQ0BASF01W0NASF0oW0NASF0oW05IMl0pW0NAQF0yKFtDSDJdMSlbT0hdKVtDSDJdW0NIMl1bQ0BIXTZbQ0BdNShbT0hdKVtDSDJdW0NAQEhdKFtDSDJdNilbT0hd

>  <s_epik_cmdline>  (42) 
J2VwaWtfcHl0aG9uJywgJy1waHQnLCAnMi4wJywgJy1waCcsICc3LjAnLCAnLXRuJywgJzgnLCAnLW1hJywgJzIwMCcsICctaW1hZScsICc8aW5maWxlLm1hZT4nLCAnLW9tYWUnLCAnPG91dGZpbGUubWFlPic=

>  <r_epik_Ionization_Penalty>  (42) 
0.0234705

>  <r_epik_Ionization_Penalty_Charging>  (42) 
0.0234634

>  <r_epik_Ionization_Penalty_Neutral>  (42) 
7.08681e-06

>  <r_epik_State_Penalty>  (42) 
0.0189912

>  <r_epik_Charging_Adjusted_Penalty>  (42) 
0.0424546

>  <i_epik_Tot_Q>  (42) 
2

>  <i_epik_Tot_abs_Q>  (42) 
2

>  <s_lp_Force_Field>  (42) 
OPLS3e

>  <r_lp_Energy>  (42) 
92.8222

>  <b_lp_Chiralities_Consistent>  (42) 
1

>  <s_lp_Variant>  (42) 
10:0-1

>  <s_i_glide_gridfile>  (42) 
pfpi4k_grid

>  <i_i_glide_lignum>  (42) 
14

>  <i_i_glide_rotatable_bonds>  (42) 
4

>  <r_i_docking_score>  (42) 
-2.20477

>  <r_i_glide_ligand_efficiency>  (42) 
-0.0760266

>  <r_i_glide_ligand_efficiency_sa>  (42) 
-0.233578

>  <r_i_glide_ligand_efficiency_ln>  (42) 
-0.504836

>  <r_i_glide_gscore>  (42) 
-2.20477

>  <r_i_glide_lipo>  (42) 
-0.557797

>  <r_i_glide_hbond>  (42) 
0

>  <r_i_glide_metal>  (42) 
-0

>  <r_i_glide_rewards>  (42) 
-0.637099

>  <r_i_glide_evdw>  (42) 
-2.75351

>  <r_i_glide_ecoul>  (42) 
-5.81466

>  <r_i_glide_erotb>  (42) 
0

>  <r_i_glide_esite>  (42) 
0

>  <r_i_glide_emodel>  (42) 
-8.94038

>  <r_i_glide_energy>  (42) 
-8.56817

>  <r_i_glide_einternal>  (42) 
1.4136

>  <r_i_glide_intrahb_reward>  (42) 
-0

>  <i_i_glide_confnum>  (42) 
2

>  <i_i_glide_posenum>  (42) 
32

>  <r_i_glide_eff_state_penalty>  (42) 
0

>  <ligand_id>  (42) 
10

>  <original_smiles>  (42) 
C[N+]12C=CCCCC3(O)CC4(O)C(N)C5CCC6CC(O)CC6(O)C5CC1C34C2

>  <smiles>  (42) 
[H]OC1([H])C([H])([H])C2([H])C([H])([H])C([H])([H])C3([H])C([H])(C([H])([H])C4([H])C56C(O[H])(C([H])([H])C([H])([H])C([H])([H])C([H])=C([H])[N+]4(C([H])([H])[H])C5([H])[H])C([H])([H])C6(O[H])C3([H])[N+]([H])([H])[H])C2(O[H])C1([H])[H]

$$$$
10:1:0
     RDKit          3D

 67 72  0  0  1  0  0  0  0  0999 V2000
    2.5031   -5.1802    0.4259 C   0  0  0  0  0  0  0  0  0  0  0  0
    2.9194   -3.9411   -0.3027 N   0  0  1  0  0  0  0  0  0  0  0  0
    1.9852   -3.7487   -1.4721 C   0  0  0  0  0  0  0  0  0  0  0  0
    2.1504   -3.2717   -2.7165 C   0  0  0  0  0  0  0  0  0  0  0  0
    3.3577   -2.8514   -3.5071 C   0  0  0  0  0  0  0  0  0  0  0  0
    3.5470   -1.3436   -3.4674 C   0  0  0  0  0  0  0  0  0  0  0  0
    3.8531   -0.7534   -2.0828 C   0  0  0  0  0  0  0  0  0  0  0  0
    4.8611   -1.4737   -1.1789 C   0  0  1  0  0  0  0  0  0  0  0  0
    5.8971   -1.9217   -2.0119 O   0  0  0  0  0  0  0  0  0  0  0  0
    5.4583   -0.6375   -0.0804 C   0  0  0  0  0  0  0  0  0  0  0  0
    5.5290   -1.8246    0.8696 C   0  0  1  0  0  0  0  0  0  0  0  0
    6.7829   -2.4915    0.8501 O   0  0  0  0  0  0  0  0  0  0  0  0
    5.3414   -1.4475    2.3571 C   0  0  1  0  0  0  0  0  0  0  0  0
    6.5267   -0.6618    2.7288 N   0  0  0  0  0  0  0  0  0  0  0  0
    4.0452   -0.6870    2.7691 C   0  0  2  0  0  0  0  0  0  0  0  0
    4.2461    0.1530    4.0623 C   0  0  0  0  0  0  0  0  0  0  0  0
    2.9433    0.6338    4.7042 C   0  0  0  0  0  0  0  0  0  0  0  0
    2.0119   -0.5196    5.1166 C   0  0  2  0  0  0  0  0  0  0  0  0
    2.1493   -0.9675    6.5828 C   0  0  0  0  0  0  0  0  0  0  0  0
    3.2364   -2.0425    6.5729 C   0  0  1  0  0  0  0  0  0  0  0  0
    3.1130   -2.9739    7.6232 O   0  0  0  0  0  0  0  0  0  0  0  0
    3.1681   -2.7009    5.1838 C   0  0  0  0  0  0  0  0  0  0  0  0
    2.2549   -1.8135    4.3050 C   0  0  1  0  0  0  0  0  0  0  0  0
    0.9945   -2.4524    4.2377 O   0  0  0  0  0  0  0  0  0  0  0  0
    2.7601   -1.5681    2.8454 C   0  0  2  0  0  0  0  0  0  0  0  0
    2.7987   -2.8739    2.0128 C   0  0  0  0  0  0  0  0  0  0  0  0
    3.0299   -2.6902    0.5022 C   0  0  1  0  0  0  0  0  0  0  0  0
    4.4434   -2.4712   -0.0543 C   0  0  1  0  0  0  0  0  0  0  0  0
    4.3873   -3.9436   -0.4581 C   0  0  0  0  0  0  0  0  0  0  0  0
    3.1113   -5.4192    1.3014 H   0  0  0  0  0  0  0  0  0  0  0  0
    2.5842   -6.0274   -0.2569 H   0  0  0  0  0  0  0  0  0  0  0  0
    1.4601   -5.1349    0.7427 H   0  0  0  0  0  0  0  0  0  0  0  0
    0.9777   -4.0475   -1.2252 H   0  0  0  0  0  0  0  0  0  0  0  0
    1.2575   -3.1963   -3.3084 H   0  0  0  0  0  0  0  0  0  0  0  0
    4.2396   -3.4220   -3.2519 H   0  0  0  0  0  0  0  0  0  0  0  0
    3.1392   -3.1378   -4.5385 H   0  0  0  0  0  0  0  0  0  0  0  0
    4.3526   -1.0812   -4.1479 H   0  0  0  0  0  0  0  0  0  0  0  0
    2.6493   -0.8540   -3.8540 H   0  0  0  0  0  0  0  0  0  0  0  0
    4.2291    0.2468   -2.2918 H   0  0  0  0  0  0  0  0  0  0  0  0
    2.9137   -0.6466   -1.5522 H   0  0  0  0  0  0  0  0  0  0  0  0
    5.5590   -2.6612   -2.4902 H   0  0  0  0  0  0  0  0  0  0  0  0
    6.4357   -0.2346   -0.3134 H   0  0  0  0  0  0  0  0  0  0  0  0
    4.7807    0.1597    0.2000 H   0  0  0  0  0  0  0  0  0  0  0  0
    6.6451   -3.3757    1.1379 H   0  0  0  0  0  0  0  0  0  0  0  0
    5.4275   -2.3541    2.9583 H   0  0  0  0  0  0  0  0  0  0  0  0
    6.6445    0.2228    2.2121 H   0  0  0  0  0  0  0  0  0  0  0  0
    7.3168   -1.2041    2.4890 H   0  0  0  0  0  0  0  0  0  0  0  0
    3.8454    0.0623    2.0074 H   0  0  0  0  0  0  0  0  0  0  0  0
    4.8567   -0.3689    4.8065 H   0  0  0  0  0  0  0  0  0  0  0  0
    4.8067    1.0523    3.8155 H   0  0  0  0  0  0  0  0  0  0  0  0
    3.1821    1.2380    5.5766 H   0  0  0  0  0  0  0  0  0  0  0  0
    2.4206    1.3059    4.0145 H   0  0  0  0  0  0  0  0  0  0  0  0
    0.9989   -0.1476    4.9734 H   0  0  0  0  0  0  0  0  0  0  0  0
    2.3636   -0.1529    7.2753 H   0  0  0  0  0  0  0  0  0  0  0  0
    1.2036   -1.4072    6.9015 H   0  0  0  0  0  0  0  0  0  0  0  0
    4.2018   -1.5483    6.6931 H   0  0  0  0  0  0  0  0  0  0  0  0
    2.3023   -3.4598    7.5165 H   0  0  0  0  0  0  0  0  0  0  0  0
    4.1779   -2.7394    4.7886 H   0  0  0  0  0  0  0  0  0  0  0  0
    2.8180   -3.7367    5.2089 H   0  0  0  0  0  0  0  0  0  0  0  0
    0.4252   -1.9234    3.6954 H   0  0  0  0  0  0  0  0  0  0  0  0
    1.9967   -0.9477    2.3785 H   0  0  0  0  0  0  0  0  0  0  0  0
    3.5440   -3.5490    2.4334 H   0  0  0  0  0  0  0  0  0  0  0  0
    1.8385   -3.3725    2.1480 H   0  0  0  0  0  0  0  0  0  0  0  0
    2.3614   -1.9357    0.1052 H   0  0  0  0  0  0  0  0  0  0  0  0
    4.8913   -4.5635    0.2805 H   0  0  0  0  0  0  0  0  0  0  0  0
    4.7338   -4.2287   -1.4473 H   0  0  0  0  0  0  0  0  0  0  0  0
    6.5098   -0.4688    3.7148 H   0  0  0  0  0  0  0  0  0  0  0  0
  2  1  1  1
  1 30  1  0
  1 31  1  0
  1 32  1  0
  2 27  1  0
  2 29  1  0
  2  3  1  0
  3  4  2  3
  3 33  1  0
  4  5  1  0
  4 34  1  0
  5  6  1  0
  5 35  1  0
  5 36  1  0
  6  7  1  0
  6 37  1  0
  6 38  1  0
  7  8  1  0
  7 39  1  0
  7 40  1  0
  8 28  1  0
  8  9  1  6
  8 10  1  0
  9 41  1  0
 10 11  1  0
 10 42  1  0
 10 43  1  0
 11 28  1  0
 11 12  1  1
 11 13  1  0
 12 44  1  0
 13 14  1  0
 13 15  1  0
 13 45  1  1
 14 46  1  0
 14 47  1  0
 14 67  1  0
 15 25  1  0
 15 16  1  0
 15 48  1  6
 16 17  1  0
 16 49  1  0
 16 50  1  0
 17 18  1  0
 17 51  1  0
 17 52  1  0
 18 23  1  0
 18 19  1  0
 18 53  1  1
 19 20  1  0
 19 54  1  0
 19 55  1  0
 20 21  1  0
 20 22  1  0
 20 56  1  1
 21 57  1  0
 22 23  1  0
 22 58  1  0
 22 59  1  0
 23 24  1  6
 23 25  1  0
 24 60  1  0
 25 26  1  0
 25 61  1  6
 26 27  1  0
 26 62  1  0
 26 63  1  0
 27 28  1  0
 27 64  1  6
 28 29  1  6
 29 65  1  0
 29 66  1  0
M  CHG  2   2   1  14   1
M  END
>  <i_m_ct_stereo_status>  (43) 
1

>  <s_m_source_file>  (43) 
/var/tmp/pbs.5076255.sched01/tmppv1df_bs/0l6e7d74h.sdf

>  <i_m_source_file_index>  (43) 
15

>  <i_lp_mmshare_version>  (43) 
48012

>  <i_f3d_flags>  (43) 
0

>  <s_epik_input>  (43) 
W09IXVtDQF0xKFtDQEBdMjM0KVtDSDJdW0NIMl1bQ0gyXVxbQ0hdPVtDSF1cW05AQCtdKFtDSDNdKShbQ0gyXTQpW0NASF0zW0NIMl1bQ0BASF01W0NASF0oW0NASF0oW05IMl0pW0NAQF0yKFtDSDJdMSlbT0hdKVtDSDJdW0NIMl1bQ0BIXTZbQ0BdNShbT0hdKVtDSDJdW0NAQEhdKFtDSDJdNilbT0hd

>  <s_epik_cmdline>  (43) 
J2VwaWtfcHl0aG9uJywgJy1waHQnLCAnMi4wJywgJy1waCcsICc3LjAnLCAnLXRuJywgJzgnLCAnLW1hJywgJzIwMCcsICctaW1hZScsICc8aW5maWxlLm1hZT4nLCAnLW9tYWUnLCAnPG91dGZpbGUubWFlPic=

>  <r_epik_Ionization_Penalty>  (43) 
0.0234705

>  <r_epik_Ionization_Penalty_Charging>  (43) 
0.0234634

>  <r_epik_Ionization_Penalty_Neutral>  (43) 
7.08681e-06

>  <r_epik_State_Penalty>  (43) 
0.0189912

>  <r_epik_Charging_Adjusted_Penalty>  (43) 
0.0424546

>  <i_epik_Tot_Q>  (43) 
2

>  <i_epik_Tot_abs_Q>  (43) 
2

>  <s_lp_Force_Field>  (43) 
OPLS3e

>  <r_lp_Energy>  (43) 
89.6562

>  <b_lp_Chiralities_Consistent>  (43) 
1

>  <s_lp_Variant>  (43) 
10:0-2

>  <s_i_glide_gridfile>  (43) 
pfpi4k_grid

>  <i_i_glide_lignum>  (43) 
15

>  <i_i_glide_rotatable_bonds>  (43) 
4

>  <r_i_docking_score>  (43) 
-3.51597

>  <r_i_glide_ligand_efficiency>  (43) 
-0.12124

>  <r_i_glide_ligand_efficiency_sa>  (43) 
-0.372489

>  <r_i_glide_ligand_efficiency_ln>  (43) 
-0.805068

>  <r_i_glide_gscore>  (43) 
-3.51597

>  <r_i_glide_lipo>  (43) 
-0.856481

>  <r_i_glide_hbond>  (43) 
0

>  <r_i_glide_metal>  (43) 
-0

>  <r_i_glide_rewards>  (43) 
-0.637099

>  <r_i_glide_evdw>  (43) 
-15.2171

>  <r_i_glide_ecoul>  (43) 
-8.23189

>  <r_i_glide_erotb>  (43) 
0

>  <r_i_glide_esite>  (43) 
-0.0267504

>  <r_i_glide_emodel>  (43) 
-26.8921

>  <r_i_glide_energy>  (43) 
-23.449

>  <r_i_glide_einternal>  (43) 
1.4058

>  <r_i_glide_intrahb_reward>  (43) 
-0

>  <i_i_glide_confnum>  (43) 
2

>  <i_i_glide_posenum>  (43) 
1

>  <r_i_glide_eff_state_penalty>  (43) 
0

>  <ligand_id>  (43) 
10

>  <original_smiles>  (43) 
C[N+]12C=CCCCC3(O)CC4(O)C(N)C5CCC6CC(O)CC6(O)C5CC1C34C2

>  <smiles>  (43) 
[H]OC1([H])C([H])([H])C2([H])C([H])([H])C([H])([H])C3([H])C([H])(C([H])([H])C4([H])C56C(O[H])(C([H])([H])C([H])([H])C([H])([H])C([H])=C([H])[N+]4(C([H])([H])[H])C5([H])[H])C([H])([H])C6(O[H])C3([H])[N+]([H])([H])[H])C2(O[H])C1([H])[H]

$$$$
10:1:1
     RDKit          3D

 67 72  0  0  1  0  0  0  0  0999 V2000
    2.6330   -5.2122    0.4054 C   0  0  0  0  0  0  0  0  0  0  0  0
    3.0154   -3.9372   -0.2911 N   0  0  1  0  0  0  0  0  0  0  0  0
    2.0775   -3.7332   -1.4590 C   0  0  0  0  0  0  0  0  0  0  0  0
    2.2427   -3.2465   -2.7201 C   0  0  0  0  0  0  0  0  0  0  0  0
    3.4545   -2.7836   -3.4740 C   0  0  0  0  0  0  0  0  0  0  0  0
    3.6224   -1.2755   -3.4040 C   0  0  0  0  0  0  0  0  0  0  0  0
    3.9186   -0.7221   -2.0108 C   0  0  0  0  0  0  0  0  0  0  0  0
    4.9264   -1.4162   -1.0990 C   0  0  1  0  0  0  0  0  0  0  0  0
    5.9843   -1.8524   -1.9256 O   0  0  0  0  0  0  0  0  0  0  0  0
    5.4789   -0.5937    0.0328 C   0  0  0  0  0  0  0  0  0  0  0  0
    5.5533   -1.8221    0.9564 C   0  0  1  0  0  0  0  0  0  0  0  0
    6.7594   -2.5752    0.9094 O   0  0  0  0  0  0  0  0  0  0  0  0
    5.3374   -1.4963    2.4468 C   0  0  1  0  0  0  0  0  0  0  0  0
    6.4770   -0.6579    2.8673 N   0  0  0  0  0  0  0  0  0  0  0  0
    4.0306   -0.7469    2.8569 C   0  0  2  0  0  0  0  0  0  0  0  0
    4.1948    0.0719    4.1685 C   0  0  0  0  0  0  0  0  0  0  0  0
    2.8740    0.5048    4.7994 C   0  0  0  0  0  0  0  0  0  0  0  0
    1.9710   -0.6756    5.1872 C   0  0  2  0  0  0  0  0  0  0  0  0
    2.1165   -1.1500    6.6408 C   0  0  0  0  0  0  0  0  0  0  0  0
    3.2329   -2.1954    6.6186 C   0  0  1  0  0  0  0  0  0  0  0  0
    3.1155   -3.1511    7.6470 O   0  0  0  0  0  0  0  0  0  0  0  0
    3.1875   -2.8294    5.2195 C   0  0  0  0  0  0  0  0  0  0  0  0
    2.2548   -1.9466    4.3576 C   0  0  1  0  0  0  0  0  0  0  0  0
    1.0149   -2.6177    4.2616 O   0  0  0  0  0  0  0  0  0  0  0  0
    2.7628   -1.6568    2.9085 C   0  0  2  0  0  0  0  0  0  0  0  0
    2.8468   -2.9419    2.0478 C   0  0  0  0  0  0  0  0  0  0  0  0
    3.0785   -2.7048    0.5408 C   0  0  1  0  0  0  0  0  0  0  0  0
    4.5003   -2.4341   -0.0005 C   0  0  1  0  0  0  0  0  0  0  0  0
    4.4835   -3.8996   -0.4272 C   0  0  0  0  0  0  0  0  0  0  0  0
    3.2526   -5.4468    1.2850 H   0  0  0  0  0  0  0  0  0  0  0  0
    2.7580   -6.0265   -0.3159 H   0  0  0  0  0  0  0  0  0  0  0  0
    1.5806   -5.1862    0.7105 H   0  0  0  0  0  0  0  0  0  0  0  0
    1.0841   -4.0611   -1.2347 H   0  0  0  0  0  0  0  0  0  0  0  0
    1.3599   -3.2104   -3.3296 H   0  0  0  0  0  0  0  0  0  0  0  0
    4.3519   -3.3288   -3.2191 H   0  0  0  0  0  0  0  0  0  0  0  0
    3.2553   -3.0520   -4.5125 H   0  0  0  0  0  0  0  0  0  0  0  0
    4.4181   -0.9759   -4.0817 H   0  0  0  0  0  0  0  0  0  0  0  0
    2.7121   -0.7980   -3.7721 H   0  0  0  0  0  0  0  0  0  0  0  0
    4.2689    0.2893   -2.2030 H   0  0  0  0  0  0  0  0  0  0  0  0
    2.9688   -0.6756   -1.4911 H   0  0  0  0  0  0  0  0  0  0  0  0
    5.7462   -2.7016   -2.2253 H   0  0  0  0  0  0  0  0  0  0  0  0
    6.4404   -0.1642   -0.2004 H   0  0  0  0  0  0  0  0  0  0  0  0
    4.7643    0.1922    0.3085 H   0  0  0  0  0  0  0  0  0  0  0  0
    7.4637   -2.0001    1.1426 H   0  0  0  0  0  0  0  0  0  0  0  0
    5.4256   -2.4074    3.0207 H   0  0  0  0  0  0  0  0  0  0  0  0
    6.5277    0.2057    2.3514 H   0  0  0  0  0  0  0  0  0  0  0  0
    7.3396   -1.1674    2.6995 H   0  0  0  0  0  0  0  0  0  0  0  0
    3.8200    0.0256    2.1153 H   0  0  0  0  0  0  0  0  0  0  0  0
    4.8087   -0.4453    4.9086 H   0  0  0  0  0  0  0  0  0  0  0  0
    4.7269    0.9940    3.9521 H   0  0  0  0  0  0  0  0  0  0  0  0
    3.0907    1.0939    5.6867 H   0  0  0  0  0  0  0  0  0  0  0  0
    2.3437    1.1779    4.1218 H   0  0  0  0  0  0  0  0  0  0  0  0
    0.9479   -0.3310    5.0429 H   0  0  0  0  0  0  0  0  0  0  0  0
    2.2881   -0.3450    7.3545 H   0  0  0  0  0  0  0  0  0  0  0  0
    1.1846   -1.6277    6.9352 H   0  0  0  0  0  0  0  0  0  0  0  0
    4.1815   -1.6795    6.7540 H   0  0  0  0  0  0  0  0  0  0  0  0
    2.3227   -3.6474    7.5010 H   0  0  0  0  0  0  0  0  0  0  0  0
    4.2003   -2.8358    4.8262 H   0  0  0  0  0  0  0  0  0  0  0  0
    2.8602   -3.8718    5.2162 H   0  0  0  0  0  0  0  0  0  0  0  0
    0.4401   -2.0855    3.7315 H   0  0  0  0  0  0  0  0  0  0  0  0
    1.9936   -1.0464    2.4337 H   0  0  0  0  0  0  0  0  0  0  0  0
    3.6053   -3.6112    2.4587 H   0  0  0  0  0  0  0  0  0  0  0  0
    1.9025   -3.4677    2.1631 H   0  0  0  0  0  0  0  0  0  0  0  0
    2.4088   -1.9397    0.1552 H   0  0  0  0  0  0  0  0  0  0  0  0
    5.0040   -4.5185    0.3069 H   0  0  0  0  0  0  0  0  0  0  0  0
    4.8449   -4.1574   -1.4218 H   0  0  0  0  0  0  0  0  0  0  0  0
    6.3997   -0.4815    3.8575 H   0  0  0  0  0  0  0  0  0  0  0  0
  2  1  1  1
  1 30  1  0
  1 31  1  0
  1 32  1  0
  2 27  1  0
  2 29  1  0
  2  3  1  0
  3  4  2  3
  3 33  1  0
  4  5  1  0
  4 34  1  0
  5  6  1  0
  5 35  1  0
  5 36  1  0
  6  7  1  0
  6 37  1  0
  6 38  1  0
  7  8  1  0
  7 39  1  0
  7 40  1  0
  8 28  1  0
  8  9  1  6
  8 10  1  0
  9 41  1  0
 10 11  1  0
 10 42  1  0
 10 43  1  0
 11 28  1  0
 11 12  1  1
 11 13  1  0
 12 44  1  0
 13 14  1  0
 13 15  1  0
 13 45  1  1
 14 46  1  0
 14 47  1  0
 14 67  1  0
 15 25  1  0
 15 16  1  0
 15 48  1  6
 16 17  1  0
 16 49  1  0
 16 50  1  0
 17 18  1  0
 17 51  1  0
 17 52  1  0
 18 23  1  0
 18 19  1  0
 18 53  1  1
 19 20  1  0
 19 54  1  0
 19 55  1  0
 20 21  1  0
 20 22  1  0
 20 56  1  1
 21 57  1  0
 22 23  1  0
 22 58  1  0
 22 59  1  0
 23 24  1  6
 23 25  1  0
 24 60  1  0
 25 26  1  0
 25 61  1  6
 26 27  1  0
 26 62  1  0
 26 63  1  0
 27 28  1  0
 27 64  1  6
 28 29  1  6
 29 65  1  0
 29 66  1  0
M  CHG  2   2   1  14   1
M  END
>  <i_m_ct_stereo_status>  (44) 
1

>  <s_m_source_file>  (44) 
/var/tmp/pbs.5076255.sched01/tmppv1df_bs/0l6e7d74h.sdf

>  <i_m_source_file_index>  (44) 
15

>  <i_lp_mmshare_version>  (44) 
48012

>  <i_f3d_flags>  (44) 
0

>  <s_epik_input>  (44) 
W09IXVtDQF0xKFtDQEBdMjM0KVtDSDJdW0NIMl1bQ0gyXVxbQ0hdPVtDSF1cW05AQCtdKFtDSDNdKShbQ0gyXTQpW0NASF0zW0NIMl1bQ0BASF01W0NASF0oW0NASF0oW05IMl0pW0NAQF0yKFtDSDJdMSlbT0hdKVtDSDJdW0NIMl1bQ0BIXTZbQ0BdNShbT0hdKVtDSDJdW0NAQEhdKFtDSDJdNilbT0hd

>  <s_epik_cmdline>  (44) 
J2VwaWtfcHl0aG9uJywgJy1waHQnLCAnMi4wJywgJy1waCcsICc3LjAnLCAnLXRuJywgJzgnLCAnLW1hJywgJzIwMCcsICctaW1hZScsICc8aW5maWxlLm1hZT4nLCAnLW9tYWUnLCAnPG91dGZpbGUubWFlPic=

>  <r_epik_Ionization_Penalty>  (44) 
0.0234705

>  <r_epik_Ionization_Penalty_Charging>  (44) 
0.0234634

>  <r_epik_Ionization_Penalty_Neutral>  (44) 
7.08681e-06

>  <r_epik_State_Penalty>  (44) 
0.0189912

>  <r_epik_Charging_Adjusted_Penalty>  (44) 
0.0424546

>  <i_epik_Tot_Q>  (44) 
2

>  <i_epik_Tot_abs_Q>  (44) 
2

>  <s_lp_Force_Field>  (44) 
OPLS3e

>  <r_lp_Energy>  (44) 
89.6562

>  <b_lp_Chiralities_Consistent>  (44) 
1

>  <s_lp_Variant>  (44) 
10:0-2

>  <s_i_glide_gridfile>  (44) 
pfpi4k_grid

>  <i_i_glide_lignum>  (44) 
15

>  <i_i_glide_rotatable_bonds>  (44) 
4

>  <r_i_docking_score>  (44) 
-3.44796

>  <r_i_glide_ligand_efficiency>  (44) 
-0.118895

>  <r_i_glide_ligand_efficiency_sa>  (44) 
-0.365284

>  <r_i_glide_ligand_efficiency_ln>  (44) 
-0.789496

>  <r_i_glide_gscore>  (44) 
-3.44796

>  <r_i_glide_lipo>  (44) 
-0.810046

>  <r_i_glide_hbond>  (44) 
0

>  <r_i_glide_metal>  (44) 
-0

>  <r_i_glide_rewards>  (44) 
-0.637099

>  <r_i_glide_evdw>  (44) 
-16.3849

>  <r_i_glide_ecoul>  (44) 
-7.73341

>  <r_i_glide_erotb>  (44) 
0

>  <r_i_glide_esite>  (44) 
-0.0215617

>  <r_i_glide_emodel>  (44) 
-27.2948

>  <r_i_glide_energy>  (44) 
-24.1183

>  <r_i_glide_einternal>  (44) 
1.72727

>  <r_i_glide_intrahb_reward>  (44) 
-0

>  <i_i_glide_confnum>  (44) 
2

>  <i_i_glide_posenum>  (44) 
15

>  <r_i_glide_eff_state_penalty>  (44) 
0

>  <ligand_id>  (44) 
10

>  <original_smiles>  (44) 
C[N+]12C=CCCCC3(O)CC4(O)C(N)C5CCC6CC(O)CC6(O)C5CC1C34C2

>  <smiles>  (44) 
[H]OC1([H])C([H])([H])C2([H])C([H])([H])C([H])([H])C3([H])C([H])(C([H])([H])C4([H])C56C(O[H])(C([H])([H])C([H])([H])C([H])([H])C([H])=C([H])[N+]4(C([H])([H])[H])C5([H])[H])C([H])([H])C6(O[H])C3([H])[N+]([H])([H])[H])C2(O[H])C1([H])[H]

$$$$
10:1:2
     RDKit          3D

 67 72  0  0  1  0  0  0  0  0999 V2000
    2.5407   -5.0762    0.5547 C   0  0  0  0  0  0  0  0  0  0  0  0
    3.0139   -3.8488   -0.1575 N   0  0  1  0  0  0  0  0  0  0  0  0
    2.2122   -3.7367   -1.4422 C   0  0  0  0  0  0  0  0  0  0  0  0
    2.5138   -3.3416   -2.6950 C   0  0  0  0  0  0  0  0  0  0  0  0
    3.8086   -2.9120   -3.3358 C   0  0  0  0  0  0  0  0  0  0  0  0
    3.9773   -1.3939   -3.3394 C   0  0  0  0  0  0  0  0  0  0  0  0
    4.0650   -0.7401   -1.9563 C   0  0  0  0  0  0  0  0  0  0  0  0
    5.0097   -1.3726   -0.9210 C   0  0  1  0  0  0  0  0  0  0  0  0
    6.1536   -1.8517   -1.6083 O   0  0  0  0  0  0  0  0  0  0  0  0
    5.4486   -0.4543    0.2077 C   0  0  0  0  0  0  0  0  0  0  0  0
    5.4217   -1.6083    1.2119 C   0  0  1  0  0  0  0  0  0  0  0  0
    6.6558   -2.2746    1.3254 O   0  0  0  0  0  0  0  0  0  0  0  0
    5.0586   -1.1809    2.6721 C   0  0  1  0  0  0  0  0  0  0  0  0
    6.1673   -0.3506    3.1811 N   0  0  0  0  0  0  0  0  0  0  0  0
    3.6847   -0.4481    2.8807 C   0  0  2  0  0  0  0  0  0  0  0  0
    3.6882    0.4682    4.1384 C   0  0  0  0  0  0  0  0  0  0  0  0
    2.2970    0.9268    4.5902 C   0  0  0  0  0  0  0  0  0  0  0  0
    1.3406   -0.2318    4.9297 C   0  0  2  0  0  0  0  0  0  0  0  0
    1.3072   -0.6088    6.4176 C   0  0  0  0  0  0  0  0  0  0  0  0
    2.4118   -1.6454    6.5961 C   0  0  1  0  0  0  0  0  0  0  0  0
    2.1285   -2.5457    7.6462 O   0  0  0  0  0  0  0  0  0  0  0  0
    2.5408   -2.3689    5.2474 C   0  0  0  0  0  0  0  0  0  0  0  0
    1.7211   -1.5517    4.2209 C   0  0  1  0  0  0  0  0  0  0  0  0
    0.4948   -2.2345    4.0229 O   0  0  0  0  0  0  0  0  0  0  0  0
    2.4136   -1.3574    2.8300 C   0  0  2  0  0  0  0  0  0  0  0  0
    2.5926   -2.6957    2.0723 C   0  0  0  0  0  0  0  0  0  0  0  0
    3.0030   -2.5629    0.5915 C   0  0  1  0  0  0  0  0  0  0  0  0
    4.4701   -2.3209    0.2004 C   0  0  1  0  0  0  0  0  0  0  0  0
    4.4892   -3.8215   -0.1305 C   0  0  0  0  0  0  0  0  0  0  0  0
    3.0388   -5.2568    1.5169 H   0  0  0  0  0  0  0  0  0  0  0  0
    2.7373   -5.9560   -0.0703 H   0  0  0  0  0  0  0  0  0  0  0  0
    1.4608   -5.0502    0.7386 H   0  0  0  0  0  0  0  0  0  0  0  0
    1.1914   -4.0446   -1.2946 H   0  0  0  0  0  0  0  0  0  0  0  0
    1.6981   -3.3744   -3.4075 H   0  0  0  0  0  0  0  0  0  0  0  0
    4.6660   -3.4376   -2.9344 H   0  0  0  0  0  0  0  0  0  0  0  0
    3.7617   -3.2509   -4.3719 H   0  0  0  0  0  0  0  0  0  0  0  0
    4.8646   -1.1430   -3.9166 H   0  0  0  0  0  0  0  0  0  0  0  0
    3.1370   -0.9416   -3.8684 H   0  0  0  0  0  0  0  0  0  0  0  0
    4.3730    0.2856   -2.1485 H   0  0  0  0  0  0  0  0  0  0  0  0
    3.0582   -0.6761   -1.5428 H   0  0  0  0  0  0  0  0  0  0  0  0
    5.8981   -2.6246   -2.0930 H   0  0  0  0  0  0  0  0  0  0  0  0
    6.4451   -0.0344    0.0746 H   0  0  0  0  0  0  0  0  0  0  0  0
    4.7177    0.3334    0.3806 H   0  0  0  0  0  0  0  0  0  0  0  0
    6.4884   -3.1446    1.6659 H   0  0  0  0  0  0  0  0  0  0  0  0
    5.0635   -2.0649    3.3098 H   0  0  0  0  0  0  0  0  0  0  0  0
    6.2973    0.5001    2.6593 H   0  0  0  0  0  0  0  0  0  0  0  0
    7.0217   -0.8783    3.0715 H   0  0  0  0  0  0  0  0  0  0  0  0
    3.5572    0.2599    2.0672 H   0  0  0  0  0  0  0  0  0  0  0  0
    4.1942   -0.0086    4.9759 H   0  0  0  0  0  0  0  0  0  0  0  0
    4.2581    1.3714    3.9223 H   0  0  0  0  0  0  0  0  0  0  0  0
    2.3998    1.5838    5.4513 H   0  0  0  0  0  0  0  0  0  0  0  0
    1.8542    1.5465    3.8089 H   0  0  0  0  0  0  0  0  0  0  0  0
    0.3438    0.1037    4.6376 H   0  0  0  0  0  0  0  0  0  0  0  0
    1.4036    0.2382    7.0946 H   0  0  0  0  0  0  0  0  0  0  0  0
    0.3446   -1.0691    6.6341 H   0  0  0  0  0  0  0  0  0  0  0  0
    3.3411   -1.1248    6.8259 H   0  0  0  0  0  0  0  0  0  0  0  0
    2.8949   -3.0689    7.8044 H   0  0  0  0  0  0  0  0  0  0  0  0
    3.5947   -2.4071    4.9796 H   0  0  0  0  0  0  0  0  0  0  0  0
    2.1998   -3.4052    5.2844 H   0  0  0  0  0  0  0  0  0  0  0  0
    0.0090   -1.7737    3.3591 H   0  0  0  0  0  0  0  0  0  0  0  0
    1.6966   -0.7829    2.2380 H   0  0  0  0  0  0  0  0  0  0  0  0
    3.2866   -3.3332    2.6214 H   0  0  0  0  0  0  0  0  0  0  0  0
    1.6392   -3.2152    2.1111 H   0  0  0  0  0  0  0  0  0  0  0  0
    2.3712   -1.8443    0.0917 H   0  0  0  0  0  0  0  0  0  0  0  0
    4.9111   -4.3958    0.6989 H   0  0  0  0  0  0  0  0  0  0  0  0
    4.9734   -4.1417   -1.0486 H   0  0  0  0  0  0  0  0  0  0  0  0
    6.0235   -0.1328    4.1565 H   0  0  0  0  0  0  0  0  0  0  0  0
  2  1  1  1
  1 30  1  0
  1 31  1  0
  1 32  1  0
  2 27  1  0
  2 29  1  0
  2  3  1  0
  3  4  2  3
  3 33  1  0
  4  5  1  0
  4 34  1  0
  5  6  1  0
  5 35  1  0
  5 36  1  0
  6  7  1  0
  6 37  1  0
  6 38  1  0
  7  8  1  0
  7 39  1  0
  7 40  1  0
  8 28  1  0
  8  9  1  6
  8 10  1  0
  9 41  1  0
 10 11  1  0
 10 42  1  0
 10 43  1  0
 11 28  1  0
 11 12  1  1
 11 13  1  0
 12 44  1  0
 13 14  1  0
 13 15  1  0
 13 45  1  1
 14 46  1  0
 14 47  1  0
 14 67  1  0
 15 25  1  0
 15 16  1  0
 15 48  1  6
 16 17  1  0
 16 49  1  0
 16 50  1  0
 17 18  1  0
 17 51  1  0
 17 52  1  0
 18 23  1  0
 18 19  1  0
 18 53  1  6
 19 20  1  0
 19 54  1  0
 19 55  1  0
 20 21  1  0
 20 22  1  0
 20 56  1  1
 21 57  1  0
 22 23  1  0
 22 58  1  0
 22 59  1  0
 23 24  1  6
 23 25  1  0
 24 60  1  0
 25 26  1  0
 25 61  1  6
 26 27  1  0
 26 62  1  0
 26 63  1  0
 27 28  1  0
 27 64  1  6
 28 29  1  6
 29 65  1  0
 29 66  1  0
M  CHG  2   2   1  14   1
M  END
>  <i_m_ct_stereo_status>  (45) 
1

>  <s_m_source_file>  (45) 
/var/tmp/pbs.5076255.sched01/tmppv1df_bs/0l6e7d74h.sdf

>  <i_m_source_file_index>  (45) 
15

>  <i_lp_mmshare_version>  (45) 
48012

>  <i_f3d_flags>  (45) 
0

>  <s_epik_input>  (45) 
W09IXVtDQF0xKFtDQEBdMjM0KVtDSDJdW0NIMl1bQ0gyXVxbQ0hdPVtDSF1cW05AQCtdKFtDSDNdKShbQ0gyXTQpW0NASF0zW0NIMl1bQ0BASF01W0NASF0oW0NASF0oW05IMl0pW0NAQF0yKFtDSDJdMSlbT0hdKVtDSDJdW0NIMl1bQ0BIXTZbQ0BdNShbT0hdKVtDSDJdW0NAQEhdKFtDSDJdNilbT0hd

>  <s_epik_cmdline>  (45) 
J2VwaWtfcHl0aG9uJywgJy1waHQnLCAnMi4wJywgJy1waCcsICc3LjAnLCAnLXRuJywgJzgnLCAnLW1hJywgJzIwMCcsICctaW1hZScsICc8aW5maWxlLm1hZT4nLCAnLW9tYWUnLCAnPG91dGZpbGUubWFlPic=

>  <r_epik_Ionization_Penalty>  (45) 
0.0234705

>  <r_epik_Ionization_Penalty_Charging>  (45) 
0.0234634

>  <r_epik_Ionization_Penalty_Neutral>  (45) 
7.08681e-06

>  <r_epik_State_Penalty>  (45) 
0.0189912

>  <r_epik_Charging_Adjusted_Penalty>  (45) 
0.0424546

>  <i_epik_Tot_Q>  (45) 
2

>  <i_epik_Tot_abs_Q>  (45) 
2

>  <s_lp_Force_Field>  (45) 
OPLS3e

>  <r_lp_Energy>  (45) 
89.6562

>  <b_lp_Chiralities_Consistent>  (45) 
1

>  <s_lp_Variant>  (45) 
10:0-2

>  <s_i_glide_gridfile>  (45) 
pfpi4k_grid

>  <i_i_glide_lignum>  (45) 
15

>  <i_i_glide_rotatable_bonds>  (45) 
4

>  <r_i_docking_score>  (45) 
-3.36033

>  <r_i_glide_ligand_efficiency>  (45) 
-0.115873

>  <r_i_glide_ligand_efficiency_sa>  (45) 
-0.356

>  <r_i_glide_ligand_efficiency_ln>  (45) 
-0.769431

>  <r_i_glide_gscore>  (45) 
-3.36033

>  <r_i_glide_lipo>  (45) 
-0.752525

>  <r_i_glide_hbond>  (45) 
0

>  <r_i_glide_metal>  (45) 
-0

>  <r_i_glide_rewards>  (45) 
-0.637099

>  <r_i_glide_evdw>  (45) 
-16.2352

>  <r_i_glide_ecoul>  (45) 
-7.6112

>  <r_i_glide_erotb>  (45) 
0

>  <r_i_glide_esite>  (45) 
-0.0172675

>  <r_i_glide_emodel>  (45) 
-27.0513

>  <r_i_glide_energy>  (45) 
-23.8464

>  <r_i_glide_einternal>  (45) 
1.77176

>  <r_i_glide_intrahb_reward>  (45) 
-0

>  <i_i_glide_confnum>  (45) 
2

>  <i_i_glide_posenum>  (45) 
24

>  <r_i_glide_eff_state_penalty>  (45) 
0

>  <ligand_id>  (45) 
10

>  <original_smiles>  (45) 
C[N+]12C=CCCCC3(O)CC4(O)C(N)C5CCC6CC(O)CC6(O)C5CC1C34C2

>  <smiles>  (45) 
[H]OC1([H])C([H])([H])C2([H])C([H])([H])C([H])([H])C3([H])C([H])(C([H])([H])C4([H])C56C(O[H])(C([H])([H])C([H])([H])C([H])([H])C([H])=C([H])[N+]4(C([H])([H])[H])C5([H])[H])C([H])([H])C6(O[H])C3([H])[N+]([H])([H])[H])C2(O[H])C1([H])[H]

$$$$
10:2:0
     RDKit          3D

 66 71  0  0  1  0  0  0  0  0999 V2000
    1.0903   -6.4828    0.8757 C   0  0  0  0  0  0  0  0  0  0  0  0
    2.3512   -6.5352    1.6819 N   0  0  1  0  0  0  0  0  0  0  0  0
    2.6652   -7.9516    2.0055 C   0  0  0  0  0  0  0  0  0  0  0  0
    2.8028   -8.3913    3.2520 C   0  0  0  0  0  0  0  0  0  0  0  0
    3.8140   -9.4591    3.5393 C   0  0  0  0  0  0  0  0  0  0  0  0
    5.1015   -8.7736    4.0465 C   0  0  0  0  0  0  0  0  0  0  0  0
    5.5747   -7.4897    3.2919 C   0  0  0  0  0  0  0  0  0  0  0  0
    4.8697   -6.1241    3.5815 C   0  0  1  0  0  0  0  0  0  0  0  0
    4.3401   -6.2084    4.8901 O   0  0  0  0  0  0  0  0  0  0  0  0
    5.7926   -4.9170    3.4671 C   0  0  0  0  0  0  0  0  0  0  0  0
    4.6963   -4.0695    2.8168 C   0  0  1  0  0  0  0  0  0  0  0  0
    4.0588   -3.1943    3.7315 O   0  0  0  0  0  0  0  0  0  0  0  0
    5.1589   -3.1344    1.6577 C   0  0  1  0  0  0  0  0  0  0  0  0
    6.1094   -2.1361    2.1600 N   0  0  0  0  0  0  0  0  0  0  0  0
    5.7344   -3.9135    0.4343 C   0  0  2  0  0  0  0  0  0  0  0  0
    6.9390   -3.2453   -0.2604 C   0  0  0  0  0  0  0  0  0  0  0  0
    6.5223   -2.0333   -1.0508 C   0  0  0  0  0  0  0  0  0  0  0  0
    5.5948   -2.4383   -2.2050 C   0  0  2  0  0  0  0  0  0  0  0  0
    4.9901   -1.2340   -2.9402 C   0  0  0  0  0  0  0  0  0  0  0  0
    3.6161   -1.0285   -2.4541 C   0  0  1  0  0  0  0  0  0  0  0  0
    2.6781   -1.2395   -3.4677 O   0  0  0  0  0  0  0  0  0  0  0  0
    3.4025   -2.0486   -1.3300 C   0  0  0  0  0  0  0  0  0  0  0  0
    4.3727   -3.1893   -1.6844 C   0  0  1  0  0  0  0  0  0  0  0  0
    3.9382   -3.8436   -2.8604 O   0  0  0  0  0  0  0  0  0  0  0  0
    4.6430   -4.2883   -0.6020 C   0  0  2  0  0  0  0  0  0  0  0  0
    3.3522   -4.8192    0.0627 C   0  0  0  0  0  0  0  0  0  0  0  0
    3.5940   -5.8762    1.1478 C   0  0  1  0  0  0  0  0  0  0  0  0
    3.9206   -5.3942    2.5681 C   0  0  1  0  0  0  0  0  0  0  0  0
    2.4062   -5.5007    2.7690 C   0  0  0  0  0  0  0  0  0  0  0  0
    0.8923   -5.4782    0.5346 H   0  0  0  0  0  0  0  0  0  0  0  0
    0.2753   -6.8230    1.4800 H   0  0  0  0  0  0  0  0  0  0  0  0
    1.1455   -7.0860    0.0141 H   0  0  0  0  0  0  0  0  0  0  0  0
    3.0941   -8.4857    1.1768 H   0  0  0  0  0  0  0  0  0  0  0  0
    2.5106   -7.8223    4.1228 H   0  0  0  0  0  0  0  0  0  0  0  0
    3.4181  -10.1756    4.2709 H   0  0  0  0  0  0  0  0  0  0  0  0
    4.0111  -10.0166    2.6137 H   0  0  0  0  0  0  0  0  0  0  0  0
    5.0002   -8.5828    5.1151 H   0  0  0  0  0  0  0  0  0  0  0  0
    5.8919   -9.5026    3.9530 H   0  0  0  0  0  0  0  0  0  0  0  0
    6.6149   -7.3632    3.5783 H   0  0  0  0  0  0  0  0  0  0  0  0
    5.6055   -7.6837    2.2247 H   0  0  0  0  0  0  0  0  0  0  0  0
    4.0775   -5.3251    5.1083 H   0  0  0  0  0  0  0  0  0  0  0  0
    6.0783   -4.5220    4.4376 H   0  0  0  0  0  0  0  0  0  0  0  0
    6.6552   -5.1121    2.8337 H   0  0  0  0  0  0  0  0  0  0  0  0
    3.3805   -2.7544    3.2428 H   0  0  0  0  0  0  0  0  0  0  0  0
    4.2937   -2.5688    1.3062 H   0  0  0  0  0  0  0  0  0  0  0  0
    5.7280   -1.6897    2.9887 H   0  0  0  0  0  0  0  0  0  0  0  0
    6.9451   -2.6227    2.4756 H   0  0  0  0  0  0  0  0  0  0  0  0
    6.1576   -4.8516    0.7968 H   0  0  0  0  0  0  0  0  0  0  0  0
    7.7490   -2.9854    0.4273 H   0  0  0  0  0  0  0  0  0  0  0  0
    7.4056   -3.9157   -0.9778 H   0  0  0  0  0  0  0  0  0  0  0  0
    6.0807   -1.2582   -0.4187 H   0  0  0  0  0  0  0  0  0  0  0  0
    7.4531   -1.7095   -1.4737 H   0  0  0  0  0  0  0  0  0  0  0  0
    6.1734   -3.0157   -2.9396 H   0  0  0  0  0  0  0  0  0  0  0  0
    5.4997   -0.3272   -2.6259 H   0  0  0  0  0  0  0  0  0  0  0  0
    5.0569   -1.2895   -4.0218 H   0  0  0  0  0  0  0  0  0  0  0  0
    3.6676    0.0187   -2.1736 H   0  0  0  0  0  0  0  0  0  0  0  0
    1.8357   -1.1043   -3.0630 H   0  0  0  0  0  0  0  0  0  0  0  0
    3.6778   -1.5611   -0.3879 H   0  0  0  0  0  0  0  0  0  0  0  0
    2.3780   -2.4238   -1.2236 H   0  0  0  0  0  0  0  0  0  0  0  0
    3.3659   -4.5755   -2.6326 H   0  0  0  0  0  0  0  0  0  0  0  0
    5.1004   -5.1100   -1.1534 H   0  0  0  0  0  0  0  0  0  0  0  0
    2.7837   -3.9758    0.4784 H   0  0  0  0  0  0  0  0  0  0  0  0
    2.7043   -5.2331   -0.7303 H   0  0  0  0  0  0  0  0  0  0  0  0
    4.3254   -6.6074    0.8160 H   0  0  0  0  0  0  0  0  0  0  0  0
    1.9010   -4.5766    2.4865 H   0  0  0  0  0  0  0  0  0  0  0  0
    2.0380   -5.8171    3.7463 H   0  0  0  0  0  0  0  0  0  0  0  0
  2  1  1  6
  1 30  1  0
  1 31  1  0
  1 32  1  0
  2 27  1  0
  2 29  1  0
  2  3  1  0
  3  4  2  3
  3 33  1  0
  4  5  1  0
  4 34  1  0
  5  6  1  0
  5 35  1  0
  5 36  1  0
  6  7  1  0
  6 37  1  0
  6 38  1  0
  7  8  1  0
  7 39  1  0
  7 40  1  0
  8 28  1  0
  8  9  1  1
  8 10  1  0
  9 41  1  0
 10 11  1  0
 10 42  1  0
 10 43  1  0
 11 28  1  0
 11 12  1  1
 11 13  1  0
 12 44  1  0
 13 14  1  0
 13 15  1  0
 13 45  1  6
 14 46  1  0
 14 47  1  0
 15 25  1  0
 15 16  1  0
 15 48  1  1
 16 17  1  0
 16 49  1  0
 16 50  1  0
 17 18  1  0
 17 51  1  0
 17 52  1  0
 18 23  1  0
 18 19  1  0
 18 53  1  6
 19 20  1  0
 19 54  1  0
 19 55  1  0
 20 21  1  0
 20 22  1  0
 20 56  1  1
 21 57  1  0
 22 23  1  0
 22 58  1  0
 22 59  1  0
 23 24  1  6
 23 25  1  0
 24 60  1  0
 25 26  1  0
 25 61  1  6
 26 27  1  0
 26 62  1  0
 26 63  1  0
 27 28  1  0
 27 64  1  6
 28 29  1  1
 29 65  1  0
 29 66  1  0
M  CHG  1   2   1
M  END
>  <i_m_ct_stereo_status>  (46) 
1

>  <s_m_source_file>  (46) 
/var/tmp/pbs.5076255.sched01/tmppv1df_bs/0l6e7d74h.sdf

>  <i_m_source_file_index>  (46) 
16

>  <i_lp_mmshare_version>  (46) 
48012

>  <i_f3d_flags>  (46) 
0

>  <s_epik_input>  (46) 
W09IXVtDQF0xKFtDQEBdMjM0KVtDSDJdW0NIMl1bQ0gyXVxbQ0hdPVtDSF1cW05AQCtdKFtDSDNdKShbQ0gyXTQpW0NASF0zW0NIMl1bQ0BASF01W0NASF0oW0NASF0oW05IMl0pW0NAQF0yKFtDSDJdMSlbT0hdKVtDSDJdW0NIMl1bQ0BIXTZbQ0BdNShbT0hdKVtDSDJdW0NAQEhdKFtDSDJdNilbT0hd

>  <s_epik_cmdline>  (46) 
J2VwaWtfcHl0aG9uJywgJy1waHQnLCAnMi4wJywgJy1waCcsICc3LjAnLCAnLXRuJywgJzgnLCAnLW1hJywgJzIwMCcsICctaW1hZScsICc8aW5maWxlLm1hZT4nLCAnLW9tYWUnLCAnPG91dGZpbGUubWFlPic=

>  <r_epik_Ionization_Penalty>  (46) 
1.92477

>  <r_epik_Ionization_Penalty_Charging>  (46) 
0

>  <r_epik_Ionization_Penalty_Neutral>  (46) 
1.92477

>  <r_epik_State_Penalty>  (46) 
2.04783

>  <r_epik_Charging_Adjusted_Penalty>  (46) 
2.04783

>  <i_epik_Tot_Q>  (46) 
1

>  <i_epik_Tot_abs_Q>  (46) 
1

>  <s_lp_Force_Field>  (46) 
OPLS3e

>  <r_lp_Energy>  (46) 
86.6157

>  <b_lp_Chiralities_Consistent>  (46) 
1

>  <s_lp_Variant>  (46) 
10:0-3

>  <s_i_glide_gridfile>  (46) 
pfpi4k_grid

>  <i_i_glide_lignum>  (46) 
16

>  <i_i_glide_rotatable_bonds>  (46) 
4

>  <r_i_docking_score>  (46) 
-2.12739

>  <r_i_glide_ligand_efficiency>  (46) 
-0.0733584

>  <r_i_glide_ligand_efficiency_sa>  (46) 
-0.22538

>  <r_i_glide_ligand_efficiency_ln>  (46) 
-0.487119

>  <r_i_glide_gscore>  (46) 
-2.12739

>  <r_i_glide_lipo>  (46) 
-0.294681

>  <r_i_glide_hbond>  (46) 
0

>  <r_i_glide_metal>  (46) 
-0

>  <r_i_glide_rewards>  (46) 
-0.643971

>  <r_i_glide_evdw>  (46) 
-5.94086

>  <r_i_glide_ecoul>  (46) 
-5.86239

>  <r_i_glide_erotb>  (46) 
0

>  <r_i_glide_esite>  (46) 
-0.0123394

>  <r_i_glide_emodel>  (46) 
-10.9473

>  <r_i_glide_energy>  (46) 
-11.8033

>  <r_i_glide_einternal>  (46) 
1.60526

>  <r_i_glide_intrahb_reward>  (46) 
-0

>  <i_i_glide_confnum>  (46) 
1

>  <i_i_glide_posenum>  (46) 
1

>  <r_i_glide_eff_state_penalty>  (46) 
0

>  <ligand_id>  (46) 
10

>  <original_smiles>  (46) 
C[N+]12C=CCCCC3(O)CC4(O)C(N)C5CCC6CC(O)CC6(O)C5CC1C34C2

>  <smiles>  (46) 
[H]OC1([H])C([H])([H])C2([H])C([H])([H])C([H])([H])C3([H])C([H])(N([H])[H])C4(O[H])C([H])([H])C5(O[H])C([H])([H])C([H])([H])C([H])([H])C([H])=C([H])[N+]6(C([H])([H])[H])C([H])([H])C54C6([H])C([H])([H])C3([H])C2(O[H])C1([H])[H]

$$$$
11:0:0
     RDKit          3D

 42 44  0  0  1  0  0  0  0  0999 V2000
   -2.2030    3.3112    7.4719 C   0  0  0  0  0  0  0  0  0  0  0  0
   -0.7670    3.7744    7.7833 C   0  0  0  0  0  0  0  0  0  0  0  0
   -0.7558    4.0862    9.3043 C   0  0  0  0  0  0  0  0  0  0  0  0
    0.2696    2.6288    7.6094 C   0  0  0  0  0  0  0  0  0  0  0  0
   -0.4343    4.9823    6.9734 N   0  0  0  0  0  0  0  0  0  0  0  0
   -0.5164    6.1966    7.5860 N   0  0  0  0  0  0  0  0  0  0  0  0
   -0.1875    7.1032    6.7224 N   0  0  0  0  0  0  0  0  0  0  0  0
    0.0405    6.5422    5.4958 N   0  0  0  0  0  0  0  0  0  0  0  0
   -0.1325    5.2404    5.6770 C   0  0  0  0  0  0  0  0  0  0  0  0
    0.0357    4.2123    4.5687 C   0  0  2  0  0  0  0  0  0  0  0  0
    1.4472    4.3296    3.9195 C   0  0  0  0  0  0  0  0  0  0  0  0
    2.0631    3.0031    3.6147 C   0  0  0  0  0  0  0  0  0  0  0  0
    2.9417    2.2521    4.3641 C   0  0  0  0  0  0  0  0  0  0  0  0
    3.2628    1.0838    3.5984 C   0  0  0  0  0  0  0  0  0  0  0  0
    4.0895    0.0615    3.8623 N   0  0  0  0  0  0  0  0  0  0  0  0
    4.1539   -0.8635    2.8975 C   0  0  0  0  0  0  0  0  0  0  0  0
    3.5182   -0.8825    1.7267 N   0  0  0  0  0  0  0  0  0  0  0  0
    2.6859    0.1360    1.4466 C   0  0  0  0  0  0  0  0  0  0  0  0
    2.5252    1.1609    2.3851 C   0  0  0  0  0  0  0  0  0  0  0  0
    1.8014    2.3346    2.4324 N   0  0  0  0  0  0  0  0  0  0  0  0
   -1.1367    4.1558    3.5563 C   0  0  0  0  0  0  0  0  0  0  0  0
   -1.3127    5.3498    2.8550 O   0  0  0  0  0  0  0  0  0  0  0  0
   -2.3395    3.7415    4.1467 O   0  0  0  0  0  0  0  0  0  0  0  0
    1.2226    2.7277    1.6931 H   0  0  0  0  0  0  0  0  0  0  0  0
   -2.4919    2.4559    8.0875 H   0  0  0  0  0  0  0  0  0  0  0  0
   -2.2860    2.9934    6.4403 H   0  0  0  0  0  0  0  0  0  0  0  0
   -2.9332    4.1095    7.6566 H   0  0  0  0  0  0  0  0  0  0  0  0
   -1.5073    4.8218    9.6114 H   0  0  0  0  0  0  0  0  0  0  0  0
    0.2236    4.4335    9.6457 H   0  0  0  0  0  0  0  0  0  0  0  0
   -0.9838    3.1785    9.8669 H   0  0  0  0  0  0  0  0  0  0  0  0
    0.1392    1.8802    8.4016 H   0  0  0  0  0  0  0  0  0  0  0  0
    1.2761    3.0495    7.7074 H   0  0  0  0  0  0  0  0  0  0  0  0
    0.1952    2.0803    6.6596 H   0  0  0  0  0  0  0  0  0  0  0  0
   -0.0100    3.2204    5.0207 H   0  0  0  0  0  0  0  0  0  0  0  0
    1.4172    4.9438    3.0153 H   0  0  0  0  0  0  0  0  0  0  0  0
    2.1305    4.8417    4.6004 H   0  0  0  0  0  0  0  0  0  0  0  0
    3.3705    2.4767    5.3303 H   0  0  0  0  0  0  0  0  0  0  0  0
    4.7922   -1.7126    3.0755 H   0  0  0  0  0  0  0  0  0  0  0  0
    2.1885    0.1385    0.4902 H   0  0  0  0  0  0  0  0  0  0  0  0
   -0.8772    3.3917    2.8166 H   0  0  0  0  0  0  0  0  0  0  0  0
   -0.7504    5.2936    2.0956 H   0  0  0  0  0  0  0  0  0  0  0  0
   -2.7657    3.1813    3.5132 H   0  0  0  0  0  0  0  0  0  0  0  0
  1  2  1  0
  1 25  1  0
  1 26  1  0
  1 27  1  0
  2  3  1  0
  2  4  1  0
  2  5  1  0
  3 28  1  0
  3 29  1  0
  3 30  1  0
  4 31  1  0
  4 32  1  0
  4 33  1  0
  5  9  1  0
  5  6  1  0
  6  7  2  0
  7  8  1  0
  8  9  2  0
  9 10  1  0
 10 11  1  0
 10 21  1  0
 10 34  1  1
 11 12  1  0
 11 35  1  0
 11 36  1  0
 12 20  1  0
 12 13  2  0
 13 14  1  0
 13 37  1  0
 14 19  2  0
 14 15  1  0
 15 16  2  0
 16 17  1  0
 16 38  1  0
 17 18  2  0
 18 19  1  0
 18 39  1  0
 19 20  1  0
 20 24  1  0
 21 22  1  0
 21 23  1  0
 21 40  1  0
 22 41  1  0
 23 42  1  0
M  END
>  <i_m_ct_stereo_status>  (47) 
1

>  <s_m_source_file>  (47) 
/var/tmp/pbs.5076255.sched01/tmppv1df_bs/0l6e7d74h.sdf

>  <i_m_source_file_index>  (47) 
18

>  <i_lp_mmshare_version>  (47) 
48012

>  <i_f3d_flags>  (47) 
0

>  <s_epik_input>  (47) 
W0NIM11DKFtDSDNdKShbQ0gzXSluMW5ubmMxW0NAQEhdKFtDSF0oW09IXSlbT0hdKVtDSDJdYyhbY0hdMilbbkhdYyhjMjMpW2NIXW5bY0hdbjM=

>  <s_epik_cmdline>  (47) 
J2VwaWtfcHl0aG9uJywgJy1waHQnLCAnMi4wJywgJy1waCcsICc3LjAnLCAnLXRuJywgJzgnLCAnLW1hJywgJzIwMCcsICctaW1hZScsICc8aW5maWxlLm1hZT4nLCAnLW9tYWUnLCAnPG91dGZpbGUubWFlPic=

>  <r_lp_tautomer_probability>  (47) 
1

>  <r_epik_Ionization_Penalty>  (47) 
3.89223e-06

>  <r_epik_Ionization_Penalty_Charging>  (47) 
0

>  <r_epik_Ionization_Penalty_Neutral>  (47) 
3.89223e-06

>  <r_epik_State_Penalty>  (47) 
-0

>  <r_epik_Charging_Adjusted_Penalty>  (47) 
0

>  <i_epik_Tot_Q>  (47) 
0

>  <i_epik_Tot_abs_Q>  (47) 
0

>  <s_epik_Chemistry_Notes>  (47) 
This compound contains an acetal/aminal-like group ( X-CH(R)-Y where X, Y are N, S, or O) that may be acid/base labile, releasing an aldehyde.

>  <s_lp_Force_Field>  (47) 
OPLS3e

>  <r_lp_Energy>  (47) 
14.5422

>  <b_lp_Chiralities_Consistent>  (47) 
1

>  <s_lp_Variant>  (47) 
11:0-1

>  <s_i_glide_gridfile>  (47) 
pfpi4k_grid

>  <i_i_glide_lignum>  (47) 
18

>  <i_i_glide_rotatable_bonds>  (47) 
7

>  <r_i_docking_score>  (47) 
-3.70951

>  <r_i_glide_ligand_efficiency>  (47) 
-0.161283

>  <r_i_glide_ligand_efficiency_sa>  (47) 
-0.458667

>  <r_i_glide_ligand_efficiency_ln>  (47) 
-0.896992

>  <r_i_glide_gscore>  (47) 
-3.70951

>  <r_i_glide_lipo>  (47) 
-0.096971

>  <r_i_glide_hbond>  (47) 
-0.103853

>  <r_i_glide_metal>  (47) 
-0

>  <r_i_glide_rewards>  (47) 
-1.28128

>  <r_i_glide_evdw>  (47) 
-17.374

>  <r_i_glide_ecoul>  (47) 
-12.1644

>  <r_i_glide_erotb>  (47) 
0.739939

>  <r_i_glide_esite>  (47) 
-0.273984

>  <r_i_glide_emodel>  (47) 
-35.1736

>  <r_i_glide_energy>  (47) 
-29.5384

>  <r_i_glide_einternal>  (47) 
5.6855

>  <r_i_glide_intrahb_reward>  (47) 
-0

>  <i_i_glide_confnum>  (47) 
1

>  <i_i_glide_posenum>  (47) 
26

>  <r_i_glide_eff_state_penalty>  (47) 
0

>  <ligand_id>  (47) 
11

>  <original_smiles>  (47) 
CC(C)(C)n1nnnc1C(Cc1cc2ncncc2[nH]1)C(O)O

>  <smiles>  (47) 
[H]OC([H])(O[H])C([H])(c1nnnn1C(C([H])([H])[H])(C([H])([H])[H])C([H])([H])[H])C([H])([H])c1c([H])c2nc([H])nc([H])c2n1[H]

$$$$
11:0:1
     RDKit          3D

 42 44  0  0  1  0  0  0  0  0999 V2000
   -2.4534    2.5975    7.1906 C   0  0  0  0  0  0  0  0  0  0  0  0
   -1.0769    3.0758    7.6912 C   0  0  0  0  0  0  0  0  0  0  0  0
   -1.2438    3.3791    9.2090 C   0  0  0  0  0  0  0  0  0  0  0  0
   -0.0078    1.9596    7.5943 C   0  0  0  0  0  0  0  0  0  0  0  0
   -0.6563    4.2739    6.9251 N   0  0  0  0  0  0  0  0  0  0  0  0
   -0.5713    5.4726    7.5559 N   0  0  0  0  0  0  0  0  0  0  0  0
   -0.1825    6.3501    6.6851 N   0  0  0  0  0  0  0  0  0  0  0  0
   -0.0234    5.7862    5.4516 N   0  0  0  0  0  0  0  0  0  0  0  0
   -0.3348    4.5051    5.6234 C   0  0  0  0  0  0  0  0  0  0  0  0
   -0.2885    3.4810    4.5112 C   0  0  2  0  0  0  0  0  0  0  0  0
    1.1357    3.3642    3.9080 C   0  0  0  0  0  0  0  0  0  0  0  0
    1.4762    2.0331    3.3035 C   0  0  0  0  0  0  0  0  0  0  0  0
    0.8536    0.8081    3.4258 C   0  0  0  0  0  0  0  0  0  0  0  0
    1.6244   -0.1389    2.6724 C   0  0  0  0  0  0  0  0  0  0  0  0
    1.4473   -1.4516    2.4788 N   0  0  0  0  0  0  0  0  0  0  0  0
    2.3818   -2.0258    1.7094 C   0  0  0  0  0  0  0  0  0  0  0  0
    3.4527   -1.4732    1.1400 N   0  0  0  0  0  0  0  0  0  0  0  0
    3.6402   -0.1541    1.3255 C   0  0  0  0  0  0  0  0  0  0  0  0
    2.7270    0.5589    2.1108 C   0  0  0  0  0  0  0  0  0  0  0  0
    2.6088    1.8676    2.5174 N   0  0  0  0  0  0  0  0  0  0  0  0
   -1.3811    3.6575    3.4269 C   0  0  0  0  0  0  0  0  0  0  0  0
   -1.3828    4.9515    2.8825 O   0  0  0  0  0  0  0  0  0  0  0  0
   -2.6459    3.2882    3.9195 O   0  0  0  0  0  0  0  0  0  0  0  0
    3.2691    2.6038    2.3059 H   0  0  0  0  0  0  0  0  0  0  0  0
   -2.8162    1.7414    7.7605 H   0  0  0  0  0  0  0  0  0  0  0  0
   -2.4049    2.2835    6.1543 H   0  0  0  0  0  0  0  0  0  0  0  0
   -3.1976    3.3945    7.2729 H   0  0  0  0  0  0  0  0  0  0  0  0
   -2.0132    4.1295    9.4043 H   0  0  0  0  0  0  0  0  0  0  0  0
   -0.3132    3.7215    9.6654 H   0  0  0  0  0  0  0  0  0  0  0  0
   -1.5450    2.4818    9.7518 H   0  0  0  0  0  0  0  0  0  0  0  0
   -0.2439    1.1340    8.2668 H   0  0  0  0  0  0  0  0  0  0  0  0
    0.9735    2.3498    7.8736 H   0  0  0  0  0  0  0  0  0  0  0  0
    0.0909    1.5113    6.6098 H   0  0  0  0  0  0  0  0  0  0  0  0
   -0.5096    2.5321    4.9745 H   0  0  0  0  0  0  0  0  0  0  0  0
    1.2768    4.1536    3.1657 H   0  0  0  0  0  0  0  0  0  0  0  0
    1.8738    3.5580    4.6895 H   0  0  0  0  0  0  0  0  0  0  0  0
   -0.0374    0.5515    3.9722 H   0  0  0  0  0  0  0  0  0  0  0  0
    2.2504   -3.0780    1.5211 H   0  0  0  0  0  0  0  0  0  0  0  0
    4.5017    0.3066    0.8612 H   0  0  0  0  0  0  0  0  0  0  0  0
   -1.1639    2.9582    2.6184 H   0  0  0  0  0  0  0  0  0  0  0  0
   -0.7761    4.9337    2.1326 H   0  0  0  0  0  0  0  0  0  0  0  0
   -3.0728    2.7714    3.2514 H   0  0  0  0  0  0  0  0  0  0  0  0
  1  2  1  0
  1 25  1  0
  1 26  1  0
  1 27  1  0
  2  3  1  0
  2  4  1  0
  2  5  1  0
  3 28  1  0
  3 29  1  0
  3 30  1  0
  4 31  1  0
  4 32  1  0
  4 33  1  0
  5  9  1  0
  5  6  1  0
  6  7  2  0
  7  8  1  0
  8  9  2  0
  9 10  1  0
 10 11  1  0
 10 21  1  0
 10 34  1  1
 11 12  1  0
 11 35  1  0
 11 36  1  0
 12 20  1  0
 12 13  2  0
 13 14  1  0
 13 37  1  0
 14 19  2  0
 14 15  1  0
 15 16  2  0
 16 17  1  0
 16 38  1  0
 17 18  2  0
 18 19  1  0
 18 39  1  0
 19 20  1  0
 20 24  1  0
 21 22  1  0
 21 23  1  0
 21 40  1  0
 22 41  1  0
 23 42  1  0
M  END
>  <i_m_ct_stereo_status>  (48) 
1

>  <s_m_source_file>  (48) 
/var/tmp/pbs.5076255.sched01/tmppv1df_bs/0l6e7d74h.sdf

>  <i_m_source_file_index>  (48) 
18

>  <i_lp_mmshare_version>  (48) 
48012

>  <i_f3d_flags>  (48) 
0

>  <s_epik_input>  (48) 
W0NIM11DKFtDSDNdKShbQ0gzXSluMW5ubmMxW0NAQEhdKFtDSF0oW09IXSlbT0hdKVtDSDJdYyhbY0hdMilbbkhdYyhjMjMpW2NIXW5bY0hdbjM=

>  <s_epik_cmdline>  (48) 
J2VwaWtfcHl0aG9uJywgJy1waHQnLCAnMi4wJywgJy1waCcsICc3LjAnLCAnLXRuJywgJzgnLCAnLW1hJywgJzIwMCcsICctaW1hZScsICc8aW5maWxlLm1hZT4nLCAnLW9tYWUnLCAnPG91dGZpbGUubWFlPic=

>  <r_lp_tautomer_probability>  (48) 
1

>  <r_epik_Ionization_Penalty>  (48) 
3.89223e-06

>  <r_epik_Ionization_Penalty_Charging>  (48) 
0

>  <r_epik_Ionization_Penalty_Neutral>  (48) 
3.89223e-06

>  <r_epik_State_Penalty>  (48) 
-0

>  <r_epik_Charging_Adjusted_Penalty>  (48) 
0

>  <i_epik_Tot_Q>  (48) 
0

>  <i_epik_Tot_abs_Q>  (48) 
0

>  <s_epik_Chemistry_Notes>  (48) 
This compound contains an acetal/aminal-like group ( X-CH(R)-Y where X, Y are N, S, or O) that may be acid/base labile, releasing an aldehyde.

>  <s_lp_Force_Field>  (48) 
OPLS3e

>  <r_lp_Energy>  (48) 
14.5422

>  <b_lp_Chiralities_Consistent>  (48) 
1

>  <s_lp_Variant>  (48) 
11:0-1

>  <s_i_glide_gridfile>  (48) 
pfpi4k_grid

>  <i_i_glide_lignum>  (48) 
18

>  <i_i_glide_rotatable_bonds>  (48) 
7

>  <r_i_docking_score>  (48) 
-3.63691

>  <r_i_glide_ligand_efficiency>  (48) 
-0.158126

>  <r_i_glide_ligand_efficiency_sa>  (48) 
-0.44969

>  <r_i_glide_ligand_efficiency_ln>  (48) 
-0.879437

>  <r_i_glide_gscore>  (48) 
-3.63691

>  <r_i_glide_lipo>  (48) 
-0.169275

>  <r_i_glide_hbond>  (48) 
-0.128731

>  <r_i_glide_metal>  (48) 
-0

>  <r_i_glide_rewards>  (48) 
-1.24537

>  <r_i_glide_evdw>  (48) 
-21.0409

>  <r_i_glide_ecoul>  (48) 
-10.3536

>  <r_i_glide_erotb>  (48) 
0.739939

>  <r_i_glide_esite>  (48) 
-0.228392

>  <r_i_glide_emodel>  (48) 
-37.8506

>  <r_i_glide_energy>  (48) 
-31.3945

>  <r_i_glide_einternal>  (48) 
4.0026

>  <r_i_glide_intrahb_reward>  (48) 
-0

>  <i_i_glide_confnum>  (48) 
4

>  <i_i_glide_posenum>  (48) 
4

>  <r_i_glide_eff_state_penalty>  (48) 
0

>  <ligand_id>  (48) 
11

>  <original_smiles>  (48) 
CC(C)(C)n1nnnc1C(Cc1cc2ncncc2[nH]1)C(O)O

>  <smiles>  (48) 
[H]OC([H])(O[H])C([H])(c1nnnn1C(C([H])([H])[H])(C([H])([H])[H])C([H])([H])[H])C([H])([H])c1c([H])c2nc([H])nc([H])c2n1[H]

$$$$
11:0:2
     RDKit          3D

 42 44  0  0  1  0  0  0  0  0999 V2000
    0.2144    3.4531    8.9735 C   0  0  0  0  0  0  0  0  0  0  0  0
   -0.8567    3.5141    7.8630 C   0  0  0  0  0  0  0  0  0  0  0  0
   -0.9051    2.1177    7.2449 C   0  0  0  0  0  0  0  0  0  0  0  0
   -2.2445    3.7516    8.4937 C   0  0  0  0  0  0  0  0  0  0  0  0
   -0.5412    4.6268    6.9249 N   0  0  0  0  0  0  0  0  0  0  0  0
   -0.4877    5.8623    7.4793 N   0  0  0  0  0  0  0  0  0  0  0  0
   -0.1519    6.7020    6.5607 N   0  0  0  0  0  0  0  0  0  0  0  0
   -0.0125    6.0716    5.3559 N   0  0  0  0  0  0  0  0  0  0  0  0
   -0.2512    4.7910    5.6089 C   0  0  0  0  0  0  0  0  0  0  0  0
   -0.1732    3.6938    4.5548 C   0  0  2  0  0  0  0  0  0  0  0  0
    1.2309    3.5939    3.9190 C   0  0  0  0  0  0  0  0  0  0  0  0
    1.5237    2.2421    3.3372 C   0  0  0  0  0  0  0  0  0  0  0  0
    0.9066    1.0065    3.5049 C   0  0  0  0  0  0  0  0  0  0  0  0
    1.6293    0.0537    2.7137 C   0  0  0  0  0  0  0  0  0  0  0  0
    1.4381   -1.2536    2.5242 N   0  0  0  0  0  0  0  0  0  0  0  0
    2.3462   -1.8287    1.7202 C   0  0  0  0  0  0  0  0  0  0  0  0
    3.4008   -1.2798    1.1163 N   0  0  0  0  0  0  0  0  0  0  0  0
    3.5915    0.0379    1.2894 C   0  0  0  0  0  0  0  0  0  0  0  0
    2.7138    0.7496    2.1062 C   0  0  0  0  0  0  0  0  0  0  0  0
    2.6034    2.0582    2.5158 N   0  0  0  0  0  0  0  0  0  0  0  0
   -1.3311    3.7256    3.5272 C   0  0  0  0  0  0  0  0  0  0  0  0
   -1.4382    4.9616    2.8810 O   0  0  0  0  0  0  0  0  0  0  0  0
   -2.5473    3.3650    4.1574 O   0  0  0  0  0  0  0  0  0  0  0  0
    3.2797    2.7886    2.2865 H   0  0  0  0  0  0  0  0  0  0  0  0
    0.0372    2.6023    9.6352 H   0  0  0  0  0  0  0  0  0  0  0  0
    0.2277    4.3472    9.6023 H   0  0  0  0  0  0  0  0  0  0  0  0
    1.2114    3.3256    8.5531 H   0  0  0  0  0  0  0  0  0  0  0  0
    0.0833    1.8754    6.8418 H   0  0  0  0  0  0  0  0  0  0  0  0
   -1.6595    2.1039    6.4514 H   0  0  0  0  0  0  0  0  0  0  0  0
   -1.1657    1.3519    7.9775 H   0  0  0  0  0  0  0  0  0  0  0  0
   -2.5754    2.8704    9.0537 H   0  0  0  0  0  0  0  0  0  0  0  0
   -2.9892    3.9345    7.7217 H   0  0  0  0  0  0  0  0  0  0  0  0
   -2.2563    4.5986    9.1868 H   0  0  0  0  0  0  0  0  0  0  0  0
   -0.2794    2.7507    5.0489 H   0  0  0  0  0  0  0  0  0  0  0  0
    1.4139    4.3862    3.1804 H   0  0  0  0  0  0  0  0  0  0  0  0
    1.9474    3.7427    4.7261 H   0  0  0  0  0  0  0  0  0  0  0  0
    0.0438    0.7313    4.0913 H   0  0  0  0  0  0  0  0  0  0  0  0
    2.2108   -2.8802    1.5327 H   0  0  0  0  0  0  0  0  0  0  0  0
    4.4278    0.5056    0.7849 H   0  0  0  0  0  0  0  0  0  0  0  0
   -1.1464    2.9618    2.7779 H   0  0  0  0  0  0  0  0  0  0  0  0
   -0.8139    4.9147    2.1352 H   0  0  0  0  0  0  0  0  0  0  0  0
   -3.0486    2.8656    3.5330 H   0  0  0  0  0  0  0  0  0  0  0  0
  1  2  1  0
  1 25  1  0
  1 26  1  0
  1 27  1  0
  2  3  1  0
  2  4  1  0
  2  5  1  0
  3 28  1  0
  3 29  1  0
  3 30  1  0
  4 31  1  0
  4 32  1  0
  4 33  1  0
  5  9  1  0
  5  6  1  0
  6  7  2  0
  7  8  1  0
  8  9  2  0
  9 10  1  0
 10 11  1  0
 10 21  1  0
 10 34  1  1
 11 12  1  0
 11 35  1  0
 11 36  1  0
 12 20  1  0
 12 13  2  0
 13 14  1  0
 13 37  1  0
 14 19  2  0
 14 15  1  0
 15 16  2  0
 16 17  1  0
 16 38  1  0
 17 18  2  0
 18 19  1  0
 18 39  1  0
 19 20  1  0
 20 24  1  0
 21 22  1  0
 21 23  1  0
 21 40  1  0
 22 41  1  0
 23 42  1  0
M  END
>  <i_m_ct_stereo_status>  (49) 
1

>  <s_m_source_file>  (49) 
/var/tmp/pbs.5076255.sched01/tmppv1df_bs/0l6e7d74h.sdf

>  <i_m_source_file_index>  (49) 
18

>  <i_lp_mmshare_version>  (49) 
48012

>  <i_f3d_flags>  (49) 
0

>  <s_epik_input>  (49) 
W0NIM11DKFtDSDNdKShbQ0gzXSluMW5ubmMxW0NAQEhdKFtDSF0oW09IXSlbT0hdKVtDSDJdYyhbY0hdMilbbkhdYyhjMjMpW2NIXW5bY0hdbjM=

>  <s_epik_cmdline>  (49) 
J2VwaWtfcHl0aG9uJywgJy1waHQnLCAnMi4wJywgJy1waCcsICc3LjAnLCAnLXRuJywgJzgnLCAnLW1hJywgJzIwMCcsICctaW1hZScsICc8aW5maWxlLm1hZT4nLCAnLW9tYWUnLCAnPG91dGZpbGUubWFlPic=

>  <r_lp_tautomer_probability>  (49) 
1

>  <r_epik_Ionization_Penalty>  (49) 
3.89223e-06

>  <r_epik_Ionization_Penalty_Charging>  (49) 
0

>  <r_epik_Ionization_Penalty_Neutral>  (49) 
3.89223e-06

>  <r_epik_State_Penalty>  (49) 
-0

>  <r_epik_Charging_Adjusted_Penalty>  (49) 
0

>  <i_epik_Tot_Q>  (49) 
0

>  <i_epik_Tot_abs_Q>  (49) 
0

>  <s_epik_Chemistry_Notes>  (49) 
This compound contains an acetal/aminal-like group ( X-CH(R)-Y where X, Y are N, S, or O) that may be acid/base labile, releasing an aldehyde.

>  <s_lp_Force_Field>  (49) 
OPLS3e

>  <r_lp_Energy>  (49) 
14.5422

>  <b_lp_Chiralities_Consistent>  (49) 
1

>  <s_lp_Variant>  (49) 
11:0-1

>  <s_i_glide_gridfile>  (49) 
pfpi4k_grid

>  <i_i_glide_lignum>  (49) 
18

>  <i_i_glide_rotatable_bonds>  (49) 
7

>  <r_i_docking_score>  (49) 
-3.56367

>  <r_i_glide_ligand_efficiency>  (49) 
-0.154942

>  <r_i_glide_ligand_efficiency_sa>  (49) 
-0.440635

>  <r_i_glide_ligand_efficiency_ln>  (49) 
-0.861727

>  <r_i_glide_gscore>  (49) 
-3.56367

>  <r_i_glide_lipo>  (49) 
-0.0775034

>  <r_i_glide_hbond>  (49) 
-0.121328

>  <r_i_glide_metal>  (49) 
-0

>  <r_i_glide_rewards>  (49) 
-1.24537

>  <r_i_glide_evdw>  (49) 
-19.8783

>  <r_i_glide_ecoul>  (49) 
-10.6568

>  <r_i_glide_erotb>  (49) 
0.739939

>  <r_i_glide_esite>  (49) 
-0.266977

>  <r_i_glide_emodel>  (49) 
-37.0101

>  <r_i_glide_energy>  (49) 
-30.5351

>  <r_i_glide_einternal>  (49) 
3.63711

>  <r_i_glide_intrahb_reward>  (49) 
-0

>  <i_i_glide_confnum>  (49) 
4

>  <i_i_glide_posenum>  (49) 
10

>  <r_i_glide_eff_state_penalty>  (49) 
0

>  <ligand_id>  (49) 
11

>  <original_smiles>  (49) 
CC(C)(C)n1nnnc1C(Cc1cc2ncncc2[nH]1)C(O)O

>  <smiles>  (49) 
[H]OC([H])(O[H])C([H])(c1nnnn1C(C([H])([H])[H])(C([H])([H])[H])C([H])([H])[H])C([H])([H])c1c([H])c2nc([H])nc([H])c2n1[H]

$$$$
12:0:0
     RDKit          3D

 62 65  0  0  1  0  0  0  0  0999 V2000
    7.5091    1.7742    5.8046 C   0  0  0  0  0  0  0  0  0  0  0  0
    6.6168    0.5478    5.6436 C   0  0  0  0  0  0  0  0  0  0  0  0
    6.6526   -0.3775    6.4535 O   0  0  0  0  0  0  0  0  0  0  0  0
    5.8363    0.6237    4.5450 O   0  0  0  0  0  0  0  0  0  0  0  0
    4.9923   -0.4499    4.1506 C   0  0  2  0  0  0  0  0  0  0  0  0
    5.5286   -0.9465    2.8037 C   0  0  0  0  0  0  0  0  0  0  0  0
    4.8050   -2.2272    2.3385 C   0  0  2  0  0  0  0  0  0  0  0  0
    5.3666   -2.6975    0.9703 C   0  0  0  0  0  0  0  0  0  0  0  0
    4.8887   -1.8280   -0.1932 C   0  0  0  0  0  0  0  0  0  0  0  0
    5.6123   -1.6965   -1.1816 O   0  0  0  0  0  0  0  0  0  0  0  0
    3.5685   -1.1867   -0.0716 C   0  0  0  0  0  0  0  0  0  0  0  0
    2.8397   -1.2925    1.0557 C   0  0  0  0  0  0  0  0  0  0  0  0
    3.2467   -2.0570    2.3174 C   0  0  1  0  0  0  0  0  0  0  0  0
    2.6128   -3.4660    2.2145 C   0  0  0  0  0  0  0  0  0  0  0  0
    2.7382   -1.3659    3.6397 C   0  0  2  0  0  0  0  0  0  0  0  0
    1.2132   -1.1343    3.7006 C   0  0  0  0  0  0  0  0  0  0  0  0
    0.8075   -0.6736    5.0966 C   0  0  0  0  0  0  0  0  0  0  0  0
    1.3845    0.7112    5.4669 C   0  0  2  0  0  0  0  0  0  0  0  0
    1.0953    0.9714    6.9640 C   0  0  0  0  0  0  0  0  0  0  0  0
    0.8525    1.9128    4.6571 C   0  0  0  0  0  0  0  0  0  0  0  0
   -0.4289    2.2319    4.3192 C   0  0  0  0  0  0  0  0  0  0  0  0
   -1.6572    1.4085    4.7117 C   0  0  0  0  0  0  0  0  0  0  0  0
   -0.7604    3.4371    3.4296 C   0  0  0  0  0  0  0  0  0  0  0  0
   -1.7903    4.2325    3.9869 O   0  0  0  0  0  0  0  0  0  0  0  0
    2.0481    2.7645    4.2734 C   0  0  0  0  0  0  0  0  0  0  0  0
    3.2249    2.2278    5.0848 C   0  0  0  0  0  0  0  0  0  0  0  0
    2.9365    0.7228    5.2378 C   0  0  2  0  0  0  0  0  0  0  0  0
    3.4967   -0.0560    3.9907 C   0  0  1  0  0  0  0  0  0  0  0  0
    6.9117    2.6857    5.8445 H   0  0  0  0  0  0  0  0  0  0  0  0
    8.2053    1.8479    4.9683 H   0  0  0  0  0  0  0  0  0  0  0  0
    8.0914    1.7100    6.7240 H   0  0  0  0  0  0  0  0  0  0  0  0
    5.0585   -1.2591    4.8806 H   0  0  0  0  0  0  0  0  0  0  0  0
    5.4287   -0.1536    2.0625 H   0  0  0  0  0  0  0  0  0  0  0  0
    6.5977   -1.1379    2.8744 H   0  0  0  0  0  0  0  0  0  0  0  0
    5.0510   -3.0038    3.0648 H   0  0  0  0  0  0  0  0  0  0  0  0
    6.4573   -2.6781    0.9923 H   0  0  0  0  0  0  0  0  0  0  0  0
    5.0827   -3.7308    0.7634 H   0  0  0  0  0  0  0  0  0  0  0  0
    3.1848   -0.6562   -0.9282 H   0  0  0  0  0  0  0  0  0  0  0  0
    1.8709   -0.8138    1.0800 H   0  0  0  0  0  0  0  0  0  0  0  0
    2.8069   -4.0654    3.1036 H   0  0  0  0  0  0  0  0  0  0  0  0
    2.9838   -4.0261    1.3562 H   0  0  0  0  0  0  0  0  0  0  0  0
    1.5357   -3.4104    2.0852 H   0  0  0  0  0  0  0  0  0  0  0  0
    2.9649   -2.0721    4.4393 H   0  0  0  0  0  0  0  0  0  0  0  0
    0.8841   -0.3993    2.9635 H   0  0  0  0  0  0  0  0  0  0  0  0
    0.6673   -2.0525    3.4895 H   0  0  0  0  0  0  0  0  0  0  0  0
   -0.2717   -0.7180    5.1867 H   0  0  0  0  0  0  0  0  0  0  0  0
    1.1704   -1.4066    5.8165 H   0  0  0  0  0  0  0  0  0  0  0  0
    1.6048    0.2491    7.5994 H   0  0  0  0  0  0  0  0  0  0  0  0
    0.0355    0.9059    7.1972 H   0  0  0  0  0  0  0  0  0  0  0  0
    1.4215    1.9629    7.2749 H   0  0  0  0  0  0  0  0  0  0  0  0
   -2.5474    2.0247    4.8286 H   0  0  0  0  0  0  0  0  0  0  0  0
   -1.5295    0.9149    5.6713 H   0  0  0  0  0  0  0  0  0  0  0  0
   -1.8814    0.6564    3.9541 H   0  0  0  0  0  0  0  0  0  0  0  0
    0.0921    4.0914    3.2374 H   0  0  0  0  0  0  0  0  0  0  0  0
   -1.0959    3.0590    2.4640 H   0  0  0  0  0  0  0  0  0  0  0  0
   -2.5850    3.7189    3.9617 H   0  0  0  0  0  0  0  0  0  0  0  0
    2.2351    2.6550    3.2036 H   0  0  0  0  0  0  0  0  0  0  0  0
    1.8832    3.8198    4.4850 H   0  0  0  0  0  0  0  0  0  0  0  0
    4.1779    2.4666    4.6189 H   0  0  0  0  0  0  0  0  0  0  0  0
    3.2295    2.7038    6.0638 H   0  0  0  0  0  0  0  0  0  0  0  0
    3.4369    0.3258    6.1229 H   0  0  0  0  0  0  0  0  0  0  0  0
    3.4028    0.6070    3.1291 H   0  0  0  0  0  0  0  0  0  0  0  0
  1  2  1  0
  1 29  1  0
  1 30  1  0
  1 31  1  0
  2  3  2  0
  2  4  1  0
  4  5  1  0
  5 28  1  0
  5  6  1  0
  5 32  1  1
  6  7  1  0
  6 33  1  0
  6 34  1  0
  7 13  1  0
  7  8  1  0
  7 35  1  1
  8  9  1  0
  8 36  1  0
  8 37  1  0
  9 10  2  0
  9 11  1  0
 11 12  2  0
 11 38  1  0
 12 13  1  0
 12 39  1  0
 13 14  1  6
 13 15  1  0
 14 40  1  0
 14 41  1  0
 14 42  1  0
 15 28  1  0
 15 16  1  0
 15 43  1  1
 16 17  1  0
 16 44  1  0
 16 45  1  0
 17 18  1  0
 17 46  1  0
 17 47  1  0
 18 27  1  0
 18 19  1  1
 18 20  1  0
 19 48  1  0
 19 49  1  0
 19 50  1  0
 20 21  2  3
 20 25  1  0
 21 22  1  0
 21 23  1  0
 22 51  1  0
 22 52  1  0
 22 53  1  0
 23 24  1  0
 23 54  1  0
 23 55  1  0
 24 56  1  0
 25 26  1  0
 25 57  1  0
 25 58  1  0
 26 27  1  0
 26 59  1  0
 26 60  1  0
 27 28  1  0
 27 61  1  1
 28 62  1  6
M  END
>  <i_m_ct_stereo_status>  (50) 
1

>  <s_m_source_file>  (50) 
/var/tmp/pbs.5076255.sched01/tmppv1df_bs/0l6e7d74h.sdf

>  <i_m_source_file_index>  (50) 
19

>  <i_lp_mmshare_version>  (50) 
48012

>  <i_f3d_flags>  (50) 
0

>  <s_epik_input>  (50) 
W0NIXTE9W0NIXUMoPU8pW0NIMl1bQ0BIXShbQ0BdMTJbQ0gzXSlbQ0gyXVtDQEBIXShPQyg9TylbQ0gzXSlbQ0BIXTNbQ0BIXTJbQ0gyXVtDSDJdW0NAQF00KFtDSDNdKVtDQEBIXTNbQ0gyXVtDSDJdQ1w0PUMoXFtDSDNdKVtDSDJdW09IXQ==

>  <s_epik_cmdline>  (50) 
J2VwaWtfcHl0aG9uJywgJy1waHQnLCAnMi4wJywgJy1waCcsICc3LjAnLCAnLXRuJywgJzgnLCAnLW1hJywgJzIwMCcsICctaW1hZScsICc8aW5maWxlLm1hZT4nLCAnLW9tYWUnLCAnPG91dGZpbGUubWFlPic=

>  <r_lp_tautomer_probability>  (50) 
1

>  <r_epik_Ionization_Penalty>  (50) 
2.53695e-07

>  <r_epik_Ionization_Penalty_Charging>  (50) 
0

>  <r_epik_Ionization_Penalty_Neutral>  (50) 
2.53695e-07

>  <r_epik_State_Penalty>  (50) 
-0

>  <r_epik_Charging_Adjusted_Penalty>  (50) 
0

>  <i_epik_Tot_Q>  (50) 
0

>  <i_epik_Tot_abs_Q>  (50) 
0

>  <s_epik_Chemistry_Notes>  (50) 
This compound has an ester and may undergo hydrolysis at high or low pH.

>  <s_lp_Force_Field>  (50) 
OPLS3e

>  <r_lp_Energy>  (50) 
36.7039

>  <b_lp_Chiralities_Consistent>  (50) 
1

>  <s_lp_Variant>  (50) 
12:0-1

>  <s_i_glide_gridfile>  (50) 
pfpi4k_grid

>  <i_i_glide_lignum>  (50) 
19

>  <i_i_glide_rotatable_bonds>  (50) 
4

>  <r_i_docking_score>  (50) 
-2.94854

>  <r_i_glide_ligand_efficiency>  (50) 
-0.105305

>  <r_i_glide_ligand_efficiency_sa>  (50) 
-0.319768

>  <r_i_glide_ligand_efficiency_ln>  (50) 
-0.680609

>  <r_i_glide_gscore>  (50) 
-2.94854

>  <r_i_glide_lipo>  (50) 
-0.296093

>  <r_i_glide_hbond>  (50) 
-0.0852977

>  <r_i_glide_metal>  (50) 
-0

>  <r_i_glide_rewards>  (50) 
-1.02203

>  <r_i_glide_evdw>  (50) 
-20.0821

>  <r_i_glide_ecoul>  (50) 
-5.26743

>  <r_i_glide_erotb>  (50) 
0.260564

>  <r_i_glide_esite>  (50) 
-0.0114615

>  <r_i_glide_emodel>  (50) 
-30.1987

>  <r_i_glide_energy>  (50) 
-25.3495

>  <r_i_glide_einternal>  (50) 
0.534309

>  <r_i_glide_intrahb_reward>  (50) 
-0

>  <i_i_glide_confnum>  (50) 
3

>  <i_i_glide_posenum>  (50) 
3

>  <r_i_glide_eff_state_penalty>  (50) 
0

>  <ligand_id>  (50) 
12

>  <original_smiles>  (50) 
CC(=O)OC1CC2CC(=O)C=CC2(C)C2CCC3(C)C(=C(C)CO)CCC3C12

>  <smiles>  (50) 
[H]OC([H])([H])C(=C1C([H])([H])C([H])([H])C2([H])C3([H])C([H])(OC(=O)C([H])([H])[H])C([H])([H])C4([H])C([H])([H])C(=O)C([H])=C([H])C4(C([H])([H])[H])C3([H])C([H])([H])C([H])([H])C12C([H])([H])[H])C([H])([H])[H]

$$$$
12:0:1
     RDKit          3D

 62 65  0  0  1  0  0  0  0  0999 V2000
   -0.4976   -4.4768    6.6893 C   0  0  0  0  0  0  0  0  0  0  0  0
   -0.1238   -3.0022    6.7353 C   0  0  0  0  0  0  0  0  0  0  0  0
   -0.1822   -2.3583    7.7850 O   0  0  0  0  0  0  0  0  0  0  0  0
    0.2448   -2.5227    5.5306 O   0  0  0  0  0  0  0  0  0  0  0  0
    0.8290   -1.2281    5.4101 C   0  0  2  0  0  0  0  0  0  0  0  0
   -0.2691   -0.1551    5.3424 C   0  0  0  0  0  0  0  0  0  0  0  0
    0.3202    1.2737    5.3490 C   0  0  2  0  0  0  0  0  0  0  0  0
   -0.8185    2.3222    5.2671 C   0  0  0  0  0  0  0  0  0  0  0  0
   -1.4165    2.4389    3.8635 C   0  0  0  0  0  0  0  0  0  0  0  0
   -2.5775    2.8260    3.7481 O   0  0  0  0  0  0  0  0  0  0  0  0
   -0.5505    2.1161    2.7148 C   0  0  0  0  0  0  0  0  0  0  0  0
    0.7233    1.7114    2.8891 C   0  0  0  0  0  0  0  0  0  0  0  0
    1.4078    1.4898    4.2417 C   0  0  1  0  0  0  0  0  0  0  0  0
    2.1808    2.7923    4.5712 C   0  0  0  0  0  0  0  0  0  0  0  0
    2.4206    0.2810    4.2222 C   0  0  2  0  0  0  0  0  0  0  0  0
    3.5212    0.3873    3.1506 C   0  0  0  0  0  0  0  0  0  0  0  0
    4.5716   -0.6994    3.3532 C   0  0  0  0  0  0  0  0  0  0  0  0
    4.0119   -2.1211    3.1388 C   0  0  2  0  0  0  0  0  0  0  0  0
    5.0874   -3.1394    3.5795 C   0  0  0  0  0  0  0  0  0  0  0  0
    3.5821   -2.4619    1.7006 C   0  0  0  0  0  0  0  0  0  0  0  0
    4.2164   -2.2081    0.5230 C   0  0  0  0  0  0  0  0  0  0  0  0
    5.5938   -1.5713    0.3901 C   0  0  0  0  0  0  0  0  0  0  0  0
    3.6098   -2.5539   -0.8363 C   0  0  0  0  0  0  0  0  0  0  0  0
    3.4136   -1.3840   -1.6074 O   0  0  0  0  0  0  0  0  0  0  0  0
    2.2494   -3.1704    1.7838 C   0  0  0  0  0  0  0  0  0  0  0  0
    2.0249   -3.4839    3.2603 C   0  0  0  0  0  0  0  0  0  0  0  0
    2.7240   -2.3304    4.0077 C   0  0  2  0  0  0  0  0  0  0  0  0
    1.7359   -1.1115    4.1538 C   0  0  1  0  0  0  0  0  0  0  0  0
    0.3193   -5.0540    6.2567 H   0  0  0  0  0  0  0  0  0  0  0  0
   -1.3866   -4.6242    6.0834 H   0  0  0  0  0  0  0  0  0  0  0  0
   -0.6980   -4.8583    7.6906 H   0  0  0  0  0  0  0  0  0  0  0  0
    1.4458   -1.0558    6.2955 H   0  0  0  0  0  0  0  0  0  0  0  0
   -0.8775   -0.3201    4.4524 H   0  0  0  0  0  0  0  0  0  0  0  0
   -0.9450   -0.2548    6.1906 H   0  0  0  0  0  0  0  0  0  0  0  0
    0.7971    1.4056    6.3230 H   0  0  0  0  0  0  0  0  0  0  0  0
   -1.6146    2.0605    5.9633 H   0  0  0  0  0  0  0  0  0  0  0  0
   -0.4675    3.3101    5.5652 H   0  0  0  0  0  0  0  0  0  0  0  0
   -0.9480    2.2573    1.7199 H   0  0  0  0  0  0  0  0  0  0  0  0
    1.3238    1.5412    2.0078 H   0  0  0  0  0  0  0  0  0  0  0  0
    2.7623    2.7007    5.4893 H   0  0  0  0  0  0  0  0  0  0  0  0
    1.5159    3.6482    4.6942 H   0  0  0  0  0  0  0  0  0  0  0  0
    2.8655    3.0737    3.7726 H   0  0  0  0  0  0  0  0  0  0  0  0
    2.9376    0.3190    5.1819 H   0  0  0  0  0  0  0  0  0  0  0  0
    3.1147    0.3189    2.1394 H   0  0  0  0  0  0  0  0  0  0  0  0
    4.0268    1.3422    3.2348 H   0  0  0  0  0  0  0  0  0  0  0  0
    5.4327   -0.4885    2.7290 H   0  0  0  0  0  0  0  0  0  0  0  0
    4.9509   -0.6227    4.3706 H   0  0  0  0  0  0  0  0  0  0  0  0
    5.3139   -3.0496    4.6417 H   0  0  0  0  0  0  0  0  0  0  0  0
    6.0153   -2.9889    3.0360 H   0  0  0  0  0  0  0  0  0  0  0  0
    4.7848   -4.1694    3.3954 H   0  0  0  0  0  0  0  0  0  0  0  0
    6.1079   -1.9744   -0.4831 H   0  0  0  0  0  0  0  0  0  0  0  0
    6.2404   -1.7845    1.2378 H   0  0  0  0  0  0  0  0  0  0  0  0
    5.5073   -0.4917    0.2591 H   0  0  0  0  0  0  0  0  0  0  0  0
    4.2851   -3.2210   -1.3735 H   0  0  0  0  0  0  0  0  0  0  0  0
    2.6523   -3.0697   -0.7712 H   0  0  0  0  0  0  0  0  0  0  0  0
    2.5287   -1.0696   -1.4331 H   0  0  0  0  0  0  0  0  0  0  0  0
    1.4927   -2.4755    1.4229 H   0  0  0  0  0  0  0  0  0  0  0  0
    2.2248   -4.0762    1.1791 H   0  0  0  0  0  0  0  0  0  0  0  0
    0.9686   -3.6092    3.4875 H   0  0  0  0  0  0  0  0  0  0  0  0
    2.5090   -4.4279    3.5068 H   0  0  0  0  0  0  0  0  0  0  0  0
    3.0113   -2.6434    5.0140 H   0  0  0  0  0  0  0  0  0  0  0  0
    1.0983   -1.1036    3.2693 H   0  0  0  0  0  0  0  0  0  0  0  0
  1  2  1  0
  1 29  1  0
  1 30  1  0
  1 31  1  0
  2  3  2  0
  2  4  1  0
  4  5  1  0
  5 28  1  0
  5  6  1  0
  5 32  1  1
  6  7  1  0
  6 33  1  0
  6 34  1  0
  7 13  1  0
  7  8  1  0
  7 35  1  1
  8  9  1  0
  8 36  1  0
  8 37  1  0
  9 10  2  0
  9 11  1  0
 11 12  2  0
 11 38  1  0
 12 13  1  0
 12 39  1  0
 13 14  1  1
 13 15  1  0
 14 40  1  0
 14 41  1  0
 14 42  1  0
 15 28  1  0
 15 16  1  0
 15 43  1  1
 16 17  1  0
 16 44  1  0
 16 45  1  0
 17 18  1  0
 17 46  1  0
 17 47  1  0
 18 27  1  0
 18 19  1  1
 18 20  1  0
 19 48  1  0
 19 49  1  0
 19 50  1  0
 20 21  2  3
 20 25  1  0
 21 22  1  0
 21 23  1  0
 22 51  1  0
 22 52  1  0
 22 53  1  0
 23 24  1  0
 23 54  1  0
 23 55  1  0
 24 56  1  0
 25 26  1  0
 25 57  1  0
 25 58  1  0
 26 27  1  0
 26 59  1  0
 26 60  1  0
 27 28  1  0
 27 61  1  1
 28 62  1  6
M  END
>  <i_m_ct_stereo_status>  (51) 
1

>  <s_m_source_file>  (51) 
/var/tmp/pbs.5076255.sched01/tmppv1df_bs/0l6e7d74h.sdf

>  <i_m_source_file_index>  (51) 
19

>  <i_lp_mmshare_version>  (51) 
48012

>  <i_f3d_flags>  (51) 
0

>  <s_epik_input>  (51) 
W0NIXTE9W0NIXUMoPU8pW0NIMl1bQ0BIXShbQ0BdMTJbQ0gzXSlbQ0gyXVtDQEBIXShPQyg9TylbQ0gzXSlbQ0BIXTNbQ0BIXTJbQ0gyXVtDSDJdW0NAQF00KFtDSDNdKVtDQEBIXTNbQ0gyXVtDSDJdQ1w0PUMoXFtDSDNdKVtDSDJdW09IXQ==

>  <s_epik_cmdline>  (51) 
J2VwaWtfcHl0aG9uJywgJy1waHQnLCAnMi4wJywgJy1waCcsICc3LjAnLCAnLXRuJywgJzgnLCAnLW1hJywgJzIwMCcsICctaW1hZScsICc8aW5maWxlLm1hZT4nLCAnLW9tYWUnLCAnPG91dGZpbGUubWFlPic=

>  <r_lp_tautomer_probability>  (51) 
1

>  <r_epik_Ionization_Penalty>  (51) 
2.53695e-07

>  <r_epik_Ionization_Penalty_Charging>  (51) 
0

>  <r_epik_Ionization_Penalty_Neutral>  (51) 
2.53695e-07

>  <r_epik_State_Penalty>  (51) 
-0

>  <r_epik_Charging_Adjusted_Penalty>  (51) 
0

>  <i_epik_Tot_Q>  (51) 
0

>  <i_epik_Tot_abs_Q>  (51) 
0

>  <s_epik_Chemistry_Notes>  (51) 
This compound has an ester and may undergo hydrolysis at high or low pH.

>  <s_lp_Force_Field>  (51) 
OPLS3e

>  <r_lp_Energy>  (51) 
36.7039

>  <b_lp_Chiralities_Consistent>  (51) 
1

>  <s_lp_Variant>  (51) 
12:0-1

>  <s_i_glide_gridfile>  (51) 
pfpi4k_grid

>  <i_i_glide_lignum>  (51) 
19

>  <i_i_glide_rotatable_bonds>  (51) 
4

>  <r_i_docking_score>  (51) 
-2.77949

>  <r_i_glide_ligand_efficiency>  (51) 
-0.0992675

>  <r_i_glide_ligand_efficiency_sa>  (51) 
-0.301435

>  <r_i_glide_ligand_efficiency_ln>  (51) 
-0.641588

>  <r_i_glide_gscore>  (51) 
-2.77949

>  <r_i_glide_lipo>  (51) 
-0.199526

>  <r_i_glide_hbond>  (51) 
-0.248577

>  <r_i_glide_metal>  (51) 
-0

>  <r_i_glide_rewards>  (51) 
-0.773698

>  <r_i_glide_evdw>  (51) 
-19.7146

>  <r_i_glide_ecoul>  (51) 
-5.1444

>  <r_i_glide_erotb>  (51) 
0.260564

>  <r_i_glide_esite>  (51) 
-0.060863

>  <r_i_glide_emodel>  (51) 
-29.1424

>  <r_i_glide_energy>  (51) 
-24.859

>  <r_i_glide_einternal>  (51) 
1.04764

>  <r_i_glide_intrahb_reward>  (51) 
-0

>  <i_i_glide_confnum>  (51) 
3

>  <i_i_glide_posenum>  (51) 
26

>  <r_i_glide_eff_state_penalty>  (51) 
0

>  <ligand_id>  (51) 
12

>  <original_smiles>  (51) 
CC(=O)OC1CC2CC(=O)C=CC2(C)C2CCC3(C)C(=C(C)CO)CCC3C12

>  <smiles>  (51) 
[H]OC([H])([H])C(=C1C([H])([H])C([H])([H])C2([H])C3([H])C([H])(OC(=O)C([H])([H])[H])C([H])([H])C4([H])C([H])([H])C(=O)C([H])=C([H])C4(C([H])([H])[H])C3([H])C([H])([H])C([H])([H])C12C([H])([H])[H])C([H])([H])[H]

$$$$
12:0:2
     RDKit          3D

 62 65  0  0  1  0  0  0  0  0999 V2000
    3.9301   -1.4626   -0.0261 C   0  0  0  0  0  0  0  0  0  0  0  0
    4.0398   -1.2287    1.4728 C   0  0  0  0  0  0  0  0  0  0  0  0
    5.0306   -0.6839    1.9625 O   0  0  0  0  0  0  0  0  0  0  0  0
    2.9498   -1.6652    2.1461 O   0  0  0  0  0  0  0  0  0  0  0  0
    2.8611   -1.5300    3.5639 C   0  0  2  0  0  0  0  0  0  0  0  0
    2.3080   -2.8518    4.1088 C   0  0  0  0  0  0  0  0  0  0  0  0
    2.2936   -2.8869    5.6545 C   0  0  2  0  0  0  0  0  0  0  0  0
    1.7114   -4.2348    6.1592 C   0  0  0  0  0  0  0  0  0  0  0  0
    0.1891   -4.3049    6.0219 C   0  0  0  0  0  0  0  0  0  0  0  0
   -0.3538   -5.4007    5.8819 O   0  0  0  0  0  0  0  0  0  0  0  0
   -0.5715   -3.0471    6.0900 C   0  0  0  0  0  0  0  0  0  0  0  0
    0.0488   -1.8555    6.2141 C   0  0  0  0  0  0  0  0  0  0  0  0
    1.5645   -1.6513    6.2849 C   0  0  1  0  0  0  0  0  0  0  0  0
    1.9350   -1.5893    7.7888 C   0  0  0  0  0  0  0  0  0  0  0  0
    2.0322   -0.3192    5.5841 C   0  0  2  0  0  0  0  0  0  0  0  0
    1.3553    0.9599    6.1196 C   0  0  0  0  0  0  0  0  0  0  0  0
    2.0311    2.1972    5.5381 C   0  0  0  0  0  0  0  0  0  0  0  0
    1.8467    2.3212    4.0103 C   0  0  2  0  0  0  0  0  0  0  0  0
    2.7477    3.4770    3.5106 C   0  0  0  0  0  0  0  0  0  0  0  0
    0.4085    2.5667    3.5131 C   0  0  0  0  0  0  0  0  0  0  0  0
   -0.5213    3.4414    3.9788 C   0  0  0  0  0  0  0  0  0  0  0  0
   -0.3033    4.4232    5.1289 C   0  0  0  0  0  0  0  0  0  0  0  0
   -1.9310    3.5200    3.3977 C   0  0  0  0  0  0  0  0  0  0  0  0
   -2.1679    4.8111    2.8734 O   0  0  0  0  0  0  0  0  0  0  0  0
    0.1653    1.6411    2.3358 C   0  0  0  0  0  0  0  0  0  0  0  0
    1.5292    1.0715    1.9689 C   0  0  0  0  0  0  0  0  0  0  0  0
    2.2871    0.9939    3.3111 C   0  0  2  0  0  0  0  0  0  0  0  0
    1.9477   -0.3623    4.0320 C   0  0  1  0  0  0  0  0  0  0  0  0
    3.0140   -1.0149   -0.4108 H   0  0  0  0  0  0  0  0  0  0  0  0
    3.9128   -2.5299   -0.2428 H   0  0  0  0  0  0  0  0  0  0  0  0
    4.7742   -1.0146   -0.5484 H   0  0  0  0  0  0  0  0  0  0  0  0
    3.8616   -1.3865    3.9780 H   0  0  0  0  0  0  0  0  0  0  0  0
    1.3056   -3.0079    3.7083 H   0  0  0  0  0  0  0  0  0  0  0  0
    2.9153   -3.6776    3.7351 H   0  0  0  0  0  0  0  0  0  0  0  0
    3.3393   -2.8631    5.9699 H   0  0  0  0  0  0  0  0  0  0  0  0
    2.1501   -5.0636    5.6046 H   0  0  0  0  0  0  0  0  0  0  0  0
    1.9631   -4.4051    7.2056 H   0  0  0  0  0  0  0  0  0  0  0  0
   -1.6482   -3.1062    6.0665 H   0  0  0  0  0  0  0  0  0  0  0  0
   -0.5582   -0.9670    6.2815 H   0  0  0  0  0  0  0  0  0  0  0  0
    2.9934   -1.3720    7.9353 H   0  0  0  0  0  0  0  0  0  0  0  0
    1.7238   -2.5250    8.3077 H   0  0  0  0  0  0  0  0  0  0  0  0
    1.3654   -0.8274    8.3186 H   0  0  0  0  0  0  0  0  0  0  0  0
    3.0933   -0.2210    5.8255 H   0  0  0  0  0  0  0  0  0  0  0  0
    0.2904    0.9827    5.8823 H   0  0  0  0  0  0  0  0  0  0  0  0
    1.4383    1.0188    7.2029 H   0  0  0  0  0  0  0  0  0  0  0  0
    1.6911    3.0763    6.0752 H   0  0  0  0  0  0  0  0  0  0  0  0
    3.0980    2.1390    5.7592 H   0  0  0  0  0  0  0  0  0  0  0  0
    3.8015    3.2617    3.6856 H   0  0  0  0  0  0  0  0  0  0  0  0
    2.5331    4.4191    4.0109 H   0  0  0  0  0  0  0  0  0  0  0  0
    2.6279    3.6581    2.4426 H   0  0  0  0  0  0  0  0  0  0  0  0
   -0.8905    5.3304    4.9957 H   0  0  0  0  0  0  0  0  0  0  0  0
    0.7293    4.7598    5.1950 H   0  0  0  0  0  0  0  0  0  0  0  0
   -0.5990    3.9814    6.0807 H   0  0  0  0  0  0  0  0  0  0  0  0
   -2.1172    2.7930    2.6065 H   0  0  0  0  0  0  0  0  0  0  0  0
   -2.6517    3.3091    4.1928 H   0  0  0  0  0  0  0  0  0  0  0  0
   -1.5620    4.9241    2.1428 H   0  0  0  0  0  0  0  0  0  0  0  0
   -0.5144    0.8479    2.6430 H   0  0  0  0  0  0  0  0  0  0  0  0
   -0.2713    2.1429    1.4748 H   0  0  0  0  0  0  0  0  0  0  0  0
    1.4278    0.1316    1.4326 H   0  0  0  0  0  0  0  0  0  0  0  0
    2.0427    1.7571    1.2963 H   0  0  0  0  0  0  0  0  0  0  0  0
    3.3650    1.0302    3.1516 H   0  0  0  0  0  0  0  0  0  0  0  0
    0.9162   -0.6130    3.7781 H   0  0  0  0  0  0  0  0  0  0  0  0
  1  2  1  0
  1 29  1  0
  1 30  1  0
  1 31  1  0
  2  3  2  0
  2  4  1  0
  4  5  1  0
  5 28  1  0
  5  6  1  0
  5 32  1  1
  6  7  1  0
  6 33  1  0
  6 34  1  0
  7 13  1  0
  7  8  1  0
  7 35  1  1
  8  9  1  0
  8 36  1  0
  8 37  1  0
  9 10  2  0
  9 11  1  0
 11 12  2  0
 11 38  1  0
 12 13  1  0
 12 39  1  0
 13 14  1  1
 13 15  1  0
 14 40  1  0
 14 41  1  0
 14 42  1  0
 15 28  1  0
 15 16  1  0
 15 43  1  6
 16 17  1  0
 16 44  1  0
 16 45  1  0
 17 18  1  0
 17 46  1  0
 17 47  1  0
 18 27  1  0
 18 19  1  6
 18 20  1  0
 19 48  1  0
 19 49  1  0
 19 50  1  0
 20 21  2  3
 20 25  1  0
 21 22  1  0
 21 23  1  0
 22 51  1  0
 22 52  1  0
 22 53  1  0
 23 24  1  0
 23 54  1  0
 23 55  1  0
 24 56  1  0
 25 26  1  0
 25 57  1  0
 25 58  1  0
 26 27  1  0
 26 59  1  0
 26 60  1  0
 27 28  1  0
 27 61  1  6
 28 62  1  1
M  END
>  <i_m_ct_stereo_status>  (52) 
1

>  <s_m_source_file>  (52) 
/var/tmp/pbs.5076255.sched01/tmppv1df_bs/0l6e7d74h.sdf

>  <i_m_source_file_index>  (52) 
19

>  <i_lp_mmshare_version>  (52) 
48012

>  <i_f3d_flags>  (52) 
0

>  <s_epik_input>  (52) 
W0NIXTE9W0NIXUMoPU8pW0NIMl1bQ0BIXShbQ0BdMTJbQ0gzXSlbQ0gyXVtDQEBIXShPQyg9TylbQ0gzXSlbQ0BIXTNbQ0BIXTJbQ0gyXVtDSDJdW0NAQF00KFtDSDNdKVtDQEBIXTNbQ0gyXVtDSDJdQ1w0PUMoXFtDSDNdKVtDSDJdW09IXQ==

>  <s_epik_cmdline>  (52) 
J2VwaWtfcHl0aG9uJywgJy1waHQnLCAnMi4wJywgJy1waCcsICc3LjAnLCAnLXRuJywgJzgnLCAnLW1hJywgJzIwMCcsICctaW1hZScsICc8aW5maWxlLm1hZT4nLCAnLW9tYWUnLCAnPG91dGZpbGUubWFlPic=

>  <r_lp_tautomer_probability>  (52) 
1

>  <r_epik_Ionization_Penalty>  (52) 
2.53695e-07

>  <r_epik_Ionization_Penalty_Charging>  (52) 
0

>  <r_epik_Ionization_Penalty_Neutral>  (52) 
2.53695e-07

>  <r_epik_State_Penalty>  (52) 
-0

>  <r_epik_Charging_Adjusted_Penalty>  (52) 
0

>  <i_epik_Tot_Q>  (52) 
0

>  <i_epik_Tot_abs_Q>  (52) 
0

>  <s_epik_Chemistry_Notes>  (52) 
This compound has an ester and may undergo hydrolysis at high or low pH.

>  <s_lp_Force_Field>  (52) 
OPLS3e

>  <r_lp_Energy>  (52) 
36.7039

>  <b_lp_Chiralities_Consistent>  (52) 
1

>  <s_lp_Variant>  (52) 
12:0-1

>  <s_i_glide_gridfile>  (52) 
pfpi4k_grid

>  <i_i_glide_lignum>  (52) 
19

>  <i_i_glide_rotatable_bonds>  (52) 
4

>  <r_i_docking_score>  (52) 
-2.62669

>  <r_i_glide_ligand_efficiency>  (52) 
-0.0938102

>  <r_i_glide_ligand_efficiency_sa>  (52) 
-0.284863

>  <r_i_glide_ligand_efficiency_ln>  (52) 
-0.606316

>  <r_i_glide_gscore>  (52) 
-2.62669

>  <r_i_glide_lipo>  (52) 
-0.000454245

>  <r_i_glide_hbond>  (52) 
-0.255424

>  <r_i_glide_metal>  (52) 
-0

>  <r_i_glide_rewards>  (52) 
-0.773698

>  <r_i_glide_evdw>  (52) 
-20.1973

>  <r_i_glide_ecoul>  (52) 
-5.59331

>  <r_i_glide_erotb>  (52) 
0.260564

>  <r_i_glide_esite>  (52) 
-0.00881302

>  <r_i_glide_emodel>  (52) 
-30.1488

>  <r_i_glide_energy>  (52) 
-25.7906

>  <r_i_glide_einternal>  (52) 
0.429795

>  <r_i_glide_intrahb_reward>  (52) 
-0

>  <i_i_glide_confnum>  (52) 
3

>  <i_i_glide_posenum>  (52) 
9

>  <r_i_glide_eff_state_penalty>  (52) 
0

>  <ligand_id>  (52) 
12

>  <original_smiles>  (52) 
CC(=O)OC1CC2CC(=O)C=CC2(C)C2CCC3(C)C(=C(C)CO)CCC3C12

>  <smiles>  (52) 
[H]OC([H])([H])C(=C1C([H])([H])C([H])([H])C2([H])C3([H])C([H])(OC(=O)C([H])([H])[H])C([H])([H])C4([H])C([H])([H])C(=O)C([H])=C([H])C4(C([H])([H])[H])C3([H])C([H])([H])C([H])([H])C12C([H])([H])[H])C([H])([H])[H]

$$$$
12:1:0
     RDKit          3D

 62 65  0  0  1  0  0  0  0  0999 V2000
    2.7574    1.6173    3.8482 C   0  0  0  0  0  0  0  0  0  0  0  0
    3.5953    0.4508    3.3450 C   0  0  0  0  0  0  0  0  0  0  0  0
    4.6434    0.1286    3.9105 O   0  0  0  0  0  0  0  0  0  0  0  0
    3.0584   -0.1501    2.2593 O   0  0  0  0  0  0  0  0  0  0  0  0
    3.7043   -1.2666    1.6518 C   0  0  2  0  0  0  0  0  0  0  0  0
    3.9703   -0.9213    0.1846 C   0  0  0  0  0  0  0  0  0  0  0  0
    4.7615   -2.0375   -0.5345 C   0  0  2  0  0  0  0  0  0  0  0  0
    5.0458   -1.6430   -2.0061 C   0  0  0  0  0  0  0  0  0  0  0  0
    3.8143   -1.7487   -2.9063 C   0  0  0  0  0  0  0  0  0  0  0  0
    3.7701   -1.0750   -3.9355 O   0  0  0  0  0  0  0  0  0  0  0  0
    2.7624   -2.7010   -2.5211 C   0  0  0  0  0  0  0  0  0  0  0  0
    2.8728   -3.4555   -1.4108 C   0  0  0  0  0  0  0  0  0  0  0  0
    4.0511   -3.4256   -0.4284 C   0  0  1  0  0  0  0  0  0  0  0  0
    5.0461   -4.5298   -0.8663 C   0  0  0  0  0  0  0  0  0  0  0  0
    3.6300   -3.7119    1.0635 C   0  0  2  0  0  0  0  0  0  0  0  0
    2.9654   -5.1028    1.2821 C   0  0  0  0  0  0  0  0  0  0  0  0
    1.9729   -5.1831    2.4573 C   0  0  0  0  0  0  0  0  0  0  0  0
    2.3931   -4.3582    3.6949 C   0  0  2  0  0  0  0  0  0  0  0  0
    3.7530   -4.8015    4.2935 C   0  0  0  0  0  0  0  0  0  0  0  0
    1.2949   -4.3787    4.7831 C   0  0  0  0  0  0  0  0  0  0  0  0
    0.8421   -5.4313    5.5163 C   0  0  0  0  0  0  0  0  0  0  0  0
   -0.2194   -5.2842    6.6099 C   0  0  0  0  0  0  0  0  0  0  0  0
    1.3311   -6.8697    5.3783 C   0  0  0  0  0  0  0  0  0  0  0  0
    0.2522   -7.7320    5.0861 O   0  0  0  0  0  0  0  0  0  0  0  0
    0.7690   -2.9662    4.9439 C   0  0  0  0  0  0  0  0  0  0  0  0
    1.1140   -2.2705    3.6393 C   0  0  0  0  0  0  0  0  0  0  0  0
    2.4773   -2.8642    3.2531 C   0  0  2  0  0  0  0  0  0  0  0  0
    2.8545   -2.5583    1.7610 C   0  0  1  0  0  0  0  0  0  0  0  0
    2.6274    2.3558    3.0564 H   0  0  0  0  0  0  0  0  0  0  0  0
    3.2446    2.1041    4.6932 H   0  0  0  0  0  0  0  0  0  0  0  0
    1.7757    1.2709    4.1725 H   0  0  0  0  0  0  0  0  0  0  0  0
    4.6703   -1.4565    2.1253 H   0  0  0  0  0  0  0  0  0  0  0  0
    3.0156   -0.7441   -0.3132 H   0  0  0  0  0  0  0  0  0  0  0  0
    4.5207    0.0188    0.1280 H   0  0  0  0  0  0  0  0  0  0  0  0
    5.7308   -2.1071   -0.0337 H   0  0  0  0  0  0  0  0  0  0  0  0
    5.4164   -0.6207   -2.0547 H   0  0  0  0  0  0  0  0  0  0  0  0
    5.8229   -2.2764   -2.4349 H   0  0  0  0  0  0  0  0  0  0  0  0
    1.9064   -2.8037   -3.1731 H   0  0  0  0  0  0  0  0  0  0  0  0
    2.0841   -4.1654   -1.2152 H   0  0  0  0  0  0  0  0  0  0  0  0
    5.9258   -4.5652   -0.2205 H   0  0  0  0  0  0  0  0  0  0  0  0
    5.3995   -4.3848   -1.8879 H   0  0  0  0  0  0  0  0  0  0  0  0
    4.5945   -5.5218   -0.8450 H   0  0  0  0  0  0  0  0  0  0  0  0
    4.5749   -3.7604    1.6068 H   0  0  0  0  0  0  0  0  0  0  0  0
    2.4514   -5.4496    0.3899 H   0  0  0  0  0  0  0  0  0  0  0  0
    3.7588   -5.8331    1.4465 H   0  0  0  0  0  0  0  0  0  0  0  0
    1.0068   -4.8165    2.1273 H   0  0  0  0  0  0  0  0  0  0  0  0
    1.8101   -6.2339    2.6889 H   0  0  0  0  0  0  0  0  0  0  0  0
    4.5892   -4.5225    3.6572 H   0  0  0  0  0  0  0  0  0  0  0  0
    3.8369   -5.8749    4.4411 H   0  0  0  0  0  0  0  0  0  0  0  0
    3.9299   -4.3294    5.2607 H   0  0  0  0  0  0  0  0  0  0  0  0
   -1.1143   -5.8475    6.3419 H   0  0  0  0  0  0  0  0  0  0  0  0
   -0.5265   -4.2587    6.8097 H   0  0  0  0  0  0  0  0  0  0  0  0
    0.1524   -5.6879    7.5545 H   0  0  0  0  0  0  0  0  0  0  0  0
    2.0826   -7.0180    4.6111 H   0  0  0  0  0  0  0  0  0  0  0  0
    1.7896   -7.1752    6.3202 H   0  0  0  0  0  0  0  0  0  0  0  0
    0.5828   -8.6198    5.0240 H   0  0  0  0  0  0  0  0  0  0  0  0
   -0.3010   -2.9154    5.1381 H   0  0  0  0  0  0  0  0  0  0  0  0
    1.2913   -2.4827    5.7716 H   0  0  0  0  0  0  0  0  0  0  0  0
    0.3608   -2.5314    2.8921 H   0  0  0  0  0  0  0  0  0  0  0  0
    1.1156   -1.1836    3.7312 H   0  0  0  0  0  0  0  0  0  0  0  0
    3.2209   -2.3939    3.8980 H   0  0  0  0  0  0  0  0  0  0  0  0
    1.9339   -2.4142    1.1934 H   0  0  0  0  0  0  0  0  0  0  0  0
  1  2  1  0
  1 29  1  0
  1 30  1  0
  1 31  1  0
  2  3  2  0
  2  4  1  0
  4  5  1  0
  5 28  1  0
  5  6  1  0
  5 32  1  1
  6  7  1  0
  6 33  1  0
  6 34  1  0
  7 13  1  0
  7  8  1  0
  7 35  1  1
  8  9  1  0
  8 36  1  0
  8 37  1  0
  9 10  2  0
  9 11  1  0
 11 12  2  0
 11 38  1  0
 12 13  1  0
 12 39  1  0
 13 14  1  6
 13 15  1  0
 14 40  1  0
 14 41  1  0
 14 42  1  0
 15 28  1  0
 15 16  1  0
 15 43  1  1
 16 17  1  0
 16 44  1  0
 16 45  1  0
 17 18  1  0
 17 46  1  0
 17 47  1  0
 18 27  1  0
 18 19  1  1
 18 20  1  0
 19 48  1  0
 19 49  1  0
 19 50  1  0
 20 21  2  3
 20 25  1  0
 21 22  1  0
 21 23  1  0
 22 51  1  0
 22 52  1  0
 22 53  1  0
 23 24  1  0
 23 54  1  0
 23 55  1  0
 24 56  1  0
 25 26  1  0
 25 57  1  0
 25 58  1  0
 26 27  1  0
 26 59  1  0
 26 60  1  0
 27 28  1  0
 27 61  1  1
 28 62  1  6
M  END
>  <i_m_ct_stereo_status>  (53) 
1

>  <s_m_source_file>  (53) 
/var/tmp/pbs.5076255.sched01/tmppv1df_bs/0l6e7d74h.sdf

>  <i_m_source_file_index>  (53) 
20

>  <i_lp_mmshare_version>  (53) 
48012

>  <i_f3d_flags>  (53) 
0

>  <s_epik_input>  (53) 
W0NIXTE9W0NIXUMoPU8pW0NIMl1bQ0BIXShbQ0BdMTJbQ0gzXSlbQ0gyXVtDQEBIXShPQyg9TylbQ0gzXSlbQ0BIXTNbQ0BIXTJbQ0gyXVtDSDJdW0NAQF00KFtDSDNdKVtDQEBIXTNbQ0gyXVtDSDJdQ1w0PUMoXFtDSDNdKVtDSDJdW09IXQ==

>  <s_epik_cmdline>  (53) 
J2VwaWtfcHl0aG9uJywgJy1waHQnLCAnMi4wJywgJy1waCcsICc3LjAnLCAnLXRuJywgJzgnLCAnLW1hJywgJzIwMCcsICctaW1hZScsICc8aW5maWxlLm1hZT4nLCAnLW9tYWUnLCAnPG91dGZpbGUubWFlPic=

>  <r_lp_tautomer_probability>  (53) 
1

>  <r_epik_Ionization_Penalty>  (53) 
2.53695e-07

>  <r_epik_Ionization_Penalty_Charging>  (53) 
0

>  <r_epik_Ionization_Penalty_Neutral>  (53) 
2.53695e-07

>  <r_epik_State_Penalty>  (53) 
-0

>  <r_epik_Charging_Adjusted_Penalty>  (53) 
0

>  <i_epik_Tot_Q>  (53) 
0

>  <i_epik_Tot_abs_Q>  (53) 
0

>  <s_epik_Chemistry_Notes>  (53) 
This compound has an ester and may undergo hydrolysis at high or low pH.

>  <s_lp_Force_Field>  (53) 
OPLS3e

>  <r_lp_Energy>  (53) 
41.3997

>  <b_lp_Chiralities_Consistent>  (53) 
1

>  <s_lp_Variant>  (53) 
12:0-2

>  <s_i_glide_gridfile>  (53) 
pfpi4k_grid

>  <i_i_glide_lignum>  (53) 
20

>  <i_i_glide_rotatable_bonds>  (53) 
4

>  <r_i_docking_score>  (53) 
-2.42176

>  <r_i_glide_ligand_efficiency>  (53) 
-0.0864913

>  <r_i_glide_ligand_efficiency_sa>  (53) 
-0.262639

>  <r_i_glide_ligand_efficiency_ln>  (53) 
-0.559013

>  <r_i_glide_gscore>  (53) 
-2.42176

>  <r_i_glide_lipo>  (53) 
-0.216516

>  <r_i_glide_hbond>  (53) 
0

>  <r_i_glide_metal>  (53) 
-0

>  <r_i_glide_rewards>  (53) 
-0.78035

>  <r_i_glide_evdw>  (53) 
-25.705

>  <r_i_glide_ecoul>  (53) 
-2.63842

>  <r_i_glide_erotb>  (53) 
0.260564

>  <r_i_glide_esite>  (53) 
-0.004443

>  <r_i_glide_emodel>  (53) 
-31.9683

>  <r_i_glide_energy>  (53) 
-28.3434

>  <r_i_glide_einternal>  (53) 
0.896526

>  <r_i_glide_intrahb_reward>  (53) 
-0

>  <i_i_glide_confnum>  (53) 
2

>  <i_i_glide_posenum>  (53) 
23

>  <r_i_glide_eff_state_penalty>  (53) 
0

>  <ligand_id>  (53) 
12

>  <original_smiles>  (53) 
CC(=O)OC1CC2CC(=O)C=CC2(C)C2CCC3(C)C(=C(C)CO)CCC3C12

>  <smiles>  (53) 
[H]OC([H])([H])C(=C1C([H])([H])C([H])([H])C2([H])C3([H])C([H])(OC(=O)C([H])([H])[H])C([H])([H])C4([H])C([H])([H])C(=O)C([H])=C([H])C4(C([H])([H])[H])C3([H])C([H])([H])C([H])([H])C12C([H])([H])[H])C([H])([H])[H]

$$$$
12:1:1
     RDKit          3D

 62 65  0  0  1  0  0  0  0  0999 V2000
    2.8569    1.2246    4.0848 C   0  0  0  0  0  0  0  0  0  0  0  0
    3.7715    0.2261    3.3871 C   0  0  0  0  0  0  0  0  0  0  0  0
    4.9577    0.1159    3.7071 O   0  0  0  0  0  0  0  0  0  0  0  0
    3.1356   -0.4785    2.4258 O   0  0  0  0  0  0  0  0  0  0  0  0
    3.8336   -1.4631    1.6690 C   0  0  2  0  0  0  0  0  0  0  0  0
    4.0035   -0.9375    0.2412 C   0  0  0  0  0  0  0  0  0  0  0  0
    4.8311   -1.9069   -0.6298 C   0  0  2  0  0  0  0  0  0  0  0  0
    5.0182   -1.3346   -2.0560 C   0  0  0  0  0  0  0  0  0  0  0  0
    3.7554   -1.4335   -2.9109 C   0  0  0  0  0  0  0  0  0  0  0  0
    3.6147   -0.6526   -3.8516 O   0  0  0  0  0  0  0  0  0  0  0  0
    2.7910   -2.4996   -2.5977 C   0  0  0  0  0  0  0  0  0  0  0  0
    3.0059   -3.3625   -1.5870 C   0  0  0  0  0  0  0  0  0  0  0  0
    4.2243   -3.3468   -0.6536 C   0  0  1  0  0  0  0  0  0  0  0  0
    5.2719   -4.3145   -1.2518 C   0  0  0  0  0  0  0  0  0  0  0  0
    3.8979   -3.8282    0.8116 C   0  0  2  0  0  0  0  0  0  0  0  0
    3.3376   -5.2789    0.8978 C   0  0  0  0  0  0  0  0  0  0  0  0
    2.4097   -5.5565    2.0972 C   0  0  0  0  0  0  0  0  0  0  0  0
    2.8336   -4.8476    3.4024 C   0  0  2  0  0  0  0  0  0  0  0  0
    4.2463   -5.2578    3.8868 C   0  0  0  0  0  0  0  0  0  0  0  0
    1.7958   -5.0713    4.5269 C   0  0  0  0  0  0  0  0  0  0  0  0
    1.4668   -6.2232    5.1774 C   0  0  0  0  0  0  0  0  0  0  0  0
    0.4269   -6.2680    6.2984 C   0  0  0  0  0  0  0  0  0  0  0  0
    2.0306   -7.6099    4.8698 C   0  0  0  0  0  0  0  0  0  0  0  0
    2.6217   -8.1856    6.0178 O   0  0  0  0  0  0  0  0  0  0  0  0
    1.1795   -3.7273    4.8578 C   0  0  0  0  0  0  0  0  0  0  0  0
    1.4162   -2.8623    3.6310 C   0  0  0  0  0  0  0  0  0  0  0  0
    2.7964   -3.3105    3.1264 C   0  0  2  0  0  0  0  0  0  0  0  0
    3.0807   -2.8172    1.6642 C   0  0  1  0  0  0  0  0  0  0  0  0
    2.4232    1.9099    3.3562 H   0  0  0  0  0  0  0  0  0  0  0  0
    3.4127    1.8125    4.8157 H   0  0  0  0  0  0  0  0  0  0  0  0
    2.0498    0.7075    4.6046 H   0  0  0  0  0  0  0  0  0  0  0  0
    4.8269   -1.6368    2.0872 H   0  0  0  0  0  0  0  0  0  0  0  0
    3.0147   -0.7758   -0.1920 H   0  0  0  0  0  0  0  0  0  0  0  0
    4.4854    0.0406    0.2676 H   0  0  0  0  0  0  0  0  0  0  0  0
    5.8252   -1.9597   -0.1795 H   0  0  0  0  0  0  0  0  0  0  0  0
    5.3223   -0.2902   -2.0054 H   0  0  0  0  0  0  0  0  0  0  0  0
    5.8129   -1.8640   -2.5819 H   0  0  0  0  0  0  0  0  0  0  0  0
    1.9123   -2.5858   -3.2217 H   0  0  0  0  0  0  0  0  0  0  0  0
    2.2750   -4.1429   -1.4377 H   0  0  0  0  0  0  0  0  0  0  0  0
    6.1803   -4.3537   -0.6480 H   0  0  0  0  0  0  0  0  0  0  0  0
    5.5640   -4.0357   -2.2653 H   0  0  0  0  0  0  0  0  0  0  0  0
    4.8872   -5.3319   -1.3221 H   0  0  0  0  0  0  0  0  0  0  0  0
    4.8691   -3.8670    1.3071 H   0  0  0  0  0  0  0  0  0  0  0  0
    2.8068   -5.5624   -0.0072 H   0  0  0  0  0  0  0  0  0  0  0  0
    4.1855   -5.9642    0.9460 H   0  0  0  0  0  0  0  0  0  0  0  0
    1.4041   -5.2252    1.8395 H   0  0  0  0  0  0  0  0  0  0  0  0
    2.3322   -6.6345    2.2283 H   0  0  0  0  0  0  0  0  0  0  0  0
    5.0323   -4.8538    3.2543 H   0  0  0  0  0  0  0  0  0  0  0  0
    4.4026   -6.3318    3.9087 H   0  0  0  0  0  0  0  0  0  0  0  0
    4.4356   -4.8858    4.8933 H   0  0  0  0  0  0  0  0  0  0  0  0
   -0.4242   -6.8740    5.9823 H   0  0  0  0  0  0  0  0  0  0  0  0
    0.0539   -5.2938    6.6106 H   0  0  0  0  0  0  0  0  0  0  0  0
    0.8539   -6.7340    7.1890 H   0  0  0  0  0  0  0  0  0  0  0  0
    1.2052   -8.2485    4.5496 H   0  0  0  0  0  0  0  0  0  0  0  0
    2.7605   -7.6289    4.0685 H   0  0  0  0  0  0  0  0  0  0  0  0
    2.5944   -9.1311    5.9374 H   0  0  0  0  0  0  0  0  0  0  0  0
    0.1195   -3.7740    5.1006 H   0  0  0  0  0  0  0  0  0  0  0  0
    1.7097   -3.3061    5.7121 H   0  0  0  0  0  0  0  0  0  0  0  0
    0.6445   -3.0865    2.8900 H   0  0  0  0  0  0  0  0  0  0  0  0
    1.3533   -1.7953    3.8497 H   0  0  0  0  0  0  0  0  0  0  0  0
    3.5353   -2.8552    3.7885 H   0  0  0  0  0  0  0  0  0  0  0  0
    2.1272   -2.6774    1.1528 H   0  0  0  0  0  0  0  0  0  0  0  0
  1  2  1  0
  1 29  1  0
  1 30  1  0
  1 31  1  0
  2  3  2  0
  2  4  1  0
  4  5  1  0
  5 28  1  0
  5  6  1  0
  5 32  1  1
  6  7  1  0
  6 33  1  0
  6 34  1  0
  7 13  1  0
  7  8  1  0
  7 35  1  1
  8  9  1  0
  8 36  1  0
  8 37  1  0
  9 10  2  0
  9 11  1  0
 11 12  2  0
 11 38  1  0
 12 13  1  0
 12 39  1  0
 13 14  1  6
 13 15  1  0
 14 40  1  0
 14 41  1  0
 14 42  1  0
 15 28  1  0
 15 16  1  0
 15 43  1  1
 16 17  1  0
 16 44  1  0
 16 45  1  0
 17 18  1  0
 17 46  1  0
 17 47  1  0
 18 27  1  0
 18 19  1  1
 18 20  1  0
 19 48  1  0
 19 49  1  0
 19 50  1  0
 20 21  2  3
 20 25  1  0
 21 22  1  0
 21 23  1  0
 22 51  1  0
 22 52  1  0
 22 53  1  0
 23 24  1  0
 23 54  1  0
 23 55  1  0
 24 56  1  0
 25 26  1  0
 25 57  1  0
 25 58  1  0
 26 27  1  0
 26 59  1  0
 26 60  1  0
 27 28  1  0
 27 61  1  1
 28 62  1  6
M  END
>  <i_m_ct_stereo_status>  (54) 
1

>  <s_m_source_file>  (54) 
/var/tmp/pbs.5076255.sched01/tmppv1df_bs/0l6e7d74h.sdf

>  <i_m_source_file_index>  (54) 
20

>  <i_lp_mmshare_version>  (54) 
48012

>  <i_f3d_flags>  (54) 
0

>  <s_epik_input>  (54) 
W0NIXTE9W0NIXUMoPU8pW0NIMl1bQ0BIXShbQ0BdMTJbQ0gzXSlbQ0gyXVtDQEBIXShPQyg9TylbQ0gzXSlbQ0BIXTNbQ0BIXTJbQ0gyXVtDSDJdW0NAQF00KFtDSDNdKVtDQEBIXTNbQ0gyXVtDSDJdQ1w0PUMoXFtDSDNdKVtDSDJdW09IXQ==

>  <s_epik_cmdline>  (54) 
J2VwaWtfcHl0aG9uJywgJy1waHQnLCAnMi4wJywgJy1waCcsICc3LjAnLCAnLXRuJywgJzgnLCAnLW1hJywgJzIwMCcsICctaW1hZScsICc8aW5maWxlLm1hZT4nLCAnLW9tYWUnLCAnPG91dGZpbGUubWFlPic=

>  <r_lp_tautomer_probability>  (54) 
1

>  <r_epik_Ionization_Penalty>  (54) 
2.53695e-07

>  <r_epik_Ionization_Penalty_Charging>  (54) 
0

>  <r_epik_Ionization_Penalty_Neutral>  (54) 
2.53695e-07

>  <r_epik_State_Penalty>  (54) 
-0

>  <r_epik_Charging_Adjusted_Penalty>  (54) 
0

>  <i_epik_Tot_Q>  (54) 
0

>  <i_epik_Tot_abs_Q>  (54) 
0

>  <s_epik_Chemistry_Notes>  (54) 
This compound has an ester and may undergo hydrolysis at high or low pH.

>  <s_lp_Force_Field>  (54) 
OPLS3e

>  <r_lp_Energy>  (54) 
41.3997

>  <b_lp_Chiralities_Consistent>  (54) 
1

>  <s_lp_Variant>  (54) 
12:0-2

>  <s_i_glide_gridfile>  (54) 
pfpi4k_grid

>  <i_i_glide_lignum>  (54) 
20

>  <i_i_glide_rotatable_bonds>  (54) 
4

>  <r_i_docking_score>  (54) 
-2.33338

>  <r_i_glide_ligand_efficiency>  (54) 
-0.0833349

>  <r_i_glide_ligand_efficiency_sa>  (54) 
-0.253054

>  <r_i_glide_ligand_efficiency_ln>  (54) 
-0.538612

>  <r_i_glide_gscore>  (54) 
-2.33338

>  <r_i_glide_lipo>  (54) 
-0.23396

>  <r_i_glide_hbond>  (54) 
0

>  <r_i_glide_metal>  (54) 
-0

>  <r_i_glide_rewards>  (54) 
-0.773698

>  <r_i_glide_evdw>  (54) 
-24.8416

>  <r_i_glide_ecoul>  (54) 
-2.18811

>  <r_i_glide_erotb>  (54) 
0.260564

>  <r_i_glide_esite>  (54) 
-0.0159855

>  <r_i_glide_emodel>  (54) 
-30.561

>  <r_i_glide_energy>  (54) 
-27.0297

>  <r_i_glide_einternal>  (54) 
0.740236

>  <r_i_glide_intrahb_reward>  (54) 
-0

>  <i_i_glide_confnum>  (54) 
6

>  <i_i_glide_posenum>  (54) 
20

>  <r_i_glide_eff_state_penalty>  (54) 
0

>  <ligand_id>  (54) 
12

>  <original_smiles>  (54) 
CC(=O)OC1CC2CC(=O)C=CC2(C)C2CCC3(C)C(=C(C)CO)CCC3C12

>  <smiles>  (54) 
[H]OC([H])([H])C(=C1C([H])([H])C([H])([H])C2([H])C3([H])C([H])(OC(=O)C([H])([H])[H])C([H])([H])C4([H])C([H])([H])C(=O)C([H])=C([H])C4(C([H])([H])[H])C3([H])C([H])([H])C([H])([H])C12C([H])([H])[H])C([H])([H])[H]

$$$$
12:1:2
     RDKit          3D

 62 65  0  0  1  0  0  0  0  0999 V2000
    3.0444    1.0384    3.9061 C   0  0  0  0  0  0  0  0  0  0  0  0
    3.9164    0.0646    3.1259 C   0  0  0  0  0  0  0  0  0  0  0  0
    5.0817   -0.1580    3.4602 O   0  0  0  0  0  0  0  0  0  0  0  0
    3.2691   -0.4981    2.0838 O   0  0  0  0  0  0  0  0  0  0  0  0
    3.9332   -1.4450    1.2482 C   0  0  2  0  0  0  0  0  0  0  0  0
    3.9260   -0.8936   -0.1765 C   0  0  0  0  0  0  0  0  0  0  0  0
    4.6937   -1.8070   -1.1543 C   0  0  2  0  0  0  0  0  0  0  0  0
    4.6782   -1.2166   -2.5814 C   0  0  0  0  0  0  0  0  0  0  0  0
    3.3445   -1.3803   -3.2997 C   0  0  0  0  0  0  0  0  0  0  0  0
    3.0647   -0.6019   -4.2079 O   0  0  0  0  0  0  0  0  0  0  0  0
    2.4783   -2.5003   -2.8980 C   0  0  0  0  0  0  0  0  0  0  0  0
    2.8548   -3.3591   -1.9268 C   0  0  0  0  0  0  0  0  0  0  0  0
    4.1665   -3.2780   -1.1328 C   0  0  1  0  0  0  0  0  0  0  0  0
    5.2047   -4.1672   -1.8556 C   0  0  0  0  0  0  0  0  0  0  0  0
    4.0319   -3.7934    0.3514 C   0  0  2  0  0  0  0  0  0  0  0  0
    3.5699   -5.2734    0.4838 C   0  0  0  0  0  0  0  0  0  0  0  0
    2.7977   -5.6167    1.7692 C   0  0  0  0  0  0  0  0  0  0  0  0
    3.3238   -4.8965    3.0255 C   0  0  2  0  0  0  0  0  0  0  0  0
    4.8021   -5.2271    3.3407 C   0  0  0  0  0  0  0  0  0  0  0  0
    2.4312   -5.1885    4.2512 C   0  0  0  0  0  0  0  0  0  0  0  0
    2.2381   -6.3598    4.9141 C   0  0  0  0  0  0  0  0  0  0  0  0
    1.3353   -6.4762    6.1442 C   0  0  0  0  0  0  0  0  0  0  0  0
    2.8377   -7.7116    4.5269 C   0  0  0  0  0  0  0  0  0  0  0  0
    3.5986   -8.2545    5.5859 O   0  0  0  0  0  0  0  0  0  0  0  0
    1.7809   -3.8852    4.6707 C   0  0  0  0  0  0  0  0  0  0  0  0
    1.8332   -2.9973    3.4397 C   0  0  0  0  0  0  0  0  0  0  0  0
    3.1685   -3.3634    2.7781 C   0  0  2  0  0  0  0  0  0  0  0  0
    3.2569   -2.8400    1.3028 C   0  0  1  0  0  0  0  0  0  0  0  0
    2.6735    1.8249    3.2483 H   0  0  0  0  0  0  0  0  0  0  0  0
    3.6170    1.5043    4.7076 H   0  0  0  0  0  0  0  0  0  0  0  0
    2.1956    0.5183    4.3501 H   0  0  0  0  0  0  0  0  0  0  0  0
    4.9781   -1.5647    1.5475 H   0  0  0  0  0  0  0  0  0  0  0  0
    2.8954   -0.7799   -0.4938 H   0  0  0  0  0  0  0  0  0  0  0  0
    4.3617    0.1058   -0.1743 H   0  0  0  0  0  0  0  0  0  0  0  0
    5.7359   -1.8117   -0.8220 H   0  0  0  0  0  0  0  0  0  0  0  0
    4.9395   -0.1598   -2.5495 H   0  0  0  0  0  0  0  0  0  0  0  0
    5.4156   -1.7168   -3.1990 H   0  0  0  0  0  0  0  0  0  0  0  0
    1.5498   -2.6410   -3.4300 H   0  0  0  0  0  0  0  0  0  0  0  0
    2.1873   -4.1771   -1.7021 H   0  0  0  0  0  0  0  0  0  0  0  0
    6.1720   -4.1339   -1.3539 H   0  0  0  0  0  0  0  0  0  0  0  0
    5.3568   -3.8748   -2.8937 H   0  0  0  0  0  0  0  0  0  0  0  0
    4.9003   -5.2096   -1.8804 H   0  0  0  0  0  0  0  0  0  0  0  0
    5.0529   -3.7783    0.7298 H   0  0  0  0  0  0  0  0  0  0  0  0
    2.9407   -5.5793   -0.3396 H   0  0  0  0  0  0  0  0  0  0  0  0
    4.4552   -5.9097    0.4172 H   0  0  0  0  0  0  0  0  0  0  0  0
    1.7513   -5.3414    1.6241 H   0  0  0  0  0  0  0  0  0  0  0  0
    2.7977   -6.6985    1.8838 H   0  0  0  0  0  0  0  0  0  0  0  0
    5.4888   -4.7713    2.6320 H   0  0  0  0  0  0  0  0  0  0  0  0
    5.0234   -6.2896    3.3290 H   0  0  0  0  0  0  0  0  0  0  0  0
    5.0806   -4.8524    4.3246 H   0  0  0  0  0  0  0  0  0  0  0  0
    0.4900   -7.1283    5.9178 H   0  0  0  0  0  0  0  0  0  0  0  0
    0.9443   -5.5263    6.5094 H   0  0  0  0  0  0  0  0  0  0  0  0
    1.8840   -6.9179    6.9775 H   0  0  0  0  0  0  0  0  0  0  0  0
    2.0266   -8.3990    4.2810 H   0  0  0  0  0  0  0  0  0  0  0  0
    3.4784   -7.6650    3.6517 H   0  0  0  0  0  0  0  0  0  0  0  0
    3.0096   -8.6011    6.2412 H   0  0  0  0  0  0  0  0  0  0  0  0
    0.7575   -4.0003    5.0222 H   0  0  0  0  0  0  0  0  0  0  0  0
    2.3780   -3.4454    5.4709 H   0  0  0  0  0  0  0  0  0  0  0  0
    1.0014   -3.2648    2.7883 H   0  0  0  0  0  0  0  0  0  0  0  0
    1.7313   -1.9395    3.6759 H   0  0  0  0  0  0  0  0  0  0  0  0
    3.9585   -2.8816    3.3560 H   0  0  0  0  0  0  0  0  0  0  0  0
    2.2456   -2.7536    0.8986 H   0  0  0  0  0  0  0  0  0  0  0  0
  1  2  1  0
  1 29  1  0
  1 30  1  0
  1 31  1  0
  2  3  2  0
  2  4  1  0
  4  5  1  0
  5 28  1  0
  5  6  1  0
  5 32  1  1
  6  7  1  0
  6 33  1  0
  6 34  1  0
  7 13  1  0
  7  8  1  0
  7 35  1  1
  8  9  1  0
  8 36  1  0
  8 37  1  0
  9 10  2  0
  9 11  1  0
 11 12  2  0
 11 38  1  0
 12 13  1  0
 12 39  1  0
 13 14  1  6
 13 15  1  0
 14 40  1  0
 14 41  1  0
 14 42  1  0
 15 28  1  0
 15 16  1  0
 15 43  1  1
 16 17  1  0
 16 44  1  0
 16 45  1  0
 17 18  1  0
 17 46  1  0
 17 47  1  0
 18 27  1  0
 18 19  1  1
 18 20  1  0
 19 48  1  0
 19 49  1  0
 19 50  1  0
 20 21  2  3
 20 25  1  0
 21 22  1  0
 21 23  1  0
 22 51  1  0
 22 52  1  0
 22 53  1  0
 23 24  1  0
 23 54  1  0
 23 55  1  0
 24 56  1  0
 25 26  1  0
 25 57  1  0
 25 58  1  0
 26 27  1  0
 26 59  1  0
 26 60  1  0
 27 28  1  0
 27 61  1  1
 28 62  1  6
M  END
>  <i_m_ct_stereo_status>  (55) 
1

>  <s_m_source_file>  (55) 
/var/tmp/pbs.5076255.sched01/tmppv1df_bs/0l6e7d74h.sdf

>  <i_m_source_file_index>  (55) 
20

>  <i_lp_mmshare_version>  (55) 
48012

>  <i_f3d_flags>  (55) 
0

>  <s_epik_input>  (55) 
W0NIXTE9W0NIXUMoPU8pW0NIMl1bQ0BIXShbQ0BdMTJbQ0gzXSlbQ0gyXVtDQEBIXShPQyg9TylbQ0gzXSlbQ0BIXTNbQ0BIXTJbQ0gyXVtDSDJdW0NAQF00KFtDSDNdKVtDQEBIXTNbQ0gyXVtDSDJdQ1w0PUMoXFtDSDNdKVtDSDJdW09IXQ==

>  <s_epik_cmdline>  (55) 
J2VwaWtfcHl0aG9uJywgJy1waHQnLCAnMi4wJywgJy1waCcsICc3LjAnLCAnLXRuJywgJzgnLCAnLW1hJywgJzIwMCcsICctaW1hZScsICc8aW5maWxlLm1hZT4nLCAnLW9tYWUnLCAnPG91dGZpbGUubWFlPic=

>  <r_lp_tautomer_probability>  (55) 
1

>  <r_epik_Ionization_Penalty>  (55) 
2.53695e-07

>  <r_epik_Ionization_Penalty_Charging>  (55) 
0

>  <r_epik_Ionization_Penalty_Neutral>  (55) 
2.53695e-07

>  <r_epik_State_Penalty>  (55) 
-0

>  <r_epik_Charging_Adjusted_Penalty>  (55) 
0

>  <i_epik_Tot_Q>  (55) 
0

>  <i_epik_Tot_abs_Q>  (55) 
0

>  <s_epik_Chemistry_Notes>  (55) 
This compound has an ester and may undergo hydrolysis at high or low pH.

>  <s_lp_Force_Field>  (55) 
OPLS3e

>  <r_lp_Energy>  (55) 
41.3997

>  <b_lp_Chiralities_Consistent>  (55) 
1

>  <s_lp_Variant>  (55) 
12:0-2

>  <s_i_glide_gridfile>  (55) 
pfpi4k_grid

>  <i_i_glide_lignum>  (55) 
20

>  <i_i_glide_rotatable_bonds>  (55) 
4

>  <r_i_docking_score>  (55) 
-2.21617

>  <r_i_glide_ligand_efficiency>  (55) 
-0.0791489

>  <r_i_glide_ligand_efficiency_sa>  (55) 
-0.240343

>  <r_i_glide_ligand_efficiency_ln>  (55) 
-0.511557

>  <r_i_glide_gscore>  (55) 
-2.21617

>  <r_i_glide_lipo>  (55) 
-0.132762

>  <r_i_glide_hbond>  (55) 
0

>  <r_i_glide_metal>  (55) 
-0

>  <r_i_glide_rewards>  (55) 
-0.909004

>  <r_i_glide_evdw>  (55) 
-23.2658

>  <r_i_glide_ecoul>  (55) 
-1.81116

>  <r_i_glide_erotb>  (55) 
0.260564

>  <r_i_glide_esite>  (55) 
0

>  <r_i_glide_emodel>  (55) 
-28.4736

>  <r_i_glide_energy>  (55) 
-25.077

>  <r_i_glide_einternal>  (55) 
0.500661

>  <r_i_glide_intrahb_reward>  (55) 
-0

>  <i_i_glide_confnum>  (55) 
1

>  <i_i_glide_posenum>  (55) 
3

>  <r_i_glide_eff_state_penalty>  (55) 
0

>  <ligand_id>  (55) 
12

>  <original_smiles>  (55) 
CC(=O)OC1CC2CC(=O)C=CC2(C)C2CCC3(C)C(=C(C)CO)CCC3C12

>  <smiles>  (55) 
[H]OC([H])([H])C(=C1C([H])([H])C([H])([H])C2([H])C3([H])C([H])(OC(=O)C([H])([H])[H])C([H])([H])C4([H])C([H])([H])C(=O)C([H])=C([H])C4(C([H])([H])[H])C3([H])C([H])([H])C([H])([H])C12C([H])([H])[H])C([H])([H])[H]

$$$$
13:0:0
     RDKit          3D

 35 40  0  0  1  0  0  0  0  0999 V2000
    2.0626   -2.7244   -3.0107 C   0  0  0  0  0  0  0  0  0  0  0  0
    2.5236   -3.7005   -1.9909 N   0  0  2  0  0  0  0  0  0  0  0  0
    1.4378   -4.1280   -1.1210 C   0  0  0  0  0  0  0  0  0  0  0  0
    2.0910   -4.9218    0.0241 C   0  0  0  0  0  0  0  0  0  0  0  0
    3.5333   -4.4220    0.0842 C   0  0  0  0  0  0  0  0  0  0  0  0
    3.6602   -3.3636   -1.0577 C   0  0  2  0  0  0  0  0  0  0  0  0
    3.6889   -1.8726   -0.6828 C   0  0  1  0  0  0  0  0  0  0  0  0
    4.9124   -1.8121    0.3003 C   0  0  0  0  0  0  0  0  0  0  0  0
    6.1125   -2.3652   -0.6661 C   0  0  2  0  0  0  0  0  0  0  0  0
    5.7745   -2.2836   -2.2506 C   0  0  2  0  0  0  0  0  0  0  0  0
    4.2302   -1.1690   -2.0293 C   0  0  1  0  0  0  0  0  0  0  0  0
    5.0165   -1.4707   -3.0572 C   0  0  1  0  0  0  0  0  0  0  0  0
    5.9547   -1.5679   -1.7132 C   0  0  2  0  0  0  0  0  0  0  0  0
    5.0738   -3.3304   -1.7076 C   0  0  2  0  0  0  0  0  0  0  0  0
    4.8926   -3.0172   -3.0470 C   0  0  2  0  0  0  0  0  0  0  0  0
    1.8786   -1.7900   -2.5248 H   0  0  0  0  0  0  0  0  0  0  0  0
    1.1673   -3.0304   -3.4957 H   0  0  0  0  0  0  0  0  0  0  0  0
    2.7991   -2.5655   -3.7990 H   0  0  0  0  0  0  0  0  0  0  0  0
    1.0090   -3.2036   -0.7331 H   0  0  0  0  0  0  0  0  0  0  0  0
    0.6627   -4.6960   -1.6369 H   0  0  0  0  0  0  0  0  0  0  0  0
    1.5984   -4.7657    0.9876 H   0  0  0  0  0  0  0  0  0  0  0  0
    2.0674   -5.9976   -0.1865 H   0  0  0  0  0  0  0  0  0  0  0  0
    3.7791   -4.0696    1.0804 H   0  0  0  0  0  0  0  0  0  0  0  0
    4.1953   -5.2617   -0.1273 H   0  0  0  0  0  0  0  0  0  0  0  0
    2.7558   -1.4689   -0.2716 H   0  0  0  0  0  0  0  0  0  0  0  0
    5.0473   -0.7528    0.6108 H   0  0  0  0  0  0  0  0  0  0  0  0
    4.7855   -2.3586    1.2590 H   0  0  0  0  0  0  0  0  0  0  0  0
    7.1384   -2.2663   -0.2661 H   0  0  0  0  0  0  0  0  0  0  0  0
    6.7352   -2.6359   -3.0476 H   0  0  0  0  0  0  0  0  0  0  0  0
    4.2988   -0.0431   -1.8938 H   0  0  0  0  0  0  0  0  0  0  0  0
    5.0018   -0.7720   -3.9220 H   0  0  0  0  0  0  0  0  0  0  0  0
    6.1345   -0.6075   -1.1304 H   0  0  0  0  0  0  0  0  0  0  0  0
    5.5631   -4.3536   -1.6191 H   0  0  0  0  0  0  0  0  0  0  0  0
    5.3462   -3.6040   -3.8222 H   0  0  0  0  0  0  0  0  0  0  0  0
    2.8316   -4.5568   -2.4609 H   0  0  0  0  0  0  0  0  0  0  0  0
  1  2  1  0
  1 16  1  0
  1 17  1  0
  1 18  1  0
  2  6  1  0
  2  3  1  0
  2 35  1  6
  3  4  1  0
  3 19  1  0
  3 20  1  0
  4  5  1  0
  4 21  1  0
  4 22  1  0
  6  5  1  1
  5 23  1  0
  5 24  1  0
  6 14  1  0
  6  7  1  0
  7 11  1  0
  7  8  1  0
  7 25  1  1
  8  9  1  0
  8 26  1  0
  8 27  1  0
  9 13  1  0
  9 10  1  0
  9 28  1  1
 10 15  1  0
 10 11  1  0
 10 29  1  6
 11 12  1  0
 11 30  1  1
 12 15  1  0
 12 13  1  0
 12 31  1  6
 13 14  1  0
 13 32  1  6
 14 15  1  0
 14 33  1  6
 15 34  1  6
M  CHG  1   2   1
M  END
>  <i_m_ct_stereo_status>  (56) 
1

>  <s_m_source_file>  (56) 
/var/tmp/pbs.5076255.sched01/tmppv1df_bs/0l6e7d74h.sdf

>  <i_m_source_file_index>  (56) 
21

>  <i_lp_mmshare_version>  (56) 
48012

>  <i_f3d_flags>  (56) 
0

>  <s_epik_input>  (56) 
W0NIMl0xW0NIMl1bQ0gyXU4oW0NIM10pW0NAQF0xMltDQEBIXTNbQ0BASF00W0NASF01W0NIXShbQ0gyXTMpW0NIXTZbQ0BIXTRbQ0BASF01W0NASF0yNg==

>  <s_epik_cmdline>  (56) 
J2VwaWtfcHl0aG9uJywgJy1waHQnLCAnMi4wJywgJy1waCcsICc3LjAnLCAnLXRuJywgJzgnLCAnLW1hJywgJzIwMCcsICctaW1hZScsICc8aW5maWxlLm1hZT4nLCAnLW9tYWUnLCAnPG91dGZpbGUubWFlPic=

>  <r_lp_tautomer_probability>  (56) 
1

>  <r_epik_Ionization_Penalty>  (56) 
0.000189037

>  <r_epik_Ionization_Penalty_Charging>  (56) 
0.000189037

>  <r_epik_Ionization_Penalty_Neutral>  (56) 
0

>  <r_epik_State_Penalty>  (56) 
-0

>  <r_epik_Charging_Adjusted_Penalty>  (56) 
0.000189037

>  <i_epik_Tot_Q>  (56) 
1

>  <i_epik_Tot_abs_Q>  (56) 
1

>  <s_lp_Force_Field>  (56) 
OPLS3e

>  <r_lp_Energy>  (56) 
736.346

>  <b_lp_Chiralities_Consistent>  (56) 
1

>  <s_lp_Variant>  (56) 
13:0-1

>  <s_i_glide_gridfile>  (56) 
pfpi4k_grid

>  <i_i_glide_lignum>  (56) 
21

>  <i_i_glide_rotatable_bonds>  (56) 
0

>  <r_i_docking_score>  (56) 
-3.74264

>  <r_i_glide_ligand_efficiency>  (56) 
-0.249509

>  <r_i_glide_ligand_efficiency_sa>  (56) 
-0.615343

>  <r_i_glide_ligand_efficiency_ln>  (56) 
-1.00933

>  <r_i_glide_gscore>  (56) 
-3.74264

>  <r_i_glide_lipo>  (56) 
-0.397394

>  <r_i_glide_hbond>  (56) 
0

>  <r_i_glide_metal>  (56) 
-0

>  <r_i_glide_rewards>  (56) 
-2.02967

>  <r_i_glide_evdw>  (56) 
-7.34812

>  <r_i_glide_ecoul>  (56) 
-6.32114

>  <r_i_glide_erotb>  (56) 
0

>  <r_i_glide_esite>  (56) 
0

>  <r_i_glide_emodel>  (56) 
-15.3407

>  <r_i_glide_energy>  (56) 
-13.6693

>  <r_i_glide_einternal>  (56) 
0

>  <r_i_glide_intrahb_reward>  (56) 
-0

>  <i_i_glide_confnum>  (56) 
2

>  <i_i_glide_posenum>  (56) 
10

>  <r_i_glide_eff_state_penalty>  (56) 
0

>  <ligand_id>  (56) 
13

>  <original_smiles>  (56) 
CN1CCCC12C1CC3C4C1C1C3C2C41

>  <smiles>  (56) 
[H]C1([H])C2([H])C3([H])C4([H])C5([H])C2([H])C([H])(C35[H])C2(C([H])([H])C([H])([H])C([H])([H])[N+]2([H])C([H])([H])[H])C14[H]

$$$$
13:0:1
     RDKit          3D

 35 40  0  0  1  0  0  0  0  0999 V2000
    4.7728   -1.1870   -2.5348 C   0  0  0  0  0  0  0  0  0  0  0  0
    3.9637   -2.3645   -2.1524 N   0  0  2  0  0  0  0  0  0  0  0  0
    2.6105   -2.2462   -2.7047 C   0  0  0  0  0  0  0  0  0  0  0  0
    1.7980   -3.3399   -2.0323 C   0  0  0  0  0  0  0  0  0  0  0  0
    2.5417   -3.6582   -0.7168 C   0  0  0  0  0  0  0  0  0  0  0  0
    3.7713   -2.7049   -0.7002 C   0  0  2  0  0  0  0  0  0  0  0  0
    3.7325   -1.4700    0.2075 C   0  0  1  0  0  0  0  0  0  0  0  0
    3.4641   -2.1278    1.6269 C   0  0  0  0  0  0  0  0  0  0  0  0
    4.7574   -3.0767    1.7491 C   0  0  2  0  0  0  0  0  0  0  0  0
    5.9986   -2.6952    0.7608 C   0  0  2  0  0  0  0  0  0  0  0  0
    5.2822   -0.9908    0.2621 C   0  0  1  0  0  0  0  0  0  0  0  0
    6.4958   -1.5345    0.2206 C   0  0  1  0  0  0  0  0  0  0  0  0
    5.7407   -2.2264    1.4794 C   0  0  2  0  0  0  0  0  0  0  0  0
    5.0026   -3.3003    0.0280 C   0  0  2  0  0  0  0  0  0  0  0  0
    6.1546   -2.7957   -0.6159 C   0  0  2  0  0  0  0  0  0  0  0  0
    4.4180   -0.3102   -1.9849 H   0  0  0  0  0  0  0  0  0  0  0  0
    4.6659   -0.9901   -3.5824 H   0  0  0  0  0  0  0  0  0  0  0  0
    5.8142   -1.3464   -2.2569 H   0  0  0  0  0  0  0  0  0  0  0  0
    2.1977   -1.2856   -2.4092 H   0  0  0  0  0  0  0  0  0  0  0  0
    2.5769   -2.3297   -3.7896 H   0  0  0  0  0  0  0  0  0  0  0  0
    0.7573   -3.0652   -1.8597 H   0  0  0  0  0  0  0  0  0  0  0  0
    1.7256   -4.1730   -2.7093 H   0  0  0  0  0  0  0  0  0  0  0  0
    1.8691   -3.5728    0.1349 H   0  0  0  0  0  0  0  0  0  0  0  0
    2.8841   -4.7020   -0.7677 H   0  0  0  0  0  0  0  0  0  0  0  0
    3.0004   -0.6914   -0.0762 H   0  0  0  0  0  0  0  0  0  0  0  0
    3.4485   -1.3267    2.3793 H   0  0  0  0  0  0  0  0  0  0  0  0
    2.5088   -2.6417    1.7430 H   0  0  0  0  0  0  0  0  0  0  0  0
    4.9543   -3.5397    2.7257 H   0  0  0  0  0  0  0  0  0  0  0  0
    7.0692   -3.4037    0.8863 H   0  0  0  0  0  0  0  0  0  0  0  0
    5.3525   -0.0745    0.9127 H   0  0  0  0  0  0  0  0  0  0  0  0
    7.3956   -0.8816    0.1968 H   0  0  0  0  0  0  0  0  0  0  0  0
    5.5023   -1.5472    2.3744 H   0  0  0  0  0  0  0  0  0  0  0  0
    4.9963   -4.4540   -0.0579 H   0  0  0  0  0  0  0  0  0  0  0  0
    6.9307   -3.4640   -0.9050 H   0  0  0  0  0  0  0  0  0  0  0  0
    4.3831   -3.1831   -2.5749 H   0  0  0  0  0  0  0  0  0  0  0  0
  1  2  1  0
  1 16  1  0
  1 17  1  0
  1 18  1  0
  2  6  1  0
  2  3  1  0
  2 35  1  6
  3  4  1  0
  3 19  1  0
  3 20  1  0
  4  5  1  0
  4 21  1  0
  4 22  1  0
  6  5  1  6
  5 23  1  0
  5 24  1  0
  6 14  1  0
  6  7  1  0
  7 11  1  0
  7  8  1  0
  7 25  1  6
  8  9  1  0
  8 26  1  0
  8 27  1  0
  9 13  1  0
  9 10  1  0
  9 28  1  1
 10 15  1  0
 10 11  1  0
 10 29  1  1
 11 12  1  0
 11 30  1  1
 12 15  1  0
 12 13  1  0
 12 31  1  1
 13 14  1  0
 13 32  1  1
 14 15  1  0
 14 33  1  1
 15 34  1  1
M  CHG  1   2   1
M  END
>  <i_m_ct_stereo_status>  (57) 
1

>  <s_m_source_file>  (57) 
/var/tmp/pbs.5076255.sched01/tmppv1df_bs/0l6e7d74h.sdf

>  <i_m_source_file_index>  (57) 
21

>  <i_lp_mmshare_version>  (57) 
48012

>  <i_f3d_flags>  (57) 
0

>  <s_epik_input>  (57) 
W0NIMl0xW0NIMl1bQ0gyXU4oW0NIM10pW0NAQF0xMltDQEBIXTNbQ0BASF00W0NASF01W0NIXShbQ0gyXTMpW0NIXTZbQ0BIXTRbQ0BASF01W0NASF0yNg==

>  <s_epik_cmdline>  (57) 
J2VwaWtfcHl0aG9uJywgJy1waHQnLCAnMi4wJywgJy1waCcsICc3LjAnLCAnLXRuJywgJzgnLCAnLW1hJywgJzIwMCcsICctaW1hZScsICc8aW5maWxlLm1hZT4nLCAnLW9tYWUnLCAnPG91dGZpbGUubWFlPic=

>  <r_lp_tautomer_probability>  (57) 
1

>  <r_epik_Ionization_Penalty>  (57) 
0.000189037

>  <r_epik_Ionization_Penalty_Charging>  (57) 
0.000189037

>  <r_epik_Ionization_Penalty_Neutral>  (57) 
0

>  <r_epik_State_Penalty>  (57) 
-0

>  <r_epik_Charging_Adjusted_Penalty>  (57) 
0.000189037

>  <i_epik_Tot_Q>  (57) 
1

>  <i_epik_Tot_abs_Q>  (57) 
1

>  <s_lp_Force_Field>  (57) 
OPLS3e

>  <r_lp_Energy>  (57) 
736.346

>  <b_lp_Chiralities_Consistent>  (57) 
1

>  <s_lp_Variant>  (57) 
13:0-1

>  <s_i_glide_gridfile>  (57) 
pfpi4k_grid

>  <i_i_glide_lignum>  (57) 
21

>  <i_i_glide_rotatable_bonds>  (57) 
0

>  <r_i_docking_score>  (57) 
-3.5804

>  <r_i_glide_ligand_efficiency>  (57) 
-0.238693

>  <r_i_glide_ligand_efficiency_sa>  (57) 
-0.588668

>  <r_i_glide_ligand_efficiency_ln>  (57) 
-0.965574

>  <r_i_glide_gscore>  (57) 
-3.5804

>  <r_i_glide_lipo>  (57) 
-0.404606

>  <r_i_glide_hbond>  (57) 
0

>  <r_i_glide_metal>  (57) 
-0

>  <r_i_glide_rewards>  (57) 
-2.02967

>  <r_i_glide_evdw>  (57) 
-13.6318

>  <r_i_glide_ecoul>  (57) 
-3.08404

>  <r_i_glide_erotb>  (57) 
0

>  <r_i_glide_esite>  (57) 
-0.00192554

>  <r_i_glide_emodel>  (57) 
-20.0644

>  <r_i_glide_energy>  (57) 
-16.7159

>  <r_i_glide_einternal>  (57) 
0

>  <r_i_glide_intrahb_reward>  (57) 
-0

>  <i_i_glide_confnum>  (57) 
1

>  <i_i_glide_posenum>  (57) 
2

>  <r_i_glide_eff_state_penalty>  (57) 
0

>  <ligand_id>  (57) 
13

>  <original_smiles>  (57) 
CN1CCCC12C1CC3C4C1C1C3C2C41

>  <smiles>  (57) 
[H]C1([H])C2([H])C3([H])C4([H])C5([H])C2([H])C([H])(C35[H])C2(C([H])([H])C([H])([H])C([H])([H])[N+]2([H])C([H])([H])[H])C14[H]

$$$$
13:0:2
     RDKit          3D

 35 40  0  0  1  0  0  0  0  0999 V2000
    3.0880   -1.2999   -1.2415 C   0  0  0  0  0  0  0  0  0  0  0  0
    3.9138   -2.1320   -2.1157 N   0  0  2  0  0  0  0  0  0  0  0  0
    3.1214   -2.6891   -3.2158 C   0  0  0  0  0  0  0  0  0  0  0  0
    4.0150   -3.7208   -3.9045 C   0  0  0  0  0  0  0  0  0  0  0  0
    5.0091   -4.1482   -2.8262 C   0  0  0  0  0  0  0  0  0  0  0  0
    4.6701   -3.3185   -1.5547 C   0  0  2  0  0  0  0  0  0  0  0  0
    3.9482   -4.0255   -0.3909 C   0  0  1  0  0  0  0  0  0  0  0  0
    4.9337   -5.2111   -0.0522 C   0  0  0  0  0  0  0  0  0  0  0  0
    6.2947   -4.4127    0.3298 C   0  0  2  0  0  0  0  0  0  0  0  0
    6.0543   -2.8554    0.7121 C   0  0  2  0  0  0  0  0  0  0  0  0
    4.1582   -3.0067    0.8344 C   0  0  1  0  0  0  0  0  0  0  0  0
    5.0471   -2.1156    1.2797 C   0  0  1  0  0  0  0  0  0  0  0  0
    5.8164   -3.5445    1.1961 C   0  0  2  0  0  0  0  0  0  0  0  0
    5.9090   -2.9898   -0.6528 C   0  0  2  0  0  0  0  0  0  0  0  0
    5.7000   -1.7478   -0.0712 C   0  0  2  0  0  0  0  0  0  0  0  0
    2.4831   -1.9566   -0.6499 H   0  0  0  0  0  0  0  0  0  0  0  0
    2.5289   -0.6323   -1.8757 H   0  0  0  0  0  0  0  0  0  0  0  0
    3.6037   -0.6602   -0.5382 H   0  0  0  0  0  0  0  0  0  0  0  0
    2.2587   -3.2012   -2.7861 H   0  0  0  0  0  0  0  0  0  0  0  0
    2.7612   -1.9190   -3.9016 H   0  0  0  0  0  0  0  0  0  0  0  0
    3.4453   -4.5664   -4.3073 H   0  0  0  0  0  0  0  0  0  0  0  0
    4.5668   -3.2604   -4.7291 H   0  0  0  0  0  0  0  0  0  0  0  0
    5.0168   -5.2234   -2.7227 H   0  0  0  0  0  0  0  0  0  0  0  0
    6.0145   -3.8867   -3.1676 H   0  0  0  0  0  0  0  0  0  0  0  0
    2.9211   -4.3202   -0.6107 H   0  0  0  0  0  0  0  0  0  0  0  0
    4.4937   -5.7617    0.7939 H   0  0  0  0  0  0  0  0  0  0  0  0
    5.0290   -5.9810   -0.8330 H   0  0  0  0  0  0  0  0  0  0  0  0
    7.1016   -4.9828    0.7661 H   0  0  0  0  0  0  0  0  0  0  0  0
    7.0864   -2.1713    1.0651 H   0  0  0  0  0  0  0  0  0  0  0  0
    3.6359   -3.3935    1.7699 H   0  0  0  0  0  0  0  0  0  0  0  0
    4.7998   -1.4609    2.1240 H   0  0  0  0  0  0  0  0  0  0  0  0
    5.4568   -4.3369    1.9465 H   0  0  0  0  0  0  0  0  0  0  0  0
    6.8602   -2.9280   -1.3070 H   0  0  0  0  0  0  0  0  0  0  0  0
    6.4332   -0.9520   -0.1342 H   0  0  0  0  0  0  0  0  0  0  0  0
    4.6315   -1.5611   -2.5414 H   0  0  0  0  0  0  0  0  0  0  0  0
  1  2  1  0
  1 16  1  0
  1 17  1  0
  1 18  1  0
  2  6  1  0
  2  3  1  0
  2 35  1  6
  3  4  1  0
  3 19  1  0
  3 20  1  0
  4  5  1  0
  4 21  1  0
  4 22  1  0
  6  5  1  6
  5 23  1  0
  5 24  1  0
  6 14  1  0
  6  7  1  0
  7 11  1  0
  7  8  1  0
  7 25  1  6
  8  9  1  0
  8 26  1  0
  8 27  1  0
  9 13  1  0
  9 10  1  0
  9 28  1  1
 10 15  1  0
 10 11  1  0
 10 29  1  1
 11 12  1  0
 11 30  1  1
 12 15  1  0
 12 13  1  0
 12 31  1  1
 13 14  1  0
 13 32  1  1
 14 15  1  0
 14 33  1  6
 15 34  1  6
M  CHG  1   2   1
M  END
>  <i_m_ct_stereo_status>  (58) 
1

>  <s_m_source_file>  (58) 
/var/tmp/pbs.5076255.sched01/tmppv1df_bs/0l6e7d74h.sdf

>  <i_m_source_file_index>  (58) 
21

>  <i_lp_mmshare_version>  (58) 
48012

>  <i_f3d_flags>  (58) 
0

>  <s_epik_input>  (58) 
W0NIMl0xW0NIMl1bQ0gyXU4oW0NIM10pW0NAQF0xMltDQEBIXTNbQ0BASF00W0NASF01W0NIXShbQ0gyXTMpW0NIXTZbQ0BIXTRbQ0BASF01W0NASF0yNg==

>  <s_epik_cmdline>  (58) 
J2VwaWtfcHl0aG9uJywgJy1waHQnLCAnMi4wJywgJy1waCcsICc3LjAnLCAnLXRuJywgJzgnLCAnLW1hJywgJzIwMCcsICctaW1hZScsICc8aW5maWxlLm1hZT4nLCAnLW9tYWUnLCAnPG91dGZpbGUubWFlPic=

>  <r_lp_tautomer_probability>  (58) 
1

>  <r_epik_Ionization_Penalty>  (58) 
0.000189037

>  <r_epik_Ionization_Penalty_Charging>  (58) 
0.000189037

>  <r_epik_Ionization_Penalty_Neutral>  (58) 
0

>  <r_epik_State_Penalty>  (58) 
-0

>  <r_epik_Charging_Adjusted_Penalty>  (58) 
0.000189037

>  <i_epik_Tot_Q>  (58) 
1

>  <i_epik_Tot_abs_Q>  (58) 
1

>  <s_lp_Force_Field>  (58) 
OPLS3e

>  <r_lp_Energy>  (58) 
736.346

>  <b_lp_Chiralities_Consistent>  (58) 
1

>  <s_lp_Variant>  (58) 
13:0-1

>  <s_i_glide_gridfile>  (58) 
pfpi4k_grid

>  <i_i_glide_lignum>  (58) 
21

>  <i_i_glide_rotatable_bonds>  (58) 
0

>  <r_i_docking_score>  (58) 
-3.36212

>  <r_i_glide_ligand_efficiency>  (58) 
-0.224141

>  <r_i_glide_ligand_efficiency_sa>  (58) 
-0.55278

>  <r_i_glide_ligand_efficiency_ln>  (58) 
-0.906708

>  <r_i_glide_gscore>  (58) 
-3.36212

>  <r_i_glide_lipo>  (58) 
-0.450635

>  <r_i_glide_hbond>  (58) 
0

>  <r_i_glide_metal>  (58) 
-0

>  <r_i_glide_rewards>  (58) 
-2.02967

>  <r_i_glide_evdw>  (58) 
-8.28371

>  <r_i_glide_ecoul>  (58) 
-2.99838

>  <r_i_glide_erotb>  (58) 
0

>  <r_i_glide_esite>  (58) 
-0.0178704

>  <r_i_glide_emodel>  (58) 
-14.5329

>  <r_i_glide_energy>  (58) 
-11.2821

>  <r_i_glide_einternal>  (58) 
0

>  <r_i_glide_intrahb_reward>  (58) 
-0

>  <i_i_glide_confnum>  (58) 
1

>  <i_i_glide_posenum>  (58) 
7

>  <r_i_glide_eff_state_penalty>  (58) 
0

>  <ligand_id>  (58) 
13

>  <original_smiles>  (58) 
CN1CCCC12C1CC3C4C1C1C3C2C41

>  <smiles>  (58) 
[H]C1([H])C2([H])C3([H])C4([H])C5([H])C2([H])C([H])(C35[H])C2(C([H])([H])C([H])([H])C([H])([H])[N+]2([H])C([H])([H])[H])C14[H]

$$$$
14:0:0
     RDKit          3D

104114  0  0  1  0  0  0  0  0999 V2000
   -0.4857   -6.7077    3.6598 C   0  0  0  0  0  0  0  0  0  0  0  0
    0.9860   -6.6650    3.9935 C   0  0  2  0  0  0  0  0  0  0  0  0
    1.8438   -7.4554    3.0204 C   0  0  0  0  0  0  0  0  0  0  0  0
    3.3298   -7.5861    3.4848 C   0  0  1  0  0  0  0  0  0  0  0  0
    3.9489   -8.4412    2.5464 O   0  0  0  0  0  0  0  0  0  0  0  0
    5.2737   -8.2177    2.0442 C   0  0  0  0  0  0  0  0  0  0  0  0
    6.3550   -8.4855    3.0761 C   0  0  0  0  0  0  0  0  0  0  0  0
    5.4141   -9.2451    0.9289 C   0  0  0  0  0  0  0  0  0  0  0  0
    5.5562   -6.9815    1.5040 O   0  0  0  0  0  0  0  0  0  0  0  0
    4.4831   -6.1005    1.2366 C   0  0  2  0  0  0  0  0  0  0  0  0
    4.9272   -5.1246    0.1039 C   0  0  0  0  0  0  0  0  0  0  0  0
    4.0455   -3.8692    0.0678 C   0  0  2  0  0  0  0  0  0  0  0  0
    2.8195   -4.2340   -0.5449 O   0  0  0  0  0  0  0  0  0  0  0  0
    4.6653   -2.6061   -0.6168 C   0  0  1  0  0  0  0  0  0  0  0  0
    4.6638   -2.5920   -2.1466 C   0  0  0  0  0  0  0  0  0  0  0  0
    3.9400   -1.4041    0.0136 C   0  0  0  0  0  0  0  0  0  0  0  0
    3.2310   -1.9383    1.2703 C   0  0  0  0  0  0  0  0  0  0  0  0
    3.7757   -3.3520    1.4996 C   0  0  2  0  0  0  0  0  0  0  0  0
    5.0321   -3.2612    2.1758 O   0  0  0  0  0  0  0  0  0  0  0  0
    5.2028   -4.3784    3.0476 C   0  0  1  0  0  0  0  0  0  0  0  0
    4.9641   -3.8719    4.5098 C   0  0  0  0  0  0  0  0  0  0  0  0
    3.6222   -3.0936    4.6191 C   0  0  2  0  0  0  0  0  0  0  0  0
    3.0639   -2.8692    6.0594 C   0  0  0  0  0  0  0  0  0  0  0  0
    1.5717   -2.3792    5.9897 C   0  0  1  0  0  0  0  0  0  0  0  0
    0.5518   -2.3014    7.1047 C   0  0  0  0  0  0  0  0  0  0  0  0
    0.3255   -3.1645    5.8630 C   0  0  1  0  0  0  0  0  0  0  0  0
    0.8475   -2.3922    4.6553 C   0  0  1  0  0  0  0  0  0  0  0  0
    0.0437   -1.2173    4.4756 O   0  0  0  0  0  0  0  0  0  0  0  0
    0.7519   -0.0374    4.6761 C   0  0  2  0  0  0  0  0  0  0  0  0
   -0.1039    0.9910    5.0485 O   0  0  0  0  0  0  0  0  0  0  0  0
   -1.1353    1.2579    4.0992 C   0  0  1  0  0  0  0  0  0  0  0  0
   -2.0580    2.3446    4.6414 C   0  0  0  0  0  0  0  0  0  0  0  0
   -0.5249    1.6563    2.7514 C   0  0  1  0  0  0  0  0  0  0  0  0
    0.1189    2.9289    2.9247 O   0  0  0  0  0  0  0  0  0  0  0  0
    0.4729    0.6053    2.2650 C   0  0  0  0  0  0  0  0  0  0  0  0
    1.4847    0.3070    3.3736 C   0  0  1  0  0  0  0  0  0  0  0  0
    2.3733    1.3823    3.5574 O   0  0  0  0  0  0  0  0  0  0  0  0
    1.4055   -2.9787    3.5502 O   0  0  0  0  0  0  0  0  0  0  0  0
    2.5506   -3.7757    3.7726 C   0  0  1  0  0  0  0  0  0  0  0  0
    2.9976   -4.3660    2.4003 C   0  0  2  0  0  0  0  0  0  0  0  0
    4.1203   -5.3824    2.5736 C   0  0  1  0  0  0  0  0  0  0  0  0
    3.9058   -6.3188    3.6356 O   0  0  0  0  0  0  0  0  0  0  0  0
    3.3697   -8.2769    4.8980 C   0  0  1  0  0  0  0  0  0  0  0  0
    4.7443   -8.1765    5.5511 C   0  0  0  0  0  0  0  0  0  0  0  0
    2.3540   -7.7066    5.8929 C   0  0  0  0  0  0  0  0  0  0  0  0
    2.5439   -7.9853    7.2719 C   0  0  0  0  0  0  0  0  0  0  0  0
    1.6765   -7.4799    8.2333 C   0  0  0  0  0  0  0  0  0  0  0  0
    0.5800   -6.7170    7.8307 C   0  0  0  0  0  0  0  0  0  0  0  0
    0.3611   -6.4998    6.4655 C   0  0  0  0  0  0  0  0  0  0  0  0
    1.2405   -6.9501    5.4651 C   0  0  0  0  0  0  0  0  0  0  0  0
   -1.0243   -5.9231    4.2285 H   0  0  0  0  0  0  0  0  0  0  0  0
   -0.9012   -7.6815    3.8997 H   0  0  0  0  0  0  0  0  0  0  0  0
   -0.6314   -6.4602    2.6075 H   0  0  0  0  0  0  0  0  0  0  0  0
    1.1153   -5.6651    3.7215 H   0  0  0  0  0  0  0  0  0  0  0  0
    1.4208   -8.4708    2.9520 H   0  0  0  0  0  0  0  0  0  0  0  0
    1.8022   -7.0317    2.0203 H   0  0  0  0  0  0  0  0  0  0  0  0
    6.3332   -7.6547    3.7959 H   0  0  0  0  0  0  0  0  0  0  0  0
    7.3592   -8.4762    2.6916 H   0  0  0  0  0  0  0  0  0  0  0  0
    6.2013   -9.4819    3.5124 H   0  0  0  0  0  0  0  0  0  0  0  0
    4.6798   -9.0288    0.1507 H   0  0  0  0  0  0  0  0  0  0  0  0
    5.2323  -10.2510    1.3041 H   0  0  0  0  0  0  0  0  0  0  0  0
    6.4184   -9.1981    0.5131 H   0  0  0  0  0  0  0  0  0  0  0  0
    3.6512   -6.6782    0.8459 H   0  0  0  0  0  0  0  0  0  0  0  0
    5.9637   -4.8384    0.2495 H   0  0  0  0  0  0  0  0  0  0  0  0
    4.8957   -5.6349   -0.8588 H   0  0  0  0  0  0  0  0  0  0  0  0
    3.0085   -4.6976   -1.3477 H   0  0  0  0  0  0  0  0  0  0  0  0
    5.7047   -2.5269   -0.2958 H   0  0  0  0  0  0  0  0  0  0  0  0
    3.6473   -2.6077   -2.5446 H   0  0  0  0  0  0  0  0  0  0  0  0
    5.1968   -3.4539   -2.5483 H   0  0  0  0  0  0  0  0  0  0  0  0
    5.1485   -1.6960   -2.5392 H   0  0  0  0  0  0  0  0  0  0  0  0
    4.6368   -0.6103    0.2845 H   0  0  0  0  0  0  0  0  0  0  0  0
    3.2107   -0.9578   -0.6647 H   0  0  0  0  0  0  0  0  0  0  0  0
    3.4977   -1.3198    2.1017 H   0  0  0  0  0  0  0  0  0  0  0  0
    2.1476   -1.9408    1.1204 H   0  0  0  0  0  0  0  0  0  0  0  0
    6.2026   -4.7978    2.9539 H   0  0  0  0  0  0  0  0  0  0  0  0
    5.0137   -4.7173    5.1896 H   0  0  0  0  0  0  0  0  0  0  0  0
    5.7737   -3.2085    4.8106 H   0  0  0  0  0  0  0  0  0  0  0  0
    3.7765   -2.1171    4.1593 H   0  0  0  0  0  0  0  0  0  0  0  0
    3.1789   -3.7345    6.7008 H   0  0  0  0  0  0  0  0  0  0  0  0
    3.6633   -2.0808    6.5133 H   0  0  0  0  0  0  0  0  0  0  0  0
    0.6884   -2.6868    8.0809 H   0  0  0  0  0  0  0  0  0  0  0  0
   -0.0915   -1.3695    7.0327 H   0  0  0  0  0  0  0  0  0  0  0  0
    0.4206   -4.2178    5.9000 H   0  0  0  0  0  0  0  0  0  0  0  0
    1.4985   -0.1147    5.4763 H   0  0  0  0  0  0  0  0  0  0  0  0
   -1.7301    0.3492    3.9931 H   0  0  0  0  0  0  0  0  0  0  0  0
   -2.8939    2.4947    3.9567 H   0  0  0  0  0  0  0  0  0  0  0  0
   -1.5342    3.2985    4.7417 H   0  0  0  0  0  0  0  0  0  0  0  0
   -2.4556    2.0771    5.6179 H   0  0  0  0  0  0  0  0  0  0  0  0
   -1.3196    1.7708    2.0078 H   0  0  0  0  0  0  0  0  0  0  0  0
    0.1558    3.3199    2.0474 H   0  0  0  0  0  0  0  0  0  0  0  0
   -0.0475   -0.3148    1.9919 H   0  0  0  0  0  0  0  0  0  0  0  0
    0.9866    0.9298    1.3602 H   0  0  0  0  0  0  0  0  0  0  0  0
    2.0579   -0.5443    3.1381 H   0  0  0  0  0  0  0  0  0  0  0  0
    1.8335    2.1700    3.5804 H   0  0  0  0  0  0  0  0  0  0  0  0
    2.3195   -4.5342    4.4954 H   0  0  0  0  0  0  0  0  0  0  0  0
    2.1343   -4.7665    1.8894 H   0  0  0  0  0  0  0  0  0  0  0  0
    3.1068   -9.3284    4.7625 H   0  0  0  0  0  0  0  0  0  0  0  0
    4.8690   -8.6543    6.4960 H   0  0  0  0  0  0  0  0  0  0  0  0
    5.1161   -7.1322    5.5889 H   0  0  0  0  0  0  0  0  0  0  0  0
    5.3782   -8.8445    5.0938 H   0  0  0  0  0  0  0  0  0  0  0  0
    3.3440   -8.6035    7.6374 H   0  0  0  0  0  0  0  0  0  0  0  0
    1.8405   -7.7097    9.2768 H   0  0  0  0  0  0  0  0  0  0  0  0
   -0.1098   -6.3196    8.5526 H   0  0  0  0  0  0  0  0  0  0  0  0
   -0.5281   -5.9531    6.2039 H   0  0  0  0  0  0  0  0  0  0  0  0
  1  2  1  0
  1 51  1  0
  1 52  1  0
  1 53  1  0
  2 50  1  0
  2  3  1  0
  2 54  1  1
  3  4  1  0
  3 55  1  0
  3 56  1  0
  4 42  1  1
  4  5  1  0
  4 43  1  0
  5  6  1  0
  6  7  1  0
  6  8  1  0
  6  9  1  0
  7 57  1  0
  7 58  1  0
  7 59  1  0
  8 60  1  0
  8 61  1  0
  8 62  1  0
  9 10  1  0
 10 41  1  0
 10 11  1  0
 10 63  1  6
 11 12  1  0
 11 64  1  0
 11 65  1  0
 12 18  1  0
 12 13  1  6
 12 14  1  0
 13 66  1  0
 14 15  1  0
 14 16  1  0
 14 67  1  1
 15 68  1  0
 15 69  1  0
 15 70  1  0
 16 17  1  0
 16 71  1  0
 16 72  1  0
 17 18  1  0
 17 73  1  0
 17 74  1  0
 18 40  1  0
 18 19  1  1
 19 20  1  0
 20 41  1  0
 20 21  1  0
 20 75  1  1
 21 22  1  0
 21 76  1  0
 21 77  1  0
 22 39  1  0
 22 23  1  0
 22 78  1  6
 24 23  1  6
 23 79  1  0
 23 80  1  0
 24 26  1  0
 24 27  1  0
 24 25  1  0
 25 26  1  0
 25 81  1  0
 25 82  1  0
 26 27  1  0
 26 83  1  6
 27 28  1  6
 27 38  1  0
 28 29  1  0
 29 36  1  0
 29 30  1  0
 29 84  1  1
 30 31  1  0
 31 32  1  0
 31 33  1  0
 31 85  1  6
 32 86  1  0
 32 87  1  0
 32 88  1  0
 33 34  1  0
 33 35  1  0
 33 89  1  6
 34 90  1  0
 35 36  1  0
 35 91  1  0
 35 92  1  0
 36 37  1  0
 36 93  1  6
 37 94  1  0
 38 39  1  0
 39 40  1  0
 39 95  1  1
 40 41  1  0
 40 96  1  6
 41 42  1  1
 43 44  1  0
 43 45  1  0
 43 97  1  6
 44 98  1  0
 44 99  1  0
 44100  1  0
 45 50  2  0
 45 46  1  0
 46 47  2  0
 46101  1  0
 47 48  1  0
 47102  1  0
 48 49  2  0
 48103  1  0
 49 50  1  0
 49104  1  0
M  END
>  <i_m_ct_stereo_status>  (59) 
1

>  <s_m_source_file>  (59) 
/var/tmp/pbs.5076255.sched01/tmppv1df_bs/0l6e7d74h.sdf

>  <i_m_source_file_index>  (59) 
22

>  <i_lp_mmshare_version>  (59) 
48012

>  <i_f3d_flags>  (59) 
0

>  <s_epik_input>  (59) 
W2NIXTFbY0hdW2NIXVtjSF1jKFtDQEBIXTJbQ0gzXSljMVtDQEhdKFtDSDNdKVtDSDJdW0NAXTIzT0MoW0NIM10pKFtDSDNdKU9bQ0BIXTRbQ0BAXTUoTzMpW0NASF02T1tDQEBdNyhbQ0BAXShbQ0gyXTQpKFtPSF0pW0NAQEhdKFtDSDNdKVtDSDJdW0NIMl03KVtDQEBIXTVbQ0BIXThbQ0BIXShbQ0gyXTYpW0NIMl1bQ0BdMTlbQ0BASF0oW0NIMl05KVtDQEBdMShPOClPW0NAQEhdMU9bQ0BASF0oW0NIM10pW0NAQEhdKFtPSF0pW0NIMl1bQ0BIXTFbT0hd

>  <s_epik_cmdline>  (59) 
J2VwaWtfcHl0aG9uJywgJy1waHQnLCAnMi4wJywgJy1waCcsICc3LjAnLCAnLXRuJywgJzgnLCAnLW1hJywgJzIwMCcsICctaW1hZScsICc8aW5maWxlLm1hZT4nLCAnLW9tYWUnLCAnPG91dGZpbGUubWFlPic=

>  <r_lp_tautomer_probability>  (59) 
1

>  <r_epik_Ionization_Penalty>  (59) 
7.89787e-07

>  <r_epik_Ionization_Penalty_Charging>  (59) 
0

>  <r_epik_Ionization_Penalty_Neutral>  (59) 
7.89787e-07

>  <r_epik_State_Penalty>  (59) 
-0

>  <r_epik_Charging_Adjusted_Penalty>  (59) 
0

>  <i_epik_Tot_Q>  (59) 
0

>  <i_epik_Tot_abs_Q>  (59) 
0

>  <s_epik_Chemistry_Notes>  (59) 
This compound contains an acetal/aminal-like group ( X-CH(R)-Y where X, Y are N, S, or O) that may be acid/base labile, releasing an aldehyde.

>  <s_lp_Force_Field>  (59) 
OPLS3e

>  <r_lp_Energy>  (59) 
90.5763

>  <b_lp_Chiralities_Consistent>  (59) 
1

>  <s_lp_Variant>  (59) 
14:0-1

>  <s_i_glide_gridfile>  (59) 
pfpi4k_grid

>  <i_i_glide_lignum>  (59) 
22

>  <i_i_glide_rotatable_bonds>  (59) 
5

>  <r_i_docking_score>  (59) 
-1.99131

>  <r_i_glide_ligand_efficiency>  (59) 
-0.0398262

>  <r_i_glide_ligand_efficiency_sa>  (59) 
-0.146721

>  <r_i_glide_ligand_efficiency_ln>  (59) 
-0.405395

>  <r_i_glide_gscore>  (59) 
-1.99131

>  <r_i_glide_lipo>  (59) 
-0.208411

>  <r_i_glide_hbond>  (59) 
-0.304

>  <r_i_glide_metal>  (59) 
-0

>  <r_i_glide_rewards>  (59) 
-0.56228

>  <r_i_glide_evdw>  (59) 
-39.7199

>  <r_i_glide_ecoul>  (59) 
-6.02563

>  <r_i_glide_erotb>  (59) 
0.0887195

>  <r_i_glide_esite>  (59) 
-0.00479089

>  <r_i_glide_emodel>  (59) 
-48.6683

>  <r_i_glide_energy>  (59) 
-45.7456

>  <r_i_glide_einternal>  (59) 
6.43473

>  <r_i_glide_intrahb_reward>  (59) 
-0.5

>  <i_i_glide_confnum>  (59) 
4

>  <i_i_glide_posenum>  (59) 
19

>  <r_i_glide_eff_state_penalty>  (59) 
0

>  <ligand_id>  (59) 
14

>  <original_smiles>  (59) 
CC1CC2(OC(C)(C)OC3CC4(O)C(C)CCC45OC4CC6CC78CC7C8(OC7OC(C)C(O)CC7O)OC6C5C34O2)C(C)c2ccccc21

>  <smiles>  (59) 
[H]OC1([H])C([H])(OC23OC4([H])C([H])(C([H])([H])C5([H])OC67C([H])([H])C([H])([H])C([H])(C([H])([H])[H])C6(O[H])C([H])([H])C6([H])OC(C([H])([H])[H])(C([H])([H])[H])OC8(OC56C47[H])C([H])([H])C([H])(C([H])([H])[H])c4c([H])c([H])c([H])c([H])c4C8([H])C([H])([H])[H])C([H])([H])C24C([H])([H])C34[H])OC([H])(C([H])([H])[H])C([H])(O[H])C1([H])[H]

$$$$
14:0:1
     RDKit          3D

104114  0  0  1  0  0  0  0  0999 V2000
   -0.4670   -6.7895    3.5706 C   0  0  0  0  0  0  0  0  0  0  0  0
    0.9991   -6.7800    3.9240 C   0  0  2  0  0  0  0  0  0  0  0  0
    1.8871   -7.5375    2.9472 C   0  0  0  0  0  0  0  0  0  0  0  0
    3.3654   -7.6685    3.4313 C   0  0  1  0  0  0  0  0  0  0  0  0
    3.9937   -8.5058    2.4803 O   0  0  0  0  0  0  0  0  0  0  0  0
    5.3242   -8.2682    2.0021 C   0  0  0  0  0  0  0  0  0  0  0  0
    6.4007   -8.5576    3.0359 C   0  0  0  0  0  0  0  0  0  0  0  0
    5.4858   -9.2743    0.9040 C   0  0  0  0  0  0  0  0  0  0  0  0
    5.6143   -7.0177    1.4900 O   0  0  0  0  0  0  0  0  0  0  0  0
    4.5433   -6.1385    1.2292 C   0  0  2  0  0  0  0  0  0  0  0  0
    5.0037   -5.1429    0.1248 C   0  0  0  0  0  0  0  0  0  0  0  0
    4.1199   -3.8907    0.1000 C   0  0  2  0  0  0  0  0  0  0  0  0
    2.8998   -4.2341   -0.5323 O   0  0  0  0  0  0  0  0  0  0  0  0
    4.7469   -2.6151   -0.5550 C   0  0  1  0  0  0  0  0  0  0  0  0
    4.7669   -2.5641   -2.0834 C   0  0  0  0  0  0  0  0  0  0  0  0
    4.0135   -1.4221    0.0815 C   0  0  0  0  0  0  0  0  0  0  0  0
    3.2943   -1.9867    1.3103 C   0  0  0  0  0  0  0  0  0  0  0  0
    3.8358   -3.3987    1.5351 C   0  0  2  0  0  0  0  0  0  0  0  0
    5.0803   -3.3143    2.2343 O   0  0  0  0  0  0  0  0  0  0  0  0
    5.2362   -4.4528    3.0809 C   0  0  1  0  0  0  0  0  0  0  0  0
    4.9765   -3.9760    4.5499 C   0  0  0  0  0  0  0  0  0  0  0  0
    3.6379   -3.1912    4.6594 C   0  0  2  0  0  0  0  0  0  0  0  0
    3.0429   -3.0020    6.0941 C   0  0  0  0  0  0  0  0  0  0  0  0
    1.5591   -2.4918    6.0156 C   0  0  1  0  0  0  0  0  0  0  0  0
    0.5275   -2.4509    7.1293 C   0  0  0  0  0  0  0  0  0  0  0  0
    0.3172   -3.2694    5.8575 C   0  0  1  0  0  0  0  0  0  0  0  0
    0.8519   -2.5059    4.6625 C   0  0  1  0  0  0  0  0  0  0  0  0
    0.0544   -1.3343    4.5039 O   0  0  0  0  0  0  0  0  0  0  0  0
    0.7701   -0.1511    4.6744 C   0  0  2  0  0  0  0  0  0  0  0  0
   -0.0920    0.9250    4.7995 O   0  0  0  0  0  0  0  0  0  0  0  0
   -0.9712    1.1038    3.6889 C   0  0  1  0  0  0  0  0  0  0  0  0
   -1.9164    2.2635    3.9696 C   0  0  0  0  0  0  0  0  0  0  0  0
   -0.1734    1.3165    2.3903 C   0  0  1  0  0  0  0  0  0  0  0  0
    0.5004    2.5382    2.4746 O   0  0  0  0  0  0  0  0  0  0  0  0
    0.8449    0.2046    2.1838 C   0  0  0  0  0  0  0  0  0  0  0  0
    1.6843    0.0436    3.4631 C   0  0  1  0  0  0  0  0  0  0  0  0
    2.6550    1.0527    3.6367 O   0  0  0  0  0  0  0  0  0  0  0  0
    1.4259   -3.0946    3.5396 O   0  0  0  0  0  0  0  0  0  0  0  0
    2.5866   -3.8612    3.7831 C   0  0  1  0  0  0  0  0  0  0  0  0
    3.0451   -4.4268    2.4032 C   0  0  2  0  0  0  0  0  0  0  0  0
    4.1622   -5.4480    2.5738 C   0  0  1  0  0  0  0  0  0  0  0  0
    3.9351   -6.4000    3.6172 O   0  0  0  0  0  0  0  0  0  0  0  0
    3.3757   -8.3856    4.8326 C   0  0  1  0  0  0  0  0  0  0  0  0
    4.7336   -8.2873    5.5226 C   0  0  0  0  0  0  0  0  0  0  0  0
    2.3553   -7.8386    5.8246 C   0  0  0  0  0  0  0  0  0  0  0  0
    2.5236   -8.1441    7.1998 C   0  0  0  0  0  0  0  0  0  0  0  0
    1.6462   -7.6583    8.1611 C   0  0  0  0  0  0  0  0  0  0  0  0
    0.5555   -6.8909    7.7589 C   0  0  0  0  0  0  0  0  0  0  0  0
    0.3497   -6.6585    6.3962 C   0  0  0  0  0  0  0  0  0  0  0  0
    1.2471   -7.0800    5.3987 C   0  0  0  0  0  0  0  0  0  0  0  0
   -1.0034   -6.0289    4.1415 H   0  0  0  0  0  0  0  0  0  0  0  0
   -0.8754   -7.7833    3.7880 H   0  0  0  0  0  0  0  0  0  0  0  0
   -0.5904   -6.5299    2.5231 H   0  0  0  0  0  0  0  0  0  0  0  0
    1.1229   -5.7625    3.6592 H   0  0  0  0  0  0  0  0  0  0  0  0
    1.4643   -8.5453    2.8554 H   0  0  0  0  0  0  0  0  0  0  0  0
    1.8537   -7.0878    1.9581 H   0  0  0  0  0  0  0  0  0  0  0  0
    6.3790   -7.7370    3.7564 H   0  0  0  0  0  0  0  0  0  0  0  0
    7.4166   -8.5384    2.6673 H   0  0  0  0  0  0  0  0  0  0  0  0
    6.2492   -9.5625    3.4380 H   0  0  0  0  0  0  0  0  0  0  0  0
    4.7608   -9.0440    0.0915 H   0  0  0  0  0  0  0  0  0  0  0  0
    5.3007  -10.2878    1.2299 H   0  0  0  0  0  0  0  0  0  0  0  0
    6.4943   -9.2192    0.4797 H   0  0  0  0  0  0  0  0  0  0  0  0
    3.7171   -6.7088    0.8161 H   0  0  0  0  0  0  0  0  0  0  0  0
    6.0386   -4.8549    0.2880 H   0  0  0  0  0  0  0  0  0  0  0  0
    4.9860   -5.6306   -0.8496 H   0  0  0  0  0  0  0  0  0  0  0  0
    3.0940   -4.7437   -1.3178 H   0  0  0  0  0  0  0  0  0  0  0  0
    5.7812   -2.5333   -0.2159 H   0  0  0  0  0  0  0  0  0  0  0  0
    3.7556   -2.5722   -2.4928 H   0  0  0  0  0  0  0  0  0  0  0  0
    5.3061   -3.4168   -2.4929 H   0  0  0  0  0  0  0  0  0  0  0  0
    5.2555   -1.6585   -2.4495 H   0  0  0  0  0  0  0  0  0  0  0  0
    4.7034   -0.6318    0.3855 H   0  0  0  0  0  0  0  0  0  0  0  0
    3.2894   -0.9594   -0.5920 H   0  0  0  0  0  0  0  0  0  0  0  0
    3.5904   -1.3723    2.1255 H   0  0  0  0  0  0  0  0  0  0  0  0
    2.2087   -1.9877    1.1568 H   0  0  0  0  0  0  0  0  0  0  0  0
    6.2373   -4.8683    2.9947 H   0  0  0  0  0  0  0  0  0  0  0  0
    5.0200   -4.8345    5.2178 H   0  0  0  0  0  0  0  0  0  0  0  0
    5.7800   -3.3175    4.8747 H   0  0  0  0  0  0  0  0  0  0  0  0
    3.8030   -2.2128    4.2199 H   0  0  0  0  0  0  0  0  0  0  0  0
    3.1611   -3.8835    6.7229 H   0  0  0  0  0  0  0  0  0  0  0  0
    3.6445   -2.2285    6.5689 H   0  0  0  0  0  0  0  0  0  0  0  0
    0.6580   -2.8722    8.1062 H   0  0  0  0  0  0  0  0  0  0  0  0
   -0.1128   -1.5350    7.0559 H   0  0  0  0  0  0  0  0  0  0  0  0
    0.4350   -4.3172    5.8704 H   0  0  0  0  0  0  0  0  0  0  0  0
    1.3953   -0.1681    5.5735 H   0  0  0  0  0  0  0  0  0  0  0  0
   -1.5750    0.1955    3.6054 H   0  0  0  0  0  0  0  0  0  0  0  0
   -2.6445    2.3448    3.1610 H   0  0  0  0  0  0  0  0  0  0  0  0
   -1.3743    3.2104    4.0272 H   0  0  0  0  0  0  0  0  0  0  0  0
   -2.4497    2.1205    4.9056 H   0  0  0  0  0  0  0  0  0  0  0  0
   -0.8534    1.3601    1.5359 H   0  0  0  0  0  0  0  0  0  0  0  0
    0.2246    3.1403    1.7553 H   0  0  0  0  0  0  0  0  0  0  0  0
    0.3325   -0.7355    1.9479 H   0  0  0  0  0  0  0  0  0  0  0  0
    1.4822    0.4094    1.3214 H   0  0  0  0  0  0  0  0  0  0  0  0
    2.2405   -0.8499    3.4555 H   0  0  0  0  0  0  0  0  0  0  0  0
    3.0230    1.2472    2.7951 H   0  0  0  0  0  0  0  0  0  0  0  0
    2.3557   -4.6274    4.5114 H   0  0  0  0  0  0  0  0  0  0  0  0
    2.1831   -4.8216    1.8743 H   0  0  0  0  0  0  0  0  0  0  0  0
    3.1239   -9.4367    4.6695 H   0  0  0  0  0  0  0  0  0  0  0  0
    4.8668   -8.8005    6.4511 H   0  0  0  0  0  0  0  0  0  0  0  0
    5.1199   -7.2492    5.5727 H   0  0  0  0  0  0  0  0  0  0  0  0
    5.3748   -8.9771    5.0847 H   0  0  0  0  0  0  0  0  0  0  0  0
    3.3147   -8.7689    7.5686 H   0  0  0  0  0  0  0  0  0  0  0  0
    1.7956   -7.9099    9.1986 H   0  0  0  0  0  0  0  0  0  0  0  0
   -0.1463   -6.5073    8.4759 H   0  0  0  0  0  0  0  0  0  0  0  0
   -0.5421   -6.1214    6.1387 H   0  0  0  0  0  0  0  0  0  0  0  0
  1  2  1  0
  1 51  1  0
  1 52  1  0
  1 53  1  0
  2 50  1  0
  2  3  1  0
  2 54  1  1
  3  4  1  0
  3 55  1  0
  3 56  1  0
  4 42  1  1
  4  5  1  0
  4 43  1  0
  5  6  1  0
  6  7  1  0
  6  8  1  0
  6  9  1  0
  7 57  1  0
  7 58  1  0
  7 59  1  0
  8 60  1  0
  8 61  1  0
  8 62  1  0
  9 10  1  0
 10 41  1  0
 10 11  1  0
 10 63  1  6
 11 12  1  0
 11 64  1  0
 11 65  1  0
 12 18  1  0
 12 13  1  6
 12 14  1  0
 13 66  1  0
 14 15  1  0
 14 16  1  0
 14 67  1  1
 15 68  1  0
 15 69  1  0
 15 70  1  0
 16 17  1  0
 16 71  1  0
 16 72  1  0
 17 18  1  0
 17 73  1  0
 17 74  1  0
 18 40  1  0
 18 19  1  1
 19 20  1  0
 20 41  1  0
 20 21  1  0
 20 75  1  1
 21 22  1  0
 21 76  1  0
 21 77  1  0
 22 39  1  0
 22 23  1  0
 22 78  1  6
 24 23  1  6
 23 79  1  0
 23 80  1  0
 24 26  1  0
 24 27  1  0
 24 25  1  0
 25 26  1  0
 25 81  1  0
 25 82  1  0
 26 27  1  0
 26 83  1  6
 27 28  1  6
 27 38  1  0
 28 29  1  0
 29 36  1  0
 29 30  1  0
 29 84  1  1
 30 31  1  0
 31 32  1  0
 31 33  1  0
 31 85  1  6
 32 86  1  0
 32 87  1  0
 32 88  1  0
 33 34  1  0
 33 35  1  0
 33 89  1  6
 34 90  1  0
 35 36  1  0
 35 91  1  0
 35 92  1  0
 36 37  1  0
 36 93  1  6
 37 94  1  0
 38 39  1  0
 39 40  1  0
 39 95  1  1
 40 41  1  0
 40 96  1  6
 41 42  1  1
 43 44  1  0
 43 45  1  0
 43 97  1  6
 44 98  1  0
 44 99  1  0
 44100  1  0
 45 50  2  0
 45 46  1  0
 46 47  2  0
 46101  1  0
 47 48  1  0
 47102  1  0
 48 49  2  0
 48103  1  0
 49 50  1  0
 49104  1  0
M  END
>  <i_m_ct_stereo_status>  (60) 
1

>  <s_m_source_file>  (60) 
/var/tmp/pbs.5076255.sched01/tmppv1df_bs/0l6e7d74h.sdf

>  <i_m_source_file_index>  (60) 
22

>  <i_lp_mmshare_version>  (60) 
48012

>  <i_f3d_flags>  (60) 
0

>  <s_epik_input>  (60) 
W2NIXTFbY0hdW2NIXVtjSF1jKFtDQEBIXTJbQ0gzXSljMVtDQEhdKFtDSDNdKVtDSDJdW0NAXTIzT0MoW0NIM10pKFtDSDNdKU9bQ0BIXTRbQ0BAXTUoTzMpW0NASF02T1tDQEBdNyhbQ0BAXShbQ0gyXTQpKFtPSF0pW0NAQEhdKFtDSDNdKVtDSDJdW0NIMl03KVtDQEBIXTVbQ0BIXThbQ0BIXShbQ0gyXTYpW0NIMl1bQ0BdMTlbQ0BASF0oW0NIMl05KVtDQEBdMShPOClPW0NAQEhdMU9bQ0BASF0oW0NIM10pW0NAQEhdKFtPSF0pW0NIMl1bQ0BIXTFbT0hd

>  <s_epik_cmdline>  (60) 
J2VwaWtfcHl0aG9uJywgJy1waHQnLCAnMi4wJywgJy1waCcsICc3LjAnLCAnLXRuJywgJzgnLCAnLW1hJywgJzIwMCcsICctaW1hZScsICc8aW5maWxlLm1hZT4nLCAnLW9tYWUnLCAnPG91dGZpbGUubWFlPic=

>  <r_lp_tautomer_probability>  (60) 
1

>  <r_epik_Ionization_Penalty>  (60) 
7.89787e-07

>  <r_epik_Ionization_Penalty_Charging>  (60) 
0

>  <r_epik_Ionization_Penalty_Neutral>  (60) 
7.89787e-07

>  <r_epik_State_Penalty>  (60) 
-0

>  <r_epik_Charging_Adjusted_Penalty>  (60) 
0

>  <i_epik_Tot_Q>  (60) 
0

>  <i_epik_Tot_abs_Q>  (60) 
0

>  <s_epik_Chemistry_Notes>  (60) 
This compound contains an acetal/aminal-like group ( X-CH(R)-Y where X, Y are N, S, or O) that may be acid/base labile, releasing an aldehyde.

>  <s_lp_Force_Field>  (60) 
OPLS3e

>  <r_lp_Energy>  (60) 
90.5763

>  <b_lp_Chiralities_Consistent>  (60) 
1

>  <s_lp_Variant>  (60) 
14:0-1

>  <s_i_glide_gridfile>  (60) 
pfpi4k_grid

>  <i_i_glide_lignum>  (60) 
22

>  <i_i_glide_rotatable_bonds>  (60) 
5

>  <r_i_docking_score>  (60) 
-1.84887

>  <r_i_glide_ligand_efficiency>  (60) 
-0.0369774

>  <r_i_glide_ligand_efficiency_sa>  (60) 
-0.136226

>  <r_i_glide_ligand_efficiency_ln>  (60) 
-0.376396

>  <r_i_glide_gscore>  (60) 
-1.84887

>  <r_i_glide_lipo>  (60) 
-0.21892

>  <r_i_glide_hbond>  (60) 
-0.304

>  <r_i_glide_metal>  (60) 
-0

>  <r_i_glide_rewards>  (60) 
-0.0686587

>  <r_i_glide_evdw>  (60) 
-39.5049

>  <r_i_glide_ecoul>  (60) 
-7.59497

>  <r_i_glide_erotb>  (60) 
0.0887195

>  <r_i_glide_esite>  (60) 
-0.00461635

>  <r_i_glide_emodel>  (60) 
-44.2245

>  <r_i_glide_energy>  (60) 
-47.0999

>  <r_i_glide_einternal>  (60) 
7.26807

>  <r_i_glide_intrahb_reward>  (60) 
-0

>  <i_i_glide_confnum>  (60) 
4

>  <i_i_glide_posenum>  (60) 
1

>  <r_i_glide_eff_state_penalty>  (60) 
0

>  <ligand_id>  (60) 
14

>  <original_smiles>  (60) 
CC1CC2(OC(C)(C)OC3CC4(O)C(C)CCC45OC4CC6CC78CC7C8(OC7OC(C)C(O)CC7O)OC6C5C34O2)C(C)c2ccccc21

>  <smiles>  (60) 
[H]OC1([H])C([H])(OC23OC4([H])C([H])(C([H])([H])C5([H])OC67C([H])([H])C([H])([H])C([H])(C([H])([H])[H])C6(O[H])C([H])([H])C6([H])OC(C([H])([H])[H])(C([H])([H])[H])OC8(OC56C47[H])C([H])([H])C([H])(C([H])([H])[H])c4c([H])c([H])c([H])c([H])c4C8([H])C([H])([H])[H])C([H])([H])C24C([H])([H])C34[H])OC([H])(C([H])([H])[H])C([H])(O[H])C1([H])[H]

$$$$
14:0:2
     RDKit          3D

104114  0  0  1  0  0  0  0  0999 V2000
   -0.4760   -6.7521    3.5795 C   0  0  0  0  0  0  0  0  0  0  0  0
    0.9894   -6.7478    3.9330 C   0  0  2  0  0  0  0  0  0  0  0  0
    1.8602   -7.5166    2.9560 C   0  0  0  0  0  0  0  0  0  0  0  0
    3.3411   -7.6640    3.4368 C   0  0  1  0  0  0  0  0  0  0  0  0
    3.9655   -8.5050    2.4886 O   0  0  0  0  0  0  0  0  0  0  0  0
    5.2963   -8.2802    2.0060 C   0  0  0  0  0  0  0  0  0  0  0  0
    6.3659   -8.5790    3.0467 C   0  0  0  0  0  0  0  0  0  0  0  0
    5.4447   -9.2866    0.8772 C   0  0  0  0  0  0  0  0  0  0  0  0
    5.5951   -7.0358    1.4926 O   0  0  0  0  0  0  0  0  0  0  0  0
    4.5309   -6.1452    1.2330 C   0  0  2  0  0  0  0  0  0  0  0  0
    4.9994   -5.1510    0.1267 C   0  0  0  0  0  0  0  0  0  0  0  0
    4.1267   -3.8920    0.1020 C   0  0  2  0  0  0  0  0  0  0  0  0
    2.9034   -4.2335   -0.5291 O   0  0  0  0  0  0  0  0  0  0  0  0
    4.7632   -2.6212   -0.5529 C   0  0  1  0  0  0  0  0  0  0  0  0
    4.7815   -2.5729   -2.0795 C   0  0  0  0  0  0  0  0  0  0  0  0
    4.0402   -1.4238    0.0874 C   0  0  0  0  0  0  0  0  0  0  0  0
    3.3149   -1.9786    1.3228 C   0  0  0  0  0  0  0  0  0  0  0  0
    3.8474   -3.3974    1.5408 C   0  0  2  0  0  0  0  0  0  0  0  0
    5.0925   -3.3266    2.2367 O   0  0  0  0  0  0  0  0  0  0  0  0
    5.2416   -4.4635    3.0862 C   0  0  1  0  0  0  0  0  0  0  0  0
    4.9859   -3.9859    4.5559 C   0  0  0  0  0  0  0  0  0  0  0  0
    3.6519   -3.1961    4.6614 C   0  0  2  0  0  0  0  0  0  0  0  0
    3.0674   -2.9960    6.0981 C   0  0  0  0  0  0  0  0  0  0  0  0
    1.5859   -2.4792    6.0196 C   0  0  1  0  0  0  0  0  0  0  0  0
    0.5571   -2.4280    7.1356 C   0  0  0  0  0  0  0  0  0  0  0  0
    0.3394   -3.2534    5.8675 C   0  0  1  0  0  0  0  0  0  0  0  0
    0.8745   -2.4804    4.6740 C   0  0  1  0  0  0  0  0  0  0  0  0
    0.0848   -1.2958    4.5071 O   0  0  0  0  0  0  0  0  0  0  0  0
    0.8029   -0.1221    4.7144 C   0  0  2  0  0  0  0  0  0  0  0  0
   -0.0512    0.9668    4.7644 O   0  0  0  0  0  0  0  0  0  0  0  0
   -0.8545    1.1324    3.5968 C   0  0  1  0  0  0  0  0  0  0  0  0
   -1.8085    2.3004    3.7971 C   0  0  0  0  0  0  0  0  0  0  0  0
    0.0424    1.3380    2.3627 C   0  0  1  0  0  0  0  0  0  0  0  0
    0.7165    2.4980    2.4317 O   0  0  0  0  0  0  0  0  0  0  0  0
    1.0548    0.1996    2.2396 C   0  0  0  0  0  0  0  0  0  0  0  0
    1.8048    0.0369    3.5646 C   0  0  1  0  0  0  0  0  0  0  0  0
    2.6962    1.0970    3.7917 O   0  0  0  0  0  0  0  0  0  0  0  0
    1.4378   -3.0691    3.5658 O   0  0  0  0  0  0  0  0  0  0  0  0
    2.5865   -3.8525    3.7886 C   0  0  1  0  0  0  0  0  0  0  0  0
    3.0475   -4.4230    2.4104 C   0  0  2  0  0  0  0  0  0  0  0  0
    4.1585   -5.4515    2.5795 C   0  0  1  0  0  0  0  0  0  0  0  0
    3.9214   -6.4035    3.6202 O   0  0  0  0  0  0  0  0  0  0  0  0
    3.3576   -8.3832    4.8389 C   0  0  1  0  0  0  0  0  0  0  0  0
    4.7196   -8.3026    5.5197 C   0  0  0  0  0  0  0  0  0  0  0  0
    2.3307   -7.8276    5.8304 C   0  0  0  0  0  0  0  0  0  0  0  0
    2.4983   -8.1322    7.2066 C   0  0  0  0  0  0  0  0  0  0  0  0
    1.6271   -7.6400    8.1690 C   0  0  0  0  0  0  0  0  0  0  0  0
    0.5402   -6.8614    7.7654 C   0  0  0  0  0  0  0  0  0  0  0  0
    0.3373   -6.6204    6.4023 C   0  0  0  0  0  0  0  0  0  0  0  0
    1.2262   -7.0554    5.4025 C   0  0  0  0  0  0  0  0  0  0  0  0
   -1.0119   -5.9887    4.1510 H   0  0  0  0  0  0  0  0  0  0  0  0
   -0.9040   -7.7467    3.7964 H   0  0  0  0  0  0  0  0  0  0  0  0
   -0.6028   -6.4950    2.5300 H   0  0  0  0  0  0  0  0  0  0  0  0
    1.1298   -5.7303    3.6782 H   0  0  0  0  0  0  0  0  0  0  0  0
    1.4345   -8.5283    2.8608 H   0  0  0  0  0  0  0  0  0  0  0  0
    1.8346   -7.0722    1.9637 H   0  0  0  0  0  0  0  0  0  0  0  0
    6.3458   -7.7642    3.7752 H   0  0  0  0  0  0  0  0  0  0  0  0
    7.3799   -8.5684    2.6659 H   0  0  0  0  0  0  0  0  0  0  0  0
    6.2036   -9.5802    3.4538 H   0  0  0  0  0  0  0  0  0  0  0  0
    4.7218   -9.0522    0.0925 H   0  0  0  0  0  0  0  0  0  0  0  0
    5.2537  -10.2976    1.2354 H   0  0  0  0  0  0  0  0  0  0  0  0
    6.4580   -9.2413    0.4723 H   0  0  0  0  0  0  0  0  0  0  0  0
    3.6988   -6.7073    0.8203 H   0  0  0  0  0  0  0  0  0  0  0  0
    6.0354   -4.8742    0.2916 H   0  0  0  0  0  0  0  0  0  0  0  0
    4.9766   -5.6413   -0.8460 H   0  0  0  0  0  0  0  0  0  0  0  0
    3.0912   -4.7328   -1.3119 H   0  0  0  0  0  0  0  0  0  0  0  0
    5.7974   -2.5516   -0.2131 H   0  0  0  0  0  0  0  0  0  0  0  0
    3.7697   -2.5724   -2.4889 H   0  0  0  0  0  0  0  0  0  0  0  0
    5.3133   -3.4300   -2.4902 H   0  0  0  0  0  0  0  0  0  0  0  0
    5.2771   -1.6723   -2.4454 H   0  0  0  0  0  0  0  0  0  0  0  0
    4.7364   -0.6411    0.3892 H   0  0  0  0  0  0  0  0  0  0  0  0
    3.3197   -0.9556   -0.5865 H   0  0  0  0  0  0  0  0  0  0  0  0
    3.5781   -1.3599    2.1431 H   0  0  0  0  0  0  0  0  0  0  0  0
    2.2344   -1.9874    1.1534 H   0  0  0  0  0  0  0  0  0  0  0  0
    6.2384   -4.8894    2.9966 H   0  0  0  0  0  0  0  0  0  0  0  0
    5.0215   -4.8438    5.2208 H   0  0  0  0  0  0  0  0  0  0  0  0
    5.7975   -3.3334    4.8773 H   0  0  0  0  0  0  0  0  0  0  0  0
    3.8392   -2.2181    4.2278 H   0  0  0  0  0  0  0  0  0  0  0  0
    3.1684   -3.8753    6.7250 H   0  0  0  0  0  0  0  0  0  0  0  0
    3.6712   -2.2243    6.5764 H   0  0  0  0  0  0  0  0  0  0  0  0
    0.6796   -2.8447    8.1011 H   0  0  0  0  0  0  0  0  0  0  0  0
   -0.0848   -1.4984    7.0747 H   0  0  0  0  0  0  0  0  0  0  0  0
    0.4367   -4.3100    5.8815 H   0  0  0  0  0  0  0  0  0  0  0  0
    1.3606   -0.1347    5.6614 H   0  0  0  0  0  0  0  0  0  0  0  0
   -1.4596    0.2271    3.4823 H   0  0  0  0  0  0  0  0  0  0  0  0
   -2.4798    2.3784    2.9410 H   0  0  0  0  0  0  0  0  0  0  0  0
   -1.2662    3.2460    3.8829 H   0  0  0  0  0  0  0  0  0  0  0  0
   -2.4081    2.1719    4.6951 H   0  0  0  0  0  0  0  0  0  0  0  0
   -0.5800    1.3656    1.4588 H   0  0  0  0  0  0  0  0  0  0  0  0
    0.4069    3.1621    1.8120 H   0  0  0  0  0  0  0  0  0  0  0  0
    0.5449   -0.7378    1.9767 H   0  0  0  0  0  0  0  0  0  0  0  0
    1.7481    0.3944    1.4204 H   0  0  0  0  0  0  0  0  0  0  0  0
    2.3923   -0.8399    3.6012 H   0  0  0  0  0  0  0  0  0  0  0  0
    2.1955    1.8907    3.6202 H   0  0  0  0  0  0  0  0  0  0  0  0
    2.3460   -4.6296    4.5027 H   0  0  0  0  0  0  0  0  0  0  0  0
    2.1861   -4.8058    1.8820 H   0  0  0  0  0  0  0  0  0  0  0  0
    3.0862   -9.4295    4.6758 H   0  0  0  0  0  0  0  0  0  0  0  0
    4.8326   -8.8011    6.4544 H   0  0  0  0  0  0  0  0  0  0  0  0
    5.1029   -7.2660    5.5756 H   0  0  0  0  0  0  0  0  0  0  0  0
    5.3603   -8.9831    5.0557 H   0  0  0  0  0  0  0  0  0  0  0  0
    3.2876   -8.7662    7.5745 H   0  0  0  0  0  0  0  0  0  0  0  0
    1.7762   -7.8916    9.2077 H   0  0  0  0  0  0  0  0  0  0  0  0
   -0.1558   -6.4730    8.4862 H   0  0  0  0  0  0  0  0  0  0  0  0
   -0.5459   -6.0661    6.1429 H   0  0  0  0  0  0  0  0  0  0  0  0
  1  2  1  0
  1 51  1  0
  1 52  1  0
  1 53  1  0
  2 50  1  0
  2  3  1  0
  2 54  1  1
  3  4  1  0
  3 55  1  0
  3 56  1  0
  4 42  1  1
  4  5  1  0
  4 43  1  0
  5  6  1  0
  6  7  1  0
  6  8  1  0
  6  9  1  0
  7 57  1  0
  7 58  1  0
  7 59  1  0
  8 60  1  0
  8 61  1  0
  8 62  1  0
  9 10  1  0
 10 41  1  0
 10 11  1  0
 10 63  1  6
 11 12  1  0
 11 64  1  0
 11 65  1  0
 12 18  1  0
 12 13  1  6
 12 14  1  0
 13 66  1  0
 14 15  1  0
 14 16  1  0
 14 67  1  1
 15 68  1  0
 15 69  1  0
 15 70  1  0
 16 17  1  0
 16 71  1  0
 16 72  1  0
 17 18  1  0
 17 73  1  0
 17 74  1  0
 18 40  1  0
 18 19  1  1
 19 20  1  0
 20 41  1  0
 20 21  1  0
 20 75  1  1
 21 22  1  0
 21 76  1  0
 21 77  1  0
 22 39  1  0
 22 23  1  0
 22 78  1  6
 24 23  1  6
 23 79  1  0
 23 80  1  0
 24 26  1  0
 24 27  1  0
 24 25  1  0
 25 26  1  0
 25 81  1  0
 25 82  1  0
 26 27  1  0
 26 83  1  6
 27 28  1  6
 27 38  1  0
 28 29  1  0
 29 36  1  0
 29 30  1  0
 29 84  1  1
 30 31  1  0
 31 32  1  0
 31 33  1  0
 31 85  1  6
 32 86  1  0
 32 87  1  0
 32 88  1  0
 33 34  1  0
 33 35  1  0
 33 89  1  6
 34 90  1  0
 35 36  1  0
 35 91  1  0
 35 92  1  0
 36 37  1  0
 36 93  1  6
 37 94  1  0
 38 39  1  0
 39 40  1  0
 39 95  1  1
 40 41  1  0
 40 96  1  6
 41 42  1  1
 43 44  1  0
 43 45  1  0
 43 97  1  6
 44 98  1  0
 44 99  1  0
 44100  1  0
 45 50  2  0
 45 46  1  0
 46 47  2  0
 46101  1  0
 47 48  1  0
 47102  1  0
 48 49  2  0
 48103  1  0
 49 50  1  0
 49104  1  0
M  END
>  <i_m_ct_stereo_status>  (61) 
1

>  <s_m_source_file>  (61) 
/var/tmp/pbs.5076255.sched01/tmppv1df_bs/0l6e7d74h.sdf

>  <i_m_source_file_index>  (61) 
22

>  <i_lp_mmshare_version>  (61) 
48012

>  <i_f3d_flags>  (61) 
0

>  <s_epik_input>  (61) 
W2NIXTFbY0hdW2NIXVtjSF1jKFtDQEBIXTJbQ0gzXSljMVtDQEhdKFtDSDNdKVtDSDJdW0NAXTIzT0MoW0NIM10pKFtDSDNdKU9bQ0BIXTRbQ0BAXTUoTzMpW0NASF02T1tDQEBdNyhbQ0BAXShbQ0gyXTQpKFtPSF0pW0NAQEhdKFtDSDNdKVtDSDJdW0NIMl03KVtDQEBIXTVbQ0BIXThbQ0BIXShbQ0gyXTYpW0NIMl1bQ0BdMTlbQ0BASF0oW0NIMl05KVtDQEBdMShPOClPW0NAQEhdMU9bQ0BASF0oW0NIM10pW0NAQEhdKFtPSF0pW0NIMl1bQ0BIXTFbT0hd

>  <s_epik_cmdline>  (61) 
J2VwaWtfcHl0aG9uJywgJy1waHQnLCAnMi4wJywgJy1waCcsICc3LjAnLCAnLXRuJywgJzgnLCAnLW1hJywgJzIwMCcsICctaW1hZScsICc8aW5maWxlLm1hZT4nLCAnLW9tYWUnLCAnPG91dGZpbGUubWFlPic=

>  <r_lp_tautomer_probability>  (61) 
1

>  <r_epik_Ionization_Penalty>  (61) 
7.89787e-07

>  <r_epik_Ionization_Penalty_Charging>  (61) 
0

>  <r_epik_Ionization_Penalty_Neutral>  (61) 
7.89787e-07

>  <r_epik_State_Penalty>  (61) 
-0

>  <r_epik_Charging_Adjusted_Penalty>  (61) 
0

>  <i_epik_Tot_Q>  (61) 
0

>  <i_epik_Tot_abs_Q>  (61) 
0

>  <s_epik_Chemistry_Notes>  (61) 
This compound contains an acetal/aminal-like group ( X-CH(R)-Y where X, Y are N, S, or O) that may be acid/base labile, releasing an aldehyde.

>  <s_lp_Force_Field>  (61) 
OPLS3e

>  <r_lp_Energy>  (61) 
90.5763

>  <b_lp_Chiralities_Consistent>  (61) 
1

>  <s_lp_Variant>  (61) 
14:0-1

>  <s_i_glide_gridfile>  (61) 
pfpi4k_grid

>  <i_i_glide_lignum>  (61) 
22

>  <i_i_glide_rotatable_bonds>  (61) 
5

>  <r_i_docking_score>  (61) 
-1.72138

>  <r_i_glide_ligand_efficiency>  (61) 
-0.0344276

>  <r_i_glide_ligand_efficiency_sa>  (61) 
-0.126832

>  <r_i_glide_ligand_efficiency_ln>  (61) 
-0.350442

>  <r_i_glide_gscore>  (61) 
-1.72138

>  <r_i_glide_lipo>  (61) 
-0.21716

>  <r_i_glide_hbond>  (61) 
-0.304

>  <r_i_glide_metal>  (61) 
-0

>  <r_i_glide_rewards>  (61) 
-0.56464

>  <r_i_glide_evdw>  (61) 
-39.4269

>  <r_i_glide_ecoul>  (61) 
-6.44579

>  <r_i_glide_erotb>  (61) 
0.0887195

>  <r_i_glide_esite>  (61) 
-0.00425889

>  <r_i_glide_emodel>  (61) 
-47.1102

>  <r_i_glide_energy>  (61) 
-45.8727

>  <r_i_glide_einternal>  (61) 
7.55994

>  <r_i_glide_intrahb_reward>  (61) 
-0.5

>  <i_i_glide_confnum>  (61) 
4

>  <i_i_glide_posenum>  (61) 
37

>  <r_i_glide_eff_state_penalty>  (61) 
0

>  <ligand_id>  (61) 
14

>  <original_smiles>  (61) 
CC1CC2(OC(C)(C)OC3CC4(O)C(C)CCC45OC4CC6CC78CC7C8(OC7OC(C)C(O)CC7O)OC6C5C34O2)C(C)c2ccccc21

>  <smiles>  (61) 
[H]OC1([H])C([H])(OC23OC4([H])C([H])(C([H])([H])C5([H])OC67C([H])([H])C([H])([H])C([H])(C([H])([H])[H])C6(O[H])C([H])([H])C6([H])OC(C([H])([H])[H])(C([H])([H])[H])OC8(OC56C47[H])C([H])([H])C([H])(C([H])([H])[H])c4c([H])c([H])c([H])c([H])c4C8([H])C([H])([H])[H])C([H])([H])C24C([H])([H])C34[H])OC([H])(C([H])([H])[H])C([H])(O[H])C1([H])[H]

$$$$
15:0:0
     RDKit          3D

 32 33  0  0  1  0  0  0  0  0999 V2000
    3.0172   -1.1180   -3.1067 C   0  0  0  0  0  0  0  0  0  0  0  0
    3.9693   -1.9989   -2.2877 C   0  0  1  0  0  0  0  0  0  0  0  0
    3.2694   -2.9749   -1.3110 C   0  0  0  0  0  0  0  0  0  0  0  0
    4.3611   -3.3374   -0.2685 C   0  0  0  0  0  0  0  0  0  0  0  0
    3.9253   -2.8808    1.1456 C   0  0  0  0  0  0  0  0  0  0  0  0
    4.6098   -4.8636   -0.1999 C   0  0  0  0  0  0  0  0  0  0  0  0
    5.5796   -2.5076   -0.8148 C   0  0  1  0  0  0  0  0  0  0  0  0
    6.7088   -2.2653    0.2121 C   0  0  0  0  0  0  0  0  0  0  0  0
    6.0957   -3.0953   -2.1537 C   0  0  0  0  0  0  0  0  0  0  0  0
    4.9894   -2.7503   -3.1554 C   0  0  1  0  0  0  0  0  0  0  0  0
    4.4610   -3.8585   -3.8412 O   0  0  0  0  0  0  0  0  0  0  0  0
    4.8997   -1.2398   -1.3431 C   0  0  0  0  0  0  0  0  0  0  0  0
    2.3742   -0.5338   -2.4563 H   0  0  0  0  0  0  0  0  0  0  0  0
    2.3873   -1.7205   -3.7565 H   0  0  0  0  0  0  0  0  0  0  0  0
    3.5643   -0.4104   -3.7384 H   0  0  0  0  0  0  0  0  0  0  0  0
    2.4276   -2.4811   -0.8239 H   0  0  0  0  0  0  0  0  0  0  0  0
    2.8423   -3.8464   -1.8146 H   0  0  0  0  0  0  0  0  0  0  0  0
    4.6651   -3.1545    1.8995 H   0  0  0  0  0  0  0  0  0  0  0  0
    2.9845   -3.3495    1.4469 H   0  0  0  0  0  0  0  0  0  0  0  0
    3.7750   -1.8032    1.2183 H   0  0  0  0  0  0  0  0  0  0  0  0
    5.5148   -5.0953    0.3596 H   0  0  0  0  0  0  0  0  0  0  0  0
    4.7006   -5.3325   -1.1781 H   0  0  0  0  0  0  0  0  0  0  0  0
    3.7836   -5.3811    0.2999 H   0  0  0  0  0  0  0  0  0  0  0  0
    7.5472   -1.7152   -0.2180 H   0  0  0  0  0  0  0  0  0  0  0  0
    7.1029   -3.2105    0.5879 H   0  0  0  0  0  0  0  0  0  0  0  0
    6.3621   -1.6889    1.0709 H   0  0  0  0  0  0  0  0  0  0  0  0
    7.0353   -2.6334   -2.4527 H   0  0  0  0  0  0  0  0  0  0  0  0
    6.2724   -4.1611   -2.1152 H   0  0  0  0  0  0  0  0  0  0  0  0
    5.3876   -2.0681   -3.8988 H   0  0  0  0  0  0  0  0  0  0  0  0
    4.0293   -4.4350   -3.2091 H   0  0  0  0  0  0  0  0  0  0  0  0
    5.5734   -0.5666   -1.8723 H   0  0  0  0  0  0  0  0  0  0  0  0
    4.3609   -0.6544   -0.5947 H   0  0  0  0  0  0  0  0  0  0  0  0
  2  1  1  6
  1 13  1  0
  1 14  1  0
  1 15  1  0
  2 10  1  0
  2 12  1  0
  2  3  1  0
  3  4  1  0
  3 16  1  0
  3 17  1  0
  4  5  1  0
  4  6  1  0
  4  7  1  0
  5 18  1  0
  5 19  1  0
  5 20  1  0
  6 21  1  0
  6 22  1  0
  6 23  1  0
  7  8  1  1
  7  9  1  0
  7 12  1  0
  8 24  1  0
  8 25  1  0
  8 26  1  0
  9 10  1  0
  9 27  1  0
  9 28  1  0
 10 11  1  0
 10 29  1  6
 11 30  1  0
 12 31  1  0
 12 32  1  0
M  END
>  <i_m_ct_stereo_status>  (62) 
1

>  <s_m_source_file>  (62) 
/var/tmp/pbs.5076255.sched01/tmppv1df_bs/0l6e7d74h.sdf

>  <i_m_source_file_index>  (62) 
23

>  <i_lp_mmshare_version>  (62) 
48012

>  <i_f3d_flags>  (62) 
0

>  <s_epik_input>  (62) 
W0NIM11bQ0BAXTEyW0NIMl1DKFtDSDNdKShbQ0gzXSlbQ0BdKFtDSDNdKShbQ0gyXTIpW0NIMl1bQ0BIXTFbT0hd

>  <s_epik_cmdline>  (62) 
J2VwaWtfcHl0aG9uJywgJy1waHQnLCAnMi4wJywgJy1waCcsICc3LjAnLCAnLXRuJywgJzgnLCAnLW1hJywgJzIwMCcsICctaW1hZScsICc8aW5maWxlLm1hZT4nLCAnLW9tYWUnLCAnPG91dGZpbGUubWFlPic=

>  <r_lp_tautomer_probability>  (62) 
1

>  <r_epik_Ionization_Penalty>  (62) 
2.04413e-06

>  <r_epik_Ionization_Penalty_Charging>  (62) 
0

>  <r_epik_Ionization_Penalty_Neutral>  (62) 
2.04413e-06

>  <r_epik_State_Penalty>  (62) 
-0

>  <r_epik_Charging_Adjusted_Penalty>  (62) 
0

>  <i_epik_Tot_Q>  (62) 
0

>  <i_epik_Tot_abs_Q>  (62) 
0

>  <s_lp_Force_Field>  (62) 
OPLS3e

>  <r_lp_Energy>  (62) 
32.2643

>  <b_lp_Chiralities_Consistent>  (62) 
1

>  <s_lp_Variant>  (62) 
15:0-1

>  <s_i_glide_gridfile>  (62) 
pfpi4k_grid

>  <i_i_glide_lignum>  (62) 
23

>  <i_i_glide_rotatable_bonds>  (62) 
1

>  <r_i_docking_score>  (62) 
-4.45344

>  <r_i_glide_ligand_efficiency>  (62) 
-0.37112

>  <r_i_glide_ligand_efficiency_sa>  (62) 
-0.849653

>  <r_i_glide_ligand_efficiency_ln>  (62) 
-1.27792

>  <r_i_glide_gscore>  (62) 
-4.45344

>  <r_i_glide_lipo>  (62) 
-0.377986

>  <r_i_glide_hbond>  (62) 
-0.305098

>  <r_i_glide_metal>  (62) 
-0

>  <r_i_glide_rewards>  (62) 
-2.25

>  <r_i_glide_evdw>  (62) 
-18.6286

>  <r_i_glide_ecoul>  (62) 
-3.92618

>  <r_i_glide_erotb>  (62) 
0

>  <r_i_glide_esite>  (62) 
0

>  <r_i_glide_emodel>  (62) 
-28.5666

>  <r_i_glide_energy>  (62) 
-22.5548

>  <r_i_glide_einternal>  (62) 
0.00587656

>  <r_i_glide_intrahb_reward>  (62) 
-0

>  <i_i_glide_confnum>  (62) 
2

>  <i_i_glide_posenum>  (62) 
26

>  <r_i_glide_eff_state_penalty>  (62) 
0

>  <ligand_id>  (62) 
15

>  <original_smiles>  (62) 
CC12CC(C)(C)C(C)(CC1O)C2

>  <smiles>  (62) 
[H]OC1([H])C([H])([H])C2(C([H])([H])[H])C([H])([H])C1(C([H])([H])[H])C([H])([H])C2(C([H])([H])[H])C([H])([H])[H]

$$$$
15:0:1
     RDKit          3D

 32 33  0  0  1  0  0  0  0  0999 V2000
    2.3472   -2.6138   -2.9876 C   0  0  0  0  0  0  0  0  0  0  0  0
    3.5331   -2.6589   -2.0192 C   0  0  1  0  0  0  0  0  0  0  0  0
    3.3329   -3.6121   -0.8165 C   0  0  0  0  0  0  0  0  0  0  0  0
    4.3581   -3.1469    0.2498 C   0  0  0  0  0  0  0  0  0  0  0  0
    3.6207   -2.7066    1.5408 C   0  0  0  0  0  0  0  0  0  0  0  0
    5.3362   -4.2770    0.6374 C   0  0  0  0  0  0  0  0  0  0  0  0
    5.0339   -1.9460   -0.5010 C   0  0  1  0  0  0  0  0  0  0  0  0
    5.7669   -0.9515    0.4171 C   0  0  0  0  0  0  0  0  0  0  0  0
    5.9024   -2.4471   -1.6841 C   0  0  0  0  0  0  0  0  0  0  0  0
    4.8665   -2.8954   -2.7228 C   0  0  1  0  0  0  0  0  0  0  0  0
    5.0152   -4.2454   -3.1502 O   0  0  0  0  0  0  0  0  0  0  0  0
    3.8526   -1.3546   -1.2901 C   0  0  0  0  0  0  0  0  0  0  0  0
    1.4299   -2.3673   -2.4622 H   0  0  0  0  0  0  0  0  0  0  0  0
    2.1856   -3.5749   -3.4753 H   0  0  0  0  0  0  0  0  0  0  0  0
    2.4876   -1.8646   -3.7672 H   0  0  0  0  0  0  0  0  0  0  0  0
    2.3134   -3.5226   -0.4449 H   0  0  0  0  0  0  0  0  0  0  0  0
    3.4644   -4.6562   -1.0879 H   0  0  0  0  0  0  0  0  0  0  0  0
    4.3219   -2.3992    2.3212 H   0  0  0  0  0  0  0  0  0  0  0  0
    3.0292   -3.5296    1.9669 H   0  0  0  0  0  0  0  0  0  0  0  0
    2.9285   -1.8779    1.3791 H   0  0  0  0  0  0  0  0  0  0  0  0
    6.1813   -3.8954    1.2097 H   0  0  0  0  0  0  0  0  0  0  0  0
    5.7352   -4.8138   -0.2247 H   0  0  0  0  0  0  0  0  0  0  0  0
    4.8476   -5.0314    1.2695 H   0  0  0  0  0  0  0  0  0  0  0  0
    6.2243   -0.1358   -0.1522 H   0  0  0  0  0  0  0  0  0  0  0  0
    6.5663   -1.4380    0.9839 H   0  0  0  0  0  0  0  0  0  0  0  0
    5.0975   -0.4732    1.1350 H   0  0  0  0  0  0  0  0  0  0  0  0
    6.4663   -1.6108   -2.0978 H   0  0  0  0  0  0  0  0  0  0  0  0
    6.6426   -3.2040   -1.4302 H   0  0  0  0  0  0  0  0  0  0  0  0
    4.9548   -2.2643   -3.6026 H   0  0  0  0  0  0  0  0  0  0  0  0
    4.3447   -4.7730   -2.7290 H   0  0  0  0  0  0  0  0  0  0  0  0
    4.1448   -0.5398   -1.9555 H   0  0  0  0  0  0  0  0  0  0  0  0
    3.0291   -1.0014   -0.6749 H   0  0  0  0  0  0  0  0  0  0  0  0
  2  1  1  6
  1 13  1  0
  1 14  1  0
  1 15  1  0
  2 10  1  0
  2 12  1  0
  2  3  1  0
  3  4  1  0
  3 16  1  0
  3 17  1  0
  4  5  1  0
  4  6  1  0
  4  7  1  0
  5 18  1  0
  5 19  1  0
  5 20  1  0
  6 21  1  0
  6 22  1  0
  6 23  1  0
  7  8  1  1
  7  9  1  0
  7 12  1  0
  8 24  1  0
  8 25  1  0
  8 26  1  0
  9 10  1  0
  9 27  1  0
  9 28  1  0
 10 11  1  0
 10 29  1  6
 11 30  1  0
 12 31  1  0
 12 32  1  0
M  END
>  <i_m_ct_stereo_status>  (63) 
1

>  <s_m_source_file>  (63) 
/var/tmp/pbs.5076255.sched01/tmppv1df_bs/0l6e7d74h.sdf

>  <i_m_source_file_index>  (63) 
23

>  <i_lp_mmshare_version>  (63) 
48012

>  <i_f3d_flags>  (63) 
0

>  <s_epik_input>  (63) 
W0NIM11bQ0BAXTEyW0NIMl1DKFtDSDNdKShbQ0gzXSlbQ0BdKFtDSDNdKShbQ0gyXTIpW0NIMl1bQ0BIXTFbT0hd

>  <s_epik_cmdline>  (63) 
J2VwaWtfcHl0aG9uJywgJy1waHQnLCAnMi4wJywgJy1waCcsICc3LjAnLCAnLXRuJywgJzgnLCAnLW1hJywgJzIwMCcsICctaW1hZScsICc8aW5maWxlLm1hZT4nLCAnLW9tYWUnLCAnPG91dGZpbGUubWFlPic=

>  <r_lp_tautomer_probability>  (63) 
1

>  <r_epik_Ionization_Penalty>  (63) 
2.04413e-06

>  <r_epik_Ionization_Penalty_Charging>  (63) 
0

>  <r_epik_Ionization_Penalty_Neutral>  (63) 
2.04413e-06

>  <r_epik_State_Penalty>  (63) 
-0

>  <r_epik_Charging_Adjusted_Penalty>  (63) 
0

>  <i_epik_Tot_Q>  (63) 
0

>  <i_epik_Tot_abs_Q>  (63) 
0

>  <s_lp_Force_Field>  (63) 
OPLS3e

>  <r_lp_Energy>  (63) 
32.2643

>  <b_lp_Chiralities_Consistent>  (63) 
1

>  <s_lp_Variant>  (63) 
15:0-1

>  <s_i_glide_gridfile>  (63) 
pfpi4k_grid

>  <i_i_glide_lignum>  (63) 
23

>  <i_i_glide_rotatable_bonds>  (63) 
1

>  <r_i_docking_score>  (63) 
-4.28552

>  <r_i_glide_ligand_efficiency>  (63) 
-0.357126

>  <r_i_glide_ligand_efficiency_sa>  (63) 
-0.817615

>  <r_i_glide_ligand_efficiency_ln>  (63) 
-1.22974

>  <r_i_glide_gscore>  (63) 
-4.28552

>  <r_i_glide_lipo>  (63) 
-0.391877

>  <r_i_glide_hbond>  (63) 
-0.32

>  <r_i_glide_metal>  (63) 
-0

>  <r_i_glide_rewards>  (63) 
-2.25

>  <r_i_glide_evdw>  (63) 
-16.4488

>  <r_i_glide_ecoul>  (63) 
-3.34131

>  <r_i_glide_erotb>  (63) 
0

>  <r_i_glide_esite>  (63) 
0

>  <r_i_glide_emodel>  (63) 
-24.6923

>  <r_i_glide_energy>  (63) 
-19.7902

>  <r_i_glide_einternal>  (63) 
1.3072

>  <r_i_glide_intrahb_reward>  (63) 
-0

>  <i_i_glide_confnum>  (63) 
1

>  <i_i_glide_posenum>  (63) 
38

>  <r_i_glide_eff_state_penalty>  (63) 
0

>  <ligand_id>  (63) 
15

>  <original_smiles>  (63) 
CC12CC(C)(C)C(C)(CC1O)C2

>  <smiles>  (63) 
[H]OC1([H])C([H])([H])C2(C([H])([H])[H])C([H])([H])C1(C([H])([H])[H])C([H])([H])C2(C([H])([H])[H])C([H])([H])[H]

$$$$
15:0:2
     RDKit          3D

 32 33  0  0  1  0  0  0  0  0999 V2000
    2.1084   -3.4500   -1.9633 C   0  0  0  0  0  0  0  0  0  0  0  0
    3.4585   -2.8070   -1.6557 C   0  0  1  0  0  0  0  0  0  0  0  0
    4.6420   -3.8144   -1.6138 C   0  0  0  0  0  0  0  0  0  0  0  0
    5.7539   -3.0972   -0.7870 C   0  0  0  0  0  0  0  0  0  0  0  0
    6.0803   -3.9089    0.4902 C   0  0  0  0  0  0  0  0  0  0  0  0
    7.0683   -2.9363   -1.5880 C   0  0  0  0  0  0  0  0  0  0  0  0
    5.0334   -1.7264   -0.4799 C   0  0  1  0  0  0  0  0  0  0  0  0
    5.6339   -0.9335    0.6993 C   0  0  0  0  0  0  0  0  0  0  0  0
    4.8596   -0.8649   -1.7612 C   0  0  0  0  0  0  0  0  0  0  0  0
    3.7827   -1.6044   -2.5699 C   0  0  1  0  0  0  0  0  0  0  0  0
    4.1809   -1.9765   -3.8685 O   0  0  0  0  0  0  0  0  0  0  0  0
    3.5819   -2.1603   -0.2782 C   0  0  0  0  0  0  0  0  0  0  0  0
    1.8626   -4.2391   -1.2587 H   0  0  0  0  0  0  0  0  0  0  0  0
    2.0952   -3.8645   -2.9691 H   0  0  0  0  0  0  0  0  0  0  0  0
    1.3023   -2.7134   -1.9332 H   0  0  0  0  0  0  0  0  0  0  0  0
    4.3225   -4.7327   -1.1183 H   0  0  0  0  0  0  0  0  0  0  0  0
    4.9731   -4.1193   -2.6125 H   0  0  0  0  0  0  0  0  0  0  0  0
    6.8720   -3.4439    1.0727 H   0  0  0  0  0  0  0  0  0  0  0  0
    6.4282   -4.9211    0.2503 H   0  0  0  0  0  0  0  0  0  0  0  0
    5.2275   -4.0297    1.1580 H   0  0  0  0  0  0  0  0  0  0  0  0
    7.7527   -2.2400   -1.1011 H   0  0  0  0  0  0  0  0  0  0  0  0
    6.9116   -2.6294   -2.6230 H   0  0  0  0  0  0  0  0  0  0  0  0
    7.6362   -3.8573   -1.6572 H   0  0  0  0  0  0  0  0  0  0  0  0
    5.1100    0.0166    0.8554 H   0  0  0  0  0  0  0  0  0  0  0  0
    6.6855   -0.6956    0.5278 H   0  0  0  0  0  0  0  0  0  0  0  0
    5.5704   -1.4787    1.6412 H   0  0  0  0  0  0  0  0  0  0  0  0
    4.4817    0.1201   -1.5157 H   0  0  0  0  0  0  0  0  0  0  0  0
    5.7872   -0.6884   -2.3172 H   0  0  0  0  0  0  0  0  0  0  0  0
    2.8974   -0.9555   -2.6506 H   0  0  0  0  0  0  0  0  0  0  0  0
    3.4691   -2.4943   -4.2333 H   0  0  0  0  0  0  0  0  0  0  0  0
    2.9105   -1.3154   -0.1371 H   0  0  0  0  0  0  0  0  0  0  0  0
    3.4003   -2.8700    0.5367 H   0  0  0  0  0  0  0  0  0  0  0  0
  2  1  1  6
  1 13  1  0
  1 14  1  0
  1 15  1  0
  2 10  1  0
  2 12  1  0
  2  3  1  0
  3  4  1  0
  3 16  1  0
  3 17  1  0
  4  5  1  0
  4  6  1  0
  4  7  1  0
  5 18  1  0
  5 19  1  0
  5 20  1  0
  6 21  1  0
  6 22  1  0
  6 23  1  0
  7  8  1  1
  7  9  1  0
  7 12  1  0
  8 24  1  0
  8 25  1  0
  8 26  1  0
  9 10  1  0
  9 27  1  0
  9 28  1  0
 10 11  1  0
 10 29  1  6
 11 30  1  0
 12 31  1  0
 12 32  1  0
M  END
>  <i_m_ct_stereo_status>  (64) 
1

>  <s_m_source_file>  (64) 
/var/tmp/pbs.5076255.sched01/tmppv1df_bs/0l6e7d74h.sdf

>  <i_m_source_file_index>  (64) 
23

>  <i_lp_mmshare_version>  (64) 
48012

>  <i_f3d_flags>  (64) 
0

>  <s_epik_input>  (64) 
W0NIM11bQ0BAXTEyW0NIMl1DKFtDSDNdKShbQ0gzXSlbQ0BdKFtDSDNdKShbQ0gyXTIpW0NIMl1bQ0BIXTFbT0hd

>  <s_epik_cmdline>  (64) 
J2VwaWtfcHl0aG9uJywgJy1waHQnLCAnMi4wJywgJy1waCcsICc3LjAnLCAnLXRuJywgJzgnLCAnLW1hJywgJzIwMCcsICctaW1hZScsICc8aW5maWxlLm1hZT4nLCAnLW9tYWUnLCAnPG91dGZpbGUubWFlPic=

>  <r_lp_tautomer_probability>  (64) 
1

>  <r_epik_Ionization_Penalty>  (64) 
2.04413e-06

>  <r_epik_Ionization_Penalty_Charging>  (64) 
0

>  <r_epik_Ionization_Penalty_Neutral>  (64) 
2.04413e-06

>  <r_epik_State_Penalty>  (64) 
-0

>  <r_epik_Charging_Adjusted_Penalty>  (64) 
0

>  <i_epik_Tot_Q>  (64) 
0

>  <i_epik_Tot_abs_Q>  (64) 
0

>  <s_lp_Force_Field>  (64) 
OPLS3e

>  <r_lp_Energy>  (64) 
32.2643

>  <b_lp_Chiralities_Consistent>  (64) 
1

>  <s_lp_Variant>  (64) 
15:0-1

>  <s_i_glide_gridfile>  (64) 
pfpi4k_grid

>  <i_i_glide_lignum>  (64) 
23

>  <i_i_glide_rotatable_bonds>  (64) 
1

>  <r_i_docking_score>  (64) 
-4.02429

>  <r_i_glide_ligand_efficiency>  (64) 
-0.335358

>  <r_i_glide_ligand_efficiency_sa>  (64) 
-0.767778

>  <r_i_glide_ligand_efficiency_ln>  (64) 
-1.15478

>  <r_i_glide_gscore>  (64) 
-4.02429

>  <r_i_glide_lipo>  (64) 
-0.438855

>  <r_i_glide_hbond>  (64) 
-0.0956292

>  <r_i_glide_metal>  (64) 
-0

>  <r_i_glide_rewards>  (64) 
-2.25

>  <r_i_glide_evdw>  (64) 
-18.1798

>  <r_i_glide_ecoul>  (64) 
-2.20547

>  <r_i_glide_erotb>  (64) 
0

>  <r_i_glide_esite>  (64) 
0

>  <r_i_glide_emodel>  (64) 
-25.6303

>  <r_i_glide_energy>  (64) 
-20.3853

>  <r_i_glide_einternal>  (64) 
0.316397

>  <r_i_glide_intrahb_reward>  (64) 
-0

>  <i_i_glide_confnum>  (64) 
2

>  <i_i_glide_posenum>  (64) 
5

>  <r_i_glide_eff_state_penalty>  (64) 
0

>  <ligand_id>  (64) 
15

>  <original_smiles>  (64) 
CC12CC(C)(C)C(C)(CC1O)C2

>  <smiles>  (64) 
[H]OC1([H])C([H])([H])C2(C([H])([H])[H])C([H])([H])C1(C([H])([H])[H])C([H])([H])C2(C([H])([H])[H])C([H])([H])[H]

$$$$
16:0:0
     RDKit          3D

 87 91  0  0  1  0  0  0  0  0999 V2000
    1.1316  -11.1929    3.2356 C   0  0  0  0  0  0  0  0  0  0  0  0
    0.4143  -10.0955    3.4780 C   0  0  0  0  0  0  0  0  0  0  0  0
   -0.9348   -9.8076    2.7415 C   0  0  0  0  0  0  0  0  0  0  0  0
    0.9452   -9.0363    4.4926 C   0  0  2  0  0  0  0  0  0  0  0  0
    0.2365   -9.4193    5.8321 C   0  0  0  0  0  0  0  0  0  0  0  0
    0.6026   -8.7158    7.1498 C   0  0  0  0  0  0  0  0  0  0  0  0
    2.0833   -8.3567    7.2984 C   0  0  2  0  0  0  0  0  0  0  0  0
    2.8864   -9.6469    7.5232 C   0  0  0  0  0  0  0  0  0  0  0  0
    2.3688   -7.2554    8.3261 C   0  0  0  0  0  0  0  0  0  0  0  0
    3.3682   -6.6407    7.3709 C   0  0  0  0  0  0  0  0  0  0  0  0
    2.6551   -7.3931    6.2372 C   0  0  2  0  0  0  0  0  0  0  0  0
    1.6793   -6.6332    5.2866 C   0  0  1  0  0  0  0  0  0  0  0  0
    2.3676   -5.3117    4.8873 C   0  0  0  0  0  0  0  0  0  0  0  0
    1.8302   -4.6784    3.6263 C   0  0  0  0  0  0  0  0  0  0  0  0
    1.3822   -3.5393    3.6668 O   0  0  0  0  0  0  0  0  0  0  0  0
    1.7295   -5.5379    2.3493 C   0  0  1  0  0  0  0  0  0  0  0  0
    2.6006   -5.0219    1.0997 C   0  0  1  0  0  0  0  0  0  0  0  0
    1.8118   -5.3216   -0.2195 C   0  0  0  0  0  0  0  0  0  0  0  0
    2.7638   -3.4631    1.0077 C   0  0  0  0  0  0  0  0  0  0  0  0
    3.9915   -2.8539    1.6780 C   0  0  0  0  0  0  0  0  0  0  0  0
    5.2452   -3.5219    1.1117 C   0  0  1  0  0  0  0  0  0  0  0  0
    6.4226   -2.8371    1.5317 O   0  0  0  0  0  0  0  0  0  0  0  0
    6.7382   -1.6592    0.8368 C   0  0  0  0  0  0  0  0  0  0  0  0
    7.0500   -1.8781   -0.5064 O   0  0  0  0  0  0  0  0  0  0  0  0
    8.2554   -2.6034   -0.6990 C   0  0  0  0  0  0  0  0  0  0  0  0
    5.3107   -5.0226    1.5123 C   0  0  0  0  0  0  0  0  0  0  0  0
    6.5382   -5.6323    0.7959 C   0  0  0  0  0  0  0  0  0  0  0  0
    5.5575   -5.1559    3.0204 C   0  0  0  0  0  0  0  0  0  0  0  0
    4.0103   -5.7536    1.0014 C   0  0  1  0  0  0  0  0  0  0  0  0
    3.9312   -7.2589    1.3755 C   0  0  0  0  0  0  0  0  0  0  0  0
    3.1966   -7.5819    2.6811 C   0  0  0  0  0  0  0  0  0  0  0  0
    1.7246   -7.0979    2.6856 C   0  0  2  0  0  0  0  0  0  0  0  0
    0.9907   -7.7915    1.4941 C   0  0  0  0  0  0  0  0  0  0  0  0
    0.9871   -7.4592    4.0954 C   0  0  1  0  0  0  0  0  0  0  0  0
   -0.4872   -6.9238    4.1075 C   0  0  0  0  0  0  0  0  0  0  0  0
    0.7511  -11.9295    2.5289 H   0  0  0  0  0  0  0  0  0  0  0  0
    2.0827  -11.4554    3.7143 H   0  0  0  0  0  0  0  0  0  0  0  0
   -1.7644   -9.8409    3.4976 H   0  0  0  0  0  0  0  0  0  0  0  0
   -1.1001  -10.6758    2.0434 H   0  0  0  0  0  0  0  0  0  0  0  0
   -0.9758   -8.9878    2.1289 H   0  0  0  0  0  0  0  0  0  0  0  0
    1.9898   -9.3322    4.6504 H   0  0  0  0  0  0  0  0  0  0  0  0
   -0.8498   -9.3556    5.7173 H   0  0  0  0  0  0  0  0  0  0  0  0
    0.4149  -10.4807    6.0097 H   0  0  0  0  0  0  0  0  0  0  0  0
    0.0151   -7.8190    7.2106 H   0  0  0  0  0  0  0  0  0  0  0  0
    0.2714   -9.3189    7.9975 H   0  0  0  0  0  0  0  0  0  0  0  0
    3.9408   -9.4340    7.6814 H   0  0  0  0  0  0  0  0  0  0  0  0
    2.8246  -10.3308    6.6776 H   0  0  0  0  0  0  0  0  0  0  0  0
    2.5408  -10.1904    8.4024 H   0  0  0  0  0  0  0  0  0  0  0  0
    1.5167   -6.6085    8.5051 H   0  0  0  0  0  0  0  0  0  0  0  0
    2.8131   -7.6154    9.2523 H   0  0  0  0  0  0  0  0  0  0  0  0
    3.3049   -5.5505    7.3442 H   0  0  0  0  0  0  0  0  0  0  0  0
    4.3900   -7.0029    7.5437 H   0  0  0  0  0  0  0  0  0  0  0  0
    3.4180   -7.8972    5.6805 H   0  0  0  0  0  0  0  0  0  0  0  0
    0.8743   -6.2825    5.9240 H   0  0  0  0  0  0  0  0  0  0  0  0
    2.2500   -4.5871    5.7013 H   0  0  0  0  0  0  0  0  0  0  0  0
    3.4299   -5.4837    4.7864 H   0  0  0  0  0  0  0  0  0  0  0  0
    0.6904   -5.3362    2.0791 H   0  0  0  0  0  0  0  0  0  0  0  0
    1.9555   -4.6004   -1.0228 H   0  0  0  0  0  0  0  0  0  0  0  0
    0.7433   -5.4890   -0.0951 H   0  0  0  0  0  0  0  0  0  0  0  0
    2.1495   -6.2246   -0.6934 H   0  0  0  0  0  0  0  0  0  0  0  0
    2.8754   -3.1353   -0.0441 H   0  0  0  0  0  0  0  0  0  0  0  0
    1.8740   -2.9574    1.3440 H   0  0  0  0  0  0  0  0  0  0  0  0
    3.9714   -1.7999    1.4375 H   0  0  0  0  0  0  0  0  0  0  0  0
    3.9486   -2.8810    2.7716 H   0  0  0  0  0  0  0  0  0  0  0  0
    5.2073   -3.4704    0.0221 H   0  0  0  0  0  0  0  0  0  0  0  0
    5.9219   -0.9470    0.8919 H   0  0  0  0  0  0  0  0  0  0  0  0
    7.5745   -1.1624    1.3075 H   0  0  0  0  0  0  0  0  0  0  0  0
    8.4236   -2.7735   -1.7620 H   0  0  0  0  0  0  0  0  0  0  0  0
    8.2144   -3.5840   -0.2270 H   0  0  0  0  0  0  0  0  0  0  0  0
    9.1120   -2.0759   -0.2790 H   0  0  0  0  0  0  0  0  0  0  0  0
    6.7188   -6.6771    1.0444 H   0  0  0  0  0  0  0  0  0  0  0  0
    7.4546   -5.1246    1.0903 H   0  0  0  0  0  0  0  0  0  0  0  0
    6.4400   -5.5568   -0.2808 H   0  0  0  0  0  0  0  0  0  0  0  0
    5.6426   -6.1907    3.3438 H   0  0  0  0  0  0  0  0  0  0  0  0
    4.7915   -4.6653    3.5923 H   0  0  0  0  0  0  0  0  0  0  0  0
    6.5001   -4.6884    3.3062 H   0  0  0  0  0  0  0  0  0  0  0  0
    4.2009   -5.7719   -0.0664 H   0  0  0  0  0  0  0  0  0  0  0  0
    3.4704   -7.7955    0.5458 H   0  0  0  0  0  0  0  0  0  0  0  0
    4.9172   -7.7047    1.4226 H   0  0  0  0  0  0  0  0  0  0  0  0
    3.2226   -8.6668    2.8384 H   0  0  0  0  0  0  0  0  0  0  0  0
    3.7449   -7.1637    3.5133 H   0  0  0  0  0  0  0  0  0  0  0  0
    1.1588   -8.8444    1.4979 H   0  0  0  0  0  0  0  0  0  0  0  0
    1.4278   -7.5850    0.5100 H   0  0  0  0  0  0  0  0  0  0  0  0
   -0.0300   -7.5420    1.4746 H   0  0  0  0  0  0  0  0  0  0  0  0
   -0.5428   -5.8462    3.9836 H   0  0  0  0  0  0  0  0  0  0  0  0
   -0.9953   -7.1288    5.0523 H   0  0  0  0  0  0  0  0  0  0  0  0
   -1.1515   -7.3064    3.3398 H   0  0  0  0  0  0  0  0  0  0  0  0
  1  2  2  0
  1 36  1  0
  1 37  1  0
  2  3  1  0
  2  4  1  0
  3 38  1  0
  3 39  1  0
  3 40  1  0
  4 34  1  0
  4  5  1  0
  4 41  1  1
  5  6  1  0
  5 42  1  0
  5 43  1  0
  6  7  1  0
  6 44  1  0
  6 45  1  0
  7 11  1  0
  7  8  1  1
  7  9  1  0
  8 46  1  0
  8 47  1  0
  8 48  1  0
  9 10  1  0
  9 49  1  0
  9 50  1  0
 10 11  1  0
 10 51  1  0
 10 52  1  0
 11 12  1  0
 11 53  1  6
 12 34  1  0
 12 13  1  0
 12 54  1  1
 13 14  1  0
 13 55  1  0
 13 56  1  0
 14 15  2  0
 14 16  1  0
 16 32  1  0
 16 17  1  0
 16 57  1  6
 17 29  1  0
 17 18  1  6
 17 19  1  0
 18 58  1  0
 18 59  1  0
 18 60  1  0
 19 20  1  0
 19 61  1  0
 19 62  1  0
 20 21  1  0
 20 63  1  0
 20 64  1  0
 21 22  1  0
 21 26  1  0
 21 65  1  6
 22 23  1  0
 23 24  1  0
 23 66  1  0
 23 67  1  0
 24 25  1  0
 25 68  1  0
 25 69  1  0
 25 70  1  0
 26 27  1  0
 26 28  1  0
 26 29  1  0
 27 71  1  0
 27 72  1  0
 27 73  1  0
 28 74  1  0
 28 75  1  0
 28 76  1  0
 29 30  1  0
 29 77  1  6
 30 31  1  0
 30 78  1  0
 30 79  1  0
 31 32  1  0
 31 80  1  0
 31 81  1  0
 32 33  1  6
 32 34  1  0
 33 82  1  0
 33 83  1  0
 33 84  1  0
 34 35  1  6
 35 85  1  0
 35 86  1  0
 35 87  1  0
M  END
>  <i_m_ct_stereo_status>  (65) 
1

>  <s_m_source_file>  (65) 
/var/tmp/pbs.5076255.sched01/tmppv1df_bs/0l6e7d74h.sdf

>  <i_m_source_file_index>  (65) 
24

>  <i_lp_mmshare_version>  (65) 
48012

>  <i_f3d_flags>  (65) 
0

>  <s_epik_input>  (65) 
W0NIM11bQ0BAXTEyW0NASF0oW0NIMl1bQ0gyXTIpW0NAQEhdM1tDQF0oW0NIM10pKFtDQEhdKEMoPVtDSDJdKVtDSDNdKVtDSDJdW0NIMl0xKVtDQEBdNChbQ0gzXSlbQ0BASF0oQyg9TylbQ0gyXTMpW0NAXTUoW0NIM10pW0NASF0oW0NIMl1bQ0gyXTQpQyhbQ0gzXSkoW0NIM10pW0NAQEhdKFtDSDJdW0NIMl01KU9bQ0gyXU9bQ0gzXQ==

>  <s_epik_cmdline>  (65) 
J2VwaWtfcHl0aG9uJywgJy1waHQnLCAnMi4wJywgJy1waCcsICc3LjAnLCAnLXRuJywgJzgnLCAnLW1hJywgJzIwMCcsICctaW1hZScsICc8aW5maWxlLm1hZT4nLCAnLW9tYWUnLCAnPG91dGZpbGUubWFlPic=

>  <r_lp_tautomer_probability>  (65) 
1

>  <r_epik_Ionization_Penalty>  (65) 
1.95522e-12

>  <r_epik_Ionization_Penalty_Charging>  (65) 
0

>  <r_epik_Ionization_Penalty_Neutral>  (65) 
1.95522e-12

>  <r_epik_State_Penalty>  (65) 
-0

>  <r_epik_Charging_Adjusted_Penalty>  (65) 
0

>  <i_epik_Tot_Q>  (65) 
0

>  <i_epik_Tot_abs_Q>  (65) 
0

>  <s_epik_Chemistry_Notes>  (65) 
This compound contains an acetal/aminal-like group ( X-CH(R)-Y where X, Y are N, S, or O) that may be acid/base labile, releasing an aldehyde.

>  <s_lp_Force_Field>  (65) 
OPLS3e

>  <r_lp_Energy>  (65) 
120.921

>  <b_lp_Chiralities_Consistent>  (65) 
1

>  <s_lp_Variant>  (65) 
16:0-1

>  <s_i_glide_gridfile>  (65) 
pfpi4k_grid

>  <i_i_glide_lignum>  (65) 
24

>  <i_i_glide_rotatable_bonds>  (65) 
4

>  <r_i_docking_score>  (65) 
-1.86063

>  <r_i_glide_ligand_efficiency>  (65) 
-0.0531608

>  <r_i_glide_ligand_efficiency_sa>  (65) 
-0.173892

>  <r_i_glide_ligand_efficiency_ln>  (65) 
-0.408449

>  <r_i_glide_gscore>  (65) 
-1.86063

>  <r_i_glide_lipo>  (65) 
-0.542582

>  <r_i_glide_hbond>  (65) 
-0.16

>  <r_i_glide_metal>  (65) 
-0

>  <r_i_glide_rewards>  (65) 
-0.127856

>  <r_i_glide_evdw>  (65) 
-22.2141

>  <r_i_glide_ecoul>  (65) 
-1.16611

>  <r_i_glide_erotb>  (65) 
0.259295

>  <r_i_glide_esite>  (65) 
-0.00386078

>  <r_i_glide_emodel>  (65) 
-22.9899

>  <r_i_glide_energy>  (65) 
-23.3802

>  <r_i_glide_einternal>  (65) 
1.54045

>  <r_i_glide_intrahb_reward>  (65) 
-0

>  <i_i_glide_confnum>  (65) 
3

>  <i_i_glide_posenum>  (65) 
9

>  <r_i_glide_eff_state_penalty>  (65) 
0

>  <ligand_id>  (65) 
16

>  <original_smiles>  (65) 
C=C(C)C1CCC2(C)CCC2C2CC(=O)C3C4(C)CCC(OCOC)C(C)(C)C4CCC3(C)C12C

>  <smiles>  (65) 
[H]C([H])=C(C([H])([H])[H])C1([H])C([H])([H])C([H])([H])C2(C([H])([H])[H])C([H])([H])C([H])([H])C2([H])C2([H])C([H])([H])C(=O)C3([H])C4(C([H])([H])[H])C([H])([H])C([H])([H])C([H])(OC([H])([H])OC([H])([H])[H])C(C([H])([H])[H])(C([H])([H])[H])C4([H])C([H])([H])C([H])([H])C3(C([H])([H])[H])C12C([H])([H])[H]

$$$$
16:0:1
     RDKit          3D

 87 91  0  0  1  0  0  0  0  0999 V2000
    2.6287   -4.3682    6.9016 C   0  0  0  0  0  0  0  0  0  0  0  0
    3.0725   -5.5585    6.4534 C   0  0  0  0  0  0  0  0  0  0  0  0
    4.2363   -6.2406    7.1812 C   0  0  0  0  0  0  0  0  0  0  0  0
    2.4016   -6.2597    5.2461 C   0  0  2  0  0  0  0  0  0  0  0  0
    1.6668   -7.4913    5.8677 C   0  0  0  0  0  0  0  0  0  0  0  0
    0.7392   -8.3593    5.0014 C   0  0  0  0  0  0  0  0  0  0  0  0
   -0.0565   -7.6009    3.9620 C   0  0  2  0  0  0  0  0  0  0  0  0
   -1.1445   -6.7898    4.6695 C   0  0  0  0  0  0  0  0  0  0  0  0
   -0.5973   -8.4552    2.8092 C   0  0  0  0  0  0  0  0  0  0  0  0
   -0.2143   -7.3543    1.8466 C   0  0  0  0  0  0  0  0  0  0  0  0
    0.7436   -6.8110    2.9093 C   0  0  2  0  0  0  0  0  0  0  0  0
    2.2708   -7.0807    2.7746 C   0  0  1  0  0  0  0  0  0  0  0  0
    2.6368   -6.7630    1.3341 C   0  0  0  0  0  0  0  0  0  0  0  0
    4.1068   -6.5101    1.0869 C   0  0  0  0  0  0  0  0  0  0  0  0
    4.7032   -7.2152    0.2952 O   0  0  0  0  0  0  0  0  0  0  0  0
    4.8191   -5.4605    1.9516 C   0  0  1  0  0  0  0  0  0  0  0  0
    5.4140   -4.2113    1.1126 C   0  0  1  0  0  0  0  0  0  0  0  0
    6.7258   -3.7750    1.7962 C   0  0  0  0  0  0  0  0  0  0  0  0
    5.9790   -4.5347   -0.3113 C   0  0  0  0  0  0  0  0  0  0  0  0
    5.0221   -4.3297   -1.4675 C   0  0  0  0  0  0  0  0  0  0  0  0
    4.4985   -2.9169   -1.4744 C   0  0  1  0  0  0  0  0  0  0  0  0
    3.7050   -2.7527   -2.6506 O   0  0  0  0  0  0  0  0  0  0  0  0
    4.3986   -2.2328   -3.7259 C   0  0  0  0  0  0  0  0  0  0  0  0
    4.5331   -0.8506   -3.6312 O   0  0  0  0  0  0  0  0  0  0  0  0
    3.3694   -0.1214   -3.9917 C   0  0  0  0  0  0  0  0  0  0  0  0
    3.6470   -2.6587   -0.2273 C   0  0  0  0  0  0  0  0  0  0  0  0
    3.3009   -1.1639   -0.2465 C   0  0  0  0  0  0  0  0  0  0  0  0
    2.3609   -3.4571   -0.3278 C   0  0  0  0  0  0  0  0  0  0  0  0
    4.4547   -2.9660    1.0838 C   0  0  1  0  0  0  0  0  0  0  0  0
    3.6835   -2.7730    2.4265 C   0  0  0  0  0  0  0  0  0  0  0  0
    3.0184   -4.0290    3.0098 C   0  0  0  0  0  0  0  0  0  0  0  0
    4.0173   -5.1716    3.3045 C   0  0  2  0  0  0  0  0  0  0  0  0
    5.0351   -4.6331    4.3429 C   0  0  0  0  0  0  0  0  0  0  0  0
    3.2426   -6.4883    3.8909 C   0  0  1  0  0  0  0  0  0  0  0  0
    4.2668   -7.6521    4.1222 C   0  0  0  0  0  0  0  0  0  0  0  0
    3.1045   -3.9067    7.7469 H   0  0  0  0  0  0  0  0  0  0  0  0
    1.8007   -3.8611    6.4564 H   0  0  0  0  0  0  0  0  0  0  0  0
    3.9372   -7.1988    7.6060 H   0  0  0  0  0  0  0  0  0  0  0  0
    4.5911   -5.6185    8.0103 H   0  0  0  0  0  0  0  0  0  0  0  0
    5.1114   -6.4326    6.5230 H   0  0  0  0  0  0  0  0  0  0  0  0
    1.6065   -5.5685    4.9831 H   0  0  0  0  0  0  0  0  0  0  0  0
    2.3806   -8.1712    6.3308 H   0  0  0  0  0  0  0  0  0  0  0  0
    1.0591   -7.1182    6.6978 H   0  0  0  0  0  0  0  0  0  0  0  0
    1.3500   -9.0967    4.5091 H   0  0  0  0  0  0  0  0  0  0  0  0
    0.0760   -8.9464    5.6426 H   0  0  0  0  0  0  0  0  0  0  0  0
   -1.8104   -6.3144    3.9558 H   0  0  0  0  0  0  0  0  0  0  0  0
   -0.7327   -6.0171    5.3315 H   0  0  0  0  0  0  0  0  0  0  0  0
   -1.7665   -7.4523    5.2701 H   0  0  0  0  0  0  0  0  0  0  0  0
   -0.0083   -9.3570    2.6353 H   0  0  0  0  0  0  0  0  0  0  0  0
   -1.6669   -8.6593    2.8474 H   0  0  0  0  0  0  0  0  0  0  0  0
    0.2076   -7.7450    0.9197 H   0  0  0  0  0  0  0  0  0  0  0  0
   -1.0415   -6.6580    1.6673 H   0  0  0  0  0  0  0  0  0  0  0  0
    0.5402   -5.7664    3.0014 H   0  0  0  0  0  0  0  0  0  0  0  0
    2.3850   -8.1588    2.8064 H   0  0  0  0  0  0  0  0  0  0  0  0
    2.3727   -7.6614    0.7753 H   0  0  0  0  0  0  0  0  0  0  0  0
    2.0452   -5.9549    0.9329 H   0  0  0  0  0  0  0  0  0  0  0  0
    5.6933   -6.0311    2.2715 H   0  0  0  0  0  0  0  0  0  0  0  0
    7.5068   -3.3689    1.1636 H   0  0  0  0  0  0  0  0  0  0  0  0
    7.1759   -4.6080    2.3317 H   0  0  0  0  0  0  0  0  0  0  0  0
    6.5383   -2.9273    2.4427 H   0  0  0  0  0  0  0  0  0  0  0  0
    6.8204   -3.8868   -0.6004 H   0  0  0  0  0  0  0  0  0  0  0  0
    6.3719   -5.5329   -0.3174 H   0  0  0  0  0  0  0  0  0  0  0  0
    5.5225   -4.5278   -2.4131 H   0  0  0  0  0  0  0  0  0  0  0  0
    4.2220   -5.0541   -1.4007 H   0  0  0  0  0  0  0  0  0  0  0  0
    5.3337   -2.2050   -1.4667 H   0  0  0  0  0  0  0  0  0  0  0  0
    5.4011   -2.6570   -3.7432 H   0  0  0  0  0  0  0  0  0  0  0  0
    3.9198   -2.5147   -4.6465 H   0  0  0  0  0  0  0  0  0  0  0  0
    3.6018    0.9400   -3.9283 H   0  0  0  0  0  0  0  0  0  0  0  0
    2.5685   -0.3320   -3.3082 H   0  0  0  0  0  0  0  0  0  0  0  0
    3.0519   -0.3272   -5.0052 H   0  0  0  0  0  0  0  0  0  0  0  0
    2.6135   -0.8788    0.5533 H   0  0  0  0  0  0  0  0  0  0  0  0
    2.8153   -0.9262   -1.1862 H   0  0  0  0  0  0  0  0  0  0  0  0
    4.1709   -0.5186   -0.1809 H   0  0  0  0  0  0  0  0  0  0  0  0
    1.8152   -3.2060    0.5816 H   0  0  0  0  0  0  0  0  0  0  0  0
    2.4954   -4.5273   -0.3785 H   0  0  0  0  0  0  0  0  0  0  0  0
    1.7464   -3.1827   -1.1934 H   0  0  0  0  0  0  0  0  0  0  0  0
    5.1242   -2.1124    1.0672 H   0  0  0  0  0  0  0  0  0  0  0  0
    4.3764   -2.3461    3.1610 H   0  0  0  0  0  0  0  0  0  0  0  0
    2.9181   -2.0111    2.3201 H   0  0  0  0  0  0  0  0  0  0  0  0
    2.4889   -3.7417    3.9199 H   0  0  0  0  0  0  0  0  0  0  0  0
    2.2475   -4.3516    2.3331 H   0  0  0  0  0  0  0  0  0  0  0  0
    4.5573   -4.1082    5.1615 H   0  0  0  0  0  0  0  0  0  0  0  0
    5.6898   -3.8601    3.9915 H   0  0  0  0  0  0  0  0  0  0  0  0
    5.7048   -5.4038    4.7184 H   0  0  0  0  0  0  0  0  0  0  0  0
    4.7424   -7.9757    3.2049 H   0  0  0  0  0  0  0  0  0  0  0  0
    3.7757   -8.5508    4.5004 H   0  0  0  0  0  0  0  0  0  0  0  0
    5.0706   -7.4093    4.8315 H   0  0  0  0  0  0  0  0  0  0  0  0
  1  2  2  0
  1 36  1  0
  1 37  1  0
  2  3  1  0
  2  4  1  0
  3 38  1  0
  3 39  1  0
  3 40  1  0
  4 34  1  0
  4  5  1  0
  4 41  1  6
  5  6  1  0
  5 42  1  0
  5 43  1  0
  6  7  1  0
  6 44  1  0
  6 45  1  0
  7 11  1  0
  7  8  1  1
  7  9  1  0
  8 46  1  0
  8 47  1  0
  8 48  1  0
  9 10  1  0
  9 49  1  0
  9 50  1  0
 10 11  1  0
 10 51  1  0
 10 52  1  0
 11 12  1  0
 11 53  1  1
 12 34  1  0
 12 13  1  0
 12 54  1  6
 13 14  1  0
 13 55  1  0
 13 56  1  0
 14 15  2  0
 14 16  1  0
 16 32  1  0
 16 17  1  0
 16 57  1  1
 17 29  1  0
 17 18  1  1
 17 19  1  0
 18 58  1  0
 18 59  1  0
 18 60  1  0
 19 20  1  0
 19 61  1  0
 19 62  1  0
 20 21  1  0
 20 63  1  0
 20 64  1  0
 21 22  1  0
 21 26  1  0
 21 65  1  6
 22 23  1  0
 23 24  1  0
 23 66  1  0
 23 67  1  0
 24 25  1  0
 25 68  1  0
 25 69  1  0
 25 70  1  0
 26 27  1  0
 26 28  1  0
 26 29  1  0
 27 71  1  0
 27 72  1  0
 27 73  1  0
 28 74  1  0
 28 75  1  0
 28 76  1  0
 29 30  1  0
 29 77  1  1
 30 31  1  0
 30 78  1  0
 30 79  1  0
 31 32  1  0
 31 80  1  0
 31 81  1  0
 32 33  1  1
 32 34  1  0
 33 82  1  0
 33 83  1  0
 33 84  1  0
 34 35  1  1
 35 85  1  0
 35 86  1  0
 35 87  1  0
M  END
>  <i_m_ct_stereo_status>  (66) 
1

>  <s_m_source_file>  (66) 
/var/tmp/pbs.5076255.sched01/tmppv1df_bs/0l6e7d74h.sdf

>  <i_m_source_file_index>  (66) 
24

>  <i_lp_mmshare_version>  (66) 
48012

>  <i_f3d_flags>  (66) 
0

>  <s_epik_input>  (66) 
W0NIM11bQ0BAXTEyW0NASF0oW0NIMl1bQ0gyXTIpW0NAQEhdM1tDQF0oW0NIM10pKFtDQEhdKEMoPVtDSDJdKVtDSDNdKVtDSDJdW0NIMl0xKVtDQEBdNChbQ0gzXSlbQ0BASF0oQyg9TylbQ0gyXTMpW0NAXTUoW0NIM10pW0NASF0oW0NIMl1bQ0gyXTQpQyhbQ0gzXSkoW0NIM10pW0NAQEhdKFtDSDJdW0NIMl01KU9bQ0gyXU9bQ0gzXQ==

>  <s_epik_cmdline>  (66) 
J2VwaWtfcHl0aG9uJywgJy1waHQnLCAnMi4wJywgJy1waCcsICc3LjAnLCAnLXRuJywgJzgnLCAnLW1hJywgJzIwMCcsICctaW1hZScsICc8aW5maWxlLm1hZT4nLCAnLW9tYWUnLCAnPG91dGZpbGUubWFlPic=

>  <r_lp_tautomer_probability>  (66) 
1

>  <r_epik_Ionization_Penalty>  (66) 
1.95522e-12

>  <r_epik_Ionization_Penalty_Charging>  (66) 
0

>  <r_epik_Ionization_Penalty_Neutral>  (66) 
1.95522e-12

>  <r_epik_State_Penalty>  (66) 
-0

>  <r_epik_Charging_Adjusted_Penalty>  (66) 
0

>  <i_epik_Tot_Q>  (66) 
0

>  <i_epik_Tot_abs_Q>  (66) 
0

>  <s_epik_Chemistry_Notes>  (66) 
This compound contains an acetal/aminal-like group ( X-CH(R)-Y where X, Y are N, S, or O) that may be acid/base labile, releasing an aldehyde.

>  <s_lp_Force_Field>  (66) 
OPLS3e

>  <r_lp_Energy>  (66) 
120.921

>  <b_lp_Chiralities_Consistent>  (66) 
1

>  <s_lp_Variant>  (66) 
16:0-1

>  <s_i_glide_gridfile>  (66) 
pfpi4k_grid

>  <i_i_glide_lignum>  (66) 
24

>  <i_i_glide_rotatable_bonds>  (66) 
4

>  <r_i_docking_score>  (66) 
-1.3209

>  <r_i_glide_ligand_efficiency>  (66) 
-0.0377399

>  <r_i_glide_ligand_efficiency_sa>  (66) 
-0.12345

>  <r_i_glide_ligand_efficiency_ln>  (66) 
-0.289966

>  <r_i_glide_gscore>  (66) 
-1.3209

>  <r_i_glide_lipo>  (66) 
-0.349882

>  <r_i_glide_hbond>  (66) 
0

>  <r_i_glide_metal>  (66) 
-0

>  <r_i_glide_rewards>  (66) 
-0.349964

>  <r_i_glide_evdw>  (66) 
-20.6366

>  <r_i_glide_ecoul>  (66) 
1.00992

>  <r_i_glide_erotb>  (66) 
0.259295

>  <r_i_glide_esite>  (66) 
0

>  <r_i_glide_emodel>  (66) 
-20.3023

>  <r_i_glide_energy>  (66) 
-19.6267

>  <r_i_glide_einternal>  (66) 
1.05677

>  <r_i_glide_intrahb_reward>  (66) 
-0

>  <i_i_glide_confnum>  (66) 
1

>  <i_i_glide_posenum>  (66) 
3

>  <r_i_glide_eff_state_penalty>  (66) 
0

>  <ligand_id>  (66) 
16

>  <original_smiles>  (66) 
C=C(C)C1CCC2(C)CCC2C2CC(=O)C3C4(C)CCC(OCOC)C(C)(C)C4CCC3(C)C12C

>  <smiles>  (66) 
[H]C([H])=C(C([H])([H])[H])C1([H])C([H])([H])C([H])([H])C2(C([H])([H])[H])C([H])([H])C([H])([H])C2([H])C2([H])C([H])([H])C(=O)C3([H])C4(C([H])([H])[H])C([H])([H])C([H])([H])C([H])(OC([H])([H])OC([H])([H])[H])C(C([H])([H])[H])(C([H])([H])[H])C4([H])C([H])([H])C([H])([H])C3(C([H])([H])[H])C12C([H])([H])[H]

$$$$
16:0:2
     RDKit          3D

 87 91  0  0  1  0  0  0  0  0999 V2000
    4.8766   -8.4399    9.0314 C   0  0  0  0  0  0  0  0  0  0  0  0
    3.5979   -8.8162    8.7943 C   0  0  0  0  0  0  0  0  0  0  0  0
    3.2418  -10.3013    8.8361 C   0  0  0  0  0  0  0  0  0  0  0  0
    2.4949   -7.7664    8.5237 C   0  0  2  0  0  0  0  0  0  0  0  0
    1.6297   -7.7685    9.8184 C   0  0  0  0  0  0  0  0  0  0  0  0
    0.5134   -6.7346    9.9985 C   0  0  0  0  0  0  0  0  0  0  0  0
    0.8128   -5.3426    9.4462 C   0  0  2  0  0  0  0  0  0  0  0  0
    1.8607   -4.6728   10.3395 C   0  0  0  0  0  0  0  0  0  0  0  0
   -0.4346   -4.4813    9.1882 C   0  0  0  0  0  0  0  0  0  0  0  0
    0.1855   -4.0211    7.8796 C   0  0  0  0  0  0  0  0  0  0  0  0
    1.0831   -5.2726    7.9240 C   0  0  2  0  0  0  0  0  0  0  0  0
    0.7537   -6.4895    7.0257 C   0  0  1  0  0  0  0  0  0  0  0  0
    0.4259   -5.9666    5.6149 C   0  0  0  0  0  0  0  0  0  0  0  0
    0.5567   -6.9792    4.5095 C   0  0  0  0  0  0  0  0  0  0  0  0
   -0.4114   -7.1738    3.7564 O   0  0  0  0  0  0  0  0  0  0  0  0
    1.8574   -7.8012    4.3988 C   0  0  1  0  0  0  0  0  0  0  0  0
    2.6788   -7.5876    3.0323 C   0  0  1  0  0  0  0  0  0  0  0  0
    3.3594   -8.9468    2.6339 C   0  0  0  0  0  0  0  0  0  0  0  0
    1.7769   -7.3157    1.7719 C   0  0  0  0  0  0  0  0  0  0  0  0
    1.5066   -5.8676    1.3841 C   0  0  0  0  0  0  0  0  0  0  0  0
    2.8414   -5.1262    1.2288 C   0  0  1  0  0  0  0  0  0  0  0  0
    2.6185   -3.8175    0.6952 O   0  0  0  0  0  0  0  0  0  0  0  0
    2.7047   -3.7166   -0.6968 C   0  0  0  0  0  0  0  0  0  0  0  0
    4.0213   -3.8063   -1.1478 O   0  0  0  0  0  0  0  0  0  0  0  0
    4.8124   -2.6559   -0.8864 C   0  0  0  0  0  0  0  0  0  0  0  0
    3.5905   -5.0406    2.5855 C   0  0  0  0  0  0  0  0  0  0  0  0
    4.9688   -4.3854    2.3158 C   0  0  0  0  0  0  0  0  0  0  0  0
    2.8338   -4.0883    3.5318 C   0  0  0  0  0  0  0  0  0  0  0  0
    3.8211   -6.4968    3.1530 C   0  0  1  0  0  0  0  0  0  0  0  0
    4.5484   -6.5514    4.5227 C   0  0  0  0  0  0  0  0  0  0  0  0
    3.6310   -6.5834    5.7553 C   0  0  0  0  0  0  0  0  0  0  0  0
    2.6732   -7.8027    5.7813 C   0  0  2  0  0  0  0  0  0  0  0  0
    3.5695   -9.0775    5.7908 C   0  0  0  0  0  0  0  0  0  0  0  0
    1.7171   -7.7729    7.0981 C   0  0  1  0  0  0  0  0  0  0  0  0
    0.7285   -8.9885    7.0676 C   0  0  0  0  0  0  0  0  0  0  0  0
    5.6251   -9.1871    9.2256 H   0  0  0  0  0  0  0  0  0  0  0  0
    5.1885   -7.4115    9.0397 H   0  0  0  0  0  0  0  0  0  0  0  0
    2.5092  -10.5196    9.6153 H   0  0  0  0  0  0  0  0  0  0  0  0
    4.1289  -10.9075    9.0620 H   0  0  0  0  0  0  0  0  0  0  0  0
    2.8654  -10.6754    7.8959 H   0  0  0  0  0  0  0  0  0  0  0  0
    3.0397   -6.8277    8.5537 H   0  0  0  0  0  0  0  0  0  0  0  0
    1.1811   -8.7483    9.9746 H   0  0  0  0  0  0  0  0  0  0  0  0
    2.3098   -7.6387   10.6646 H   0  0  0  0  0  0  0  0  0  0  0  0
   -0.3589   -7.1404    9.5021 H   0  0  0  0  0  0  0  0  0  0  0  0
    0.2322   -6.6736   11.0529 H   0  0  0  0  0  0  0  0  0  0  0  0
    2.0754   -3.6550   10.0038 H   0  0  0  0  0  0  0  0  0  0  0  0
    2.8084   -5.2127   10.3385 H   0  0  0  0  0  0  0  0  0  0  0  0
    1.5195   -4.5995   11.3728 H   0  0  0  0  0  0  0  0  0  0  0  0
   -1.3432   -5.0576    9.0207 H   0  0  0  0  0  0  0  0  0  0  0  0
   -0.5857   -3.6768    9.9119 H   0  0  0  0  0  0  0  0  0  0  0  0
   -0.5386   -3.9630    7.0636 H   0  0  0  0  0  0  0  0  0  0  0  0
    0.7482   -3.0950    7.9832 H   0  0  0  0  0  0  0  0  0  0  0  0
    2.1027   -4.9279    7.7535 H   0  0  0  0  0  0  0  0  0  0  0  0
   -0.2224   -6.8388    7.3628 H   0  0  0  0  0  0  0  0  0  0  0  0
   -0.5988   -5.5949    5.6047 H   0  0  0  0  0  0  0  0  0  0  0  0
    1.0540   -5.1082    5.4047 H   0  0  0  0  0  0  0  0  0  0  0  0
    1.4561   -8.8138    4.3281 H   0  0  0  0  0  0  0  0  0  0  0  0
    3.4628   -9.1334    1.5692 H   0  0  0  0  0  0  0  0  0  0  0  0
    2.8158   -9.8081    3.0235 H   0  0  0  0  0  0  0  0  0  0  0  0
    4.3977   -9.0076    2.9498 H   0  0  0  0  0  0  0  0  0  0  0  0
    2.2715   -7.6999    0.8798 H   0  0  0  0  0  0  0  0  0  0  0  0
    0.8573   -7.8966    1.8099 H   0  0  0  0  0  0  0  0  0  0  0  0
    0.9799   -5.8666    0.4306 H   0  0  0  0  0  0  0  0  0  0  0  0
    0.8405   -5.3906    2.0927 H   0  0  0  0  0  0  0  0  0  0  0  0
    3.4613   -5.6920    0.5246 H   0  0  0  0  0  0  0  0  0  0  0  0
    2.1078   -4.5014   -1.1570 H   0  0  0  0  0  0  0  0  0  0  0  0
    2.2703   -2.7692   -1.0185 H   0  0  0  0  0  0  0  0  0  0  0  0
    5.8251   -2.8326   -1.2596 H   0  0  0  0  0  0  0  0  0  0  0  0
    4.8689   -2.4268    0.1599 H   0  0  0  0  0  0  0  0  0  0  0  0
    4.4159   -1.7758   -1.4125 H   0  0  0  0  0  0  0  0  0  0  0  0
    5.5875   -4.3009    3.2129 H   0  0  0  0  0  0  0  0  0  0  0  0
    4.8238   -3.3851    1.9658 H   0  0  0  0  0  0  0  0  0  0  0  0
    5.5441   -4.9516    1.5819 H   0  0  0  0  0  0  0  0  0  0  0  0
    3.3561   -3.9495    4.4740 H   0  0  0  0  0  0  0  0  0  0  0  0
    1.8299   -4.4265    3.7242 H   0  0  0  0  0  0  0  0  0  0  0  0
    2.7363   -3.0984    3.0869 H   0  0  0  0  0  0  0  0  0  0  0  0
    4.5720   -6.8543    2.4529 H   0  0  0  0  0  0  0  0  0  0  0  0
    5.2147   -7.4103    4.5266 H   0  0  0  0  0  0  0  0  0  0  0  0
    5.2252   -5.7132    4.6407 H   0  0  0  0  0  0  0  0  0  0  0  0
    4.2646   -6.5772    6.6412 H   0  0  0  0  0  0  0  0  0  0  0  0
    3.0822   -5.6517    5.8027 H   0  0  0  0  0  0  0  0  0  0  0  0
    4.3793   -9.0202    6.5060 H   0  0  0  0  0  0  0  0  0  0  0  0
    4.1499   -9.2426    4.9043 H   0  0  0  0  0  0  0  0  0  0  0  0
    3.0009   -9.9908    5.9146 H   0  0  0  0  0  0  0  0  0  0  0  0
    0.0546   -8.9524    6.2098 H   0  0  0  0  0  0  0  0  0  0  0  0
    0.0632   -8.9844    7.9310 H   0  0  0  0  0  0  0  0  0  0  0  0
    1.1896   -9.9608    7.0313 H   0  0  0  0  0  0  0  0  0  0  0  0
  1  2  2  0
  1 36  1  0
  1 37  1  0
  2  3  1  0
  2  4  1  0
  3 38  1  0
  3 39  1  0
  3 40  1  0
  4 34  1  0
  4  5  1  0
  4 41  1  6
  5  6  1  0
  5 42  1  0
  5 43  1  0
  6  7  1  0
  6 44  1  0
  6 45  1  0
  7 11  1  0
  7  8  1  1
  7  9  1  0
  8 46  1  0
  8 47  1  0
  8 48  1  0
  9 10  1  0
  9 49  1  0
  9 50  1  0
 10 11  1  0
 10 51  1  0
 10 52  1  0
 11 12  1  0
 11 53  1  1
 12 34  1  0
 12 13  1  0
 12 54  1  1
 13 14  1  0
 13 55  1  0
 13 56  1  0
 14 15  2  0
 14 16  1  0
 16 32  1  0
 16 17  1  0
 16 57  1  6
 17 29  1  0
 17 18  1  6
 17 19  1  0
 18 58  1  0
 18 59  1  0
 18 60  1  0
 19 20  1  0
 19 61  1  0
 19 62  1  0
 20 21  1  0
 20 63  1  0
 20 64  1  0
 21 22  1  0
 21 26  1  0
 21 65  1  6
 22 23  1  0
 23 24  1  0
 23 66  1  0
 23 67  1  0
 24 25  1  0
 25 68  1  0
 25 69  1  0
 25 70  1  0
 26 27  1  0
 26 28  1  0
 26 29  1  0
 27 71  1  0
 27 72  1  0
 27 73  1  0
 28 74  1  0
 28 75  1  0
 28 76  1  0
 29 30  1  0
 29 77  1  6
 30 31  1  0
 30 78  1  0
 30 79  1  0
 31 32  1  0
 31 80  1  0
 31 81  1  0
 32 33  1  1
 32 34  1  0
 33 82  1  0
 33 83  1  0
 33 84  1  0
 34 35  1  1
 35 85  1  0
 35 86  1  0
 35 87  1  0
M  END
>  <i_m_ct_stereo_status>  (67) 
1

>  <s_m_source_file>  (67) 
/var/tmp/pbs.5076255.sched01/tmppv1df_bs/0l6e7d74h.sdf

>  <i_m_source_file_index>  (67) 
24

>  <i_lp_mmshare_version>  (67) 
48012

>  <i_f3d_flags>  (67) 
0

>  <s_epik_input>  (67) 
W0NIM11bQ0BAXTEyW0NASF0oW0NIMl1bQ0gyXTIpW0NAQEhdM1tDQF0oW0NIM10pKFtDQEhdKEMoPVtDSDJdKVtDSDNdKVtDSDJdW0NIMl0xKVtDQEBdNChbQ0gzXSlbQ0BASF0oQyg9TylbQ0gyXTMpW0NAXTUoW0NIM10pW0NASF0oW0NIMl1bQ0gyXTQpQyhbQ0gzXSkoW0NIM10pW0NAQEhdKFtDSDJdW0NIMl01KU9bQ0gyXU9bQ0gzXQ==

>  <s_epik_cmdline>  (67) 
J2VwaWtfcHl0aG9uJywgJy1waHQnLCAnMi4wJywgJy1waCcsICc3LjAnLCAnLXRuJywgJzgnLCAnLW1hJywgJzIwMCcsICctaW1hZScsICc8aW5maWxlLm1hZT4nLCAnLW9tYWUnLCAnPG91dGZpbGUubWFlPic=

>  <r_lp_tautomer_probability>  (67) 
1

>  <r_epik_Ionization_Penalty>  (67) 
1.95522e-12

>  <r_epik_Ionization_Penalty_Charging>  (67) 
0

>  <r_epik_Ionization_Penalty_Neutral>  (67) 
1.95522e-12

>  <r_epik_State_Penalty>  (67) 
-0

>  <r_epik_Charging_Adjusted_Penalty>  (67) 
0

>  <i_epik_Tot_Q>  (67) 
0

>  <i_epik_Tot_abs_Q>  (67) 
0

>  <s_epik_Chemistry_Notes>  (67) 
This compound contains an acetal/aminal-like group ( X-CH(R)-Y where X, Y are N, S, or O) that may be acid/base labile, releasing an aldehyde.

>  <s_lp_Force_Field>  (67) 
OPLS3e

>  <r_lp_Energy>  (67) 
120.921

>  <b_lp_Chiralities_Consistent>  (67) 
1

>  <s_lp_Variant>  (67) 
16:0-1

>  <s_i_glide_gridfile>  (67) 
pfpi4k_grid

>  <i_i_glide_lignum>  (67) 
24

>  <i_i_glide_rotatable_bonds>  (67) 
4

>  <r_i_docking_score>  (67) 
-0.814993

>  <r_i_glide_ligand_efficiency>  (67) 
-0.0232855

>  <r_i_glide_ligand_efficiency_sa>  (67) 
-0.0761685

>  <r_i_glide_ligand_efficiency_ln>  (67) 
-0.178909

>  <r_i_glide_gscore>  (67) 
-0.814993

>  <r_i_glide_lipo>  (67) 
-0.023532

>  <r_i_glide_hbond>  (67) 
0

>  <r_i_glide_metal>  (67) 
-0

>  <r_i_glide_rewards>  (67) 
-0.103954

>  <r_i_glide_evdw>  (67) 
-19.1839

>  <r_i_glide_ecoul>  (67) 
0.384649

>  <r_i_glide_erotb>  (67) 
0.259295

>  <r_i_glide_esite>  (67) 
-0.0453067

>  <r_i_glide_emodel>  (67) 
-18.8701

>  <r_i_glide_energy>  (67) 
-18.7992

>  <r_i_glide_einternal>  (67) 
0.518243

>  <r_i_glide_intrahb_reward>  (67) 
-0

>  <i_i_glide_confnum>  (67) 
3

>  <i_i_glide_posenum>  (67) 
4

>  <r_i_glide_eff_state_penalty>  (67) 
0

>  <ligand_id>  (67) 
16

>  <original_smiles>  (67) 
C=C(C)C1CCC2(C)CCC2C2CC(=O)C3C4(C)CCC(OCOC)C(C)(C)C4CCC3(C)C12C

>  <smiles>  (67) 
[H]C([H])=C(C([H])([H])[H])C1([H])C([H])([H])C([H])([H])C2(C([H])([H])[H])C([H])([H])C([H])([H])C2([H])C2([H])C([H])([H])C(=O)C3([H])C4(C([H])([H])[H])C([H])([H])C([H])([H])C([H])(OC([H])([H])OC([H])([H])[H])C(C([H])([H])[H])(C([H])([H])[H])C4([H])C([H])([H])C([H])([H])C3(C([H])([H])[H])C12C([H])([H])[H]

$$$$
17:0:0
     RDKit          3D

 54 60  0  0  1  0  0  0  0  0999 V2000
    6.3126   -5.8024    1.0579 C   0  0  0  0  0  0  0  0  0  0  0  0
    5.2384   -4.7011    0.6925 C   0  0  2  0  0  0  0  0  0  0  0  0
    5.6839   -3.3960    1.2502 C   0  0  1  0  0  0  0  0  0  0  0  0
    5.9192   -2.3621    0.0618 C   0  0  2  0  0  0  0  0  0  0  0  0
    5.8864   -0.9804    0.7079 C   0  0  0  0  0  0  0  0  0  0  0  0
    4.4565   -0.7826    1.2230 C   0  0  0  0  0  0  0  0  0  0  0  0
    3.6596   -2.1454    1.2793 C   0  0  1  0  0  0  0  0  0  0  0  0
    2.2911   -1.6052    1.7962 C   0  0  0  0  0  0  0  0  0  0  0  0
    3.5094   -2.7707   -0.2648 C   0  0  2  0  0  0  0  0  0  0  0  0
    3.1989   -4.2298   -0.4746 O   0  0  0  0  0  0  0  0  0  0  0  0
    3.5453   -4.9058    0.6783 C   0  0  2  0  0  0  0  0  0  0  0  0
    2.4483   -4.4384    1.5315 O   0  0  0  0  0  0  0  0  0  0  0  0
    2.6035   -4.3470    2.8711 C   0  0  0  0  0  0  0  0  0  0  0  0
    1.7441   -4.1137    3.7099 O   0  0  0  0  0  0  0  0  0  0  0  0
    4.0439   -4.5457    3.1020 C   0  0  1  0  0  0  0  0  0  0  0  0
    4.2908   -4.5513    4.6413 C   0  0  0  0  0  0  0  0  0  0  0  0
    4.0479   -6.1002    2.5429 C   0  0  2  0  0  0  0  0  0  0  0  0
    4.4636   -7.2291    3.3287 O   0  0  0  0  0  0  0  0  0  0  0  0
    3.0648   -7.1373    3.0606 C   0  0  2  0  0  0  0  0  0  0  0  0
    2.4222   -7.2373    1.6752 C   0  0  0  0  0  0  0  0  0  0  0  0
    3.5070   -6.3490    1.0579 C   0  0  1  0  0  0  0  0  0  0  0  0
    4.5714   -3.1385    2.2794 C   0  0  1  0  0  0  0  0  0  0  0  0
    5.1437   -2.3445    3.3018 O   0  0  0  0  0  0  0  0  0  0  0  0
    4.8159   -2.4348   -1.0786 C   0  0  0  0  0  0  0  0  0  0  0  0
    4.6367   -1.1182   -1.8960 C   0  0  0  0  0  0  0  0  0  0  0  0
    5.2109   -3.4192   -2.2384 C   0  0  0  0  0  0  0  0  0  0  0  0
    6.4627   -5.9548    2.1271 H   0  0  0  0  0  0  0  0  0  0  0  0
    7.2873   -5.4826    0.7053 H   0  0  0  0  0  0  0  0  0  0  0  0
    6.1419   -6.7660    0.5860 H   0  0  0  0  0  0  0  0  0  0  0  0
    5.5013   -4.7799   -0.3446 H   0  0  0  0  0  0  0  0  0  0  0  0
    6.6225   -3.5114    1.7796 H   0  0  0  0  0  0  0  0  0  0  0  0
    6.9068   -2.5157   -0.3679 H   0  0  0  0  0  0  0  0  0  0  0  0
    6.6055   -0.9285    1.5280 H   0  0  0  0  0  0  0  0  0  0  0  0
    6.1689   -0.1830    0.0229 H   0  0  0  0  0  0  0  0  0  0  0  0
    4.5006   -0.2823    2.1921 H   0  0  0  0  0  0  0  0  0  0  0  0
    3.9386   -0.0437    0.6174 H   0  0  0  0  0  0  0  0  0  0  0  0
    1.4538   -2.2570    1.5734 H   0  0  0  0  0  0  0  0  0  0  0  0
    2.0128   -0.6732    1.3042 H   0  0  0  0  0  0  0  0  0  0  0  0
    2.3070   -1.4100    2.8674 H   0  0  0  0  0  0  0  0  0  0  0  0
    2.6927   -2.2474   -0.7564 H   0  0  0  0  0  0  0  0  0  0  0  0
    5.3430   -4.6955    4.8511 H   0  0  0  0  0  0  0  0  0  0  0  0
    3.7320   -5.3442    5.1365 H   0  0  0  0  0  0  0  0  0  0  0  0
    3.9626   -3.6219    5.1033 H   0  0  0  0  0  0  0  0  0  0  0  0
    2.4270   -7.0076    3.9393 H   0  0  0  0  0  0  0  0  0  0  0  0
    2.4358   -8.2328    1.2368 H   0  0  0  0  0  0  0  0  0  0  0  0
    1.3965   -6.8627    1.6861 H   0  0  0  0  0  0  0  0  0  0  0  0
    4.0905   -6.9633    0.4087 H   0  0  0  0  0  0  0  0  0  0  0  0
    4.4488   -2.0369    3.8643 H   0  0  0  0  0  0  0  0  0  0  0  0
    3.9375   -1.2628   -2.7224 H   0  0  0  0  0  0  0  0  0  0  0  0
    5.5830   -0.7812   -2.3199 H   0  0  0  0  0  0  0  0  0  0  0  0
    4.2302   -0.2763   -1.3557 H   0  0  0  0  0  0  0  0  0  0  0  0
    5.1259   -2.9884   -3.2365 H   0  0  0  0  0  0  0  0  0  0  0  0
    4.6169   -4.3236   -2.2902 H   0  0  0  0  0  0  0  0  0  0  0  0
    6.2519   -3.7300   -2.1585 H   0  0  0  0  0  0  0  0  0  0  0  0
  1  2  1  0
  1 27  1  0
  1 28  1  0
  1 29  1  0
  2 11  1  0
  2  3  1  0
  2 30  1  6
  3 22  1  0
  3  4  1  0
  3 31  1  1
  4 24  1  0
  4  5  1  0
  4 32  1  6
  5  6  1  0
  5 33  1  0
  5 34  1  0
  6  7  1  0
  6 35  1  0
  6 36  1  0
  7 22  1  0
  7  8  1  1
  7  9  1  0
  8 37  1  0
  8 38  1  0
  8 39  1  0
  9 10  1  0
  9 24  1  0
  9 40  1  6
 11 10  1  6
 11 21  1  0
 11 12  1  0
 12 13  1  0
 13 14  2  0
 13 15  1  0
 15 16  1  1
 15 17  1  0
 15 22  1  0
 16 41  1  0
 16 42  1  0
 16 43  1  0
 17 19  1  0
 17 21  1  0
 17 18  1  6
 18 19  1  0
 19 20  1  0
 19 44  1  1
 20 21  1  0
 20 45  1  0
 20 46  1  0
 21 47  1  6
 22 23  1  1
 23 48  1  0
 24 25  1  0
 24 26  1  0
 25 49  1  0
 25 50  1  0
 25 51  1  0
 26 52  1  0
 26 53  1  0
 26 54  1  0
M  END
>  <i_m_ct_stereo_status>  (68) 
1

>  <s_m_source_file>  (68) 
/var/tmp/pbs.5076255.sched01/tmppv1df_bs/0l6e7d74h.sdf

>  <i_m_source_file_index>  (68) 
25

>  <i_lp_mmshare_version>  (68) 
48012

>  <i_f3d_flags>  (68) 
0

>  <s_epik_input>  (68) 
QzEyM1tDQEhdNFtDQF01KFtDQEhdKE81KVtDSDJdNClbQ0BAXShDKE8zKT1PKShbQ0gzXSlbQ0BAXTYoW09IXSlbQ0BASF0oW0NASF0xW0NIM10pW0NAQEhdN1tDSDJdW0NIMl1bQ0BAXTYoW0NIM10pW0NASF0oTzIpQzcoW0NIM10pW0NIM10=

>  <s_epik_cmdline>  (68) 
J2VwaWtfcHl0aG9uJywgJy1waHQnLCAnMi4wJywgJy1waCcsICc3LjAnLCAnLXRuJywgJzgnLCAnLW1hJywgJzIwMCcsICctaW1hZScsICc8aW5maWxlLm1hZT4nLCAnLW9tYWUnLCAnPG91dGZpbGUubWFlPic=

>  <r_lp_tautomer_probability>  (68) 
1

>  <r_epik_Ionization_Penalty>  (68) 
3.36069e-08

>  <r_epik_Ionization_Penalty_Charging>  (68) 
0

>  <r_epik_Ionization_Penalty_Neutral>  (68) 
3.36069e-08

>  <r_epik_State_Penalty>  (68) 
-0

>  <r_epik_Charging_Adjusted_Penalty>  (68) 
0

>  <i_epik_Tot_Q>  (68) 
0

>  <i_epik_Tot_abs_Q>  (68) 
0

>  <s_epik_Chemistry_Notes>  (68) 
This compound has an ester and may undergo hydrolysis at high or low pH.

>  <s_lp_Force_Field>  (68) 
OPLS3e

>  <r_lp_Energy>  (68) 
292.651

>  <b_lp_Chiralities_Consistent>  (68) 
1

>  <s_lp_Variant>  (68) 
17:0-1

>  <s_i_glide_gridfile>  (68) 
pfpi4k_grid

>  <i_i_glide_lignum>  (68) 
25

>  <i_i_glide_rotatable_bonds>  (68) 
1

>  <r_i_docking_score>  (68) 
-2.87871

>  <r_i_glide_ligand_efficiency>  (68) 
-0.11072

>  <r_i_glide_ligand_efficiency_sa>  (68) 
-0.328006

>  <r_i_glide_ligand_efficiency_ln>  (68) 
-0.676056

>  <r_i_glide_gscore>  (68) 
-2.87871

>  <r_i_glide_lipo>  (68) 
-0.661709

>  <r_i_glide_hbond>  (68) 
0

>  <r_i_glide_metal>  (68) 
-0

>  <r_i_glide_rewards>  (68) 
-0.951518

>  <r_i_glide_evdw>  (68) 
-27.181

>  <r_i_glide_ecoul>  (68) 
0.670666

>  <r_i_glide_erotb>  (68) 
0

>  <r_i_glide_esite>  (68) 
-0.00703235

>  <r_i_glide_emodel>  (68) 
-30.9521

>  <r_i_glide_energy>  (68) 
-26.5103

>  <r_i_glide_einternal>  (68) 
0.00513503

>  <r_i_glide_intrahb_reward>  (68) 
-0

>  <i_i_glide_confnum>  (68) 
1

>  <i_i_glide_posenum>  (68) 
32

>  <r_i_glide_eff_state_penalty>  (68) 
0

>  <ligand_id>  (68) 
17

>  <original_smiles>  (68) 
CC1C2C3CCC4(C)C(OC15OC(=O)C(C)(C16OC1CC56)C24O)C3(C)C

>  <smiles>  (68) 
[H]OC12C3([H])C([H])(C([H])([H])[H])C4(OC(=O)C1(C([H])([H])[H])C15OC1([H])C([H])([H])C45[H])OC1([H])C(C([H])([H])[H])(C([H])([H])[H])C3([H])C([H])([H])C([H])([H])C12C([H])([H])[H]

$$$$
17:0:1
     RDKit          3D

 54 60  0  0  1  0  0  0  0  0999 V2000
    6.3198   -5.8008    1.0526 C   0  0  0  0  0  0  0  0  0  0  0  0
    5.2458   -4.6993    0.6890 C   0  0  2  0  0  0  0  0  0  0  0  0
    5.6925   -3.3947    1.2483 C   0  0  1  0  0  0  0  0  0  0  0  0
    5.9243   -2.3590    0.0592 C   0  0  2  0  0  0  0  0  0  0  0  0
    5.8901   -0.9774    0.7076 C   0  0  0  0  0  0  0  0  0  0  0  0
    4.4600   -0.7817    1.2266 C   0  0  0  0  0  0  0  0  0  0  0  0
    3.6633   -2.1466    1.2786 C   0  0  1  0  0  0  0  0  0  0  0  0
    2.2966   -1.6066    1.7991 C   0  0  0  0  0  0  0  0  0  0  0  0
    3.5114   -2.7716   -0.2639 C   0  0  2  0  0  0  0  0  0  0  0  0
    3.2014   -4.2304   -0.4725 O   0  0  0  0  0  0  0  0  0  0  0  0
    3.5533   -4.9047    0.6786 C   0  0  2  0  0  0  0  0  0  0  0  0
    2.4569   -4.4392    1.5337 O   0  0  0  0  0  0  0  0  0  0  0  0
    2.6127   -4.3486    2.8730 C   0  0  0  0  0  0  0  0  0  0  0  0
    1.7498   -4.1260    3.7113 O   0  0  0  0  0  0  0  0  0  0  0  0
    4.0508   -4.5490    3.1005 C   0  0  1  0  0  0  0  0  0  0  0  0
    4.3039   -4.5532    4.6406 C   0  0  0  0  0  0  0  0  0  0  0  0
    4.0566   -6.0998    2.5396 C   0  0  2  0  0  0  0  0  0  0  0  0
    4.4765   -7.2299    3.3215 O   0  0  0  0  0  0  0  0  0  0  0  0
    3.0753   -7.1382    3.0620 C   0  0  2  0  0  0  0  0  0  0  0  0
    2.4319   -7.2395    1.6784 C   0  0  0  0  0  0  0  0  0  0  0  0
    3.5150   -6.3505    1.0549 C   0  0  1  0  0  0  0  0  0  0  0  0
    4.5741   -3.1415    2.2770 C   0  0  1  0  0  0  0  0  0  0  0  0
    5.1165   -2.3431    3.3054 O   0  0  0  0  0  0  0  0  0  0  0  0
    4.8166   -2.4338   -1.0784 C   0  0  0  0  0  0  0  0  0  0  0  0
    4.6349   -1.1159   -1.8958 C   0  0  0  0  0  0  0  0  0  0  0  0
    5.2104   -3.4171   -2.2404 C   0  0  0  0  0  0  0  0  0  0  0  0
    6.4712   -5.9532    2.1211 H   0  0  0  0  0  0  0  0  0  0  0  0
    7.2939   -5.4806    0.6985 H   0  0  0  0  0  0  0  0  0  0  0  0
    6.1495   -6.7642    0.5809 H   0  0  0  0  0  0  0  0  0  0  0  0
    5.5046   -4.7797   -0.3493 H   0  0  0  0  0  0  0  0  0  0  0  0
    6.6347   -3.5123    1.7736 H   0  0  0  0  0  0  0  0  0  0  0  0
    6.9109   -2.5114   -0.3757 H   0  0  0  0  0  0  0  0  0  0  0  0
    6.6176   -0.9201    1.5191 H   0  0  0  0  0  0  0  0  0  0  0  0
    6.1654   -0.1804    0.0187 H   0  0  0  0  0  0  0  0  0  0  0  0
    4.4920   -0.2728    2.1923 H   0  0  0  0  0  0  0  0  0  0  0  0
    3.9401   -0.0471    0.6168 H   0  0  0  0  0  0  0  0  0  0  0  0
    1.4580   -2.2564    1.5777 H   0  0  0  0  0  0  0  0  0  0  0  0
    2.0153   -0.6741    1.3104 H   0  0  0  0  0  0  0  0  0  0  0  0
    2.3159   -1.4154    2.8710 H   0  0  0  0  0  0  0  0  0  0  0  0
    2.6926   -2.2494   -0.7542 H   0  0  0  0  0  0  0  0  0  0  0  0
    5.3578   -4.6960    4.8497 H   0  0  0  0  0  0  0  0  0  0  0  0
    3.7438   -5.3449    5.1361 H   0  0  0  0  0  0  0  0  0  0  0  0
    3.9768   -3.6195    5.0979 H   0  0  0  0  0  0  0  0  0  0  0  0
    2.4405   -7.0116    3.9422 H   0  0  0  0  0  0  0  0  0  0  0  0
    2.4461   -8.2353    1.2373 H   0  0  0  0  0  0  0  0  0  0  0  0
    1.4071   -6.8660    1.6872 H   0  0  0  0  0  0  0  0  0  0  0  0
    4.1001   -6.9641    0.4066 H   0  0  0  0  0  0  0  0  0  0  0  0
    5.5101   -1.5875    2.8961 H   0  0  0  0  0  0  0  0  0  0  0  0
    3.9336   -1.2619   -2.7217 H   0  0  0  0  0  0  0  0  0  0  0  0
    5.5792   -0.7782   -2.3262 H   0  0  0  0  0  0  0  0  0  0  0  0
    4.2228   -0.2752   -1.3546 H   0  0  0  0  0  0  0  0  0  0  0  0
    5.1230   -2.9867   -3.2388 H   0  0  0  0  0  0  0  0  0  0  0  0
    4.6166   -4.3226   -2.2918 H   0  0  0  0  0  0  0  0  0  0  0  0
    6.2520   -3.7274   -2.1629 H   0  0  0  0  0  0  0  0  0  0  0  0
  1  2  1  0
  1 27  1  0
  1 28  1  0
  1 29  1  0
  2 11  1  0
  2  3  1  0
  2 30  1  6
  3 22  1  0
  3  4  1  0
  3 31  1  1
  4 24  1  0
  4  5  1  0
  4 32  1  6
  5  6  1  0
  5 33  1  0
  5 34  1  0
  6  7  1  0
  6 35  1  0
  6 36  1  0
  7 22  1  0
  7  8  1  1
  7  9  1  0
  8 37  1  0
  8 38  1  0
  8 39  1  0
  9 10  1  0
  9 24  1  0
  9 40  1  6
 11 10  1  6
 11 21  1  0
 11 12  1  0
 12 13  1  0
 13 14  2  0
 13 15  1  0
 15 16  1  1
 15 17  1  0
 15 22  1  0
 16 41  1  0
 16 42  1  0
 16 43  1  0
 17 19  1  0
 17 21  1  0
 17 18  1  6
 18 19  1  0
 19 20  1  0
 19 44  1  1
 20 21  1  0
 20 45  1  0
 20 46  1  0
 21 47  1  6
 22 23  1  1
 23 48  1  0
 24 25  1  0
 24 26  1  0
 25 49  1  0
 25 50  1  0
 25 51  1  0
 26 52  1  0
 26 53  1  0
 26 54  1  0
M  END
>  <i_m_ct_stereo_status>  (69) 
1

>  <s_m_source_file>  (69) 
/var/tmp/pbs.5076255.sched01/tmppv1df_bs/0l6e7d74h.sdf

>  <i_m_source_file_index>  (69) 
25

>  <i_lp_mmshare_version>  (69) 
48012

>  <i_f3d_flags>  (69) 
0

>  <s_epik_input>  (69) 
QzEyM1tDQEhdNFtDQF01KFtDQEhdKE81KVtDSDJdNClbQ0BAXShDKE8zKT1PKShbQ0gzXSlbQ0BAXTYoW09IXSlbQ0BASF0oW0NASF0xW0NIM10pW0NAQEhdN1tDSDJdW0NIMl1bQ0BAXTYoW0NIM10pW0NASF0oTzIpQzcoW0NIM10pW0NIM10=

>  <s_epik_cmdline>  (69) 
J2VwaWtfcHl0aG9uJywgJy1waHQnLCAnMi4wJywgJy1waCcsICc3LjAnLCAnLXRuJywgJzgnLCAnLW1hJywgJzIwMCcsICctaW1hZScsICc8aW5maWxlLm1hZT4nLCAnLW9tYWUnLCAnPG91dGZpbGUubWFlPic=

>  <r_lp_tautomer_probability>  (69) 
1

>  <r_epik_Ionization_Penalty>  (69) 
3.36069e-08

>  <r_epik_Ionization_Penalty_Charging>  (69) 
0

>  <r_epik_Ionization_Penalty_Neutral>  (69) 
3.36069e-08

>  <r_epik_State_Penalty>  (69) 
-0

>  <r_epik_Charging_Adjusted_Penalty>  (69) 
0

>  <i_epik_Tot_Q>  (69) 
0

>  <i_epik_Tot_abs_Q>  (69) 
0

>  <s_epik_Chemistry_Notes>  (69) 
This compound has an ester and may undergo hydrolysis at high or low pH.

>  <s_lp_Force_Field>  (69) 
OPLS3e

>  <r_lp_Energy>  (69) 
292.651

>  <b_lp_Chiralities_Consistent>  (69) 
1

>  <s_lp_Variant>  (69) 
17:0-1

>  <s_i_glide_gridfile>  (69) 
pfpi4k_grid

>  <i_i_glide_lignum>  (69) 
25

>  <i_i_glide_rotatable_bonds>  (69) 
1

>  <r_i_docking_score>  (69) 
-2.87026

>  <r_i_glide_ligand_efficiency>  (69) 
-0.110394

>  <r_i_glide_ligand_efficiency_sa>  (69) 
-0.327043

>  <r_i_glide_ligand_efficiency_ln>  (69) 
-0.67407

>  <r_i_glide_gscore>  (69) 
-2.87026

>  <r_i_glide_lipo>  (69) 
-0.663944

>  <r_i_glide_hbond>  (69) 
0

>  <r_i_glide_metal>  (69) 
-0

>  <r_i_glide_rewards>  (69) 
-0.951518

>  <r_i_glide_evdw>  (69) 
-27.2256

>  <r_i_glide_ecoul>  (69) 
0.755003

>  <r_i_glide_erotb>  (69) 
0

>  <r_i_glide_esite>  (69) 
-0.00676398

>  <r_i_glide_emodel>  (69) 
-30.893

>  <r_i_glide_energy>  (69) 
-26.4706

>  <r_i_glide_einternal>  (69) 
0.0336606

>  <r_i_glide_intrahb_reward>  (69) 
-0

>  <i_i_glide_confnum>  (69) 
1

>  <i_i_glide_posenum>  (69) 
10

>  <r_i_glide_eff_state_penalty>  (69) 
0

>  <ligand_id>  (69) 
17

>  <original_smiles>  (69) 
CC1C2C3CCC4(C)C(OC15OC(=O)C(C)(C16OC1CC56)C24O)C3(C)C

>  <smiles>  (69) 
[H]OC12C3([H])C([H])(C([H])([H])[H])C4(OC(=O)C1(C([H])([H])[H])C15OC1([H])C([H])([H])C45[H])OC1([H])C(C([H])([H])[H])(C([H])([H])[H])C3([H])C([H])([H])C([H])([H])C12C([H])([H])[H]

$$$$
17:0:2
     RDKit          3D

 54 60  0  0  1  0  0  0  0  0999 V2000
    6.1219   -5.9301    1.2509 C   0  0  0  0  0  0  0  0  0  0  0  0
    5.0928   -4.7867    0.8829 C   0  0  2  0  0  0  0  0  0  0  0  0
    5.5596   -3.5080    1.4899 C   0  0  1  0  0  0  0  0  0  0  0  0
    5.8583   -2.4477    0.3371 C   0  0  2  0  0  0  0  0  0  0  0  0
    5.8430   -1.0799    1.0169 C   0  0  0  0  0  0  0  0  0  0  0  0
    4.4043   -0.8620    1.4988 C   0  0  0  0  0  0  0  0  0  0  0  0
    3.5702   -2.2033    1.4921 C   0  0  1  0  0  0  0  0  0  0  0  0
    2.2080   -1.6352    1.9860 C   0  0  0  0  0  0  0  0  0  0  0  0
    3.4481   -2.7854   -0.0711 C   0  0  2  0  0  0  0  0  0  0  0  0
    3.1029   -4.2285   -0.3320 O   0  0  0  0  0  0  0  0  0  0  0  0
    3.3950   -4.9429    0.8119 C   0  0  2  0  0  0  0  0  0  0  0  0
    2.2846   -4.4668    1.6460 O   0  0  0  0  0  0  0  0  0  0  0  0
    2.3996   -4.4150    2.9901 C   0  0  0  0  0  0  0  0  0  0  0  0
    1.5162   -4.1890    3.8063 O   0  0  0  0  0  0  0  0  0  0  0  0
    3.8260   -4.6599    3.2606 C   0  0  1  0  0  0  0  0  0  0  0  0
    4.0259   -4.7147    4.8051 C   0  0  0  0  0  0  0  0  0  0  0  0
    3.8033   -6.2000    2.6559 C   0  0  2  0  0  0  0  0  0  0  0  0
    4.1651   -7.3611    3.4189 O   0  0  0  0  0  0  0  0  0  0  0  0
    2.7774   -7.2241    3.1176 C   0  0  2  0  0  0  0  0  0  0  0  0
    2.1748   -7.2680    1.7108 C   0  0  0  0  0  0  0  0  0  0  0  0
    3.3032   -6.3932    1.1516 C   0  0  1  0  0  0  0  0  0  0  0  0
    4.4189   -3.2477    2.4910 C   0  0  1  0  0  0  0  0  0  0  0  0
    4.9565   -2.4905    3.5571 O   0  0  0  0  0  0  0  0  0  0  0  0
    4.7869   -2.4607   -0.8362 C   0  0  0  0  0  0  0  0  0  0  0  0
    4.6651   -1.1173   -1.6215 C   0  0  0  0  0  0  0  0  0  0  0  0
    5.1926   -3.4238   -2.0102 C   0  0  0  0  0  0  0  0  0  0  0  0
    6.2336   -6.1126    2.3195 H   0  0  0  0  0  0  0  0  0  0  0  0
    7.1149   -5.6271    0.9371 H   0  0  0  0  0  0  0  0  0  0  0  0
    5.9421   -6.8781    0.7499 H   0  0  0  0  0  0  0  0  0  0  0  0
    5.3831   -4.8459   -0.1489 H   0  0  0  0  0  0  0  0  0  0  0  0
    6.4828   -3.6681    2.0374 H   0  0  0  0  0  0  0  0  0  0  0  0
    6.8537   -2.6155   -0.0686 H   0  0  0  0  0  0  0  0  0  0  0  0
    6.5373   -1.0667    1.8593 H   0  0  0  0  0  0  0  0  0  0  0  0
    6.1639   -0.2719    0.3594 H   0  0  0  0  0  0  0  0  0  0  0  0
    4.4301   -0.3949    2.4853 H   0  0  0  0  0  0  0  0  0  0  0  0
    3.9222   -0.0920    0.9025 H   0  0  0  0  0  0  0  0  0  0  0  0
    1.3666   -2.2562    1.7155 H   0  0  0  0  0  0  0  0  0  0  0  0
    1.9639   -0.6852    1.5122 H   0  0  0  0  0  0  0  0  0  0  0  0
    2.1937   -1.4735    3.0629 H   0  0  0  0  0  0  0  0  0  0  0  0
    2.6579   -2.2290   -0.5696 H   0  0  0  0  0  0  0  0  0  0  0  0
    5.0645   -4.9008    5.0496 H   0  0  0  0  0  0  0  0  0  0  0  0
    3.4260   -5.5014    5.2611 H   0  0  0  0  0  0  0  0  0  0  0  0
    3.7085   -3.7862    5.2789 H   0  0  0  0  0  0  0  0  0  0  0  0
    2.1190   -7.1043    3.9791 H   0  0  0  0  0  0  0  0  0  0  0  0
    2.1727   -8.2473    1.2389 H   0  0  0  0  0  0  0  0  0  0  0  0
    1.1608   -6.8610    1.6989 H   0  0  0  0  0  0  0  0  0  0  0  0
    3.8929   -7.0074    0.5040 H   0  0  0  0  0  0  0  0  0  0  0  0
    5.5846   -3.0331    4.0121 H   0  0  0  0  0  0  0  0  0  0  0  0
    3.9931   -1.2234   -2.4759 H   0  0  0  0  0  0  0  0  0  0  0  0
    5.6328   -0.7904   -2.0063 H   0  0  0  0  0  0  0  0  0  0  0  0
    4.2472   -0.2853   -1.0716 H   0  0  0  0  0  0  0  0  0  0  0  0
    5.1485   -2.9652   -2.9988 H   0  0  0  0  0  0  0  0  0  0  0  0
    4.5804   -4.3123   -2.1035 H   0  0  0  0  0  0  0  0  0  0  0  0
    6.2212   -3.7657   -1.9053 H   0  0  0  0  0  0  0  0  0  0  0  0
  1  2  1  0
  1 27  1  0
  1 28  1  0
  1 29  1  0
  2 11  1  0
  2  3  1  0
  2 30  1  6
  3 22  1  0
  3  4  1  0
  3 31  1  1
  4 24  1  0
  4  5  1  0
  4 32  1  6
  5  6  1  0
  5 33  1  0
  5 34  1  0
  6  7  1  0
  6 35  1  0
  6 36  1  0
  7 22  1  0
  7  8  1  1
  7  9  1  0
  8 37  1  0
  8 38  1  0
  8 39  1  0
  9 10  1  0
  9 24  1  0
  9 40  1  6
 11 10  1  6
 11 21  1  0
 11 12  1  0
 12 13  1  0
 13 14  2  0
 13 15  1  0
 15 16  1  1
 15 17  1  0
 15 22  1  0
 16 41  1  0
 16 42  1  0
 16 43  1  0
 17 19  1  0
 17 21  1  0
 17 18  1  6
 18 19  1  0
 19 20  1  0
 19 44  1  1
 20 21  1  0
 20 45  1  0
 20 46  1  0
 21 47  1  6
 22 23  1  1
 23 48  1  0
 24 25  1  0
 24 26  1  0
 25 49  1  0
 25 50  1  0
 25 51  1  0
 26 52  1  0
 26 53  1  0
 26 54  1  0
M  END
>  <i_m_ct_stereo_status>  (70) 
1

>  <s_m_source_file>  (70) 
/var/tmp/pbs.5076255.sched01/tmppv1df_bs/0l6e7d74h.sdf

>  <i_m_source_file_index>  (70) 
25

>  <i_lp_mmshare_version>  (70) 
48012

>  <i_f3d_flags>  (70) 
0

>  <s_epik_input>  (70) 
QzEyM1tDQEhdNFtDQF01KFtDQEhdKE81KVtDSDJdNClbQ0BAXShDKE8zKT1PKShbQ0gzXSlbQ0BAXTYoW09IXSlbQ0BASF0oW0NASF0xW0NIM10pW0NAQEhdN1tDSDJdW0NIMl1bQ0BAXTYoW0NIM10pW0NASF0oTzIpQzcoW0NIM10pW0NIM10=

>  <s_epik_cmdline>  (70) 
J2VwaWtfcHl0aG9uJywgJy1waHQnLCAnMi4wJywgJy1waCcsICc3LjAnLCAnLXRuJywgJzgnLCAnLW1hJywgJzIwMCcsICctaW1hZScsICc8aW5maWxlLm1hZT4nLCAnLW9tYWUnLCAnPG91dGZpbGUubWFlPic=

>  <r_lp_tautomer_probability>  (70) 
1

>  <r_epik_Ionization_Penalty>  (70) 
3.36069e-08

>  <r_epik_Ionization_Penalty_Charging>  (70) 
0

>  <r_epik_Ionization_Penalty_Neutral>  (70) 
3.36069e-08

>  <r_epik_State_Penalty>  (70) 
-0

>  <r_epik_Charging_Adjusted_Penalty>  (70) 
0

>  <i_epik_Tot_Q>  (70) 
0

>  <i_epik_Tot_abs_Q>  (70) 
0

>  <s_epik_Chemistry_Notes>  (70) 
This compound has an ester and may undergo hydrolysis at high or low pH.

>  <s_lp_Force_Field>  (70) 
OPLS3e

>  <r_lp_Energy>  (70) 
292.651

>  <b_lp_Chiralities_Consistent>  (70) 
1

>  <s_lp_Variant>  (70) 
17:0-1

>  <s_i_glide_gridfile>  (70) 
pfpi4k_grid

>  <i_i_glide_lignum>  (70) 
25

>  <i_i_glide_rotatable_bonds>  (70) 
1

>  <r_i_docking_score>  (70) 
-2.76564

>  <r_i_glide_ligand_efficiency>  (70) 
-0.106371

>  <r_i_glide_ligand_efficiency_sa>  (70) 
-0.315123

>  <r_i_glide_ligand_efficiency_ln>  (70) 
-0.649502

>  <r_i_glide_gscore>  (70) 
-2.76564

>  <r_i_glide_lipo>  (70) 
-0.631665

>  <r_i_glide_hbond>  (70) 
0

>  <r_i_glide_metal>  (70) 
-0

>  <r_i_glide_rewards>  (70) 
-0.951518

>  <r_i_glide_evdw>  (70) 
-26.7269

>  <r_i_glide_ecoul>  (70) 
1.08816

>  <r_i_glide_erotb>  (70) 
0

>  <r_i_glide_esite>  (70) 
-0.00933883

>  <r_i_glide_emodel>  (70) 
-29.8757

>  <r_i_glide_energy>  (70) 
-25.6387

>  <r_i_glide_einternal>  (70) 
0.00946844

>  <r_i_glide_intrahb_reward>  (70) 
-0

>  <i_i_glide_confnum>  (70) 
1

>  <i_i_glide_posenum>  (70) 
26

>  <r_i_glide_eff_state_penalty>  (70) 
0

>  <ligand_id>  (70) 
17

>  <original_smiles>  (70) 
CC1C2C3CCC4(C)C(OC15OC(=O)C(C)(C16OC1CC56)C24O)C3(C)C

>  <smiles>  (70) 
[H]OC12C3([H])C([H])(C([H])([H])[H])C4(OC(=O)C1(C([H])([H])[H])C15OC1([H])C([H])([H])C45[H])OC1([H])C(C([H])([H])[H])(C([H])([H])[H])C3([H])C([H])([H])C([H])([H])C12C([H])([H])[H]

$$$$
18:0:0
     RDKit          3D

 36 38  0  0  1  0  0  0  0  0999 V2000
    1.5948   -6.4369    2.1004 C   0  0  0  0  0  0  0  0  0  0  0  0
    1.8179   -5.0570    1.8533 O   0  0  0  0  0  0  0  0  0  0  0  0
    3.1587   -4.7254    1.4867 C   0  0  2  0  0  0  0  0  0  0  0  0
    3.3423   -3.1878    1.5495 C   0  0  0  0  0  0  0  0  0  0  0  0
    4.6250   -2.7184    0.8118 C   0  0  1  0  0  0  0  0  0  0  0  0
    5.8777   -3.4483    1.3232 C   0  0  0  0  0  0  0  0  0  0  0  0
    5.9686   -4.7060    0.4296 C   0  0  0  0  0  0  0  0  0  0  0  0
    4.7592   -4.5916   -0.5140 C   0  0  1  0  0  0  0  0  0  0  0  0
    3.5000   -5.2594    0.0772 C   0  0  0  0  0  0  0  0  0  0  0  0
    4.5581   -3.1584   -0.5683 N   0  0  0  0  0  0  0  0  0  0  0  0
    4.1940   -2.4052   -1.6767 C   0  0  0  0  0  0  0  0  0  0  0  0
    3.6396   -3.0540   -2.7006 N   0  0  0  0  0  0  0  0  0  0  0  0
    3.3158   -2.3340   -3.7902 C   0  0  0  0  0  0  0  0  0  0  0  0
    3.6116   -0.9605   -3.8809 C   0  0  0  0  0  0  0  0  0  0  0  0
    3.2740   -0.1382   -5.1101 C   0  0  0  0  0  0  0  0  0  0  0  0
    4.2091   -0.3871   -2.7456 C   0  0  0  0  0  0  0  0  0  0  0  0
    4.5024   -1.1091   -1.6475 N   0  0  0  0  0  0  0  0  0  0  0  0
    0.5626   -6.5910    2.4192 H   0  0  0  0  0  0  0  0  0  0  0  0
    2.2491   -6.8016    2.8925 H   0  0  0  0  0  0  0  0  0  0  0  0
    1.7506   -7.0469    1.2092 H   0  0  0  0  0  0  0  0  0  0  0  0
    3.8405   -5.1702    2.2146 H   0  0  0  0  0  0  0  0  0  0  0  0
    2.4735   -2.6881    1.1172 H   0  0  0  0  0  0  0  0  0  0  0  0
    3.3777   -2.8759    2.5924 H   0  0  0  0  0  0  0  0  0  0  0  0
    4.7340   -1.6370    0.8935 H   0  0  0  0  0  0  0  0  0  0  0  0
    6.7590   -2.8240    1.1685 H   0  0  0  0  0  0  0  0  0  0  0  0
    5.8193   -3.6842    2.3864 H   0  0  0  0  0  0  0  0  0  0  0  0
    6.8912   -4.6682   -0.1489 H   0  0  0  0  0  0  0  0  0  0  0  0
    5.9664   -5.6363    1.0005 H   0  0  0  0  0  0  0  0  0  0  0  0
    4.9810   -5.0021   -1.5004 H   0  0  0  0  0  0  0  0  0  0  0  0
    3.6524   -6.3361    0.1020 H   0  0  0  0  0  0  0  0  0  0  0  0
    2.6541   -5.0727   -0.5862 H   0  0  0  0  0  0  0  0  0  0  0  0
    2.8518   -2.8633   -4.6117 H   0  0  0  0  0  0  0  0  0  0  0  0
    3.5482    0.9109   -4.9779 H   0  0  0  0  0  0  0  0  0  0  0  0
    2.2043   -0.1783   -5.3088 H   0  0  0  0  0  0  0  0  0  0  0  0
    3.8069   -0.5191   -5.9804 H   0  0  0  0  0  0  0  0  0  0  0  0
    4.4681    0.6613   -2.7277 H   0  0  0  0  0  0  0  0  0  0  0  0
  1  2  1  0
  1 18  1  0
  1 19  1  0
  1 20  1  0
  2  3  1  0
  3  9  1  0
  3  4  1  0
  3 21  1  1
  4  5  1  0
  4 22  1  0
  4 23  1  0
  5 10  1  0
  5  6  1  0
  5 24  1  6
  6  7  1  0
  6 25  1  0
  6 26  1  0
  7  8  1  0
  7 27  1  0
  7 28  1  0
  8  9  1  0
  8 10  1  0
  8 29  1  6
  9 30  1  0
  9 31  1  0
 10 11  1  0
 11 17  1  0
 11 12  2  0
 12 13  1  0
 13 14  2  0
 13 32  1  0
 14 15  1  0
 14 16  1  0
 15 33  1  0
 15 34  1  0
 15 35  1  0
 16 17  2  0
 16 36  1  0
M  END
>  <i_m_ct_stereo_status>  (71) 
1

>  <s_m_source_file>  (71) 
/var/tmp/pbs.5076255.sched01/tmppv1df_bs/0l6e7d74h.sdf

>  <i_m_source_file_index>  (71) 
26

>  <i_lp_mmshare_version>  (71) 
48012

>  <i_f3d_flags>  (71) 
0

>  <s_epik_input>  (71) 
W0NIM11PW0NASF0oW0NIMl1bQ0BASF0xMilbQ0gyXVtDQEhdKFtDSDJdW0NIMl0xKU4yYzNuW2NIXWMoW0NIM10pW2NIXW4z

>  <s_epik_cmdline>  (71) 
J2VwaWtfcHl0aG9uJywgJy1waHQnLCAnMi4wJywgJy1waCcsICc3LjAnLCAnLXRuJywgJzgnLCAnLW1hJywgJzIwMCcsICctaW1hZScsICc8aW5maWxlLm1hZT4nLCAnLW9tYWUnLCAnPG91dGZpbGUubWFlPic=

>  <r_lp_tautomer_probability>  (71) 
1

>  <r_epik_Ionization_Penalty>  (71) 
0.000512076

>  <r_epik_Ionization_Penalty_Charging>  (71) 
0

>  <r_epik_Ionization_Penalty_Neutral>  (71) 
0.000512076

>  <r_epik_State_Penalty>  (71) 
0.000318953

>  <r_epik_Charging_Adjusted_Penalty>  (71) 
0.000318953

>  <i_epik_Tot_Q>  (71) 
0

>  <i_epik_Tot_abs_Q>  (71) 
0

>  <s_lp_Force_Field>  (71) 
OPLS3e

>  <r_lp_Energy>  (71) 
31.6869

>  <b_lp_Chiralities_Consistent>  (71) 
1

>  <s_lp_Variant>  (71) 
18:0-1

>  <s_i_glide_gridfile>  (71) 
pfpi4k_grid

>  <i_i_glide_lignum>  (71) 
26

>  <i_i_glide_rotatable_bonds>  (71) 
2

>  <r_i_docking_score>  (71) 
-3.42093

>  <r_i_glide_ligand_efficiency>  (71) 
-0.201231

>  <r_i_glide_ligand_efficiency_sa>  (71) 
-0.517423

>  <r_i_glide_ligand_efficiency_ln>  (71) 
-0.892445

>  <r_i_glide_gscore>  (71) 
-3.42093

>  <r_i_glide_lipo>  (71) 
-0.849105

>  <r_i_glide_hbond>  (71) 
-0.0286802

>  <r_i_glide_metal>  (71) 
-0

>  <r_i_glide_rewards>  (71) 
-1.85764

>  <r_i_glide_evdw>  (71) 
-23.0401

>  <r_i_glide_ecoul>  (71) 
1.14573

>  <r_i_glide_erotb>  (71) 
0.315055

>  <r_i_glide_esite>  (71) 
-0.020419

>  <r_i_glide_emodel>  (71) 
-26.0338

>  <r_i_glide_energy>  (71) 
-21.8943

>  <r_i_glide_einternal>  (71) 
1.38606

>  <r_i_glide_intrahb_reward>  (71) 
-0

>  <i_i_glide_confnum>  (71) 
4

>  <i_i_glide_posenum>  (71) 
6

>  <r_i_glide_eff_state_penalty>  (71) 
0

>  <ligand_id>  (71) 
18

>  <original_smiles>  (71) 
COC1CC2CCC(C1)N2c1ncc(C)cn1

>  <smiles>  (71) 
[H]c1nc(N2C3([H])C([H])([H])C([H])([H])C2([H])C([H])([H])C([H])(OC([H])([H])[H])C3([H])[H])nc([H])c1C([H])([H])[H]

$$$$
18:0:1
     RDKit          3D

 36 38  0  0  1  0  0  0  0  0999 V2000
    0.8480    0.0911    2.0371 C   0  0  0  0  0  0  0  0  0  0  0  0
    0.9494    0.7372    3.2975 O   0  0  0  0  0  0  0  0  0  0  0  0
    0.2527    1.9775    3.3750 C   0  0  2  0  0  0  0  0  0  0  0  0
    0.9292    2.8511    4.4543 C   0  0  0  0  0  0  0  0  0  0  0  0
    0.0355    4.0406    4.8794 C   0  0  1  0  0  0  0  0  0  0  0  0
   -0.4037    4.8922    3.6737 C   0  0  0  0  0  0  0  0  0  0  0  0
   -1.7305    4.2358    3.2162 C   0  0  0  0  0  0  0  0  0  0  0  0
   -1.9274    3.0645    4.1896 C   0  0  1  0  0  0  0  0  0  0  0  0
   -1.2492    1.7647    3.6884 C   0  0  0  0  0  0  0  0  0  0  0  0
   -1.2324    3.5317    5.3738 N   0  0  0  0  0  0  0  0  0  0  0  0
   -1.6149    3.3470    6.6962 C   0  0  0  0  0  0  0  0  0  0  0  0
   -2.8888    3.0064    6.9074 N   0  0  0  0  0  0  0  0  0  0  0  0
   -3.3102    2.9437    8.1843 C   0  0  0  0  0  0  0  0  0  0  0  0
   -2.4319    3.1567    9.2597 C   0  0  0  0  0  0  0  0  0  0  0  0
   -2.8983    3.0379   10.6931 C   0  0  0  0  0  0  0  0  0  0  0  0
   -1.1030    3.4841    8.9286 C   0  0  0  0  0  0  0  0  0  0  0  0
   -0.7088    3.5925    7.6441 N   0  0  0  0  0  0  0  0  0  0  0  0
    1.4239   -0.8381    2.0368 H   0  0  0  0  0  0  0  0  0  0  0  0
    1.2467    0.7265    1.2461 H   0  0  0  0  0  0  0  0  0  0  0  0
   -0.1863   -0.1493    1.7945 H   0  0  0  0  0  0  0  0  0  0  0  0
    0.3485    2.5111    2.4278 H   0  0  0  0  0  0  0  0  0  0  0  0
    1.1721    2.2465    5.3290 H   0  0  0  0  0  0  0  0  0  0  0  0
    1.8799    3.2186    4.0675 H   0  0  0  0  0  0  0  0  0  0  0  0
    0.5493    4.6518    5.6202 H   0  0  0  0  0  0  0  0  0  0  0  0
   -0.5720    5.9213    3.9910 H   0  0  0  0  0  0  0  0  0  0  0  0
    0.3509    4.9237    2.8850 H   0  0  0  0  0  0  0  0  0  0  0  0
   -2.5564    4.9398    3.3029 H   0  0  0  0  0  0  0  0  0  0  0  0
   -1.7138    3.8950    2.1809 H   0  0  0  0  0  0  0  0  0  0  0  0
   -2.9870    2.8868    4.3687 H   0  0  0  0  0  0  0  0  0  0  0  0
   -1.7653    1.3999    2.8012 H   0  0  0  0  0  0  0  0  0  0  0  0
   -1.3596    0.9864    4.4434 H   0  0  0  0  0  0  0  0  0  0  0  0
   -4.3506    2.7036    8.3402 H   0  0  0  0  0  0  0  0  0  0  0  0
   -2.0794    3.2142   11.3919 H   0  0  0  0  0  0  0  0  0  0  0  0
   -3.2868    2.0378   10.8733 H   0  0  0  0  0  0  0  0  0  0  0  0
   -3.6960    3.7414   10.9138 H   0  0  0  0  0  0  0  0  0  0  0  0
   -0.3576    3.6660    9.6913 H   0  0  0  0  0  0  0  0  0  0  0  0
  1  2  1  0
  1 18  1  0
  1 19  1  0
  1 20  1  0
  2  3  1  0
  3  9  1  0
  3  4  1  0
  3 21  1  6
  4  5  1  0
  4 22  1  0
  4 23  1  0
  5 10  1  0
  5  6  1  0
  5 24  1  1
  6  7  1  0
  6 25  1  0
  6 26  1  0
  7  8  1  0
  7 27  1  0
  7 28  1  0
  8  9  1  0
  8 10  1  0
  8 29  1  1
  9 30  1  0
  9 31  1  0
 10 11  1  0
 11 17  1  0
 11 12  2  0
 12 13  1  0
 13 14  2  0
 13 32  1  0
 14 15  1  0
 14 16  1  0
 15 33  1  0
 15 34  1  0
 15 35  1  0
 16 17  2  0
 16 36  1  0
M  END
>  <i_m_ct_stereo_status>  (72) 
1

>  <s_m_source_file>  (72) 
/var/tmp/pbs.5076255.sched01/tmppv1df_bs/0l6e7d74h.sdf

>  <i_m_source_file_index>  (72) 
26

>  <i_lp_mmshare_version>  (72) 
48012

>  <i_f3d_flags>  (72) 
0

>  <s_epik_input>  (72) 
W0NIM11PW0NASF0oW0NIMl1bQ0BASF0xMilbQ0gyXVtDQEhdKFtDSDJdW0NIMl0xKU4yYzNuW2NIXWMoW0NIM10pW2NIXW4z

>  <s_epik_cmdline>  (72) 
J2VwaWtfcHl0aG9uJywgJy1waHQnLCAnMi4wJywgJy1waCcsICc3LjAnLCAnLXRuJywgJzgnLCAnLW1hJywgJzIwMCcsICctaW1hZScsICc8aW5maWxlLm1hZT4nLCAnLW9tYWUnLCAnPG91dGZpbGUubWFlPic=

>  <r_lp_tautomer_probability>  (72) 
1

>  <r_epik_Ionization_Penalty>  (72) 
0.000512076

>  <r_epik_Ionization_Penalty_Charging>  (72) 
0

>  <r_epik_Ionization_Penalty_Neutral>  (72) 
0.000512076

>  <r_epik_State_Penalty>  (72) 
0.000318953

>  <r_epik_Charging_Adjusted_Penalty>  (72) 
0.000318953

>  <i_epik_Tot_Q>  (72) 
0

>  <i_epik_Tot_abs_Q>  (72) 
0

>  <s_lp_Force_Field>  (72) 
OPLS3e

>  <r_lp_Energy>  (72) 
31.6869

>  <b_lp_Chiralities_Consistent>  (72) 
1

>  <s_lp_Variant>  (72) 
18:0-1

>  <s_i_glide_gridfile>  (72) 
pfpi4k_grid

>  <i_i_glide_lignum>  (72) 
26

>  <i_i_glide_rotatable_bonds>  (72) 
2

>  <r_i_docking_score>  (72) 
-2.81123

>  <r_i_glide_ligand_efficiency>  (72) 
-0.165366

>  <r_i_glide_ligand_efficiency_sa>  (72) 
-0.425204

>  <r_i_glide_ligand_efficiency_ln>  (72) 
-0.733387

>  <r_i_glide_gscore>  (72) 
-2.81123

>  <r_i_glide_lipo>  (72) 
-0.0564566

>  <r_i_glide_hbond>  (72) 
0

>  <r_i_glide_metal>  (72) 
-0

>  <r_i_glide_rewards>  (72) 
-1.88139

>  <r_i_glide_evdw>  (72) 
-17.4308

>  <r_i_glide_ecoul>  (72) 
-2.02028

>  <r_i_glide_erotb>  (72) 
0.315055

>  <r_i_glide_esite>  (72) 
-0.0138505

>  <r_i_glide_emodel>  (72) 
-23.0921

>  <r_i_glide_energy>  (72) 
-19.4511

>  <r_i_glide_einternal>  (72) 
0.719946

>  <r_i_glide_intrahb_reward>  (72) 
-0

>  <i_i_glide_confnum>  (72) 
1

>  <i_i_glide_posenum>  (72) 
17

>  <r_i_glide_eff_state_penalty>  (72) 
0

>  <ligand_id>  (72) 
18

>  <original_smiles>  (72) 
COC1CC2CCC(C1)N2c1ncc(C)cn1

>  <smiles>  (72) 
[H]c1nc(N2C3([H])C([H])([H])C([H])([H])C2([H])C([H])([H])C([H])(OC([H])([H])[H])C3([H])[H])nc([H])c1C([H])([H])[H]

$$$$
18:0:2
     RDKit          3D

 36 38  0  0  1  0  0  0  0  0999 V2000
   -0.1114    5.5427    4.7843 C   0  0  0  0  0  0  0  0  0  0  0  0
   -0.9191    4.3719    4.7623 O   0  0  0  0  0  0  0  0  0  0  0  0
   -0.4093    3.3315    3.9289 C   0  0  2  0  0  0  0  0  0  0  0  0
   -1.4873    2.2288    3.7739 C   0  0  0  0  0  0  0  0  0  0  0  0
   -0.8952    0.9103    3.2123 C   0  0  1  0  0  0  0  0  0  0  0  0
   -0.1465    1.1265    1.8867 C   0  0  0  0  0  0  0  0  0  0  0  0
    1.2999    1.4449    2.3122 C   0  0  0  0  0  0  0  0  0  0  0  0
    1.2597    1.3761    3.8483 C   0  0  1  0  0  0  0  0  0  0  0  0
    0.9163    2.7432    4.4817 C   0  0  0  0  0  0  0  0  0  0  0  0
    0.1642    0.4575    4.0946 N   0  0  0  0  0  0  0  0  0  0  0  0
    0.0931   -0.5284    5.0729 C   0  0  0  0  0  0  0  0  0  0  0  0
   -1.0104   -1.2823    5.1048 N   0  0  0  0  0  0  0  0  0  0  0  0
   -1.0473   -2.2770    6.0098 C   0  0  0  0  0  0  0  0  0  0  0  0
   -0.0037   -2.4975    6.9232 C   0  0  0  0  0  0  0  0  0  0  0  0
   -0.0741   -3.6079    7.9528 C   0  0  0  0  0  0  0  0  0  0  0  0
    1.1053   -1.6380    6.8102 C   0  0  0  0  0  0  0  0  0  0  0  0
    1.1445   -0.6574    5.8867 N   0  0  0  0  0  0  0  0  0  0  0  0
   -0.5827    6.2992    5.4133 H   0  0  0  0  0  0  0  0  0  0  0  0
    0.0057    5.9550    3.7812 H   0  0  0  0  0  0  0  0  0  0  0  0
    0.8787    5.3550    5.2007 H   0  0  0  0  0  0  0  0  0  0  0  0
   -0.2255    3.7473    2.9377 H   0  0  0  0  0  0  0  0  0  0  0  0
   -1.9556    2.0270    4.7373 H   0  0  0  0  0  0  0  0  0  0  0  0
   -2.2835    2.5847    3.1189 H   0  0  0  0  0  0  0  0  0  0  0  0
   -1.6808    0.1648    3.0967 H   0  0  0  0  0  0  0  0  0  0  0  0
   -0.1569    0.2136    1.2909 H   0  0  0  0  0  0  0  0  0  0  0  0
   -0.5844    1.9165    1.2775 H   0  0  0  0  0  0  0  0  0  0  0  0
    1.9726    0.6812    1.9177 H   0  0  0  0  0  0  0  0  0  0  0  0
    1.6425    2.4130    1.9402 H   0  0  0  0  0  0  0  0  0  0  0  0
    2.2064    1.0054    4.2401 H   0  0  0  0  0  0  0  0  0  0  0  0
    1.7378    3.4349    4.2981 H   0  0  0  0  0  0  0  0  0  0  0  0
    0.8437    2.6291    5.5630 H   0  0  0  0  0  0  0  0  0  0  0  0
   -1.9412   -2.8835    6.0336 H   0  0  0  0  0  0  0  0  0  0  0  0
    0.8359   -3.6468    8.5541 H   0  0  0  0  0  0  0  0  0  0  0  0
   -0.1958   -4.5730    7.4595 H   0  0  0  0  0  0  0  0  0  0  0  0
   -0.9184   -3.4580    8.6269 H   0  0  0  0  0  0  0  0  0  0  0  0
    1.9636   -1.7316    7.4618 H   0  0  0  0  0  0  0  0  0  0  0  0
  1  2  1  0
  1 18  1  0
  1 19  1  0
  1 20  1  0
  2  3  1  0
  3  9  1  0
  3  4  1  0
  3 21  1  6
  4  5  1  0
  4 22  1  0
  4 23  1  0
  5 10  1  0
  5  6  1  0
  5 24  1  6
  6  7  1  0
  6 25  1  0
  6 26  1  0
  7  8  1  0
  7 27  1  0
  7 28  1  0
  8  9  1  0
  8 10  1  0
  8 29  1  1
  9 30  1  0
  9 31  1  0
 10 11  1  0
 11 17  1  0
 11 12  2  0
 12 13  1  0
 13 14  2  0
 13 32  1  0
 14 15  1  0
 14 16  1  0
 15 33  1  0
 15 34  1  0
 15 35  1  0
 16 17  2  0
 16 36  1  0
M  END
>  <i_m_ct_stereo_status>  (73) 
1

>  <s_m_source_file>  (73) 
/var/tmp/pbs.5076255.sched01/tmppv1df_bs/0l6e7d74h.sdf

>  <i_m_source_file_index>  (73) 
26

>  <i_lp_mmshare_version>  (73) 
48012

>  <i_f3d_flags>  (73) 
0

>  <s_epik_input>  (73) 
W0NIM11PW0NASF0oW0NIMl1bQ0BASF0xMilbQ0gyXVtDQEhdKFtDSDJdW0NIMl0xKU4yYzNuW2NIXWMoW0NIM10pW2NIXW4z

>  <s_epik_cmdline>  (73) 
J2VwaWtfcHl0aG9uJywgJy1waHQnLCAnMi4wJywgJy1waCcsICc3LjAnLCAnLXRuJywgJzgnLCAnLW1hJywgJzIwMCcsICctaW1hZScsICc8aW5maWxlLm1hZT4nLCAnLW9tYWUnLCAnPG91dGZpbGUubWFlPic=

>  <r_lp_tautomer_probability>  (73) 
1

>  <r_epik_Ionization_Penalty>  (73) 
0.000512076

>  <r_epik_Ionization_Penalty_Charging>  (73) 
0

>  <r_epik_Ionization_Penalty_Neutral>  (73) 
0.000512076

>  <r_epik_State_Penalty>  (73) 
0.000318953

>  <r_epik_Charging_Adjusted_Penalty>  (73) 
0.000318953

>  <i_epik_Tot_Q>  (73) 
0

>  <i_epik_Tot_abs_Q>  (73) 
0

>  <s_lp_Force_Field>  (73) 
OPLS3e

>  <r_lp_Energy>  (73) 
31.6869

>  <b_lp_Chiralities_Consistent>  (73) 
1

>  <s_lp_Variant>  (73) 
18:0-1

>  <s_i_glide_gridfile>  (73) 
pfpi4k_grid

>  <i_i_glide_lignum>  (73) 
26

>  <i_i_glide_rotatable_bonds>  (73) 
2

>  <r_i_docking_score>  (73) 
-2.37257

>  <r_i_glide_ligand_efficiency>  (73) 
-0.139563

>  <r_i_glide_ligand_efficiency_sa>  (73) 
-0.358856

>  <r_i_glide_ligand_efficiency_ln>  (73) 
-0.618952

>  <r_i_glide_gscore>  (73) 
-2.37257

>  <r_i_glide_lipo>  (73) 
0

>  <r_i_glide_hbond>  (73) 
0

>  <r_i_glide_metal>  (73) 
-0

>  <r_i_glide_rewards>  (73) 
-1.81834

>  <r_i_glide_evdw>  (73) 
-14.8708

>  <r_i_glide_ecoul>  (73) 
-0.665189

>  <r_i_glide_erotb>  (73) 
0.315055

>  <r_i_glide_esite>  (73) 
-0.0259646

>  <r_i_glide_emodel>  (73) 
-18.8672

>  <r_i_glide_energy>  (73) 
-15.536

>  <r_i_glide_einternal>  (73) 
0.0608799

>  <r_i_glide_intrahb_reward>  (73) 
-0

>  <i_i_glide_confnum>  (73) 
3

>  <i_i_glide_posenum>  (73) 
4

>  <r_i_glide_eff_state_penalty>  (73) 
0

>  <ligand_id>  (73) 
18

>  <original_smiles>  (73) 
COC1CC2CCC(C1)N2c1ncc(C)cn1

>  <smiles>  (73) 
[H]c1nc(N2C3([H])C([H])([H])C([H])([H])C2([H])C([H])([H])C([H])(OC([H])([H])[H])C3([H])[H])nc([H])c1C([H])([H])[H]

$$$$
18:1:0
     RDKit          3D

 36 38  0  0  1  0  0  0  0  0999 V2000
    4.8594   -0.4039    0.8435 C   0  0  0  0  0  0  0  0  0  0  0  0
    4.5628   -1.7289    0.4371 O   0  0  0  0  0  0  0  0  0  0  0  0
    3.2308   -2.1598    0.7078 C   0  0  1  0  0  0  0  0  0  0  0  0
    2.9044   -3.3368   -0.2486 C   0  0  0  0  0  0  0  0  0  0  0  0
    3.4245   -4.6989    0.2792 C   0  0  1  0  0  0  0  0  0  0  0  0
    4.9381   -4.6721    0.5636 C   0  0  0  0  0  0  0  0  0  0  0  0
    5.0337   -4.2117    2.0371 C   0  0  0  0  0  0  0  0  0  0  0  0
    3.5697   -4.0224    2.4675 C   0  0  1  0  0  0  0  0  0  0  0  0
    3.0526   -2.5899    2.1897 C   0  0  0  0  0  0  0  0  0  0  0  0
    2.8642   -4.9421    1.5926 N   0  0  0  0  0  0  0  0  0  0  0  0
    1.8082   -5.7785    1.9343 C   0  0  0  0  0  0  0  0  0  0  0  0
    1.0483   -6.2594    0.9402 N   0  0  0  0  0  0  0  0  0  0  0  0
    0.0336   -7.0801    1.2785 C   0  0  0  0  0  0  0  0  0  0  0  0
   -0.2572   -7.3822    2.6208 C   0  0  0  0  0  0  0  0  0  0  0  0
   -1.4053   -8.2955    3.0022 C   0  0  0  0  0  0  0  0  0  0  0  0
    0.5965   -6.8135    3.5847 C   0  0  0  0  0  0  0  0  0  0  0  0
    1.6093   -6.0015    3.2328 N   0  0  0  0  0  0  0  0  0  0  0  0
    5.9059   -0.1819    0.6274 H   0  0  0  0  0  0  0  0  0  0  0  0
    4.7033   -0.2509    1.9114 H   0  0  0  0  0  0  0  0  0  0  0  0
    4.2365    0.3043    0.2976 H   0  0  0  0  0  0  0  0  0  0  0  0
    2.5661   -1.3265    0.4850 H   0  0  0  0  0  0  0  0  0  0  0  0
    1.8246   -3.3969   -0.3821 H   0  0  0  0  0  0  0  0  0  0  0  0
    3.3066   -3.1354   -1.2420 H   0  0  0  0  0  0  0  0  0  0  0  0
    3.1757   -5.5043   -0.4096 H   0  0  0  0  0  0  0  0  0  0  0  0
    5.3587   -5.6726    0.4595 H   0  0  0  0  0  0  0  0  0  0  0  0
    5.4783   -4.0211   -0.1259 H   0  0  0  0  0  0  0  0  0  0  0  0
    5.5021   -4.9928    2.6371 H   0  0  0  0  0  0  0  0  0  0  0  0
    5.6236   -3.3019    2.1666 H   0  0  0  0  0  0  0  0  0  0  0  0
    3.4435   -4.2673    3.5213 H   0  0  0  0  0  0  0  0  0  0  0  0
    3.5310   -1.8899    2.8716 H   0  0  0  0  0  0  0  0  0  0  0  0
    1.9907   -2.5442    2.4351 H   0  0  0  0  0  0  0  0  0  0  0  0
   -0.5718   -7.4647    0.4727 H   0  0  0  0  0  0  0  0  0  0  0  0
   -1.4696   -8.4249    4.0856 H   0  0  0  0  0  0  0  0  0  0  0  0
   -1.2617   -9.2833    2.5586 H   0  0  0  0  0  0  0  0  0  0  0  0
   -2.3558   -7.8911    2.6491 H   0  0  0  0  0  0  0  0  0  0  0  0
    0.4656   -6.9955    4.6441 H   0  0  0  0  0  0  0  0  0  0  0  0
  1  2  1  0
  1 18  1  0
  1 19  1  0
  1 20  1  0
  2  3  1  0
  3  9  1  0
  3  4  1  0
  3 21  1  6
  4  5  1  0
  4 22  1  0
  4 23  1  0
  5 10  1  0
  5  6  1  0
  5 24  1  6
  6  7  1  0
  6 25  1  0
  6 26  1  0
  7  8  1  0
  7 27  1  0
  7 28  1  0
  8  9  1  0
  8 10  1  0
  8 29  1  1
  9 30  1  0
  9 31  1  0
 10 11  1  0
 11 17  1  0
 11 12  2  0
 12 13  1  0
 13 14  2  0
 13 32  1  0
 14 15  1  0
 14 16  1  0
 15 33  1  0
 15 34  1  0
 15 35  1  0
 16 17  2  0
 16 36  1  0
M  END
>  <i_m_ct_stereo_status>  (74) 
1

>  <s_m_source_file>  (74) 
/var/tmp/pbs.5076255.sched01/tmppv1df_bs/0l6e7d74h.sdf

>  <i_m_source_file_index>  (74) 
27

>  <i_lp_mmshare_version>  (74) 
48012

>  <i_f3d_flags>  (74) 
0

>  <s_epik_input>  (74) 
W0NIM11PW0NASF0oW0NIMl1bQ0BASF0xMilbQ0gyXVtDQEhdKFtDSDJdW0NIMl0xKU4yYzNuW2NIXWMoW0NIM10pW2NIXW4z

>  <s_epik_cmdline>  (74) 
J2VwaWtfcHl0aG9uJywgJy1waHQnLCAnMi4wJywgJy1waCcsICc3LjAnLCAnLXRuJywgJzgnLCAnLW1hJywgJzIwMCcsICctaW1hZScsICc8aW5maWxlLm1hZT4nLCAnLW9tYWUnLCAnPG91dGZpbGUubWFlPic=

>  <r_lp_tautomer_probability>  (74) 
1

>  <r_epik_Ionization_Penalty>  (74) 
0.000512076

>  <r_epik_Ionization_Penalty_Charging>  (74) 
0

>  <r_epik_Ionization_Penalty_Neutral>  (74) 
0.000512076

>  <r_epik_State_Penalty>  (74) 
0.000318953

>  <r_epik_Charging_Adjusted_Penalty>  (74) 
0.000318953

>  <i_epik_Tot_Q>  (74) 
0

>  <i_epik_Tot_abs_Q>  (74) 
0

>  <s_lp_Force_Field>  (74) 
OPLS3e

>  <r_lp_Energy>  (74) 
31.6353

>  <b_lp_Chiralities_Consistent>  (74) 
1

>  <s_lp_Variant>  (74) 
18:0-2

>  <s_i_glide_gridfile>  (74) 
pfpi4k_grid

>  <i_i_glide_lignum>  (74) 
27

>  <i_i_glide_rotatable_bonds>  (74) 
2

>  <r_i_docking_score>  (74) 
-3.41824

>  <r_i_glide_ligand_efficiency>  (74) 
-0.201073

>  <r_i_glide_ligand_efficiency_sa>  (74) 
-0.517015

>  <r_i_glide_ligand_efficiency_ln>  (74) 
-0.891743

>  <r_i_glide_gscore>  (74) 
-3.41824

>  <r_i_glide_lipo>  (74) 
-0.25052

>  <r_i_glide_hbond>  (74) 
-0.16

>  <r_i_glide_metal>  (74) 
-0

>  <r_i_glide_rewards>  (74) 
-1.81834

>  <r_i_glide_evdw>  (74) 
-18.2377

>  <r_i_glide_ecoul>  (74) 
-3.61311

>  <r_i_glide_erotb>  (74) 
0.315055

>  <r_i_glide_esite>  (74) 
-0.0505799

>  <r_i_glide_emodel>  (74) 
-26.3536

>  <r_i_glide_energy>  (74) 
-21.8508

>  <r_i_glide_einternal>  (74) 
0.477988

>  <r_i_glide_intrahb_reward>  (74) 
-0

>  <i_i_glide_confnum>  (74) 
3

>  <i_i_glide_posenum>  (74) 
1

>  <r_i_glide_eff_state_penalty>  (74) 
0

>  <ligand_id>  (74) 
18

>  <original_smiles>  (74) 
COC1CC2CCC(C1)N2c1ncc(C)cn1

>  <smiles>  (74) 
[H]c1nc(N2C3([H])C([H])([H])C([H])([H])C2([H])C([H])([H])C([H])(OC([H])([H])[H])C3([H])[H])nc([H])c1C([H])([H])[H]

$$$$
18:1:1
     RDKit          3D

 36 38  0  0  1  0  0  0  0  0999 V2000
    4.8033   -1.2261   -0.4656 C   0  0  0  0  0  0  0  0  0  0  0  0
    4.5465   -2.0918    0.6259 O   0  0  0  0  0  0  0  0  0  0  0  0
    3.1922   -2.5159    0.7488 C   0  0  1  0  0  0  0  0  0  0  0  0
    2.8895   -3.7112   -0.1982 C   0  0  0  0  0  0  0  0  0  0  0  0
    3.3499   -5.0695    0.3841 C   0  0  1  0  0  0  0  0  0  0  0  0
    4.8506   -5.0677    0.7393 C   0  0  0  0  0  0  0  0  0  0  0  0
    4.8928   -4.5808    2.2061 C   0  0  0  0  0  0  0  0  0  0  0  0
    3.4159   -4.3456    2.5624 C   0  0  1  0  0  0  0  0  0  0  0  0
    2.9490   -2.9058    2.2290 C   0  0  0  0  0  0  0  0  0  0  0  0
    2.7245   -5.2659    1.6791 N   0  0  0  0  0  0  0  0  0  0  0  0
    1.6253   -6.0553    1.9940 C   0  0  0  0  0  0  0  0  0  0  0  0
    0.9048   -6.5428    0.9771 N   0  0  0  0  0  0  0  0  0  0  0  0
   -0.1278   -7.3542    1.2871 C   0  0  0  0  0  0  0  0  0  0  0  0
   -0.4899   -7.6175    2.6197 C   0  0  0  0  0  0  0  0  0  0  0  0
   -1.6693   -8.5022    2.9634 C   0  0  0  0  0  0  0  0  0  0  0  0
    0.3193   -7.0346    3.6113 C   0  0  0  0  0  0  0  0  0  0  0  0
    1.3612   -6.2430    3.2898 N   0  0  0  0  0  0  0  0  0  0  0  0
    5.8757   -1.0330   -0.5317 H   0  0  0  0  0  0  0  0  0  0  0  0
    4.2936   -0.2750   -0.3122 H   0  0  0  0  0  0  0  0  0  0  0  0
    4.4810   -1.6463   -1.4190 H   0  0  0  0  0  0  0  0  0  0  0  0
    2.5510   -1.6680    0.5078 H   0  0  0  0  0  0  0  0  0  0  0  0
    1.8130   -3.7540   -0.3743 H   0  0  0  0  0  0  0  0  0  0  0  0
    3.3289   -3.5666   -1.1843 H   0  0  0  0  0  0  0  0  0  0  0  0
    3.1194   -5.8790   -0.3094 H   0  0  0  0  0  0  0  0  0  0  0  0
    5.2567   -6.0782    0.6751 H   0  0  0  0  0  0  0  0  0  0  0  0
    5.4352   -4.4384    0.0650 H   0  0  0  0  0  0  0  0  0  0  0  0
    5.3132   -5.3594    2.8435 H   0  0  0  0  0  0  0  0  0  0  0  0
    5.4991   -3.6834    2.3469 H   0  0  0  0  0  0  0  0  0  0  0  0
    3.2367   -4.5616    3.6159 H   0  0  0  0  0  0  0  0  0  0  0  0
    3.4356   -2.1849    2.8875 H   0  0  0  0  0  0  0  0  0  0  0  0
    1.8816   -2.8250    2.4391 H   0  0  0  0  0  0  0  0  0  0  0  0
   -0.6919   -7.7697    0.4635 H   0  0  0  0  0  0  0  0  0  0  0  0
   -1.8035   -8.5913    4.0423 H   0  0  0  0  0  0  0  0  0  0  0  0
   -1.5283   -9.5048    2.5562 H   0  0  0  0  0  0  0  0  0  0  0  0
   -2.5820   -8.0838    2.5377 H   0  0  0  0  0  0  0  0  0  0  0  0
    0.1241   -7.1825    4.6646 H   0  0  0  0  0  0  0  0  0  0  0  0
  1  2  1  0
  1 18  1  0
  1 19  1  0
  1 20  1  0
  2  3  1  0
  3  9  1  0
  3  4  1  0
  3 21  1  6
  4  5  1  0
  4 22  1  0
  4 23  1  0
  5 10  1  0
  5  6  1  0
  5 24  1  6
  6  7  1  0
  6 25  1  0
  6 26  1  0
  7  8  1  0
  7 27  1  0
  7 28  1  0
  8  9  1  0
  8 10  1  0
  8 29  1  1
  9 30  1  0
  9 31  1  0
 10 11  1  0
 11 17  1  0
 11 12  2  0
 12 13  1  0
 13 14  2  0
 13 32  1  0
 14 15  1  0
 14 16  1  0
 15 33  1  0
 15 34  1  0
 15 35  1  0
 16 17  2  0
 16 36  1  0
M  END
>  <i_m_ct_stereo_status>  (75) 
1

>  <s_m_source_file>  (75) 
/var/tmp/pbs.5076255.sched01/tmppv1df_bs/0l6e7d74h.sdf

>  <i_m_source_file_index>  (75) 
27

>  <i_lp_mmshare_version>  (75) 
48012

>  <i_f3d_flags>  (75) 
0

>  <s_epik_input>  (75) 
W0NIM11PW0NASF0oW0NIMl1bQ0BASF0xMilbQ0gyXVtDQEhdKFtDSDJdW0NIMl0xKU4yYzNuW2NIXWMoW0NIM10pW2NIXW4z

>  <s_epik_cmdline>  (75) 
J2VwaWtfcHl0aG9uJywgJy1waHQnLCAnMi4wJywgJy1waCcsICc3LjAnLCAnLXRuJywgJzgnLCAnLW1hJywgJzIwMCcsICctaW1hZScsICc8aW5maWxlLm1hZT4nLCAnLW9tYWUnLCAnPG91dGZpbGUubWFlPic=

>  <r_lp_tautomer_probability>  (75) 
1

>  <r_epik_Ionization_Penalty>  (75) 
0.000512076

>  <r_epik_Ionization_Penalty_Charging>  (75) 
0

>  <r_epik_Ionization_Penalty_Neutral>  (75) 
0.000512076

>  <r_epik_State_Penalty>  (75) 
0.000318953

>  <r_epik_Charging_Adjusted_Penalty>  (75) 
0.000318953

>  <i_epik_Tot_Q>  (75) 
0

>  <i_epik_Tot_abs_Q>  (75) 
0

>  <s_lp_Force_Field>  (75) 
OPLS3e

>  <r_lp_Energy>  (75) 
31.6353

>  <b_lp_Chiralities_Consistent>  (75) 
1

>  <s_lp_Variant>  (75) 
18:0-2

>  <s_i_glide_gridfile>  (75) 
pfpi4k_grid

>  <i_i_glide_lignum>  (75) 
27

>  <i_i_glide_rotatable_bonds>  (75) 
2

>  <r_i_docking_score>  (75) 
-3.17647

>  <r_i_glide_ligand_efficiency>  (75) 
-0.186851

>  <r_i_glide_ligand_efficiency_sa>  (75) 
-0.480446

>  <r_i_glide_ligand_efficiency_ln>  (75) 
-0.828669

>  <r_i_glide_gscore>  (75) 
-3.17647

>  <r_i_glide_lipo>  (75) 
-0.0800628

>  <r_i_glide_hbond>  (75) 
-0.114203

>  <r_i_glide_metal>  (75) 
-0

>  <r_i_glide_rewards>  (75) 
-1.81834

>  <r_i_glide_evdw>  (75) 
-18.2002

>  <r_i_glide_ecoul>  (75) 
-3.40687

>  <r_i_glide_erotb>  (75) 
0.315055

>  <r_i_glide_esite>  (75) 
-0.057873

>  <r_i_glide_emodel>  (75) 
-25.7335

>  <r_i_glide_energy>  (75) 
-21.607

>  <r_i_glide_einternal>  (75) 
0.575625

>  <r_i_glide_intrahb_reward>  (75) 
-0

>  <i_i_glide_confnum>  (75) 
3

>  <i_i_glide_posenum>  (75) 
32

>  <r_i_glide_eff_state_penalty>  (75) 
0

>  <ligand_id>  (75) 
18

>  <original_smiles>  (75) 
COC1CC2CCC(C1)N2c1ncc(C)cn1

>  <smiles>  (75) 
[H]c1nc(N2C3([H])C([H])([H])C([H])([H])C2([H])C([H])([H])C([H])(OC([H])([H])[H])C3([H])[H])nc([H])c1C([H])([H])[H]

$$$$
18:1:2
     RDKit          3D

 36 38  0  0  1  0  0  0  0  0999 V2000
    0.8878  -11.7554    3.8908 C   0  0  0  0  0  0  0  0  0  0  0  0
    0.6724  -10.3607    3.7429 O   0  0  0  0  0  0  0  0  0  0  0  0
    1.0197   -9.8150    2.4745 C   0  0  1  0  0  0  0  0  0  0  0  0
    0.3233   -8.4339    2.3449 C   0  0  0  0  0  0  0  0  0  0  0  0
    1.1112   -7.2895    3.0304 C   0  0  1  0  0  0  0  0  0  0  0  0
    1.3840   -7.5834    4.5175 C   0  0  0  0  0  0  0  0  0  0  0  0
    2.7316   -8.3396    4.5066 C   0  0  0  0  0  0  0  0  0  0  0  0
    3.1145   -8.4058    3.0166 C   0  0  1  0  0  0  0  0  0  0  0  0
    2.5596   -9.6677    2.3128 C   0  0  0  0  0  0  0  0  0  0  0  0
    2.4476   -7.2409    2.4696 N   0  0  0  0  0  0  0  0  0  0  0  0
    2.9441   -6.3763    1.4957 C   0  0  0  0  0  0  0  0  0  0  0  0
    2.1041   -5.4705    0.9848 N   0  0  0  0  0  0  0  0  0  0  0  0
    2.6166   -4.5988    0.0872 C   0  0  0  0  0  0  0  0  0  0  0  0
    3.9676   -4.6361   -0.2994 C   0  0  0  0  0  0  0  0  0  0  0  0
    4.5175   -3.6791   -1.3355 C   0  0  0  0  0  0  0  0  0  0  0  0
    4.7518   -5.6425    0.2862 C   0  0  0  0  0  0  0  0  0  0  0  0
    4.2352   -6.5087    1.1790 N   0  0  0  0  0  0  0  0  0  0  0  0
    0.6116  -12.0651    4.9003 H   0  0  0  0  0  0  0  0  0  0  0  0
    1.9280  -12.0415    3.7383 H   0  0  0  0  0  0  0  0  0  0  0  0
    0.2741  -12.3110    3.1834 H   0  0  0  0  0  0  0  0  0  0  0  0
    0.6153  -10.4770    1.7109 H   0  0  0  0  0  0  0  0  0  0  0  0
    0.2122   -8.1942    1.2865 H   0  0  0  0  0  0  0  0  0  0  0  0
   -0.6918   -8.4922    2.7417 H   0  0  0  0  0  0  0  0  0  0  0  0
    0.5860   -6.3398    2.9171 H   0  0  0  0  0  0  0  0  0  0  0  0
    1.4862   -6.6527    5.0755 H   0  0  0  0  0  0  0  0  0  0  0  0
    0.5771   -8.1547    4.9829 H   0  0  0  0  0  0  0  0  0  0  0  0
    3.4770   -7.7685    5.0617 H   0  0  0  0  0  0  0  0  0  0  0  0
    2.6719   -9.3290    4.9664 H   0  0  0  0  0  0  0  0  0  0  0  0
    4.1991   -8.3646    2.9031 H   0  0  0  0  0  0  0  0  0  0  0  0
    3.0943  -10.5465    2.6700 H   0  0  0  0  0  0  0  0  0  0  0  0
    2.7922   -9.6168    1.2485 H   0  0  0  0  0  0  0  0  0  0  0  0
    1.9311   -3.8711   -0.3312 H   0  0  0  0  0  0  0  0  0  0  0  0
    5.5693   -3.8786   -1.5396 H   0  0  0  0  0  0  0  0  0  0  0  0
    4.4171   -2.6494   -0.9884 H   0  0  0  0  0  0  0  0  0  0  0  0
    3.9650   -3.7844   -2.2716 H   0  0  0  0  0  0  0  0  0  0  0  0
    5.7986   -5.7660    0.0390 H   0  0  0  0  0  0  0  0  0  0  0  0
  1  2  1  0
  1 18  1  0
  1 19  1  0
  1 20  1  0
  2  3  1  0
  3  9  1  0
  3  4  1  0
  3 21  1  6
  4  5  1  0
  4 22  1  0
  4 23  1  0
  5 10  1  0
  5  6  1  0
  5 24  1  1
  6  7  1  0
  6 25  1  0
  6 26  1  0
  7  8  1  0
  7 27  1  0
  7 28  1  0
  8  9  1  0
  8 10  1  0
  8 29  1  1
  9 30  1  0
  9 31  1  0
 10 11  1  0
 11 17  1  0
 11 12  2  0
 12 13  1  0
 13 14  2  0
 13 32  1  0
 14 15  1  0
 14 16  1  0
 15 33  1  0
 15 34  1  0
 15 35  1  0
 16 17  2  0
 16 36  1  0
M  END
>  <i_m_ct_stereo_status>  (76) 
1

>  <s_m_source_file>  (76) 
/var/tmp/pbs.5076255.sched01/tmppv1df_bs/0l6e7d74h.sdf

>  <i_m_source_file_index>  (76) 
27

>  <i_lp_mmshare_version>  (76) 
48012

>  <i_f3d_flags>  (76) 
0

>  <s_epik_input>  (76) 
W0NIM11PW0NASF0oW0NIMl1bQ0BASF0xMilbQ0gyXVtDQEhdKFtDSDJdW0NIMl0xKU4yYzNuW2NIXWMoW0NIM10pW2NIXW4z

>  <s_epik_cmdline>  (76) 
J2VwaWtfcHl0aG9uJywgJy1waHQnLCAnMi4wJywgJy1waCcsICc3LjAnLCAnLXRuJywgJzgnLCAnLW1hJywgJzIwMCcsICctaW1hZScsICc8aW5maWxlLm1hZT4nLCAnLW9tYWUnLCAnPG91dGZpbGUubWFlPic=

>  <r_lp_tautomer_probability>  (76) 
1

>  <r_epik_Ionization_Penalty>  (76) 
0.000512076

>  <r_epik_Ionization_Penalty_Charging>  (76) 
0

>  <r_epik_Ionization_Penalty_Neutral>  (76) 
0.000512076

>  <r_epik_State_Penalty>  (76) 
0.000318953

>  <r_epik_Charging_Adjusted_Penalty>  (76) 
0.000318953

>  <i_epik_Tot_Q>  (76) 
0

>  <i_epik_Tot_abs_Q>  (76) 
0

>  <s_lp_Force_Field>  (76) 
OPLS3e

>  <r_lp_Energy>  (76) 
31.6353

>  <b_lp_Chiralities_Consistent>  (76) 
1

>  <s_lp_Variant>  (76) 
18:0-2

>  <s_i_glide_gridfile>  (76) 
pfpi4k_grid

>  <i_i_glide_lignum>  (76) 
27

>  <i_i_glide_rotatable_bonds>  (76) 
2

>  <r_i_docking_score>  (76) 
-2.96483

>  <r_i_glide_ligand_efficiency>  (76) 
-0.174402

>  <r_i_glide_ligand_efficiency_sa>  (76) 
-0.448436

>  <r_i_glide_ligand_efficiency_ln>  (76) 
-0.773458

>  <r_i_glide_gscore>  (76) 
-2.96483

>  <r_i_glide_lipo>  (76) 
-0.229503

>  <r_i_glide_hbond>  (76) 
-0.0243539

>  <r_i_glide_metal>  (76) 
-0

>  <r_i_glide_rewards>  (76) 
-1.85478

>  <r_i_glide_evdw>  (76) 
-17.1657

>  <r_i_glide_ecoul>  (76) 
-2.04063

>  <r_i_glide_erotb>  (76) 
0.315055

>  <r_i_glide_esite>  (76) 
-0.00686151

>  <r_i_glide_emodel>  (76) 
-23.2578

>  <r_i_glide_energy>  (76) 
-19.2063

>  <r_i_glide_einternal>  (76) 
0.145876

>  <r_i_glide_intrahb_reward>  (76) 
-0

>  <i_i_glide_confnum>  (76) 
3

>  <i_i_glide_posenum>  (76) 
2

>  <r_i_glide_eff_state_penalty>  (76) 
0

>  <ligand_id>  (76) 
18

>  <original_smiles>  (76) 
COC1CC2CCC(C1)N2c1ncc(C)cn1

>  <smiles>  (76) 
[H]c1nc(N2C3([H])C([H])([H])C([H])([H])C2([H])C([H])([H])C([H])(OC([H])([H])[H])C3([H])[H])nc([H])c1C([H])([H])[H]

$$$$
19:0:0
     RDKit          3D

 53 58  0  0  1  0  0  0  0  0999 V2000
   -0.8459    3.8914    8.8521 C   0  0  0  0  0  0  0  0  0  0  0  0
   -1.6576    3.3057    7.7200 C   0  0  0  0  0  0  0  0  0  0  0  0
   -3.0854    3.0941    8.1786 C   0  0  0  0  0  0  0  0  0  0  0  0
   -1.3192    3.7223    6.3113 C   0  0  1  0  0  0  0  0  0  0  0  0
   -0.1071    4.0417    5.5054 C   0  0  0  0  0  0  0  0  0  0  0  0
   -0.1309    3.1601    4.2031 C   0  0  1  0  0  0  0  0  0  0  0  0
   -0.9701    3.8761    3.2951 O   0  0  0  0  0  0  0  0  0  0  0  0
    1.2734    3.0438    3.6543 C   0  0  0  0  0  0  0  0  0  0  0  0
    2.0173    4.0188    3.4671 O   0  0  0  0  0  0  0  0  0  0  0  0
    1.6616    1.6197    3.3740 C   0  0  1  0  0  0  0  0  0  0  0  0
    1.5942    1.3164    1.8837 C   0  0  0  0  0  0  0  0  0  0  0  0
    2.9900    1.3705    3.8304 O   0  0  0  0  0  0  0  0  0  0  0  0
    3.0020    0.6618    5.0693 C   0  0  1  0  0  0  0  0  0  0  0  0
    3.4494    1.6129    6.1915 C   0  0  0  0  0  0  0  0  0  0  0  0
    3.3588    0.9287    7.5678 C   0  0  1  0  0  0  0  0  0  0  0  0
    3.5012    1.9157    8.5612 O   0  0  0  0  0  0  0  0  0  0  0  0
    2.0509    0.1968    7.7491 C   0  0  0  0  0  0  0  0  0  0  0  0
    1.2704   -0.1590    6.7173 C   0  0  0  0  0  0  0  0  0  0  0  0
    1.6010    0.1356    5.2920 C   0  0  2  0  0  0  0  0  0  0  0  0
    0.9513   -0.7108    4.2118 C   0  0  1  0  0  0  0  0  0  0  0  0
   -0.1834   -1.4536    4.5781 O   0  0  0  0  0  0  0  0  0  0  0  0
    0.7294    0.7849    4.2270 C   0  0  2  0  0  0  0  0  0  0  0  0
   -0.5847    1.6333    4.3814 C   0  0  2  0  0  0  0  0  0  0  0  0
   -1.3812    1.2658    3.2580 O   0  0  0  0  0  0  0  0  0  0  0  0
   -1.5393    1.4374    5.6411 C   0  0  1  0  0  0  0  0  0  0  0  0
   -1.7400    0.1287    6.1291 O   0  0  0  0  0  0  0  0  0  0  0  0
   -1.0572    2.3033    6.7691 C   0  0  2  0  0  0  0  0  0  0  0  0
   -1.2544    4.8649    9.1419 H   0  0  0  0  0  0  0  0  0  0  0  0
    0.1884    4.0331    8.5183 H   0  0  0  0  0  0  0  0  0  0  0  0
   -0.8539    3.2306    9.7142 H   0  0  0  0  0  0  0  0  0  0  0  0
   -3.6806    2.6720    7.3654 H   0  0  0  0  0  0  0  0  0  0  0  0
   -3.5407    4.0435    8.4913 H   0  0  0  0  0  0  0  0  0  0  0  0
   -3.1124    2.4101    9.0257 H   0  0  0  0  0  0  0  0  0  0  0  0
   -2.2330    3.9477    5.7372 H   0  0  0  0  0  0  0  0  0  0  0  0
   -0.1107    5.1015    5.2627 H   0  0  0  0  0  0  0  0  0  0  0  0
    0.7987    3.8721    6.0896 H   0  0  0  0  0  0  0  0  0  0  0  0
   -0.5915    3.8616    2.4285 H   0  0  0  0  0  0  0  0  0  0  0  0
    0.6129    1.5177    1.4360 H   0  0  0  0  0  0  0  0  0  0  0  0
    1.8707    0.2877    1.6390 H   0  0  0  0  0  0  0  0  0  0  0  0
    2.3043    1.9662    1.3972 H   0  0  0  0  0  0  0  0  0  0  0  0
    3.6881   -0.1846    4.9975 H   0  0  0  0  0  0  0  0  0  0  0  0
    4.4711    1.9469    5.9976 H   0  0  0  0  0  0  0  0  0  0  0  0
    2.8208    2.5015    6.1810 H   0  0  0  0  0  0  0  0  0  0  0  0
    4.1511    0.1883    7.6719 H   0  0  0  0  0  0  0  0  0  0  0  0
    4.3720    2.2617    8.5160 H   0  0  0  0  0  0  0  0  0  0  0  0
    1.7744   -0.0454    8.7611 H   0  0  0  0  0  0  0  0  0  0  0  0
    0.3799   -0.7333    6.9172 H   0  0  0  0  0  0  0  0  0  0  0  0
    1.5573   -1.1838    3.4369 H   0  0  0  0  0  0  0  0  0  0  0  0
   -0.5833   -1.7476    3.7749 H   0  0  0  0  0  0  0  0  0  0  0  0
   -0.9280    1.4839    2.4632 H   0  0  0  0  0  0  0  0  0  0  0  0
   -2.5232    1.8047    5.3341 H   0  0  0  0  0  0  0  0  0  0  0  0
   -0.9976   -0.3930    5.8315 H   0  0  0  0  0  0  0  0  0  0  0  0
   -0.0500    2.0214    7.1034 H   0  0  0  0  0  0  0  0  0  0  0  0
  1  2  1  0
  1 28  1  0
  1 29  1  0
  1 30  1  0
  2 27  1  0
  2  3  1  0
  2  4  1  0
  3 31  1  0
  3 32  1  0
  3 33  1  0
  4 27  1  0
  4  5  1  0
  4 34  1  6
  5  6  1  0
  5 35  1  0
  5 36  1  0
  6 23  1  0
  6  7  1  6
  6  8  1  0
  7 37  1  0
  8  9  2  0
  8 10  1  0
 22 10  1  6
 10 11  1  6
 10 12  1  0
 11 38  1  0
 11 39  1  0
 11 40  1  0
 12 13  1  0
 13 19  1  0
 13 14  1  0
 13 41  1  6
 14 15  1  0
 14 42  1  0
 14 43  1  0
 15 16  1  0
 15 17  1  0
 15 44  1  6
 16 45  1  0
 17 18  2  0
 17 46  1  0
 19 18  1  1
 18 47  1  0
 19 22  1  0
 19 20  1  0
 20 21  1  0
 20 22  1  0
 20 48  1  6
 21 49  1  0
 22 23  1  0
 23 24  1  6
 23 25  1  0
 24 50  1  0
 25 26  1  0
 25 27  1  0
 25 51  1  6
 26 52  1  0
 27 53  1  1
M  END
>  <i_m_ct_stereo_status>  (77) 
1

>  <s_m_source_file>  (77) 
/var/tmp/pbs.5076255.sched01/tmppv1df_bs/0l6e7d74h.sdf

>  <i_m_source_file_index>  (77) 
28

>  <i_lp_mmshare_version>  (77) 
48012

>  <i_f3d_flags>  (77) 
0

>  <s_epik_input>  (77) 
W0NIM11DMShbQ0gzXSlbQ0BASF0oW0NIMl0yKVtDQEBIXTFbQ0BIXShbT0hdKVtDQEBdMyhbT0hdKVtDQF0yKFtPSF0pQyg9TylbQ0BdKFtDSDNdKShbQ0BdMyhbQ0BAXTQ1NilbQ0BASF02W09IXSlPW0NASF00W0NIMl1bQ0BASF0oW09IXSlbQ0hdPVtDSF01

>  <s_epik_cmdline>  (77) 
J2VwaWtfcHl0aG9uJywgJy1waHQnLCAnMi4wJywgJy1waCcsICc3LjAnLCAnLXRuJywgJzgnLCAnLW1hJywgJzIwMCcsICctaW1hZScsICc8aW5maWxlLm1hZT4nLCAnLW9tYWUnLCAnPG91dGZpbGUubWFlPic=

>  <r_lp_tautomer_probability>  (77) 
1

>  <r_epik_Ionization_Penalty>  (77) 
4.98043e-07

>  <r_epik_Ionization_Penalty_Charging>  (77) 
0

>  <r_epik_Ionization_Penalty_Neutral>  (77) 
4.98043e-07

>  <r_epik_State_Penalty>  (77) 
-0

>  <r_epik_Charging_Adjusted_Penalty>  (77) 
0

>  <i_epik_Tot_Q>  (77) 
0

>  <i_epik_Tot_abs_Q>  (77) 
0

>  <s_lp_Force_Field>  (77) 
OPLS3e

>  <r_lp_Energy>  (77) 
67.3092

>  <b_lp_Chiralities_Consistent>  (77) 
1

>  <s_lp_Variant>  (77) 
19:0-1

>  <s_i_glide_gridfile>  (77) 
pfpi4k_grid

>  <i_i_glide_lignum>  (77) 
28

>  <i_i_glide_rotatable_bonds>  (77) 
5

>  <r_i_docking_score>  (77) 
-3.84122

>  <r_i_glide_ligand_efficiency>  (77) 
-0.142267

>  <r_i_glide_ligand_efficiency_sa>  (77) 
-0.426802

>  <r_i_glide_ligand_efficiency_ln>  (77) 
-0.894172

>  <r_i_glide_gscore>  (77) 
-3.84122

>  <r_i_glide_lipo>  (77) 
-0.130413

>  <r_i_glide_hbond>  (77) 
0

>  <r_i_glide_metal>  (77) 
-0

>  <r_i_glide_rewards>  (77) 
-1.32898

>  <r_i_glide_evdw>  (77) 
-23.0572

>  <r_i_glide_ecoul>  (77) 
-7.87003

>  <r_i_glide_erotb>  (77) 
0

>  <r_i_glide_esite>  (77) 
-0.0484563

>  <r_i_glide_emodel>  (77) 
-40.43

>  <r_i_glide_energy>  (77) 
-30.9273

>  <r_i_glide_einternal>  (77) 
4.17364

>  <r_i_glide_intrahb_reward>  (77) 
-0.5

>  <i_i_glide_confnum>  (77) 
2

>  <i_i_glide_posenum>  (77) 
17

>  <r_i_glide_eff_state_penalty>  (77) 
0

>  <ligand_id>  (77) 
19

>  <original_smiles>  (77) 
CC1(C)C2CC3(O)C(=O)C4(C)OC5CC(O)C=CC56C(O)C46C3(O)C(O)C21

>  <smiles>  (77) 
[H]OC1([H])C([H])=C([H])C23C([H])(OC4(C([H])([H])[H])C(=O)C5(O[H])C([H])([H])C6([H])C([H])(C([H])(O[H])C5(O[H])C42C3([H])O[H])C6(C([H])([H])[H])C([H])([H])[H])C1([H])[H]

$$$$
19:0:1
     RDKit          3D

 53 58  0  0  1  0  0  0  0  0999 V2000
   -0.1580    4.5363    6.1689 C   0  0  0  0  0  0  0  0  0  0  0  0
   -0.9345    3.2626    5.9069 C   0  0  0  0  0  0  0  0  0  0  0  0
   -2.2716    3.2858    6.6140 C   0  0  0  0  0  0  0  0  0  0  0  0
   -0.7633    2.6067    4.5644 C   0  0  1  0  0  0  0  0  0  0  0  0
    0.3302    2.3580    3.5830 C   0  0  0  0  0  0  0  0  0  0  0  0
    0.3700    0.8234    3.2690 C   0  0  1  0  0  0  0  0  0  0  0  0
   -0.6191    0.5917    2.2888 O   0  0  0  0  0  0  0  0  0  0  0  0
    1.7268    0.4455    2.7187 C   0  0  0  0  0  0  0  0  0  0  0  0
    2.2576    1.0170    1.7607 O   0  0  0  0  0  0  0  0  0  0  0  0
    2.3269   -0.7421    3.4358 C   0  0  1  0  0  0  0  0  0  0  0  0
    2.2113   -2.0173    2.5808 C   0  0  0  0  0  0  0  0  0  0  0  0
    3.7048   -0.5145    3.7071 O   0  0  0  0  0  0  0  0  0  0  0  0
    3.9115   -0.1368    5.0714 C   0  0  1  0  0  0  0  0  0  0  0  0
    4.2616    1.3597    5.1361 C   0  0  0  0  0  0  0  0  0  0  0  0
    4.3882    1.8493    6.5909 C   0  0  1  0  0  0  0  0  0  0  0  0
    4.4527    3.2610    6.6016 O   0  0  0  0  0  0  0  0  0  0  0  0
    3.2427    1.3709    7.4462 C   0  0  0  0  0  0  0  0  0  0  0  0
    2.4604    0.3275    7.0906 C   0  0  0  0  0  0  0  0  0  0  0  0
    2.6450   -0.4472    5.8310 C   0  0  2  0  0  0  0  0  0  0  0  0
    2.0567   -1.8504    5.7593 C   0  0  1  0  0  0  0  0  0  0  0  0
    1.1591   -2.1720    6.8007 O   0  0  0  0  0  0  0  0  0  0  0  0
    1.5997   -0.7928    4.7708 C   0  0  2  0  0  0  0  0  0  0  0  0
    0.1827   -0.1637    4.5246 C   0  0  2  0  0  0  0  0  0  0  0  0
   -0.5995   -1.2793    4.1462 O   0  0  0  0  0  0  0  0  0  0  0  0
   -0.6582    0.5056    5.6876 C   0  0  1  0  0  0  0  0  0  0  0  0
   -0.6552   -0.0867    6.9667 O   0  0  0  0  0  0  0  0  0  0  0  0
   -0.2372    1.9361    5.8186 C   0  0  2  0  0  0  0  0  0  0  0  0
   -0.6981    5.4012    5.7690 H   0  0  0  0  0  0  0  0  0  0  0  0
    0.8119    4.4794    5.6627 H   0  0  0  0  0  0  0  0  0  0  0  0
    0.0113    4.6786    7.2362 H   0  0  0  0  0  0  0  0  0  0  0  0
   -2.8021    2.3435    6.4656 H   0  0  0  0  0  0  0  0  0  0  0  0
   -2.9138    4.0726    6.2117 H   0  0  0  0  0  0  0  0  0  0  0  0
   -2.1386    3.4446    7.6881 H   0  0  0  0  0  0  0  0  0  0  0  0
   -1.7343    2.3035    4.1500 H   0  0  0  0  0  0  0  0  0  0  0  0
    0.1341    2.9394    2.6871 H   0  0  0  0  0  0  0  0  0  0  0  0
    1.2882    2.7299    3.9642 H   0  0  0  0  0  0  0  0  0  0  0  0
   -0.4113    1.1027    1.5249 H   0  0  0  0  0  0  0  0  0  0  0  0
    1.1762   -2.2548    2.3155 H   0  0  0  0  0  0  0  0  0  0  0  0
    2.6352   -2.8926    3.0878 H   0  0  0  0  0  0  0  0  0  0  0  0
    2.7606   -1.8882    1.6492 H   0  0  0  0  0  0  0  0  0  0  0  0
    4.7285   -0.7277    5.4869 H   0  0  0  0  0  0  0  0  0  0  0  0
    5.2023    1.5098    4.6043 H   0  0  0  0  0  0  0  0  0  0  0  0
    3.4964    1.9360    4.6108 H   0  0  0  0  0  0  0  0  0  0  0  0
    5.2988    1.4505    7.0384 H   0  0  0  0  0  0  0  0  0  0  0  0
    3.7092    3.5958    6.1536 H   0  0  0  0  0  0  0  0  0  0  0  0
    3.0799    1.8775    8.3837 H   0  0  0  0  0  0  0  0  0  0  0  0
    1.7063    0.0033    7.7912 H   0  0  0  0  0  0  0  0  0  0  0  0
    2.6728   -2.6873    5.4339 H   0  0  0  0  0  0  0  0  0  0  0  0
    1.6141   -2.7079    7.4267 H   0  0  0  0  0  0  0  0  0  0  0  0
   -0.2520   -1.6395    3.3548 H   0  0  0  0  0  0  0  0  0  0  0  0
   -1.7011    0.4786    5.3708 H   0  0  0  0  0  0  0  0  0  0  0  0
    0.2400   -0.2585    7.1994 H   0  0  0  0  0  0  0  0  0  0  0  0
    0.8171    2.0469    6.0813 H   0  0  0  0  0  0  0  0  0  0  0  0
  1  2  1  0
  1 28  1  0
  1 29  1  0
  1 30  1  0
  2 27  1  0
  2  3  1  0
  2  4  1  0
  3 31  1  0
  3 32  1  0
  3 33  1  0
  4 27  1  0
  4  5  1  0
  4 34  1  6
  5  6  1  0
  5 35  1  0
  5 36  1  0
  6 23  1  0
  6  7  1  6
  6  8  1  0
  7 37  1  0
  8  9  2  0
  8 10  1  0
 22 10  1  6
 10 11  1  6
 10 12  1  0
 11 38  1  0
 11 39  1  0
 11 40  1  0
 12 13  1  0
 13 19  1  0
 13 14  1  0
 13 41  1  1
 14 15  1  0
 14 42  1  0
 14 43  1  0
 15 16  1  0
 15 17  1  0
 15 44  1  1
 16 45  1  0
 17 18  2  0
 17 46  1  0
 19 18  1  1
 18 47  1  0
 19 22  1  0
 19 20  1  0
 20 21  1  0
 20 22  1  0
 20 48  1  6
 21 49  1  0
 22 23  1  0
 23 24  1  6
 23 25  1  0
 24 50  1  0
 25 26  1  0
 25 27  1  0
 25 51  1  6
 26 52  1  0
 27 53  1  6
M  END
>  <i_m_ct_stereo_status>  (78) 
1

>  <s_m_source_file>  (78) 
/var/tmp/pbs.5076255.sched01/tmppv1df_bs/0l6e7d74h.sdf

>  <i_m_source_file_index>  (78) 
28

>  <i_lp_mmshare_version>  (78) 
48012

>  <i_f3d_flags>  (78) 
0

>  <s_epik_input>  (78) 
W0NIM11DMShbQ0gzXSlbQ0BASF0oW0NIMl0yKVtDQEBIXTFbQ0BIXShbT0hdKVtDQEBdMyhbT0hdKVtDQF0yKFtPSF0pQyg9TylbQ0BdKFtDSDNdKShbQ0BdMyhbQ0BAXTQ1NilbQ0BASF02W09IXSlPW0NASF00W0NIMl1bQ0BASF0oW09IXSlbQ0hdPVtDSF01

>  <s_epik_cmdline>  (78) 
J2VwaWtfcHl0aG9uJywgJy1waHQnLCAnMi4wJywgJy1waCcsICc3LjAnLCAnLXRuJywgJzgnLCAnLW1hJywgJzIwMCcsICctaW1hZScsICc8aW5maWxlLm1hZT4nLCAnLW9tYWUnLCAnPG91dGZpbGUubWFlPic=

>  <r_lp_tautomer_probability>  (78) 
1

>  <r_epik_Ionization_Penalty>  (78) 
4.98043e-07

>  <r_epik_Ionization_Penalty_Charging>  (78) 
0

>  <r_epik_Ionization_Penalty_Neutral>  (78) 
4.98043e-07

>  <r_epik_State_Penalty>  (78) 
-0

>  <r_epik_Charging_Adjusted_Penalty>  (78) 
0

>  <i_epik_Tot_Q>  (78) 
0

>  <i_epik_Tot_abs_Q>  (78) 
0

>  <s_lp_Force_Field>  (78) 
OPLS3e

>  <r_lp_Energy>  (78) 
67.3092

>  <b_lp_Chiralities_Consistent>  (78) 
1

>  <s_lp_Variant>  (78) 
19:0-1

>  <s_i_glide_gridfile>  (78) 
pfpi4k_grid

>  <i_i_glide_lignum>  (78) 
28

>  <i_i_glide_rotatable_bonds>  (78) 
5

>  <r_i_docking_score>  (78) 
-3.27864

>  <r_i_glide_ligand_efficiency>  (78) 
-0.121431

>  <r_i_glide_ligand_efficiency_sa>  (78) 
-0.364293

>  <r_i_glide_ligand_efficiency_ln>  (78) 
-0.763213

>  <r_i_glide_gscore>  (78) 
-3.27864

>  <r_i_glide_lipo>  (78) 
-0.0998202

>  <r_i_glide_hbond>  (78) 
0

>  <r_i_glide_metal>  (78) 
-0

>  <r_i_glide_rewards>  (78) 
-1.32898

>  <r_i_glide_evdw>  (78) 
-18.8079

>  <r_i_glide_ecoul>  (78) 
-5.93356

>  <r_i_glide_erotb>  (78) 
0

>  <r_i_glide_esite>  (78) 
-0.0194064

>  <r_i_glide_emodel>  (78) 
-35.1341

>  <r_i_glide_energy>  (78) 
-24.7415

>  <r_i_glide_einternal>  (78) 
1.95516

>  <r_i_glide_intrahb_reward>  (78) 
-0.5

>  <i_i_glide_confnum>  (78) 
2

>  <i_i_glide_posenum>  (78) 
1

>  <r_i_glide_eff_state_penalty>  (78) 
0

>  <ligand_id>  (78) 
19

>  <original_smiles>  (78) 
CC1(C)C2CC3(O)C(=O)C4(C)OC5CC(O)C=CC56C(O)C46C3(O)C(O)C21

>  <smiles>  (78) 
[H]OC1([H])C([H])=C([H])C23C([H])(OC4(C([H])([H])[H])C(=O)C5(O[H])C([H])([H])C6([H])C([H])(C([H])(O[H])C5(O[H])C42C3([H])O[H])C6(C([H])([H])[H])C([H])([H])[H])C1([H])[H]

$$$$
19:0:2
     RDKit          3D

 53 58  0  0  1  0  0  0  0  0999 V2000
    7.9313   -6.7659    2.6197 C   0  0  0  0  0  0  0  0  0  0  0  0
    6.4500   -7.0996    2.6345 C   0  0  0  0  0  0  0  0  0  0  0  0
    6.2348   -8.5877    2.4012 C   0  0  0  0  0  0  0  0  0  0  0  0
    5.5634   -6.3289    3.5771 C   0  0  1  0  0  0  0  0  0  0  0  0
    5.4437   -4.9143    4.0701 C   0  0  0  0  0  0  0  0  0  0  0  0
    3.9763   -4.4195    3.8084 C   0  0  1  0  0  0  0  0  0  0  0  0
    3.2072   -4.9143    4.8979 O   0  0  0  0  0  0  0  0  0  0  0  0
    3.9402   -2.8956    3.8274 C   0  0  0  0  0  0  0  0  0  0  0  0
    4.4306   -2.2016    4.7156 O   0  0  0  0  0  0  0  0  0  0  0  0
    3.2441   -2.3377    2.6041 C   0  0  1  0  0  0  0  0  0  0  0  0
    1.8340   -1.8381    2.9687 C   0  0  0  0  0  0  0  0  0  0  0  0
    3.9811   -1.2470    2.0503 O   0  0  0  0  0  0  0  0  0  0  0  0
    4.7238   -1.6387    0.8961 C   0  0  1  0  0  0  0  0  0  0  0  0
    6.2214   -1.6790    1.2433 C   0  0  0  0  0  0  0  0  0  0  0  0
    7.0526   -2.2123    0.0651 C   0  0  1  0  0  0  0  0  0  0  0  0
    8.3759   -2.4813    0.4727 O   0  0  0  0  0  0  0  0  0  0  0  0
    6.4400   -3.4514   -0.5343 C   0  0  0  0  0  0  0  0  0  0  0  0
    5.1563   -3.8083   -0.3461 C   0  0  0  0  0  0  0  0  0  0  0  0
    4.2014   -3.0025    0.4730 C   0  0  2  0  0  0  0  0  0  0  0  0
    2.7223   -3.1636    0.2229 C   0  0  1  0  0  0  0  0  0  0  0  0
    2.2921   -4.2754   -0.5156 O   0  0  0  0  0  0  0  0  0  0  0  0
    3.2901   -3.4665    1.5934 C   0  0  2  0  0  0  0  0  0  0  0  0
    3.3242   -4.8084    2.4053 C   0  0  2  0  0  0  0  0  0  0  0  0
    1.9455   -5.0967    2.6104 O   0  0  0  0  0  0  0  0  0  0  0  0
    3.9540   -6.1452    1.8206 C   0  0  1  0  0  0  0  0  0  0  0  0
    3.7091   -6.4768    0.4849 O   0  0  0  0  0  0  0  0  0  0  0  0
    5.4446   -6.1416    2.0703 C   0  0  2  0  0  0  0  0  0  0  0  0
    8.4529   -7.3044    3.4142 H   0  0  0  0  0  0  0  0  0  0  0  0
    8.0737   -5.6971    2.7832 H   0  0  0  0  0  0  0  0  0  0  0  0
    8.3797   -7.0342    1.6611 H   0  0  0  0  0  0  0  0  0  0  0  0
    5.1685   -8.8230    2.4083 H   0  0  0  0  0  0  0  0  0  0  0  0
    6.7217   -9.1828    3.1777 H   0  0  0  0  0  0  0  0  0  0  0  0
    6.6370   -8.8831    1.4298 H   0  0  0  0  0  0  0  0  0  0  0  0
    4.8855   -6.9911    4.1129 H   0  0  0  0  0  0  0  0  0  0  0  0
    5.6931   -4.8834    5.1327 H   0  0  0  0  0  0  0  0  0  0  0  0
    6.1756   -4.2777    3.5744 H   0  0  0  0  0  0  0  0  0  0  0  0
    3.2967   -5.8551    4.9396 H   0  0  0  0  0  0  0  0  0  0  0  0
    1.2202   -2.6242    3.4115 H   0  0  0  0  0  0  0  0  0  0  0  0
    1.2999   -1.4456    2.1025 H   0  0  0  0  0  0  0  0  0  0  0  0
    1.8970   -1.0292    3.6985 H   0  0  0  0  0  0  0  0  0  0  0  0
    4.5406   -0.9321    0.0852 H   0  0  0  0  0  0  0  0  0  0  0  0
    6.5632   -0.6844    1.5292 H   0  0  0  0  0  0  0  0  0  0  0  0
    6.3620   -2.3316    2.1060 H   0  0  0  0  0  0  0  0  0  0  0  0
    7.0704   -1.4564   -0.7145 H   0  0  0  0  0  0  0  0  0  0  0  0
    8.9297   -2.5566   -0.2890 H   0  0  0  0  0  0  0  0  0  0  0  0
    7.0912   -4.0491   -1.1323 H   0  0  0  0  0  0  0  0  0  0  0  0
    4.7854   -4.6794   -0.8582 H   0  0  0  0  0  0  0  0  0  0  0  0
    2.1478   -2.2638    0.0657 H   0  0  0  0  0  0  0  0  0  0  0  0
    2.5814   -4.1939   -1.4155 H   0  0  0  0  0  0  0  0  0  0  0  0
    1.8896   -5.9057    3.0984 H   0  0  0  0  0  0  0  0  0  0  0  0
    3.5210   -6.9818    2.3754 H   0  0  0  0  0  0  0  0  0  0  0  0
    3.9365   -5.7465   -0.0704 H   0  0  0  0  0  0  0  0  0  0  0  0
    5.9444   -5.3065    1.5876 H   0  0  0  0  0  0  0  0  0  0  0  0
  1  2  1  0
  1 28  1  0
  1 29  1  0
  1 30  1  0
  2 27  1  0
  2  3  1  0
  2  4  1  0
  3 31  1  0
  3 32  1  0
  3 33  1  0
  4 27  1  0
  4  5  1  0
  4 34  1  1
  5  6  1  0
  5 35  1  0
  5 36  1  0
  6 23  1  0
  6  7  1  1
  6  8  1  0
  7 37  1  0
  8  9  2  0
  8 10  1  0
 22 10  1  1
 10 11  1  1
 10 12  1  0
 11 38  1  0
 11 39  1  0
 11 40  1  0
 12 13  1  0
 13 19  1  0
 13 14  1  0
 13 41  1  6
 14 15  1  0
 14 42  1  0
 14 43  1  0
 15 16  1  0
 15 17  1  0
 15 44  1  6
 16 45  1  0
 17 18  2  0
 17 46  1  0
 19 18  1  6
 18 47  1  0
 19 22  1  0
 19 20  1  0
 20 21  1  0
 20 22  1  0
 20 48  1  1
 21 49  1  0
 22 23  1  0
 23 24  1  1
 23 25  1  0
 24 50  1  0
 25 26  1  0
 25 27  1  0
 25 51  1  1
 26 52  1  0
 27 53  1  1
M  END
>  <i_m_ct_stereo_status>  (79) 
1

>  <s_m_source_file>  (79) 
/var/tmp/pbs.5076255.sched01/tmppv1df_bs/0l6e7d74h.sdf

>  <i_m_source_file_index>  (79) 
28

>  <i_lp_mmshare_version>  (79) 
48012

>  <i_f3d_flags>  (79) 
0

>  <s_epik_input>  (79) 
W0NIM11DMShbQ0gzXSlbQ0BASF0oW0NIMl0yKVtDQEBIXTFbQ0BIXShbT0hdKVtDQEBdMyhbT0hdKVtDQF0yKFtPSF0pQyg9TylbQ0BdKFtDSDNdKShbQ0BdMyhbQ0BAXTQ1NilbQ0BASF02W09IXSlPW0NASF00W0NIMl1bQ0BASF0oW09IXSlbQ0hdPVtDSF01

>  <s_epik_cmdline>  (79) 
J2VwaWtfcHl0aG9uJywgJy1waHQnLCAnMi4wJywgJy1waCcsICc3LjAnLCAnLXRuJywgJzgnLCAnLW1hJywgJzIwMCcsICctaW1hZScsICc8aW5maWxlLm1hZT4nLCAnLW9tYWUnLCAnPG91dGZpbGUubWFlPic=

>  <r_lp_tautomer_probability>  (79) 
1

>  <r_epik_Ionization_Penalty>  (79) 
4.98043e-07

>  <r_epik_Ionization_Penalty_Charging>  (79) 
0

>  <r_epik_Ionization_Penalty_Neutral>  (79) 
4.98043e-07

>  <r_epik_State_Penalty>  (79) 
-0

>  <r_epik_Charging_Adjusted_Penalty>  (79) 
0

>  <i_epik_Tot_Q>  (79) 
0

>  <i_epik_Tot_abs_Q>  (79) 
0

>  <s_lp_Force_Field>  (79) 
OPLS3e

>  <r_lp_Energy>  (79) 
67.3092

>  <b_lp_Chiralities_Consistent>  (79) 
1

>  <s_lp_Variant>  (79) 
19:0-1

>  <s_i_glide_gridfile>  (79) 
pfpi4k_grid

>  <i_i_glide_lignum>  (79) 
28

>  <i_i_glide_rotatable_bonds>  (79) 
5

>  <r_i_docking_score>  (79) 
-2.91734

>  <r_i_glide_ligand_efficiency>  (79) 
-0.10805

>  <r_i_glide_ligand_efficiency_sa>  (79) 
-0.324149

>  <r_i_glide_ligand_efficiency_ln>  (79) 
-0.67911

>  <r_i_glide_gscore>  (79) 
-2.91734

>  <r_i_glide_lipo>  (79) 
-0.452959

>  <r_i_glide_hbond>  (79) 
0

>  <r_i_glide_metal>  (79) 
-0

>  <r_i_glide_rewards>  (79) 
-0.82898

>  <r_i_glide_evdw>  (79) 
-21.338

>  <r_i_glide_ecoul>  (79) 
-3.79002

>  <r_i_glide_erotb>  (79) 
0

>  <r_i_glide_esite>  (79) 
0

>  <r_i_glide_emodel>  (79) 
-30.6742

>  <r_i_glide_energy>  (79) 
-25.1281

>  <r_i_glide_einternal>  (79) 
0.725508

>  <r_i_glide_intrahb_reward>  (79) 
-0

>  <i_i_glide_confnum>  (79) 
1

>  <i_i_glide_posenum>  (79) 
14

>  <r_i_glide_eff_state_penalty>  (79) 
0

>  <ligand_id>  (79) 
19

>  <original_smiles>  (79) 
CC1(C)C2CC3(O)C(=O)C4(C)OC5CC(O)C=CC56C(O)C46C3(O)C(O)C21

>  <smiles>  (79) 
[H]OC1([H])C([H])=C([H])C23C([H])(OC4(C([H])([H])[H])C(=O)C5(O[H])C([H])([H])C6([H])C([H])(C([H])(O[H])C5(O[H])C42C3([H])O[H])C6(C([H])([H])[H])C([H])([H])[H])C1([H])[H]

$$$$
21:0:0
     RDKit          3D

 28 30  0  0  1  0  0  0  0  0999 V2000
    7.9162   -3.3011   -0.3593 C   0  0  0  0  0  0  0  0  0  0  0  0
    6.5877   -2.7712   -0.8742 C   0  0  0  0  0  0  0  0  0  0  0  0
    6.2362   -3.0090   -2.1810 C   0  0  0  0  0  0  0  0  0  0  0  0
    5.0049   -2.5361   -2.6950 C   0  0  0  0  0  0  0  0  0  0  0  0
    4.4598   -2.6346   -3.9069 N   0  0  0  0  0  0  0  0  0  0  0  0
    3.2544   -1.9638   -3.8388 C   0  0  0  0  0  0  0  0  0  0  0  0
    3.0645   -1.4494   -2.5909 C   0  0  0  0  0  0  0  0  0  0  0  0
    4.1640   -1.8021   -1.8208 N   0  0  0  0  0  0  0  0  0  0  0  0
    4.5014   -1.5643   -0.5120 C   0  0  0  0  0  0  0  0  0  0  0  0
    3.5846   -0.8178    0.3502 C   0  0  0  0  0  0  0  0  0  0  0  0
    2.8116   -0.1996    1.0683 C   0  0  0  0  0  0  0  0  0  0  0  0
    1.8797    0.5557    1.8941 C   0  0  0  0  0  0  0  0  0  0  0  0
    0.7679   -0.0749    2.4788 C   0  0  0  0  0  0  0  0  0  0  0  0
   -0.0690    0.7327    3.2737 C   0  0  0  0  0  0  0  0  0  0  0  0
    0.1894    2.0370    3.4816 N   0  0  0  0  0  0  0  0  0  0  0  0
    1.2629    2.5335    2.8677 C   0  0  0  0  0  0  0  0  0  0  0  0
    2.1240    1.8637    2.1018 N   0  0  0  0  0  0  0  0  0  0  0  0
    5.7086   -2.0398   -0.0254 C   0  0  0  0  0  0  0  0  0  0  0  0
    6.1656   -1.7448    1.6205 Cl  0  0  0  0  0  0  0  0  0  0  0  0
    8.4589   -3.8309   -1.1440 H   0  0  0  0  0  0  0  0  0  0  0  0
    7.7557   -4.0019    0.4632 H   0  0  0  0  0  0  0  0  0  0  0  0
    8.5538   -2.4848   -0.0129 H   0  0  0  0  0  0  0  0  0  0  0  0
    6.9001   -3.5512   -2.8443 H   0  0  0  0  0  0  0  0  0  0  0  0
    2.6069   -1.8964   -4.7006 H   0  0  0  0  0  0  0  0  0  0  0  0
    2.2519   -0.8771   -2.1732 H   0  0  0  0  0  0  0  0  0  0  0  0
    0.5670   -1.1207    2.3190 H   0  0  0  0  0  0  0  0  0  0  0  0
   -0.9458    0.3268    3.7573 H   0  0  0  0  0  0  0  0  0  0  0  0
    1.4758    3.5754    3.0337 H   0  0  0  0  0  0  0  0  0  0  0  0
  1  2  1  0
  1 20  1  0
  1 21  1  0
  1 22  1  0
  2 18  1  0
  2  3  2  0
  3  4  1  0
  3 23  1  0
  4  8  1  0
  4  5  2  0
  5  6  1  0
  6  7  2  0
  6 24  1  0
  7  8  1  0
  7 25  1  0
  8  9  1  0
  9 10  1  0
  9 18  2  0
 10 11  3  0
 11 12  1  0
 12 17  1  0
 12 13  2  0
 13 14  1  0
 13 26  1  0
 14 15  2  0
 14 27  1  0
 15 16  1  0
 16 17  2  0
 16 28  1  0
 18 19  1  0
M  END
>  <i_m_ct_stereo_status>  (80) 
1

>  <s_m_source_file>  (80) 
/var/tmp/pbs.5076255.sched01/tmppv1df_bs/0l6e7d74h.sdf

>  <i_m_source_file_index>  (80) 
30

>  <i_lp_mmshare_version>  (80) 
48012

>  <i_f3d_flags>  (80) 
0

>  <s_epik_input>  (80) 
bjFbY0hdW2NIXW4oYzEyKWMoYyhDbCljKFtDSDNdKVtjSF0yKUMjQ2MzW2NIXVtjSF1uW2NIXW4z

>  <s_epik_cmdline>  (80) 
J2VwaWtfcHl0aG9uJywgJy1waHQnLCAnMi4wJywgJy1waCcsICc3LjAnLCAnLXRuJywgJzgnLCAnLW1hJywgJzIwMCcsICctaW1hZScsICc8aW5maWxlLm1hZT4nLCAnLW9tYWUnLCAnPG91dGZpbGUubWFlPic=

>  <r_epik_Ionization_Penalty>  (80) 
0.00947873

>  <r_epik_Ionization_Penalty_Charging>  (80) 
0.00947847

>  <r_epik_Ionization_Penalty_Neutral>  (80) 
2.63277e-07

>  <r_epik_State_Penalty>  (80) 
0.00720006

>  <r_epik_Charging_Adjusted_Penalty>  (80) 
0.0166785

>  <i_epik_Tot_Q>  (80) 
0

>  <i_epik_Tot_abs_Q>  (80) 
0

>  <s_epik_Chemistry_Notes>  (80) 
This compound contains an electron-poor aromatic ring that is susceptible to covalent hydrolysis at low pH, typically resulting in measured values for nitrogen ring protonation that are around two units higher than predicted values.

>  <s_lp_Force_Field>  (80) 
OPLS3e

>  <r_lp_Energy>  (80) 
26.5793

>  <b_lp_Chiralities_Consistent>  (80) 
1

>  <s_lp_Variant>  (80) 
21:0-1

>  <s_i_glide_gridfile>  (80) 
pfpi4k_grid

>  <i_i_glide_lignum>  (80) 
30

>  <i_i_glide_rotatable_bonds>  (80) 
2

>  <r_i_docking_score>  (80) 
-4.32653

>  <r_i_glide_ligand_efficiency>  (80) 
-0.227712

>  <r_i_glide_ligand_efficiency_sa>  (80) 
-0.607627

>  <r_i_glide_ligand_efficiency_ln>  (80) 
-1.09687

>  <r_i_glide_gscore>  (80) 
-4.32653

>  <r_i_glide_lipo>  (80) 
-0.600839

>  <r_i_glide_hbond>  (80) 
-0.127013

>  <r_i_glide_metal>  (80) 
-0

>  <r_i_glide_rewards>  (80) 
-1.7985

>  <r_i_glide_evdw>  (80) 
-26.8051

>  <r_i_glide_ecoul>  (80) 
-5.66114

>  <r_i_glide_erotb>  (80) 
0.494599

>  <r_i_glide_esite>  (80) 
-0.105348

>  <r_i_glide_emodel>  (80) 
-40.3236

>  <r_i_glide_energy>  (80) 
-32.4663

>  <r_i_glide_einternal>  (80) 
1.23961

>  <r_i_glide_intrahb_reward>  (80) 
-0

>  <i_i_glide_confnum>  (80) 
1

>  <i_i_glide_posenum>  (80) 
5

>  <r_i_glide_eff_state_penalty>  (80) 
0

>  <ligand_id>  (80) 
21

>  <original_smiles>  (80) 
Cc1cc2nccn2c(C#Cc2ccncn2)c1Cl

>  <smiles>  (80) 
[H]c1nc([H])c([H])c(C#Cc2c(Cl)c(C([H])([H])[H])c([H])c3nc([H])c([H])n23)n1

$$$$
21:0:1
     RDKit          3D

 28 30  0  0  1  0  0  0  0  0999 V2000
    8.4177   -2.8111   -0.4102 C   0  0  0  0  0  0  0  0  0  0  0  0
    6.9646   -2.6226   -0.8275 C   0  0  0  0  0  0  0  0  0  0  0  0
    6.5697   -3.0567   -2.0669 C   0  0  0  0  0  0  0  0  0  0  0  0
    5.2280   -2.9054   -2.5031 C   0  0  0  0  0  0  0  0  0  0  0  0
    4.6227   -3.2362   -3.6451 N   0  0  0  0  0  0  0  0  0  0  0  0
    3.3021   -2.8430   -3.5079 C   0  0  0  0  0  0  0  0  0  0  0  0
    3.1048   -2.2634   -2.2896 C   0  0  0  0  0  0  0  0  0  0  0  0
    4.3167   -2.2783   -1.6188 N   0  0  0  0  0  0  0  0  0  0  0  0
    4.7008   -1.8291   -0.3822 C   0  0  0  0  0  0  0  0  0  0  0  0
    3.7206   -1.1782    0.4880 C   0  0  0  0  0  0  0  0  0  0  0  0
    2.8875   -0.6553    1.2143 C   0  0  0  0  0  0  0  0  0  0  0  0
    1.8482   -0.0532    2.0354 C   0  0  0  0  0  0  0  0  0  0  0  0
    1.6071    1.3329    1.9799 C   0  0  0  0  0  0  0  0  0  0  0  0
    0.5805    1.8353    2.7985 C   0  0  0  0  0  0  0  0  0  0  0  0
   -0.1266    1.0294    3.6167 N   0  0  0  0  0  0  0  0  0  0  0  0
    0.1939   -0.2607    3.5943 C   0  0  0  0  0  0  0  0  0  0  0  0
    1.1283   -0.8488    2.8527 N   0  0  0  0  0  0  0  0  0  0  0  0
    6.0136   -1.9977    0.0225 C   0  0  0  0  0  0  0  0  0  0  0  0
    6.5047   -1.4422    1.5775 Cl  0  0  0  0  0  0  0  0  0  0  0  0
    8.9938   -3.3027   -1.1971 H   0  0  0  0  0  0  0  0  0  0  0  0
    8.4832   -3.4355    0.4840 H   0  0  0  0  0  0  0  0  0  0  0  0
    8.9009   -1.8512   -0.2119 H   0  0  0  0  0  0  0  0  0  0  0  0
    7.2931   -3.5431   -2.7118 H   0  0  0  0  0  0  0  0  0  0  0  0
    2.5815   -3.0059   -4.2954 H   0  0  0  0  0  0  0  0  0  0  0  0
    2.2176   -1.8542   -1.8362 H   0  0  0  0  0  0  0  0  0  0  0  0
    2.1649    1.9886    1.3349 H   0  0  0  0  0  0  0  0  0  0  0  0
    0.3346    2.8886    2.8164 H   0  0  0  0  0  0  0  0  0  0  0  0
   -0.3879   -0.9059    4.2298 H   0  0  0  0  0  0  0  0  0  0  0  0
  1  2  1  0
  1 20  1  0
  1 21  1  0
  1 22  1  0
  2 18  1  0
  2  3  2  0
  3  4  1  0
  3 23  1  0
  4  8  1  0
  4  5  2  0
  5  6  1  0
  6  7  2  0
  6 24  1  0
  7  8  1  0
  7 25  1  0
  8  9  1  0
  9 10  1  0
  9 18  2  0
 10 11  3  0
 11 12  1  0
 12 17  1  0
 12 13  2  0
 13 14  1  0
 13 26  1  0
 14 15  2  0
 14 27  1  0
 15 16  1  0
 16 17  2  0
 16 28  1  0
 18 19  1  0
M  END
>  <i_m_ct_stereo_status>  (81) 
1

>  <s_m_source_file>  (81) 
/var/tmp/pbs.5076255.sched01/tmppv1df_bs/0l6e7d74h.sdf

>  <i_m_source_file_index>  (81) 
30

>  <i_lp_mmshare_version>  (81) 
48012

>  <i_f3d_flags>  (81) 
0

>  <s_epik_input>  (81) 
bjFbY0hdW2NIXW4oYzEyKWMoYyhDbCljKFtDSDNdKVtjSF0yKUMjQ2MzW2NIXVtjSF1uW2NIXW4z

>  <s_epik_cmdline>  (81) 
J2VwaWtfcHl0aG9uJywgJy1waHQnLCAnMi4wJywgJy1waCcsICc3LjAnLCAnLXRuJywgJzgnLCAnLW1hJywgJzIwMCcsICctaW1hZScsICc8aW5maWxlLm1hZT4nLCAnLW9tYWUnLCAnPG91dGZpbGUubWFlPic=

>  <r_epik_Ionization_Penalty>  (81) 
0.00947873

>  <r_epik_Ionization_Penalty_Charging>  (81) 
0.00947847

>  <r_epik_Ionization_Penalty_Neutral>  (81) 
2.63277e-07

>  <r_epik_State_Penalty>  (81) 
0.00720006

>  <r_epik_Charging_Adjusted_Penalty>  (81) 
0.0166785

>  <i_epik_Tot_Q>  (81) 
0

>  <i_epik_Tot_abs_Q>  (81) 
0

>  <s_epik_Chemistry_Notes>  (81) 
This compound contains an electron-poor aromatic ring that is susceptible to covalent hydrolysis at low pH, typically resulting in measured values for nitrogen ring protonation that are around two units higher than predicted values.

>  <s_lp_Force_Field>  (81) 
OPLS3e

>  <r_lp_Energy>  (81) 
26.5793

>  <b_lp_Chiralities_Consistent>  (81) 
1

>  <s_lp_Variant>  (81) 
21:0-1

>  <s_i_glide_gridfile>  (81) 
pfpi4k_grid

>  <i_i_glide_lignum>  (81) 
30

>  <i_i_glide_rotatable_bonds>  (81) 
2

>  <r_i_docking_score>  (81) 
-3.60077

>  <r_i_glide_ligand_efficiency>  (81) 
-0.189514

>  <r_i_glide_ligand_efficiency_sa>  (81) 
-0.5057

>  <r_i_glide_ligand_efficiency_ln>  (81) 
-0.912872

>  <r_i_glide_gscore>  (81) 
-3.60077

>  <r_i_glide_lipo>  (81) 
-0.337446

>  <r_i_glide_hbond>  (81) 
0

>  <r_i_glide_metal>  (81) 
-0

>  <r_i_glide_rewards>  (81) 
-1.8128

>  <r_i_glide_evdw>  (81) 
-27.1716

>  <r_i_glide_ecoul>  (81) 
-3.6196

>  <r_i_glide_erotb>  (81) 
0.494599

>  <r_i_glide_esite>  (81) 
-0.0436053

>  <r_i_glide_emodel>  (81) 
-37.2109

>  <r_i_glide_energy>  (81) 
-30.7912

>  <r_i_glide_einternal>  (81) 
1.2409

>  <r_i_glide_intrahb_reward>  (81) 
-0

>  <i_i_glide_confnum>  (81) 
1

>  <i_i_glide_posenum>  (81) 
31

>  <r_i_glide_eff_state_penalty>  (81) 
0

>  <ligand_id>  (81) 
21

>  <original_smiles>  (81) 
Cc1cc2nccn2c(C#Cc2ccncn2)c1Cl

>  <smiles>  (81) 
[H]c1nc([H])c([H])c(C#Cc2c(Cl)c(C([H])([H])[H])c([H])c3nc([H])c([H])n23)n1

$$$$
21:0:2
     RDKit          3D

 28 30  0  0  1  0  0  0  0  0999 V2000
    5.1468   -1.9971   -1.5811 C   0  0  0  0  0  0  0  0  0  0  0  0
    5.3342   -3.2202   -0.6999 C   0  0  0  0  0  0  0  0  0  0  0  0
    6.6068   -3.5867   -0.3294 C   0  0  0  0  0  0  0  0  0  0  0  0
    6.8138   -4.7269    0.4818 C   0  0  0  0  0  0  0  0  0  0  0  0
    7.9328   -5.2767    0.9471 N   0  0  0  0  0  0  0  0  0  0  0  0
    7.5384   -6.3831    1.6831 C   0  0  0  0  0  0  0  0  0  0  0  0
    6.1742   -6.5093    1.6700 C   0  0  0  0  0  0  0  0  0  0  0  0
    5.6760   -5.4623    0.8991 N   0  0  0  0  0  0  0  0  0  0  0  0
    4.4026   -5.1021    0.5400 C   0  0  0  0  0  0  0  0  0  0  0  0
    3.2756   -5.9087    1.0098 C   0  0  0  0  0  0  0  0  0  0  0  0
    2.3543   -6.5973    1.4253 C   0  0  0  0  0  0  0  0  0  0  0  0
    1.2630   -7.4143    1.9362 C   0  0  0  0  0  0  0  0  0  0  0  0
    1.5022   -8.7331    2.3740 C   0  0  0  0  0  0  0  0  0  0  0  0
    0.3890   -9.4572    2.8434 C   0  0  0  0  0  0  0  0  0  0  0  0
   -0.8400   -8.9077    2.8787 N   0  0  0  0  0  0  0  0  0  0  0  0
   -0.9470   -7.6589    2.4420 C   0  0  0  0  0  0  0  0  0  0  0  0
    0.0233   -6.8721    1.9771 N   0  0  0  0  0  0  0  0  0  0  0  0
    4.2141   -3.9821   -0.2586 C   0  0  0  0  0  0  0  0  0  0  0  0
    2.6194   -3.4818   -0.7259 Cl  0  0  0  0  0  0  0  0  0  0  0  0
    6.1054   -1.5426   -1.8311 H   0  0  0  0  0  0  0  0  0  0  0  0
    4.5433   -1.2462   -1.0676 H   0  0  0  0  0  0  0  0  0  0  0  0
    4.6547   -2.2687   -2.5168 H   0  0  0  0  0  0  0  0  0  0  0  0
    7.4773   -3.0370   -0.6702 H   0  0  0  0  0  0  0  0  0  0  0  0
    8.2808   -7.0024    2.1712 H   0  0  0  0  0  0  0  0  0  0  0  0
    5.5104   -7.2320    2.1206 H   0  0  0  0  0  0  0  0  0  0  0  0
    2.4793   -9.1897    2.3414 H   0  0  0  0  0  0  0  0  0  0  0  0
    0.4792  -10.4797    3.1827 H   0  0  0  0  0  0  0  0  0  0  0  0
   -1.9301   -7.2181    2.4842 H   0  0  0  0  0  0  0  0  0  0  0  0
  1  2  1  0
  1 20  1  0
  1 21  1  0
  1 22  1  0
  2 18  1  0
  2  3  2  0
  3  4  1  0
  3 23  1  0
  4  8  1  0
  4  5  2  0
  5  6  1  0
  6  7  2  0
  6 24  1  0
  7  8  1  0
  7 25  1  0
  8  9  1  0
  9 10  1  0
  9 18  2  0
 10 11  3  0
 11 12  1  0
 12 17  1  0
 12 13  2  0
 13 14  1  0
 13 26  1  0
 14 15  2  0
 14 27  1  0
 15 16  1  0
 16 17  2  0
 16 28  1  0
 18 19  1  0
M  END
>  <i_m_ct_stereo_status>  (82) 
1

>  <s_m_source_file>  (82) 
/var/tmp/pbs.5076255.sched01/tmppv1df_bs/0l6e7d74h.sdf

>  <i_m_source_file_index>  (82) 
30

>  <i_lp_mmshare_version>  (82) 
48012

>  <i_f3d_flags>  (82) 
0

>  <s_epik_input>  (82) 
bjFbY0hdW2NIXW4oYzEyKWMoYyhDbCljKFtDSDNdKVtjSF0yKUMjQ2MzW2NIXVtjSF1uW2NIXW4z

>  <s_epik_cmdline>  (82) 
J2VwaWtfcHl0aG9uJywgJy1waHQnLCAnMi4wJywgJy1waCcsICc3LjAnLCAnLXRuJywgJzgnLCAnLW1hJywgJzIwMCcsICctaW1hZScsICc8aW5maWxlLm1hZT4nLCAnLW9tYWUnLCAnPG91dGZpbGUubWFlPic=

>  <r_epik_Ionization_Penalty>  (82) 
0.00947873

>  <r_epik_Ionization_Penalty_Charging>  (82) 
0.00947847

>  <r_epik_Ionization_Penalty_Neutral>  (82) 
2.63277e-07

>  <r_epik_State_Penalty>  (82) 
0.00720006

>  <r_epik_Charging_Adjusted_Penalty>  (82) 
0.0166785

>  <i_epik_Tot_Q>  (82) 
0

>  <i_epik_Tot_abs_Q>  (82) 
0

>  <s_epik_Chemistry_Notes>  (82) 
This compound contains an electron-poor aromatic ring that is susceptible to covalent hydrolysis at low pH, typically resulting in measured values for nitrogen ring protonation that are around two units higher than predicted values.

>  <s_lp_Force_Field>  (82) 
OPLS3e

>  <r_lp_Energy>  (82) 
26.5793

>  <b_lp_Chiralities_Consistent>  (82) 
1

>  <s_lp_Variant>  (82) 
21:0-1

>  <s_i_glide_gridfile>  (82) 
pfpi4k_grid

>  <i_i_glide_lignum>  (82) 
30

>  <i_i_glide_rotatable_bonds>  (82) 
2

>  <r_i_docking_score>  (82) 
-3.30201

>  <r_i_glide_ligand_efficiency>  (82) 
-0.17379

>  <r_i_glide_ligand_efficiency_sa>  (82) 
-0.463742

>  <r_i_glide_ligand_efficiency_ln>  (82) 
-0.837131

>  <r_i_glide_gscore>  (82) 
-3.30201

>  <r_i_glide_lipo>  (82) 
-0.283741

>  <r_i_glide_hbond>  (82) 
-0.0584105

>  <r_i_glide_metal>  (82) 
-0

>  <r_i_glide_rewards>  (82) 
-1.8671

>  <r_i_glide_evdw>  (82) 
-26.664

>  <r_i_glide_ecoul>  (82) 
-1.17496

>  <r_i_glide_erotb>  (82) 
0.494599

>  <r_i_glide_esite>  (82) 
-0.0779177

>  <r_i_glide_emodel>  (82) 
-33.6981

>  <r_i_glide_energy>  (82) 
-27.8389

>  <r_i_glide_einternal>  (82) 
1.21536

>  <r_i_glide_intrahb_reward>  (82) 
-0

>  <i_i_glide_confnum>  (82) 
2

>  <i_i_glide_posenum>  (82) 
39

>  <r_i_glide_eff_state_penalty>  (82) 
0

>  <ligand_id>  (82) 
21

>  <original_smiles>  (82) 
Cc1cc2nccn2c(C#Cc2ccncn2)c1Cl

>  <smiles>  (82) 
[H]c1nc([H])c([H])c(C#Cc2c(Cl)c(C([H])([H])[H])c([H])c3nc([H])c([H])n23)n1

$$$$
21:1:0
     RDKit          3D

 29 31  0  0  1  0  0  0  0  0999 V2000
    0.1386  -10.4342    2.4922 C   0  0  0  0  0  0  0  0  0  0  0  0
    0.4011   -9.6202    3.7532 C   0  0  0  0  0  0  0  0  0  0  0  0
    0.7311  -10.2690    4.9248 C   0  0  0  0  0  0  0  0  0  0  0  0
    0.9430   -9.4727    6.0331 C   0  0  0  0  0  0  0  0  0  0  0  0
    1.2618   -9.8529    7.2628 N   0  0  0  0  0  0  0  0  0  0  0  0
    1.3839   -8.7109    8.0352 C   0  0  0  0  0  0  0  0  0  0  0  0
    1.1329   -7.5933    7.2745 C   0  0  0  0  0  0  0  0  0  0  0  0
    0.8637   -8.1564    6.0392 N   0  0  0  0  0  0  0  0  0  0  0  0
    0.5457   -7.4639    4.8822 C   0  0  0  0  0  0  0  0  0  0  0  0
    0.4677   -6.0074    4.8747 C   0  0  0  0  0  0  0  0  0  0  0  0
    0.4104   -4.7875    4.8735 C   0  0  0  0  0  0  0  0  0  0  0  0
    0.3368   -3.3311    4.8891 C   0  0  0  0  0  0  0  0  0  0  0  0
    1.1805   -2.5693    4.0601 C   0  0  0  0  0  0  0  0  0  0  0  0
    1.0405   -1.1715    4.1187 C   0  0  0  0  0  0  0  0  0  0  0  0
    0.1433   -0.5859    4.9305 N   0  0  0  0  0  0  0  0  0  0  0  0
   -0.6039   -1.4024    5.6678 C   0  0  0  0  0  0  0  0  0  0  0  0
   -0.5666   -2.7354    5.6966 N   0  0  0  0  0  0  0  0  0  0  0  0
    0.3081   -8.2014    3.7326 C   0  0  0  0  0  0  0  0  0  0  0  0
   -0.1039   -7.4040    2.2482 Cl  0  0  0  0  0  0  0  0  0  0  0  0
    0.2375  -11.5044    2.6657 H   0  0  0  0  0  0  0  0  0  0  0  0
    0.8466  -10.1750    1.7069 H   0  0  0  0  0  0  0  0  0  0  0  0
   -0.8685  -10.2564    2.1117 H   0  0  0  0  0  0  0  0  0  0  0  0
    0.7965  -11.3426    5.0292 H   0  0  0  0  0  0  0  0  0  0  0  0
    1.6527   -8.7876    9.0783 H   0  0  0  0  0  0  0  0  0  0  0  0
    1.1380   -6.5331    7.4931 H   0  0  0  0  0  0  0  0  0  0  0  0
    1.9045   -3.0191    3.4004 H   0  0  0  0  0  0  0  0  0  0  0  0
    1.6521   -0.5106    3.5241 H   0  0  0  0  0  0  0  0  0  0  0  0
   -1.3222   -0.9416    6.3201 H   0  0  0  0  0  0  0  0  0  0  0  0
    1.3916  -10.8550    7.5415 H   0  0  0  0  0  0  0  0  0  0  0  0
  1  2  1  0
  1 20  1  0
  1 21  1  0
  1 22  1  0
  2 18  1  0
  2  3  2  0
  3  4  1  0
  3 23  1  0
  4  8  1  0
  4  5  2  0
  5  6  1  0
  5 29  1  0
  6  7  2  0
  6 24  1  0
  7  8  1  0
  7 25  1  0
  8  9  1  0
  9 10  1  0
  9 18  2  0
 10 11  3  0
 11 12  1  0
 12 17  1  0
 12 13  2  0
 13 14  1  0
 13 26  1  0
 14 15  2  0
 14 27  1  0
 15 16  1  0
 16 17  2  0
 16 28  1  0
 18 19  1  0
M  CHG  1   5   1
M  END
>  <i_m_ct_stereo_status>  (83) 
1

>  <s_m_source_file>  (83) 
/var/tmp/pbs.5076255.sched01/tmppv1df_bs/0l6e7d74h.sdf

>  <i_m_source_file_index>  (83) 
31

>  <i_lp_mmshare_version>  (83) 
48012

>  <i_f3d_flags>  (83) 
0

>  <s_epik_input>  (83) 
bjFbY0hdW2NIXW4oYzEyKWMoYyhDbCljKFtDSDNdKVtjSF0yKUMjQ2MzW2NIXVtjSF1uW2NIXW4z

>  <s_epik_cmdline>  (83) 
J2VwaWtfcHl0aG9uJywgJy1waHQnLCAnMi4wJywgJy1waCcsICc3LjAnLCAnLXRuJywgJzgnLCAnLW1hJywgJzIwMCcsICctaW1hZScsICc8aW5maWxlLm1hZT4nLCAnLW9tYWUnLCAnPG91dGZpbGUubWFlPic=

>  <r_epik_Ionization_Penalty>  (83) 
2.45484

>  <r_epik_Ionization_Penalty_Charging>  (83) 
0

>  <r_epik_Ionization_Penalty_Neutral>  (83) 
2.45484

>  <r_epik_State_Penalty>  (83) 
2.6166

>  <r_epik_Charging_Adjusted_Penalty>  (83) 
2.6166

>  <i_epik_Tot_Q>  (83) 
1

>  <i_epik_Tot_abs_Q>  (83) 
1

>  <s_epik_Chemistry_Notes>  (83) 
This compound contains an electron-poor aromatic ring that is susceptible to covalent hydrolysis at low pH, typically resulting in measured values for nitrogen ring protonation that are around two units higher than predicted values.

>  <s_lp_Force_Field>  (83) 
OPLS3e

>  <r_lp_Energy>  (83) 
29.9679

>  <b_lp_Chiralities_Consistent>  (83) 
1

>  <s_lp_Variant>  (83) 
21:0-2

>  <s_i_glide_gridfile>  (83) 
pfpi4k_grid

>  <i_i_glide_lignum>  (83) 
31

>  <i_i_glide_rotatable_bonds>  (83) 
2

>  <r_i_docking_score>  (83) 
-4.14915

>  <r_i_glide_ligand_efficiency>  (83) 
-0.218376

>  <r_i_glide_ligand_efficiency_sa>  (83) 
-0.582716

>  <r_i_glide_ligand_efficiency_ln>  (83) 
-1.0519

>  <r_i_glide_gscore>  (83) 
-4.14915

>  <r_i_glide_lipo>  (83) 
-0.236528

>  <r_i_glide_hbond>  (83) 
-0.174225

>  <r_i_glide_metal>  (83) 
-0

>  <r_i_glide_rewards>  (83) 
-1.57017

>  <r_i_glide_evdw>  (83) 
-18.7565

>  <r_i_glide_ecoul>  (83) 
-9.99079

>  <r_i_glide_erotb>  (83) 
0.491407

>  <r_i_glide_esite>  (83) 
-0.223193

>  <r_i_glide_emodel>  (83) 
-38.2079

>  <r_i_glide_energy>  (83) 
-28.7473

>  <r_i_glide_einternal>  (83) 
1.39753

>  <r_i_glide_intrahb_reward>  (83) 
-0

>  <i_i_glide_confnum>  (83) 
1

>  <i_i_glide_posenum>  (83) 
18

>  <r_i_glide_eff_state_penalty>  (83) 
0

>  <ligand_id>  (83) 
21

>  <original_smiles>  (83) 
Cc1cc2nccn2c(C#Cc2ccncn2)c1Cl

>  <smiles>  (83) 
[H]c1nc([H])c([H])c(C#Cc2c(Cl)c(C([H])([H])[H])c([H])c3n2c([H])c([H])[n+]3[H])n1

$$$$
21:1:1
     RDKit          3D

 29 31  0  0  1  0  0  0  0  0999 V2000
    6.1467   -2.9745   -0.5257 C   0  0  0  0  0  0  0  0  0  0  0  0
    6.0157   -4.3140    0.1831 C   0  0  0  0  0  0  0  0  0  0  0  0
    7.1529   -5.0309    0.5084 C   0  0  0  0  0  0  0  0  0  0  0  0
    6.9682   -6.2444    1.1469 C   0  0  0  0  0  0  0  0  0  0  0  0
    7.8969   -7.1195    1.5462 N   0  0  0  0  0  0  0  0  0  0  0  0
    7.2305   -8.1905    2.1393 C   0  0  0  0  0  0  0  0  0  0  0  0
    5.8731   -7.9760    2.0894 C   0  0  0  0  0  0  0  0  0  0  0  0
    5.7823   -6.7476    1.4585 N   0  0  0  0  0  0  0  0  0  0  0  0
    4.6150   -6.0675    1.1536 C   0  0  0  0  0  0  0  0  0  0  0  0
    3.3141   -6.6325    1.5056 C   0  0  0  0  0  0  0  0  0  0  0  0
    2.2279   -7.1067    1.8036 C   0  0  0  0  0  0  0  0  0  0  0  0
    0.9478   -7.6869    2.1765 C   0  0  0  0  0  0  0  0  0  0  0  0
    0.8715   -9.0413    2.5568 C   0  0  0  0  0  0  0  0  0  0  0  0
   -0.4039   -9.5305    2.8960 C   0  0  0  0  0  0  0  0  0  0  0  0
   -1.4930   -8.7384    2.8665 N   0  0  0  0  0  0  0  0  0  0  0  0
   -1.2974   -7.4783    2.5039 C   0  0  0  0  0  0  0  0  0  0  0  0
   -0.1502   -6.8976    2.1519 N   0  0  0  0  0  0  0  0  0  0  0  0
    4.7280   -4.8389    0.5117 C   0  0  0  0  0  0  0  0  0  0  0  0
    3.3125   -3.9234    0.1029 Cl  0  0  0  0  0  0  0  0  0  0  0  0
    7.1892   -2.7179   -0.7118 H   0  0  0  0  0  0  0  0  0  0  0  0
    5.7117   -2.1747    0.0748 H   0  0  0  0  0  0  0  0  0  0  0  0
    5.6348   -2.9924   -1.4890 H   0  0  0  0  0  0  0  0  0  0  0  0
    8.1530   -4.6842    0.2729 H   0  0  0  0  0  0  0  0  0  0  0  0
    7.7994   -9.0177    2.5448 H   0  0  0  0  0  0  0  0  0  0  0  0
    5.0411   -8.5738    2.4339 H   0  0  0  0  0  0  0  0  0  0  0  0
    1.7307   -9.6936    2.5757 H   0  0  0  0  0  0  0  0  0  0  0  0
   -0.5524  -10.5594    3.1908 H   0  0  0  0  0  0  0  0  0  0  0  0
   -2.1708   -6.8464    2.4858 H   0  0  0  0  0  0  0  0  0  0  0  0
    8.9089   -7.0564    1.4418 H   0  0  0  0  0  0  0  0  0  0  0  0
  1  2  1  0
  1 20  1  0
  1 21  1  0
  1 22  1  0
  2 18  1  0
  2  3  2  0
  3  4  1  0
  3 23  1  0
  4  8  1  0
  4  5  2  0
  5  6  1  0
  5 29  1  0
  6  7  2  0
  6 24  1  0
  7  8  1  0
  7 25  1  0
  8  9  1  0
  9 10  1  0
  9 18  2  0
 10 11  3  0
 11 12  1  0
 12 17  1  0
 12 13  2  0
 13 14  1  0
 13 26  1  0
 14 15  2  0
 14 27  1  0
 15 16  1  0
 16 17  2  0
 16 28  1  0
 18 19  1  0
M  CHG  1   5   1
M  END
>  <i_m_ct_stereo_status>  (84) 
1

>  <s_m_source_file>  (84) 
/var/tmp/pbs.5076255.sched01/tmppv1df_bs/0l6e7d74h.sdf

>  <i_m_source_file_index>  (84) 
31

>  <i_lp_mmshare_version>  (84) 
48012

>  <i_f3d_flags>  (84) 
0

>  <s_epik_input>  (84) 
bjFbY0hdW2NIXW4oYzEyKWMoYyhDbCljKFtDSDNdKVtjSF0yKUMjQ2MzW2NIXVtjSF1uW2NIXW4z

>  <s_epik_cmdline>  (84) 
J2VwaWtfcHl0aG9uJywgJy1waHQnLCAnMi4wJywgJy1waCcsICc3LjAnLCAnLXRuJywgJzgnLCAnLW1hJywgJzIwMCcsICctaW1hZScsICc8aW5maWxlLm1hZT4nLCAnLW9tYWUnLCAnPG91dGZpbGUubWFlPic=

>  <r_epik_Ionization_Penalty>  (84) 
2.45484

>  <r_epik_Ionization_Penalty_Charging>  (84) 
0

>  <r_epik_Ionization_Penalty_Neutral>  (84) 
2.45484

>  <r_epik_State_Penalty>  (84) 
2.6166

>  <r_epik_Charging_Adjusted_Penalty>  (84) 
2.6166

>  <i_epik_Tot_Q>  (84) 
1

>  <i_epik_Tot_abs_Q>  (84) 
1

>  <s_epik_Chemistry_Notes>  (84) 
This compound contains an electron-poor aromatic ring that is susceptible to covalent hydrolysis at low pH, typically resulting in measured values for nitrogen ring protonation that are around two units higher than predicted values.

>  <s_lp_Force_Field>  (84) 
OPLS3e

>  <r_lp_Energy>  (84) 
29.9679

>  <b_lp_Chiralities_Consistent>  (84) 
1

>  <s_lp_Variant>  (84) 
21:0-2

>  <s_i_glide_gridfile>  (84) 
pfpi4k_grid

>  <i_i_glide_lignum>  (84) 
31

>  <i_i_glide_rotatable_bonds>  (84) 
2

>  <r_i_docking_score>  (84) 
-3.93461

>  <r_i_glide_ligand_efficiency>  (84) 
-0.207085

>  <r_i_glide_ligand_efficiency_sa>  (84) 
-0.552585

>  <r_i_glide_ligand_efficiency_ln>  (84) 
-0.997508

>  <r_i_glide_gscore>  (84) 
-3.93461

>  <r_i_glide_lipo>  (84) 
-0.527172

>  <r_i_glide_hbond>  (84) 
-0.26906

>  <r_i_glide_metal>  (84) 
-0

>  <r_i_glide_rewards>  (84) 
-1.79653

>  <r_i_glide_evdw>  (84) 
-23.0947

>  <r_i_glide_ecoul>  (84) 
-3.66983

>  <r_i_glide_erotb>  (84) 
0.491407

>  <r_i_glide_esite>  (84) 
-0.128047

>  <r_i_glide_emodel>  (84) 
-35.7151

>  <r_i_glide_energy>  (84) 
-26.7646

>  <r_i_glide_einternal>  (84) 
1.34915

>  <r_i_glide_intrahb_reward>  (84) 
-0

>  <i_i_glide_confnum>  (84) 
2

>  <i_i_glide_posenum>  (84) 
39

>  <r_i_glide_eff_state_penalty>  (84) 
0

>  <ligand_id>  (84) 
21

>  <original_smiles>  (84) 
Cc1cc2nccn2c(C#Cc2ccncn2)c1Cl

>  <smiles>  (84) 
[H]c1nc([H])c([H])c(C#Cc2c(Cl)c(C([H])([H])[H])c([H])c3n2c([H])c([H])[n+]3[H])n1

$$$$
21:1:2
     RDKit          3D

 29 31  0  0  1  0  0  0  0  0999 V2000
    4.8812   -2.3411   -1.5591 C   0  0  0  0  0  0  0  0  0  0  0  0
    5.0518   -3.5503   -0.6507 C   0  0  0  0  0  0  0  0  0  0  0  0
    6.3191   -3.9423   -0.2607 C   0  0  0  0  0  0  0  0  0  0  0  0
    6.4014   -5.0555    0.5563 C   0  0  0  0  0  0  0  0  0  0  0  0
    7.5004   -5.6311    1.0509 N   0  0  0  0  0  0  0  0  0  0  0  0
    7.0957   -6.7234    1.8177 C   0  0  0  0  0  0  0  0  0  0  0  0
    5.7217   -6.8169    1.7897 C   0  0  0  0  0  0  0  0  0  0  0  0
    5.3588   -5.7515    0.9852 N   0  0  0  0  0  0  0  0  0  0  0  0
    4.0713   -5.3938    0.6250 C   0  0  0  0  0  0  0  0  0  0  0  0
    2.9271   -6.1668    1.1045 C   0  0  0  0  0  0  0  0  0  0  0  0
    1.9738   -6.8129    1.5124 C   0  0  0  0  0  0  0  0  0  0  0  0
    0.8581   -7.5967    2.0177 C   0  0  0  0  0  0  0  0  0  0  0  0
    1.0678   -8.9104    2.4820 C   0  0  0  0  0  0  0  0  0  0  0  0
   -0.0677   -9.6102    2.9294 C   0  0  0  0  0  0  0  0  0  0  0  0
   -1.2897   -9.0464    2.9111 N   0  0  0  0  0  0  0  0  0  0  0  0
   -1.3666   -7.7982    2.4764 C   0  0  0  0  0  0  0  0  0  0  0  0
   -0.3682   -7.0287    2.0349 N   0  0  0  0  0  0  0  0  0  0  0  0
    3.9148   -4.2868   -0.2026 C   0  0  0  0  0  0  0  0  0  0  0  0
    2.3382   -3.7916   -0.7191 Cl  0  0  0  0  0  0  0  0  0  0  0  0
    5.8394   -1.8962   -1.8205 H   0  0  0  0  0  0  0  0  0  0  0  0
    4.2812   -1.5722   -1.0701 H   0  0  0  0  0  0  0  0  0  0  0  0
    4.3817   -2.6184   -2.4887 H   0  0  0  0  0  0  0  0  0  0  0  0
    7.2209   -3.4336   -0.5834 H   0  0  0  0  0  0  0  0  0  0  0  0
    7.8395   -7.3348    2.3168 H   0  0  0  0  0  0  0  0  0  0  0  0
    5.0400   -7.5153    2.2532 H   0  0  0  0  0  0  0  0  0  0  0  0
    2.0376   -9.3827    2.4784 H   0  0  0  0  0  0  0  0  0  0  0  0
    0.0002  -10.6229    3.3037 H   0  0  0  0  0  0  0  0  0  0  0  0
   -2.3467   -7.3496    2.4836 H   0  0  0  0  0  0  0  0  0  0  0  0
    8.4591   -5.3405    0.9079 H   0  0  0  0  0  0  0  0  0  0  0  0
  1  2  1  0
  1 20  1  0
  1 21  1  0
  1 22  1  0
  2 18  1  0
  2  3  2  0
  3  4  1  0
  3 23  1  0
  4  8  1  0
  4  5  2  0
  5  6  1  0
  5 29  1  0
  6  7  2  0
  6 24  1  0
  7  8  1  0
  7 25  1  0
  8  9  1  0
  9 10  1  0
  9 18  2  0
 10 11  3  0
 11 12  1  0
 12 17  1  0
 12 13  2  0
 13 14  1  0
 13 26  1  0
 14 15  2  0
 14 27  1  0
 15 16  1  0
 16 17  2  0
 16 28  1  0
 18 19  1  0
M  CHG  1   5   1
M  END
>  <i_m_ct_stereo_status>  (85) 
1

>  <s_m_source_file>  (85) 
/var/tmp/pbs.5076255.sched01/tmppv1df_bs/0l6e7d74h.sdf

>  <i_m_source_file_index>  (85) 
31

>  <i_lp_mmshare_version>  (85) 
48012

>  <i_f3d_flags>  (85) 
0

>  <s_epik_input>  (85) 
bjFbY0hdW2NIXW4oYzEyKWMoYyhDbCljKFtDSDNdKVtjSF0yKUMjQ2MzW2NIXVtjSF1uW2NIXW4z

>  <s_epik_cmdline>  (85) 
J2VwaWtfcHl0aG9uJywgJy1waHQnLCAnMi4wJywgJy1waCcsICc3LjAnLCAnLXRuJywgJzgnLCAnLW1hJywgJzIwMCcsICctaW1hZScsICc8aW5maWxlLm1hZT4nLCAnLW9tYWUnLCAnPG91dGZpbGUubWFlPic=

>  <r_epik_Ionization_Penalty>  (85) 
2.45484

>  <r_epik_Ionization_Penalty_Charging>  (85) 
0

>  <r_epik_Ionization_Penalty_Neutral>  (85) 
2.45484

>  <r_epik_State_Penalty>  (85) 
2.6166

>  <r_epik_Charging_Adjusted_Penalty>  (85) 
2.6166

>  <i_epik_Tot_Q>  (85) 
1

>  <i_epik_Tot_abs_Q>  (85) 
1

>  <s_epik_Chemistry_Notes>  (85) 
This compound contains an electron-poor aromatic ring that is susceptible to covalent hydrolysis at low pH, typically resulting in measured values for nitrogen ring protonation that are around two units higher than predicted values.

>  <s_lp_Force_Field>  (85) 
OPLS3e

>  <r_lp_Energy>  (85) 
29.9679

>  <b_lp_Chiralities_Consistent>  (85) 
1

>  <s_lp_Variant>  (85) 
21:0-2

>  <s_i_glide_gridfile>  (85) 
pfpi4k_grid

>  <i_i_glide_lignum>  (85) 
31

>  <i_i_glide_rotatable_bonds>  (85) 
2

>  <r_i_docking_score>  (85) 
-3.50545

>  <r_i_glide_ligand_efficiency>  (85) 
-0.184497

>  <r_i_glide_ligand_efficiency_sa>  (85) 
-0.492312

>  <r_i_glide_ligand_efficiency_ln>  (85) 
-0.888706

>  <r_i_glide_gscore>  (85) 
-3.50545

>  <r_i_glide_lipo>  (85) 
-0.280526

>  <r_i_glide_hbond>  (85) 
-0.103207

>  <r_i_glide_metal>  (85) 
-0

>  <r_i_glide_rewards>  (85) 
-1.84776

>  <r_i_glide_evdw>  (85) 
-24.2464

>  <r_i_glide_ecoul>  (85) 
-3.35614

>  <r_i_glide_erotb>  (85) 
0.491407

>  <r_i_glide_esite>  (85) 
-0.0496234

>  <r_i_glide_emodel>  (85) 
-35.4789

>  <r_i_glide_energy>  (85) 
-27.6025

>  <r_i_glide_einternal>  (85) 
1.39853

>  <r_i_glide_intrahb_reward>  (85) 
-0

>  <i_i_glide_confnum>  (85) 
1

>  <i_i_glide_posenum>  (85) 
37

>  <r_i_glide_eff_state_penalty>  (85) 
0

>  <ligand_id>  (85) 
21

>  <original_smiles>  (85) 
Cc1cc2nccn2c(C#Cc2ccncn2)c1Cl

>  <smiles>  (85) 
[H]c1nc([H])c([H])c(C#Cc2c(Cl)c(C([H])([H])[H])c([H])c3n2c([H])c([H])[n+]3[H])n1

$$$$
22:0:0
     RDKit          3D

 82 86  0  0  1  0  0  0  0  0999 V2000
   -0.4827   -9.6359    2.7158 C   0  0  0  0  0  0  0  0  0  0  0  0
   -0.4506   -8.4865    3.7450 C   0  0  0  0  0  0  0  0  0  0  0  0
   -0.6422   -7.1059    3.0921 C   0  0  0  0  0  0  0  0  0  0  0  0
   -1.6609   -8.6440    4.4314 O   0  0  0  0  0  0  0  0  0  0  0  0
    0.7379   -8.6186    4.7733 C   0  0  2  0  0  0  0  0  0  0  0  0
    0.4769   -7.7802    6.0659 C   0  0  1  0  0  0  0  0  0  0  0  0
    0.6888   -8.5845    7.2258 O   0  0  0  0  0  0  0  0  0  0  0  0
    1.3764   -6.5322    6.0061 C   0  0  1  0  0  0  0  0  0  0  0  0
    2.1812   -6.3757    7.1604 O   0  0  0  0  0  0  0  0  0  0  0  0
    2.2417   -6.7082    4.7674 C   0  0  0  0  0  0  0  0  0  0  0  0
    2.8218   -5.7206    4.0533 C   0  0  0  0  0  0  0  0  0  0  0  0
    2.6716   -4.2410    4.4194 C   0  0  0  0  0  0  0  0  0  0  0  0
    3.9867   -3.4418    4.3209 C   0  0  0  0  0  0  0  0  0  0  0  0
    4.8174   -3.7021    3.0347 C   0  0  1  0  0  0  0  0  0  0  0  0
    5.0563   -5.2454    2.8738 C   0  0  2  0  0  0  0  0  0  0  0  0
    5.8495   -5.7947    4.1086 C   0  0  0  0  0  0  0  0  0  0  0  0
    6.0082   -5.4924    1.6653 C   0  0  0  0  0  0  0  0  0  0  0  0
    6.0571   -4.4158    0.5855 C   0  0  0  0  0  0  0  0  0  0  0  0
    4.7215   -3.6640    0.3917 C   0  0  2  0  0  0  0  0  0  0  0  0
    4.6740   -2.8304   -0.9574 C   0  0  0  0  0  0  0  0  0  0  0  0
    5.2742   -3.6246   -2.1497 C   0  0  0  0  0  0  0  0  0  0  0  0
    3.2151   -2.5145   -1.3869 C   0  0  0  0  0  0  0  0  0  0  0  0
    5.4994   -1.5262   -0.7847 C   0  0  1  0  0  0  0  0  0  0  0  0
    5.4008   -0.6901   -1.9165 O   0  0  0  0  0  0  0  0  0  0  0  0
    5.1316   -0.7082    0.4575 C   0  0  0  0  0  0  0  0  0  0  0  0
    5.2435   -1.5516    1.7306 C   0  0  0  0  0  0  0  0  0  0  0  0
    4.4025   -2.8705    1.7244 C   0  0  2  0  0  0  0  0  0  0  0  0
    2.9034   -2.4742    1.7643 C   0  0  0  0  0  0  0  0  0  0  0  0
    3.6691   -5.9823    2.7952 C   0  0  1  0  0  0  0  0  0  0  0  0
    3.8020   -7.4976    2.4587 C   0  0  0  0  0  0  0  0  0  0  0  0
    2.5697   -8.3131    2.8482 C   0  0  1  0  0  0  0  0  0  0  0  0
    2.7744   -9.6696    2.5053 O   0  0  0  0  0  0  0  0  0  0  0  0
    2.1950   -8.1708    4.3493 C   0  0  2  0  0  0  0  0  0  0  0  0
    3.2400   -8.9352    5.2125 C   0  0  0  0  0  0  0  0  0  0  0  0
    0.3249   -9.5664    1.9894 H   0  0  0  0  0  0  0  0  0  0  0  0
   -1.4010   -9.6227    2.1210 H   0  0  0  0  0  0  0  0  0  0  0  0
   -0.4114  -10.6161    3.1872 H   0  0  0  0  0  0  0  0  0  0  0  0
    0.1227   -6.8348    2.3682 H   0  0  0  0  0  0  0  0  0  0  0  0
   -0.6703   -6.3204    3.8423 H   0  0  0  0  0  0  0  0  0  0  0  0
   -1.5829   -7.0795    2.5501 H   0  0  0  0  0  0  0  0  0  0  0  0
   -1.7921   -9.5765    4.6895 H   0  0  0  0  0  0  0  0  0  0  0  0
    0.7792   -9.6769    5.0507 H   0  0  0  0  0  0  0  0  0  0  0  0
   -0.5501   -7.4234    6.1247 H   0  0  0  0  0  0  0  0  0  0  0  0
    0.4692   -9.4825    7.0172 H   0  0  0  0  0  0  0  0  0  0  0  0
    0.7500   -5.6454    5.9099 H   0  0  0  0  0  0  0  0  0  0  0  0
    2.6283   -7.1915    7.3123 H   0  0  0  0  0  0  0  0  0  0  0  0
    1.9037   -3.8261    3.7745 H   0  0  0  0  0  0  0  0  0  0  0  0
    2.2783   -4.1222    5.4301 H   0  0  0  0  0  0  0  0  0  0  0  0
    3.8068   -2.3748    4.4654 H   0  0  0  0  0  0  0  0  0  0  0  0
    4.5885   -3.7145    5.1898 H   0  0  0  0  0  0  0  0  0  0  0  0
    5.8032   -3.3304    3.2924 H   0  0  0  0  0  0  0  0  0  0  0  0
    6.2288   -6.7974    3.9262 H   0  0  0  0  0  0  0  0  0  0  0  0
    5.2552   -5.8498    5.0185 H   0  0  0  0  0  0  0  0  0  0  0  0
    6.7148   -5.1766    4.3275 H   0  0  0  0  0  0  0  0  0  0  0  0
    7.0468   -5.5932    2.0201 H   0  0  0  0  0  0  0  0  0  0  0  0
    5.8023   -6.4482    1.1954 H   0  0  0  0  0  0  0  0  0  0  0  0
    6.8507   -3.7051    0.8150 H   0  0  0  0  0  0  0  0  0  0  0  0
    6.3803   -4.9367   -0.3123 H   0  0  0  0  0  0  0  0  0  0  0  0
    3.9724   -4.4463    0.2717 H   0  0  0  0  0  0  0  0  0  0  0  0
    5.0754   -3.1494   -3.1105 H   0  0  0  0  0  0  0  0  0  0  0  0
    4.8673   -4.6360   -2.1948 H   0  0  0  0  0  0  0  0  0  0  0  0
    6.3578   -3.6953   -2.0839 H   0  0  0  0  0  0  0  0  0  0  0  0
    3.0774   -2.4913   -2.4687 H   0  0  0  0  0  0  0  0  0  0  0  0
    2.9146   -1.5304   -1.0537 H   0  0  0  0  0  0  0  0  0  0  0  0
    2.5004   -3.2410   -0.9979 H   0  0  0  0  0  0  0  0  0  0  0  0
    6.5516   -1.7983   -0.7059 H   0  0  0  0  0  0  0  0  0  0  0  0
    4.4914   -0.4126   -1.9953 H   0  0  0  0  0  0  0  0  0  0  0  0
    5.8145    0.1359    0.5305 H   0  0  0  0  0  0  0  0  0  0  0  0
    4.1389   -0.2650    0.3659 H   0  0  0  0  0  0  0  0  0  0  0  0
    6.3017   -1.7840    1.8572 H   0  0  0  0  0  0  0  0  0  0  0  0
    4.9757   -0.9405    2.5950 H   0  0  0  0  0  0  0  0  0  0  0  0
    2.6254   -1.7478    1.0099 H   0  0  0  0  0  0  0  0  0  0  0  0
    2.6223   -1.9735    2.6873 H   0  0  0  0  0  0  0  0  0  0  0  0
    2.2507   -3.3353    1.6216 H   0  0  0  0  0  0  0  0  0  0  0  0
    3.0876   -5.5437    1.9882 H   0  0  0  0  0  0  0  0  0  0  0  0
    3.9445   -7.6093    1.3838 H   0  0  0  0  0  0  0  0  0  0  0  0
    4.6781   -7.9399    2.9219 H   0  0  0  0  0  0  0  0  0  0  0  0
    1.7903   -7.9552    2.1843 H   0  0  0  0  0  0  0  0  0  0  0  0
    1.9601  -10.1358    2.6175 H   0  0  0  0  0  0  0  0  0  0  0  0
    3.2400  -10.0005    4.9960 H   0  0  0  0  0  0  0  0  0  0  0  0
    3.0675   -8.8349    6.2801 H   0  0  0  0  0  0  0  0  0  0  0  0
    4.2530   -8.5611    5.0326 H   0  0  0  0  0  0  0  0  0  0  0  0
  1  2  1  0
  1 35  1  0
  1 36  1  0
  1 37  1  0
  2  3  1  0
  2  4  1  0
  2  5  1  0
  3 38  1  0
  3 39  1  0
  3 40  1  0
  4 41  1  0
  5 33  1  0
  5  6  1  0
  5 42  1  1
  6  7  1  0
  6  8  1  0
  6 43  1  6
  7 44  1  0
  8  9  1  0
  8 10  1  0
  8 45  1  6
  9 46  1  0
 10 33  1  0
 10 11  2  0
 11 29  1  0
 11 12  1  0
 12 13  1  0
 12 47  1  0
 12 48  1  0
 13 14  1  0
 13 49  1  0
 13 50  1  0
 14 27  1  0
 14 15  1  0
 14 51  1  1
 15 16  1  1
 15 17  1  0
 15 29  1  0
 16 52  1  0
 16 53  1  0
 16 54  1  0
 17 18  1  0
 17 55  1  0
 17 56  1  0
 18 19  1  0
 18 57  1  0
 18 58  1  0
 19 27  1  0
 19 20  1  0
 19 59  1  6
 20 21  1  0
 20 22  1  0
 20 23  1  0
 21 60  1  0
 21 61  1  0
 21 62  1  0
 22 63  1  0
 22 64  1  0
 22 65  1  0
 23 24  1  0
 23 25  1  0
 23 66  1  1
 24 67  1  0
 25 26  1  0
 25 68  1  0
 25 69  1  0
 26 27  1  0
 26 70  1  0
 26 71  1  0
 27 28  1  1
 28 72  1  0
 28 73  1  0
 28 74  1  0
 29 30  1  0
 29 75  1  6
 30 31  1  0
 30 76  1  0
 30 77  1  0
 31 32  1  0
 31 33  1  0
 31 78  1  6
 32 79  1  0
 33 34  1  1
 34 80  1  0
 34 81  1  0
 34 82  1  0
M  END
>  <i_m_ct_stereo_status>  (86) 
1

>  <s_m_source_file>  (86) 
/var/tmp/pbs.5076255.sched01/tmppv1df_bs/0l6e7d74h.sdf

>  <i_m_source_file_index>  (86) 
32

>  <i_lp_mmshare_version>  (86) 
48012

>  <i_f3d_flags>  (86) 
0

>  <s_epik_input>  (86) 
W09IXVtDQEBIXTFbQ0BIXShbT0hdKVtDQEBIXShDKFtDSDNdKShbQ0gzXSlbT0hdKVtDQEBdKFtDSDNdKShbQ0BIXShbT0hdKVtDSDJdW0NAQEhdMjMpQzE9QzJbQ0gyXVtDSDJdW0NAQEhdKFtDQEBdMzRbQ0gzXSlbQ0BdNShbQ0gzXSlbQ0BIXShbQ0gyXVtDSDJdNClDKFtDSDNdKShbQ0gzXSlbQ0BASF0oW09IXSlbQ0gyXVtDSDJdNQ==

>  <s_epik_cmdline>  (86) 
J2VwaWtfcHl0aG9uJywgJy1waHQnLCAnMi4wJywgJy1waCcsICc3LjAnLCAnLXRuJywgJzgnLCAnLW1hJywgJzIwMCcsICctaW1hZScsICc8aW5maWxlLm1hZT4nLCAnLW9tYWUnLCAnPG91dGZpbGUubWFlPic=

>  <r_lp_tautomer_probability>  (86) 
1

>  <r_epik_Ionization_Penalty>  (86) 
4.25898e-06

>  <r_epik_Ionization_Penalty_Charging>  (86) 
0

>  <r_epik_Ionization_Penalty_Neutral>  (86) 
4.25898e-06

>  <r_epik_State_Penalty>  (86) 
-0

>  <r_epik_Charging_Adjusted_Penalty>  (86) 
0

>  <i_epik_Tot_Q>  (86) 
0

>  <i_epik_Tot_abs_Q>  (86) 
0

>  <s_lp_Force_Field>  (86) 
OPLS3e

>  <r_lp_Energy>  (86) 
85.1941

>  <b_lp_Chiralities_Consistent>  (86) 
1

>  <s_lp_Variant>  (86) 
22:0-1

>  <s_i_glide_gridfile>  (86) 
pfpi4k_grid

>  <i_i_glide_lignum>  (86) 
32

>  <i_i_glide_rotatable_bonds>  (86) 
6

>  <r_i_docking_score>  (86) 
-3.66114

>  <r_i_glide_ligand_efficiency>  (86) 
-0.107681

>  <r_i_glide_ligand_efficiency_sa>  (86) 
-0.348843

>  <r_i_glide_ligand_efficiency_ln>  (86) 
-0.808848

>  <r_i_glide_gscore>  (86) 
-3.66114

>  <r_i_glide_lipo>  (86) 
-0.569848

>  <r_i_glide_hbond>  (86) 
-0.165414

>  <r_i_glide_metal>  (86) 
-0

>  <r_i_glide_rewards>  (86) 
-0.158943

>  <r_i_glide_evdw>  (86) 
-29.7033

>  <r_i_glide_ecoul>  (86) 
-9.13928

>  <r_i_glide_erotb>  (86) 
0.0891231

>  <r_i_glide_esite>  (86) 
0

>  <r_i_glide_emodel>  (86) 
-46.2893

>  <r_i_glide_energy>  (86) 
-38.8426

>  <r_i_glide_einternal>  (86) 
3.28081

>  <r_i_glide_intrahb_reward>  (86) 
-0

>  <i_i_glide_confnum>  (86) 
3

>  <i_i_glide_posenum>  (86) 
27

>  <r_i_glide_eff_state_penalty>  (86) 
0

>  <ligand_id>  (86) 
22

>  <original_smiles>  (86) 
CC(C)(O)C1C(O)C(O)C2=C3CCC4C(C)(CCC5C(C)(C)C(O)CCC54C)C3CC(O)C21C

>  <smiles>  (86) 
[H]OC1([H])C2=C3C([H])([H])C([H])([H])C4([H])C(C([H])([H])[H])(C([H])([H])C([H])([H])C5([H])C(C([H])([H])[H])(C([H])([H])[H])C([H])(O[H])C([H])([H])C([H])([H])C54C([H])([H])[H])C3([H])C([H])([H])C([H])(O[H])C2(C([H])([H])[H])C([H])(C(O[H])(C([H])([H])[H])C([H])([H])[H])C1([H])O[H]

$$$$
22:0:1
     RDKit          3D

 82 86  0  0  1  0  0  0  0  0999 V2000
   -0.4886   -7.3000    2.7561 C   0  0  0  0  0  0  0  0  0  0  0  0
    0.3543   -8.5862    2.9102 C   0  0  0  0  0  0  0  0  0  0  0  0
   -0.5550   -9.8079    2.6825 C   0  0  0  0  0  0  0  0  0  0  0  0
    1.2502   -8.6614    1.8192 O   0  0  0  0  0  0  0  0  0  0  0  0
    1.1515   -8.7022    4.2669 C   0  0  2  0  0  0  0  0  0  0  0  0
    0.1969   -8.6949    5.4975 C   0  0  1  0  0  0  0  0  0  0  0  0
    0.4338   -9.7886    6.3753 O   0  0  0  0  0  0  0  0  0  0  0  0
    0.3529   -7.3189    6.1859 C   0  0  1  0  0  0  0  0  0  0  0  0
    0.6583   -7.4369    7.5627 O   0  0  0  0  0  0  0  0  0  0  0  0
    1.4654   -6.6036    5.4552 C   0  0  0  0  0  0  0  0  0  0  0  0
    1.6504   -5.2623    5.3915 C   0  0  0  0  0  0  0  0  0  0  0  0
    0.7135   -4.2778    6.0865 C   0  0  0  0  0  0  0  0  0  0  0  0
    1.4433   -3.1196    6.8006 C   0  0  0  0  0  0  0  0  0  0  0  0
    2.5805   -2.4583    5.9734 C   0  0  1  0  0  0  0  0  0  0  0  0
    3.5760   -3.5620    5.4815 C   0  0  2  0  0  0  0  0  0  0  0  0
    4.2003   -4.3060    6.7018 C   0  0  0  0  0  0  0  0  0  0  0  0
    4.7937   -2.8858    4.7780 C   0  0  0  0  0  0  0  0  0  0  0  0
    4.5708   -1.4845    4.2011 C   0  0  0  0  0  0  0  0  0  0  0  0
    3.1290   -1.2487    3.6921 C   0  0  2  0  0  0  0  0  0  0  0  0
    3.0033    0.0435    2.7743 C   0  0  0  0  0  0  0  0  0  0  0  0
    4.1799    0.1298    1.7660 C   0  0  0  0  0  0  0  0  0  0  0  0
    1.7275    0.0052    1.8907 C   0  0  0  0  0  0  0  0  0  0  0  0
    3.0253    1.3173    3.6682 C   0  0  1  0  0  0  0  0  0  0  0  0
    2.7952    2.4846    2.9122 O   0  0  0  0  0  0  0  0  0  0  0  0
    2.0064    1.2869    4.8100 C   0  0  0  0  0  0  0  0  0  0  0  0
    2.1960    0.0442    5.6913 C   0  0  0  0  0  0  0  0  0  0  0  0
    2.1457   -1.3182    4.9330 C   0  0  2  0  0  0  0  0  0  0  0  0
    0.6875   -1.5353    4.4433 C   0  0  0  0  0  0  0  0  0  0  0  0
    2.7925   -4.6067    4.5956 C   0  0  1  0  0  0  0  0  0  0  0  0
    3.7129   -5.6468    3.9013 C   0  0  0  0  0  0  0  0  0  0  0  0
    2.9664   -6.9091    3.4601 C   0  0  1  0  0  0  0  0  0  0  0  0
    3.8596   -7.7955    2.8197 O   0  0  0  0  0  0  0  0  0  0  0  0
    2.2459   -7.6263    4.6411 C   0  0  2  0  0  0  0  0  0  0  0  0
    3.2974   -8.2755    5.5827 C   0  0  0  0  0  0  0  0  0  0  0  0
   -1.2917   -7.2538    3.4909 H   0  0  0  0  0  0  0  0  0  0  0  0
   -0.9615   -7.2649    1.7739 H   0  0  0  0  0  0  0  0  0  0  0  0
    0.0997   -6.3921    2.8636 H   0  0  0  0  0  0  0  0  0  0  0  0
   -1.3916   -9.8442    3.3746 H   0  0  0  0  0  0  0  0  0  0  0  0
   -0.0004  -10.7401    2.7965 H   0  0  0  0  0  0  0  0  0  0  0  0
   -1.0004   -9.8091    1.6861 H   0  0  0  0  0  0  0  0  0  0  0  0
    0.7825   -9.0414    1.0775 H   0  0  0  0  0  0  0  0  0  0  0  0
    1.6560   -9.6714    4.2018 H   0  0  0  0  0  0  0  0  0  0  0  0
   -0.8408   -8.8065    5.1959 H   0  0  0  0  0  0  0  0  0  0  0  0
    1.3533  -10.0205    6.3685 H   0  0  0  0  0  0  0  0  0  0  0  0
   -0.5723   -6.7505    6.0771 H   0  0  0  0  0  0  0  0  0  0  0  0
    1.3440   -8.0854    7.6510 H   0  0  0  0  0  0  0  0  0  0  0  0
    0.0302   -3.9142    5.3270 H   0  0  0  0  0  0  0  0  0  0  0  0
    0.0830   -4.7800    6.8163 H   0  0  0  0  0  0  0  0  0  0  0  0
    0.7317   -2.3769    7.1594 H   0  0  0  0  0  0  0  0  0  0  0  0
    1.8646   -3.5298    7.7175 H   0  0  0  0  0  0  0  0  0  0  0  0
    3.1641   -1.9302    6.7293 H   0  0  0  0  0  0  0  0  0  0  0  0
    5.0539   -4.9149    6.4055 H   0  0  0  0  0  0  0  0  0  0  0  0
    3.5074   -4.9739    7.2129 H   0  0  0  0  0  0  0  0  0  0  0  0
    4.5712   -3.5965    7.4438 H   0  0  0  0  0  0  0  0  0  0  0  0
    5.6192   -2.7798    5.4909 H   0  0  0  0  0  0  0  0  0  0  0  0
    5.1919   -3.5260    3.9978 H   0  0  0  0  0  0  0  0  0  0  0  0
    4.8293   -0.7365    4.9482 H   0  0  0  0  0  0  0  0  0  0  0  0
    5.3156   -1.3932    3.4147 H   0  0  0  0  0  0  0  0  0  0  0  0
    2.9071   -2.0888    3.0342 H   0  0  0  0  0  0  0  0  0  0  0  0
    4.0209    0.8896    1.0020 H   0  0  0  0  0  0  0  0  0  0  0  0
    4.3211   -0.8250    1.2484 H   0  0  0  0  0  0  0  0  0  0  0  0
    5.1121    0.3847    2.2638 H   0  0  0  0  0  0  0  0  0  0  0  0
    1.8798    0.4777    0.9194 H   0  0  0  0  0  0  0  0  0  0  0  0
    0.8891    0.5474    2.3220 H   0  0  0  0  0  0  0  0  0  0  0  0
    1.4142   -1.0162    1.6819 H   0  0  0  0  0  0  0  0  0  0  0  0
    4.0159    1.4280    4.1109 H   0  0  0  0  0  0  0  0  0  0  0  0
    3.5993    2.6936    2.4506 H   0  0  0  0  0  0  0  0  0  0  0  0
    2.1387    2.1791    5.4204 H   0  0  0  0  0  0  0  0  0  0  0  0
    0.9904    1.3462    4.4265 H   0  0  0  0  0  0  0  0  0  0  0  0
    3.1630    0.1616    6.1826 H   0  0  0  0  0  0  0  0  0  0  0  0
    1.4596    0.0560    6.4953 H   0  0  0  0  0  0  0  0  0  0  0  0
    0.2908   -0.6887    3.9009 H   0  0  0  0  0  0  0  0  0  0  0  0
   -0.0192   -1.6464    5.2614 H   0  0  0  0  0  0  0  0  0  0  0  0
    0.6029   -2.3991    3.7868 H   0  0  0  0  0  0  0  0  0  0  0  0
    2.2825   -4.0793    3.7946 H   0  0  0  0  0  0  0  0  0  0  0  0
    4.1648   -5.1977    3.0165 H   0  0  0  0  0  0  0  0  0  0  0  0
    4.5433   -5.9393    4.5381 H   0  0  0  0  0  0  0  0  0  0  0  0
    2.2534   -6.5784    2.7118 H   0  0  0  0  0  0  0  0  0  0  0  0
    3.3458   -8.5179    2.4770 H   0  0  0  0  0  0  0  0  0  0  0  0
    3.8693   -9.0518    5.0729 H   0  0  0  0  0  0  0  0  0  0  0  0
    2.8410   -8.7446    6.4513 H   0  0  0  0  0  0  0  0  0  0  0  0
    4.0005   -7.5400    5.9693 H   0  0  0  0  0  0  0  0  0  0  0  0
  1  2  1  0
  1 35  1  0
  1 36  1  0
  1 37  1  0
  2  3  1  0
  2  4  1  0
  2  5  1  0
  3 38  1  0
  3 39  1  0
  3 40  1  0
  4 41  1  0
  5 33  1  0
  5  6  1  0
  5 42  1  6
  6  7  1  0
  6  8  1  0
  6 43  1  6
  7 44  1  0
  8  9  1  0
  8 10  1  0
  8 45  1  1
  9 46  1  0
 10 33  1  0
 10 11  2  0
 11 29  1  0
 11 12  1  0
 12 13  1  0
 12 47  1  0
 12 48  1  0
 13 14  1  0
 13 49  1  0
 13 50  1  0
 14 27  1  0
 14 15  1  0
 14 51  1  1
 15 16  1  1
 15 17  1  0
 15 29  1  0
 16 52  1  0
 16 53  1  0
 16 54  1  0
 17 18  1  0
 17 55  1  0
 17 56  1  0
 18 19  1  0
 18 57  1  0
 18 58  1  0
 19 27  1  0
 19 20  1  0
 19 59  1  6
 20 21  1  0
 20 22  1  0
 20 23  1  0
 21 60  1  0
 21 61  1  0
 21 62  1  0
 22 63  1  0
 22 64  1  0
 22 65  1  0
 23 24  1  0
 23 25  1  0
 23 66  1  1
 24 67  1  0
 25 26  1  0
 25 68  1  0
 25 69  1  0
 26 27  1  0
 26 70  1  0
 26 71  1  0
 27 28  1  6
 28 72  1  0
 28 73  1  0
 28 74  1  0
 29 30  1  0
 29 75  1  6
 30 31  1  0
 30 76  1  0
 30 77  1  0
 31 32  1  0
 31 33  1  0
 31 78  1  6
 32 79  1  0
 33 34  1  1
 34 80  1  0
 34 81  1  0
 34 82  1  0
M  END
>  <i_m_ct_stereo_status>  (87) 
1

>  <s_m_source_file>  (87) 
/var/tmp/pbs.5076255.sched01/tmppv1df_bs/0l6e7d74h.sdf

>  <i_m_source_file_index>  (87) 
32

>  <i_lp_mmshare_version>  (87) 
48012

>  <i_f3d_flags>  (87) 
0

>  <s_epik_input>  (87) 
W09IXVtDQEBIXTFbQ0BIXShbT0hdKVtDQEBIXShDKFtDSDNdKShbQ0gzXSlbT0hdKVtDQEBdKFtDSDNdKShbQ0BIXShbT0hdKVtDSDJdW0NAQEhdMjMpQzE9QzJbQ0gyXVtDSDJdW0NAQEhdKFtDQEBdMzRbQ0gzXSlbQ0BdNShbQ0gzXSlbQ0BIXShbQ0gyXVtDSDJdNClDKFtDSDNdKShbQ0gzXSlbQ0BASF0oW09IXSlbQ0gyXVtDSDJdNQ==

>  <s_epik_cmdline>  (87) 
J2VwaWtfcHl0aG9uJywgJy1waHQnLCAnMi4wJywgJy1waCcsICc3LjAnLCAnLXRuJywgJzgnLCAnLW1hJywgJzIwMCcsICctaW1hZScsICc8aW5maWxlLm1hZT4nLCAnLW9tYWUnLCAnPG91dGZpbGUubWFlPic=

>  <r_lp_tautomer_probability>  (87) 
1

>  <r_epik_Ionization_Penalty>  (87) 
4.25898e-06

>  <r_epik_Ionization_Penalty_Charging>  (87) 
0

>  <r_epik_Ionization_Penalty_Neutral>  (87) 
4.25898e-06

>  <r_epik_State_Penalty>  (87) 
-0

>  <r_epik_Charging_Adjusted_Penalty>  (87) 
0

>  <i_epik_Tot_Q>  (87) 
0

>  <i_epik_Tot_abs_Q>  (87) 
0

>  <s_lp_Force_Field>  (87) 
OPLS3e

>  <r_lp_Energy>  (87) 
85.1941

>  <b_lp_Chiralities_Consistent>  (87) 
1

>  <s_lp_Variant>  (87) 
22:0-1

>  <s_i_glide_gridfile>  (87) 
pfpi4k_grid

>  <i_i_glide_lignum>  (87) 
32

>  <i_i_glide_rotatable_bonds>  (87) 
6

>  <r_i_docking_score>  (87) 
-3.29899

>  <r_i_glide_ligand_efficiency>  (87) 
-0.0970292

>  <r_i_glide_ligand_efficiency_sa>  (87) 
-0.314337

>  <r_i_glide_ligand_efficiency_ln>  (87) 
-0.72884

>  <r_i_glide_gscore>  (87) 
-3.29899

>  <r_i_glide_lipo>  (87) 
-0.0925868

>  <r_i_glide_hbond>  (87) 
-0.304

>  <r_i_glide_metal>  (87) 
-0

>  <r_i_glide_rewards>  (87) 
-0.658943

>  <r_i_glide_evdw>  (87) 
-24.4562

>  <r_i_glide_ecoul>  (87) 
-7.39851

>  <r_i_glide_erotb>  (87) 
0.0891231

>  <r_i_glide_esite>  (87) 
0

>  <r_i_glide_emodel>  (87) 
-44.2003

>  <r_i_glide_energy>  (87) 
-31.8547

>  <r_i_glide_einternal>  (87) 
1.80337

>  <r_i_glide_intrahb_reward>  (87) 
-0.5

>  <i_i_glide_confnum>  (87) 
1

>  <i_i_glide_posenum>  (87) 
6

>  <r_i_glide_eff_state_penalty>  (87) 
0

>  <ligand_id>  (87) 
22

>  <original_smiles>  (87) 
CC(C)(O)C1C(O)C(O)C2=C3CCC4C(C)(CCC5C(C)(C)C(O)CCC54C)C3CC(O)C21C

>  <smiles>  (87) 
[H]OC1([H])C2=C3C([H])([H])C([H])([H])C4([H])C(C([H])([H])[H])(C([H])([H])C([H])([H])C5([H])C(C([H])([H])[H])(C([H])([H])[H])C([H])(O[H])C([H])([H])C([H])([H])C54C([H])([H])[H])C3([H])C([H])([H])C([H])(O[H])C2(C([H])([H])[H])C([H])(C(O[H])(C([H])([H])[H])C([H])([H])[H])C1([H])O[H]

$$$$
22:0:2
     RDKit          3D

 82 86  0  0  1  0  0  0  0  0999 V2000
   -0.6104   -7.4903    4.0976 C   0  0  0  0  0  0  0  0  0  0  0  0
   -0.2901   -8.3399    2.8453 C   0  0  0  0  0  0  0  0  0  0  0  0
   -1.5510   -9.1478    2.4758 C   0  0  0  0  0  0  0  0  0  0  0  0
   -0.1471   -7.4864    1.7271 O   0  0  0  0  0  0  0  0  0  0  0  0
    0.9872   -9.2623    2.9656 C   0  0  2  0  0  0  0  0  0  0  0  0
    0.8133  -10.3374    4.0713 C   0  0  1  0  0  0  0  0  0  0  0  0
    1.0466  -11.6348    3.5506 O   0  0  0  0  0  0  0  0  0  0  0  0
    1.7178   -9.9439    5.2592 C   0  0  1  0  0  0  0  0  0  0  0  0
    2.6029  -10.9834    5.6575 O   0  0  0  0  0  0  0  0  0  0  0  0
    2.4845   -8.7188    4.8018 C   0  0  0  0  0  0  0  0  0  0  0  0
    3.0179   -7.7618    5.6018 C   0  0  0  0  0  0  0  0  0  0  0  0
    2.8964   -7.8097    7.1226 C   0  0  0  0  0  0  0  0  0  0  0  0
    4.2007   -7.4399    7.8629 C   0  0  0  0  0  0  0  0  0  0  0  0
    4.9304   -6.1844    7.3089 C   0  0  1  0  0  0  0  0  0  0  0  0
    5.1582   -6.3548    5.7701 C   0  0  2  0  0  0  0  0  0  0  0  0
    6.0275   -7.6188    5.4873 C   0  0  0  0  0  0  0  0  0  0  0  0
    6.0212   -5.1687    5.2448 C   0  0  0  0  0  0  0  0  0  0  0  0
    5.9892   -3.8714    6.0601 C   0  0  0  0  0  0  0  0  0  0  0  0
    4.6458   -3.6140    6.7731 C   0  0  2  0  0  0  0  0  0  0  0  0
    4.5053   -2.1174    7.2975 C   0  0  0  0  0  0  0  0  0  0  0  0
    5.0122   -1.0981    6.2408 C   0  0  0  0  0  0  0  0  0  0  0  0
    3.0175   -1.7350    7.5424 C   0  0  0  0  0  0  0  0  0  0  0  0
    5.3567   -1.9308    8.5863 C   0  0  1  0  0  0  0  0  0  0  0  0
    5.1723   -0.6459    9.1512 O   0  0  0  0  0  0  0  0  0  0  0  0
    5.0707   -2.9902    9.6600 C   0  0  0  0  0  0  0  0  0  0  0  0
    5.2646   -4.4159    9.1158 C   0  0  0  0  0  0  0  0  0  0  0  0
    4.4279   -4.7580    7.8438 C   0  0  2  0  0  0  0  0  0  0  0  0
    2.9333   -4.8182    8.2582 C   0  0  0  0  0  0  0  0  0  0  0  0
    3.7642   -6.5314    5.0577 C   0  0  1  0  0  0  0  0  0  0  0  0
    3.8521   -6.5241    3.5064 C   0  0  0  0  0  0  0  0  0  0  0  0
    2.6383   -7.1633    2.8251 C   0  0  1  0  0  0  0  0  0  0  0  0
    2.8088   -7.1061    1.4261 O   0  0  0  0  0  0  0  0  0  0  0  0
    2.3997   -8.6303    3.2857 C   0  0  2  0  0  0  0  0  0  0  0  0
    3.5081   -9.5526    2.7052 C   0  0  0  0  0  0  0  0  0  0  0  0
   -0.8657   -8.1250    4.9441 H   0  0  0  0  0  0  0  0  0  0  0  0
   -1.4718   -6.8462    3.9165 H   0  0  0  0  0  0  0  0  0  0  0  0
    0.2056   -6.8469    4.4199 H   0  0  0  0  0  0  0  0  0  0  0  0
   -1.8916   -9.7958    3.2803 H   0  0  0  0  0  0  0  0  0  0  0  0
   -1.3828   -9.8074    1.6262 H   0  0  0  0  0  0  0  0  0  0  0  0
   -2.3970   -8.5029    2.2324 H   0  0  0  0  0  0  0  0  0  0  0  0
   -0.1211   -8.0433    0.9582 H   0  0  0  0  0  0  0  0  0  0  0  0
    1.0647   -9.7607    1.9934 H   0  0  0  0  0  0  0  0  0  0  0  0
   -0.1910  -10.3684    4.4526 H   0  0  0  0  0  0  0  0  0  0  0  0
    1.9661  -11.7174    3.3339 H   0  0  0  0  0  0  0  0  0  0  0  0
    1.0900   -9.6869    6.1121 H   0  0  0  0  0  0  0  0  0  0  0  0
    2.1502  -11.5515    6.2834 H   0  0  0  0  0  0  0  0  0  0  0  0
    2.0830   -7.1425    7.3887 H   0  0  0  0  0  0  0  0  0  0  0  0
    2.5801   -8.7929    7.4645 H   0  0  0  0  0  0  0  0  0  0  0  0
    4.0233   -7.3541    8.9349 H   0  0  0  0  0  0  0  0  0  0  0  0
    4.8616   -8.3024    7.7831 H   0  0  0  0  0  0  0  0  0  0  0  0
    5.9377   -6.2860    7.7097 H   0  0  0  0  0  0  0  0  0  0  0  0
    6.3915   -7.6361    4.4574 H   0  0  0  0  0  0  0  0  0  0  0  0
    5.5020   -8.5624    5.6452 H   0  0  0  0  0  0  0  0  0  0  0  0
    6.9139   -7.6294    6.1265 H   0  0  0  0  0  0  0  0  0  0  0  0
    7.0732   -5.4671    5.1988 H   0  0  0  0  0  0  0  0  0  0  0  0
    5.7660   -4.9333    4.2162 H   0  0  0  0  0  0  0  0  0  0  0  0
    6.8014   -3.8814    6.7858 H   0  0  0  0  0  0  0  0  0  0  0  0
    6.2222   -3.0885    5.3437 H   0  0  0  0  0  0  0  0  0  0  0  0
    3.8838   -3.7214    6.0011 H   0  0  0  0  0  0  0  0  0  0  0  0
    4.7476   -0.0707    6.5038 H   0  0  0  0  0  0  0  0  0  0  0  0
    4.5874   -1.3056    5.2562 H   0  0  0  0  0  0  0  0  0  0  0  0
    6.0999   -1.1027    6.1624 H   0  0  0  0  0  0  0  0  0  0  0  0
    2.8152   -0.6855    7.3228 H   0  0  0  0  0  0  0  0  0  0  0  0
    2.7068   -1.8662    8.5779 H   0  0  0  0  0  0  0  0  0  0  0  0
    2.3453   -2.3150    6.9096 H   0  0  0  0  0  0  0  0  0  0  0  0
    6.4121   -2.0058    8.3255 H   0  0  0  0  0  0  0  0  0  0  0  0
    4.2678   -0.5574    9.4121 H   0  0  0  0  0  0  0  0  0  0  0  0
    5.7568   -2.8390   10.4947 H   0  0  0  0  0  0  0  0  0  0  0  0
    4.0753   -2.8742   10.0802 H   0  0  0  0  0  0  0  0  0  0  0  0
    6.3282   -4.5236    8.9004 H   0  0  0  0  0  0  0  0  0  0  0  0
    5.0570   -5.1398    9.9049 H   0  0  0  0  0  0  0  0  0  0  0  0
    2.6105   -3.9440    8.8027 H   0  0  0  0  0  0  0  0  0  0  0  0
    2.7217   -5.6257    8.9545 H   0  0  0  0  0  0  0  0  0  0  0  0
    2.2751   -4.9182    7.3968 H   0  0  0  0  0  0  0  0  0  0  0  0
    3.1175   -5.6988    5.3188 H   0  0  0  0  0  0  0  0  0  0  0  0
    3.9322   -5.4975    3.1516 H   0  0  0  0  0  0  0  0  0  0  0  0
    4.7474   -7.0273    3.1520 H   0  0  0  0  0  0  0  0  0  0  0  0
    1.7894   -6.5316    3.0633 H   0  0  0  0  0  0  0  0  0  0  0  0
    2.0905   -7.5824    1.0368 H   0  0  0  0  0  0  0  0  0  0  0  0
    3.4839   -9.5857    1.6129 H   0  0  0  0  0  0  0  0  0  0  0  0
    3.4137  -10.5838    3.0460 H   0  0  0  0  0  0  0  0  0  0  0  0
    4.5014   -9.2264    3.0124 H   0  0  0  0  0  0  0  0  0  0  0  0
  1  2  1  0
  1 35  1  0
  1 36  1  0
  1 37  1  0
  2  3  1  0
  2  4  1  0
  2  5  1  0
  3 38  1  0
  3 39  1  0
  3 40  1  0
  4 41  1  0
  5 33  1  0
  5  6  1  0
  5 42  1  6
  6  7  1  0
  6  8  1  0
  6 43  1  1
  7 44  1  0
  8  9  1  0
  8 10  1  0
  8 45  1  1
  9 46  1  0
 10 33  1  0
 10 11  2  0
 11 29  1  0
 11 12  1  0
 12 13  1  0
 12 47  1  0
 12 48  1  0
 13 14  1  0
 13 49  1  0
 13 50  1  0
 14 27  1  0
 14 15  1  0
 14 51  1  1
 15 16  1  1
 15 17  1  0
 15 29  1  0
 16 52  1  0
 16 53  1  0
 16 54  1  0
 17 18  1  0
 17 55  1  0
 17 56  1  0
 18 19  1  0
 18 57  1  0
 18 58  1  0
 19 27  1  0
 19 20  1  0
 19 59  1  6
 20 21  1  0
 20 22  1  0
 20 23  1  0
 21 60  1  0
 21 61  1  0
 21 62  1  0
 22 63  1  0
 22 64  1  0
 22 65  1  0
 23 24  1  0
 23 25  1  0
 23 66  1  6
 24 67  1  0
 25 26  1  0
 25 68  1  0
 25 69  1  0
 26 27  1  0
 26 70  1  0
 26 71  1  0
 27 28  1  1
 28 72  1  0
 28 73  1  0
 28 74  1  0
 29 30  1  0
 29 75  1  6
 30 31  1  0
 30 76  1  0
 30 77  1  0
 31 32  1  0
 31 33  1  0
 31 78  1  6
 32 79  1  0
 33 34  1  6
 34 80  1  0
 34 81  1  0
 34 82  1  0
M  END
>  <i_m_ct_stereo_status>  (88) 
1

>  <s_m_source_file>  (88) 
/var/tmp/pbs.5076255.sched01/tmppv1df_bs/0l6e7d74h.sdf

>  <i_m_source_file_index>  (88) 
32

>  <i_lp_mmshare_version>  (88) 
48012

>  <i_f3d_flags>  (88) 
0

>  <s_epik_input>  (88) 
W09IXVtDQEBIXTFbQ0BIXShbT0hdKVtDQEBIXShDKFtDSDNdKShbQ0gzXSlbT0hdKVtDQEBdKFtDSDNdKShbQ0BIXShbT0hdKVtDSDJdW0NAQEhdMjMpQzE9QzJbQ0gyXVtDSDJdW0NAQEhdKFtDQEBdMzRbQ0gzXSlbQ0BdNShbQ0gzXSlbQ0BIXShbQ0gyXVtDSDJdNClDKFtDSDNdKShbQ0gzXSlbQ0BASF0oW09IXSlbQ0gyXVtDSDJdNQ==

>  <s_epik_cmdline>  (88) 
J2VwaWtfcHl0aG9uJywgJy1waHQnLCAnMi4wJywgJy1waCcsICc3LjAnLCAnLXRuJywgJzgnLCAnLW1hJywgJzIwMCcsICctaW1hZScsICc8aW5maWxlLm1hZT4nLCAnLW9tYWUnLCAnPG91dGZpbGUubWFlPic=

>  <r_lp_tautomer_probability>  (88) 
1

>  <r_epik_Ionization_Penalty>  (88) 
4.25898e-06

>  <r_epik_Ionization_Penalty_Charging>  (88) 
0

>  <r_epik_Ionization_Penalty_Neutral>  (88) 
4.25898e-06

>  <r_epik_State_Penalty>  (88) 
-0

>  <r_epik_Charging_Adjusted_Penalty>  (88) 
0

>  <i_epik_Tot_Q>  (88) 
0

>  <i_epik_Tot_abs_Q>  (88) 
0

>  <s_lp_Force_Field>  (88) 
OPLS3e

>  <r_lp_Energy>  (88) 
85.1941

>  <b_lp_Chiralities_Consistent>  (88) 
1

>  <s_lp_Variant>  (88) 
22:0-1

>  <s_i_glide_gridfile>  (88) 
pfpi4k_grid

>  <i_i_glide_lignum>  (88) 
32

>  <i_i_glide_rotatable_bonds>  (88) 
6

>  <r_i_docking_score>  (88) 
-2.66831

>  <r_i_glide_ligand_efficiency>  (88) 
-0.0784798

>  <r_i_glide_ligand_efficiency_sa>  (88) 
-0.254244

>  <r_i_glide_ligand_efficiency_ln>  (88) 
-0.589505

>  <r_i_glide_gscore>  (88) 
-2.66831

>  <r_i_glide_lipo>  (88) 
-0.23893

>  <r_i_glide_hbond>  (88) 
0

>  <r_i_glide_metal>  (88) 
-0

>  <r_i_glide_rewards>  (88) 
-0.158943

>  <r_i_glide_evdw>  (88) 
-24.8271

>  <r_i_glide_ecoul>  (88) 
-7.45472

>  <r_i_glide_erotb>  (88) 
0.0891231

>  <r_i_glide_esite>  (88) 
0

>  <r_i_glide_emodel>  (88) 
-38.5165

>  <r_i_glide_energy>  (88) 
-32.2818

>  <r_i_glide_einternal>  (88) 
1.25734

>  <r_i_glide_intrahb_reward>  (88) 
-0

>  <i_i_glide_confnum>  (88) 
4

>  <i_i_glide_posenum>  (88) 
2

>  <r_i_glide_eff_state_penalty>  (88) 
0

>  <ligand_id>  (88) 
22

>  <original_smiles>  (88) 
CC(C)(O)C1C(O)C(O)C2=C3CCC4C(C)(CCC5C(C)(C)C(O)CCC54C)C3CC(O)C21C

>  <smiles>  (88) 
[H]OC1([H])C2=C3C([H])([H])C([H])([H])C4([H])C(C([H])([H])[H])(C([H])([H])C([H])([H])C5([H])C(C([H])([H])[H])(C([H])([H])[H])C([H])(O[H])C([H])([H])C([H])([H])C54C([H])([H])[H])C3([H])C([H])([H])C([H])(O[H])C2(C([H])([H])[H])C([H])(C(O[H])(C([H])([H])[H])C([H])([H])[H])C1([H])O[H]

$$$$
23:0:0
     RDKit          3D

 63 67  0  0  1  0  0  0  0  0999 V2000
    7.9117   -5.3743    1.3907 C   0  0  0  0  0  0  0  0  0  0  0  0
    6.7412   -4.7813    1.7093 C   0  0  0  0  0  0  0  0  0  0  0  0
    6.3794   -3.3676    1.2611 C   0  0  1  0  0  0  0  0  0  0  0  0
    7.5290   -2.6936    0.8093 O   0  0  0  0  0  0  0  0  0  0  0  0
    5.2698   -3.3894    0.1617 C   0  0  2  0  0  0  0  0  0  0  0  0
    4.6868   -1.9841   -0.2853 C   0  0  0  0  0  0  0  0  0  0  0  0
    4.0489   -1.1838    0.8785 C   0  0  0  0  0  0  0  0  0  0  0  0
    5.7877   -1.0920   -0.8887 C   0  0  0  0  0  0  0  0  0  0  0  0
    3.6516   -2.1352   -1.4394 C   0  0  0  0  0  0  0  0  0  0  0  0
    2.8689   -3.4487   -1.4885 C   0  0  0  0  0  0  0  0  0  0  0  0
    2.7996   -4.1415   -0.1250 C   0  0  1  0  0  0  0  0  0  0  0  0
    1.9161   -5.2453   -0.2216 O   0  0  0  0  0  0  0  0  0  0  0  0
    4.2131   -4.5421    0.4273 C   0  0  1  0  0  0  0  0  0  0  0  0
    4.6845   -5.7792   -0.3916 C   0  0  0  0  0  0  0  0  0  0  0  0
    4.1901   -5.0152    1.9422 C   0  0  2  0  0  0  0  0  0  0  0  0
    3.5486   -4.0259    2.9940 C   0  0  1  0  0  0  0  0  0  0  0  0
    2.1498   -3.9182    2.8400 O   0  0  0  0  0  0  0  0  0  0  0  0
    3.8321   -4.3901    4.4527 C   0  0  0  0  0  0  0  0  0  0  0  0
    3.0953   -5.3274    5.0717 C   0  0  0  0  0  0  0  0  0  0  0  0
    3.3410   -6.7474    4.6002 C   0  0  0  0  0  0  0  0  0  0  0  0
    4.8685   -7.0082    4.4479 C   0  0  1  0  0  0  0  0  0  0  0  0
    5.0805   -8.1851    3.6973 O   0  0  0  0  0  0  0  0  0  0  0  0
    5.7521   -5.7983    3.9327 C   0  0  2  0  0  0  0  0  0  0  0  0
    7.1768   -5.9500    4.5269 C   0  0  0  0  0  0  0  0  0  0  0  0
    7.1573   -5.3096    5.8074 O   0  0  0  0  0  0  0  0  0  0  0  0
    5.9405   -4.6681    6.0269 C   0  0  1  0  0  0  0  0  0  0  0  0
    6.0781   -3.4253    6.6525 O   0  0  0  0  0  0  0  0  0  0  0  0
    5.3323   -4.5045    4.6253 C   0  0  2  0  0  0  0  0  0  0  0  0
    5.6059   -5.5670    2.3824 C   0  0  2  0  0  0  0  0  0  0  0  0
    8.1059   -6.3997    1.6636 H   0  0  0  0  0  0  0  0  0  0  0  0
    8.6945   -4.8581    0.8500 H   0  0  0  0  0  0  0  0  0  0  0  0
    6.0446   -2.8151    2.1307 H   0  0  0  0  0  0  0  0  0  0  0  0
    8.1864   -2.7370    1.4810 H   0  0  0  0  0  0  0  0  0  0  0  0
    5.8068   -3.7045   -0.7377 H   0  0  0  0  0  0  0  0  0  0  0  0
    3.7532   -0.1860    0.5519 H   0  0  0  0  0  0  0  0  0  0  0  0
    4.7437   -1.0367    1.7039 H   0  0  0  0  0  0  0  0  0  0  0  0
    3.1513   -1.6398    1.2796 H   0  0  0  0  0  0  0  0  0  0  0  0
    5.3407   -0.2522   -1.4316 H   0  0  0  0  0  0  0  0  0  0  0  0
    6.3886   -1.6580   -1.6005 H   0  0  0  0  0  0  0  0  0  0  0  0
    6.4330   -0.6594   -0.1266 H   0  0  0  0  0  0  0  0  0  0  0  0
    2.9588   -1.3009   -1.4009 H   0  0  0  0  0  0  0  0  0  0  0  0
    4.1393   -2.0306   -2.4159 H   0  0  0  0  0  0  0  0  0  0  0  0
    1.8630   -3.2547   -1.8659 H   0  0  0  0  0  0  0  0  0  0  0  0
    3.3522   -4.0661   -2.2330 H   0  0  0  0  0  0  0  0  0  0  0  0
    2.3071   -3.4271    0.5205 H   0  0  0  0  0  0  0  0  0  0  0  0
    2.2440   -5.7986   -0.9263 H   0  0  0  0  0  0  0  0  0  0  0  0
    4.1030   -6.6758   -0.1778 H   0  0  0  0  0  0  0  0  0  0  0  0
    5.7275   -6.0405   -0.2418 H   0  0  0  0  0  0  0  0  0  0  0  0
    4.6270   -5.5881   -1.4613 H   0  0  0  0  0  0  0  0  0  0  0  0
    3.5386   -5.8870    1.9446 H   0  0  0  0  0  0  0  0  0  0  0  0
    3.9666   -3.0343    2.8634 H   0  0  0  0  0  0  0  0  0  0  0  0
    1.9716   -3.2871    2.1551 H   0  0  0  0  0  0  0  0  0  0  0  0
    3.2797   -5.3992    6.1312 H   0  0  0  0  0  0  0  0  0  0  0  0
    2.9055   -7.4391    5.3224 H   0  0  0  0  0  0  0  0  0  0  0  0
    2.8158   -6.9093    3.6616 H   0  0  0  0  0  0  0  0  0  0  0  0
    5.2164   -7.2562    5.4516 H   0  0  0  0  0  0  0  0  0  0  0  0
    4.6169   -8.9036    4.1104 H   0  0  0  0  0  0  0  0  0  0  0  0
    7.4764   -6.9935    4.6209 H   0  0  0  0  0  0  0  0  0  0  0  0
    7.9496   -5.4565    3.9533 H   0  0  0  0  0  0  0  0  0  0  0  0
    5.3602   -5.3115    6.6861 H   0  0  0  0  0  0  0  0  0  0  0  0
    6.5031   -2.8335    6.0446 H   0  0  0  0  0  0  0  0  0  0  0  0
    5.8177   -3.6463    4.1661 H   0  0  0  0  0  0  0  0  0  0  0  0
    5.7113   -6.5526    1.9342 H   0  0  0  0  0  0  0  0  0  0  0  0
  1  2  2  0
  1 30  1  0
  1 31  1  0
  2 29  1  0
  2  3  1  0
  3  4  1  0
  3  5  1  0
  3 32  1  1
  4 33  1  0
  5 13  1  0
  5  6  1  0
  5 34  1  6
  6  7  1  0
  6  8  1  0
  6  9  1  0
  7 35  1  0
  7 36  1  0
  7 37  1  0
  8 38  1  0
  8 39  1  0
  8 40  1  0
  9 10  1  0
  9 41  1  0
  9 42  1  0
 10 11  1  0
 10 43  1  0
 10 44  1  0
 11 12  1  0
 11 13  1  0
 11 45  1  1
 12 46  1  0
 13 14  1  6
 13 15  1  0
 14 47  1  0
 14 48  1  0
 14 49  1  0
 15 29  1  0
 15 16  1  0
 15 50  1  6
 16 17  1  0
 16 18  1  0
 16 51  1  6
 17 52  1  0
 18 28  1  0
 18 19  2  0
 19 20  1  0
 19 53  1  0
 20 21  1  0
 20 54  1  0
 20 55  1  0
 21 22  1  0
 21 23  1  0
 21 56  1  1
 22 57  1  0
 23 28  1  0
 23 24  1  6
 23 29  1  0
 24 25  1  0
 24 58  1  0
 24 59  1  0
 25 26  1  0
 26 27  1  0
 26 28  1  0
 26 60  1  1
 27 61  1  0
 28 62  1  6
 29 63  1  6
M  END
>  <i_m_ct_stereo_status>  (89) 
1

>  <s_m_source_file>  (89) 
/var/tmp/pbs.5076255.sched01/tmppv1df_bs/0l6e7d74h.sdf

>  <i_m_source_file_index>  (89) 
33

>  <i_lp_mmshare_version>  (89) 
48012

>  <i_f3d_flags>  (89) 
0

>  <s_epik_input>  (89) 
W09IXVtDQEBIXTFbQ0gyXVtDSDJdQyhbQ0gzXSkoW0NIM10pW0NAQEhdKFtDQEhdKFtPSF0pQyg9W0NIMl0pW0NASF0yMylbQ0BAXTEoW0NIM10pW0NAQEhdMltDQEBIXShbT0hdKUMoPVtDSF1bQ0gyXVtDQEhdNFtPSF0pW0NASF0oW0NAXTM0NSlbQ0BIXShbT0hdKU9bQ0gyXTU=

>  <s_epik_cmdline>  (89) 
J2VwaWtfcHl0aG9uJywgJy1waHQnLCAnMi4wJywgJy1waCcsICc3LjAnLCAnLXRuJywgJzgnLCAnLW1hJywgJzIwMCcsICctaW1hZScsICc8aW5maWxlLm1hZT4nLCAnLW9tYWUnLCAnPG91dGZpbGUubWFlPic=

>  <r_lp_tautomer_probability>  (89) 
1

>  <r_epik_Ionization_Penalty>  (89) 
1.00429e-06

>  <r_epik_Ionization_Penalty_Charging>  (89) 
0

>  <r_epik_Ionization_Penalty_Neutral>  (89) 
1.00429e-06

>  <r_epik_State_Penalty>  (89) 
-0

>  <r_epik_Charging_Adjusted_Penalty>  (89) 
0

>  <i_epik_Tot_Q>  (89) 
0

>  <i_epik_Tot_abs_Q>  (89) 
0

>  <s_epik_Chemistry_Notes>  (89) 
This compound contains an acetal/aminal-like group ( X-CH(R)-Y where X, Y are N, S, or O) that may be acid/base labile, releasing an aldehyde.

>  <s_lp_Force_Field>  (89) 
OPLS3e

>  <r_lp_Energy>  (89) 
116.141

>  <b_lp_Chiralities_Consistent>  (89) 
1

>  <s_lp_Variant>  (89) 
23:0-1

>  <s_i_glide_gridfile>  (89) 
pfpi4k_grid

>  <i_i_glide_lignum>  (89) 
33

>  <i_i_glide_rotatable_bonds>  (89) 
5

>  <r_i_docking_score>  (89) 
-2.77494

>  <r_i_glide_ligand_efficiency>  (89) 
-0.0956877

>  <r_i_glide_ligand_efficiency_sa>  (89) 
-0.293983

>  <r_i_glide_ligand_efficiency_ln>  (89) 
-0.635391

>  <r_i_glide_gscore>  (89) 
-2.77494

>  <r_i_glide_lipo>  (89) 
-0.472542

>  <r_i_glide_hbond>  (89) 
0

>  <r_i_glide_metal>  (89) 
-0

>  <r_i_glide_rewards>  (89) 
-0.639918

>  <r_i_glide_evdw>  (89) 
-17.2414

>  <r_i_glide_ecoul>  (89) 
-5.33609

>  <r_i_glide_erotb>  (89) 
0

>  <r_i_glide_esite>  (89) 
0

>  <r_i_glide_emodel>  (89) 
-25.1754

>  <r_i_glide_energy>  (89) 
-22.5775

>  <r_i_glide_einternal>  (89) 
1.4354

>  <r_i_glide_intrahb_reward>  (89) 
-0

>  <i_i_glide_confnum>  (89) 
1

>  <i_i_glide_posenum>  (89) 
1

>  <r_i_glide_eff_state_penalty>  (89) 
0

>  <ligand_id>  (89) 
23

>  <original_smiles>  (89) 
C=C1C(O)C2C(C)(C)CCC(O)C2(C)C2C(O)C3=CCC(O)C4(COC(O)C34)C12

>  <smiles>  (89) 
[H]OC1([H])OC([H])([H])C23C([H])(O[H])C([H])([H])C([H])=C(C([H])(O[H])C4([H])C2([H])C(=C([H])[H])C([H])(O[H])C2([H])C(C([H])([H])[H])(C([H])([H])[H])C([H])([H])C([H])([H])C([H])(O[H])C42C([H])([H])[H])C13[H]

$$$$
23:0:1
     RDKit          3D

 63 67  0  0  1  0  0  0  0  0999 V2000
    8.0719   -5.4427    1.3198 C   0  0  0  0  0  0  0  0  0  0  0  0
    6.9152   -4.8696    1.7114 C   0  0  0  0  0  0  0  0  0  0  0  0
    6.5215   -3.4482    1.3018 C   0  0  1  0  0  0  0  0  0  0  0  0
    7.6461   -2.7551    0.8076 O   0  0  0  0  0  0  0  0  0  0  0  0
    5.3539   -3.4552    0.2663 C   0  0  2  0  0  0  0  0  0  0  0  0
    4.7282   -2.0486   -0.1068 C   0  0  0  0  0  0  0  0  0  0  0  0
    4.1621   -1.2672    1.1031 C   0  0  0  0  0  0  0  0  0  0  0  0
    5.7788   -1.1260   -0.7543 C   0  0  0  0  0  0  0  0  0  0  0  0
    3.6480   -2.1817   -1.2114 C   0  0  0  0  0  0  0  0  0  0  0  0
    2.8524   -3.4836   -1.2245 C   0  0  0  0  0  0  0  0  0  0  0  0
    2.8744   -4.2184    0.1186 C   0  0  1  0  0  0  0  0  0  0  0  0
    2.0024   -5.3426    0.0743 O   0  0  0  0  0  0  0  0  0  0  0  0
    4.3230   -4.6235    0.5695 C   0  0  1  0  0  0  0  0  0  0  0  0
    4.7571   -5.8362   -0.3086 C   0  0  0  0  0  0  0  0  0  0  0  0
    4.3862   -5.1188    2.0830 C   0  0  2  0  0  0  0  0  0  0  0  0
    3.7994   -4.1526    3.1919 C   0  0  1  0  0  0  0  0  0  0  0  0
    2.3914   -4.0507    3.1154 O   0  0  0  0  0  0  0  0  0  0  0  0
    4.1657   -4.5370    4.6274 C   0  0  0  0  0  0  0  0  0  0  0  0
    3.4674   -5.4878    5.2711 C   0  0  0  0  0  0  0  0  0  0  0  0
    3.7017   -6.8966    4.7656 C   0  0  0  0  0  0  0  0  0  0  0  0
    5.2168   -7.1458    4.5193 C   0  0  1  0  0  0  0  0  0  0  0  0
    5.3884   -8.3118    3.7396 O   0  0  0  0  0  0  0  0  0  0  0  0
    6.0614   -5.9183    3.9790 C   0  0  2  0  0  0  0  0  0  0  0  0
    7.5163   -6.0717    4.4876 C   0  0  0  0  0  0  0  0  0  0  0  0
    7.5694   -5.4592    5.7838 O   0  0  0  0  0  0  0  0  0  0  0  0
    6.3556   -4.8354    6.0764 C   0  0  1  0  0  0  0  0  0  0  0  0
    6.5363   -3.5930    6.7262 O   0  0  0  0  0  0  0  0  0  0  0  0
    5.6695   -4.6516    4.7178 C   0  0  2  0  0  0  0  0  0  0  0  0
    5.8243   -5.6663    2.4403 C   0  0  2  0  0  0  0  0  0  0  0  0
    8.2901   -6.4727    1.5694 H   0  0  0  0  0  0  0  0  0  0  0  0
    8.8193   -4.9138    0.7449 H   0  0  0  0  0  0  0  0  0  0  0  0
    6.2255   -2.9153    2.1980 H   0  0  0  0  0  0  0  0  0  0  0  0
    8.3251   -2.7914    1.4586 H   0  0  0  0  0  0  0  0  0  0  0  0
    5.8408   -3.7451   -0.6661 H   0  0  0  0  0  0  0  0  0  0  0  0
    3.8384   -0.2658    0.8137 H   0  0  0  0  0  0  0  0  0  0  0  0
    4.8994   -1.1314    1.8907 H   0  0  0  0  0  0  0  0  0  0  0  0
    3.2896   -1.7399    1.5464 H   0  0  0  0  0  0  0  0  0  0  0  0
    5.3042   -0.2842   -1.2597 H   0  0  0  0  0  0  0  0  0  0  0  0
    6.3447   -1.6711   -1.5169 H   0  0  0  0  0  0  0  0  0  0  0  0
    6.4803   -0.7103   -0.0263 H   0  0  0  0  0  0  0  0  0  0  0  0
    2.9584   -1.3455   -1.1126 H   0  0  0  0  0  0  0  0  0  0  0  0
    4.0714   -2.0566   -2.2091 H   0  0  0  0  0  0  0  0  0  0  0  0
    1.8270   -3.2979   -1.5444 H   0  0  0  0  0  0  0  0  0  0  0  0
    3.2953   -4.1059   -1.9972 H   0  0  0  0  0  0  0  0  0  0  0  0
    2.4207   -3.5215    0.8071 H   0  0  0  0  0  0  0  0  0  0  0  0
    2.2992   -5.8929   -0.6290 H   0  0  0  0  0  0  0  0  0  0  0  0
    4.1875   -6.7380   -0.0864 H   0  0  0  0  0  0  0  0  0  0  0  0
    5.8027   -6.1065   -0.1871 H   0  0  0  0  0  0  0  0  0  0  0  0
    4.6985   -5.6268   -1.3751 H   0  0  0  0  0  0  0  0  0  0  0  0
    3.7420   -5.9918    2.1125 H   0  0  0  0  0  0  0  0  0  0  0  0
    4.2040   -3.1525    3.0576 H   0  0  0  0  0  0  0  0  0  0  0  0
    2.1697   -3.4595    2.4168 H   0  0  0  0  0  0  0  0  0  0  0  0
    3.7147   -5.5763    6.3172 H   0  0  0  0  0  0  0  0  0  0  0  0
    3.3094   -7.6041    5.5000 H   0  0  0  0  0  0  0  0  0  0  0  0
    3.1215   -7.0487    3.8555 H   0  0  0  0  0  0  0  0  0  0  0  0
    5.6223   -7.4077    5.4967 H   0  0  0  0  0  0  0  0  0  0  0  0
    4.9540   -9.0338    4.1628 H   0  0  0  0  0  0  0  0  0  0  0  0
    7.8347   -7.1138    4.5409 H   0  0  0  0  0  0  0  0  0  0  0  0
    8.2526   -5.5473    3.8831 H   0  0  0  0  0  0  0  0  0  0  0  0
    5.8161   -5.4875    6.7615 H   0  0  0  0  0  0  0  0  0  0  0  0
    6.8995   -3.7706    7.5756 H   0  0  0  0  0  0  0  0  0  0  0  0
    6.1199   -3.7719    4.2590 H   0  0  0  0  0  0  0  0  0  0  0  0
    5.9103   -6.6426    1.9688 H   0  0  0  0  0  0  0  0  0  0  0  0
  1  2  2  0
  1 30  1  0
  1 31  1  0
  2 29  1  0
  2  3  1  0
  3  4  1  0
  3  5  1  0
  3 32  1  1
  4 33  1  0
  5 13  1  0
  5  6  1  0
  5 34  1  6
  6  7  1  0
  6  8  1  0
  6  9  1  0
  7 35  1  0
  7 36  1  0
  7 37  1  0
  8 38  1  0
  8 39  1  0
  8 40  1  0
  9 10  1  0
  9 41  1  0
  9 42  1  0
 10 11  1  0
 10 43  1  0
 10 44  1  0
 11 12  1  0
 11 13  1  0
 11 45  1  1
 12 46  1  0
 13 14  1  6
 13 15  1  0
 14 47  1  0
 14 48  1  0
 14 49  1  0
 15 29  1  0
 15 16  1  0
 15 50  1  6
 16 17  1  0
 16 18  1  0
 16 51  1  6
 17 52  1  0
 18 28  1  0
 18 19  2  0
 19 20  1  0
 19 53  1  0
 20 21  1  0
 20 54  1  0
 20 55  1  0
 21 22  1  0
 21 23  1  0
 21 56  1  1
 22 57  1  0
 23 28  1  0
 23 24  1  6
 23 29  1  0
 24 25  1  0
 24 58  1  0
 24 59  1  0
 25 26  1  0
 26 27  1  0
 26 28  1  0
 26 60  1  1
 27 61  1  0
 28 62  1  6
 29 63  1  6
M  END
>  <i_m_ct_stereo_status>  (90) 
1

>  <s_m_source_file>  (90) 
/var/tmp/pbs.5076255.sched01/tmppv1df_bs/0l6e7d74h.sdf

>  <i_m_source_file_index>  (90) 
33

>  <i_lp_mmshare_version>  (90) 
48012

>  <i_f3d_flags>  (90) 
0

>  <s_epik_input>  (90) 
W09IXVtDQEBIXTFbQ0gyXVtDSDJdQyhbQ0gzXSkoW0NIM10pW0NAQEhdKFtDQEhdKFtPSF0pQyg9W0NIMl0pW0NASF0yMylbQ0BAXTEoW0NIM10pW0NAQEhdMltDQEBIXShbT0hdKUMoPVtDSF1bQ0gyXVtDQEhdNFtPSF0pW0NASF0oW0NAXTM0NSlbQ0BIXShbT0hdKU9bQ0gyXTU=

>  <s_epik_cmdline>  (90) 
J2VwaWtfcHl0aG9uJywgJy1waHQnLCAnMi4wJywgJy1waCcsICc3LjAnLCAnLXRuJywgJzgnLCAnLW1hJywgJzIwMCcsICctaW1hZScsICc8aW5maWxlLm1hZT4nLCAnLW9tYWUnLCAnPG91dGZpbGUubWFlPic=

>  <r_lp_tautomer_probability>  (90) 
1

>  <r_epik_Ionization_Penalty>  (90) 
1.00429e-06

>  <r_epik_Ionization_Penalty_Charging>  (90) 
0

>  <r_epik_Ionization_Penalty_Neutral>  (90) 
1.00429e-06

>  <r_epik_State_Penalty>  (90) 
-0

>  <r_epik_Charging_Adjusted_Penalty>  (90) 
0

>  <i_epik_Tot_Q>  (90) 
0

>  <i_epik_Tot_abs_Q>  (90) 
0

>  <s_epik_Chemistry_Notes>  (90) 
This compound contains an acetal/aminal-like group ( X-CH(R)-Y where X, Y are N, S, or O) that may be acid/base labile, releasing an aldehyde.

>  <s_lp_Force_Field>  (90) 
OPLS3e

>  <r_lp_Energy>  (90) 
116.141

>  <b_lp_Chiralities_Consistent>  (90) 
1

>  <s_lp_Variant>  (90) 
23:0-1

>  <s_i_glide_gridfile>  (90) 
pfpi4k_grid

>  <i_i_glide_lignum>  (90) 
33

>  <i_i_glide_rotatable_bonds>  (90) 
5

>  <r_i_docking_score>  (90) 
-2.67961

>  <r_i_glide_ligand_efficiency>  (90) 
-0.0924005

>  <r_i_glide_ligand_efficiency_sa>  (90) 
-0.283884

>  <r_i_glide_ligand_efficiency_ln>  (90) 
-0.613564

>  <r_i_glide_gscore>  (90) 
-2.67961

>  <r_i_glide_lipo>  (90) 
-0.428179

>  <r_i_glide_hbond>  (90) 
0

>  <r_i_glide_metal>  (90) 
-0

>  <r_i_glide_rewards>  (90) 
-0.645947

>  <r_i_glide_evdw>  (90) 
-18.4667

>  <r_i_glide_ecoul>  (90) 
-4.54768

>  <r_i_glide_erotb>  (90) 
0

>  <r_i_glide_esite>  (90) 
0

>  <r_i_glide_emodel>  (90) 
-25.3899

>  <r_i_glide_energy>  (90) 
-23.0144

>  <r_i_glide_einternal>  (90) 
1.59089

>  <r_i_glide_intrahb_reward>  (90) 
-0

>  <i_i_glide_confnum>  (90) 
1

>  <i_i_glide_posenum>  (90) 
6

>  <r_i_glide_eff_state_penalty>  (90) 
0

>  <ligand_id>  (90) 
23

>  <original_smiles>  (90) 
C=C1C(O)C2C(C)(C)CCC(O)C2(C)C2C(O)C3=CCC(O)C4(COC(O)C34)C12

>  <smiles>  (90) 
[H]OC1([H])OC([H])([H])C23C([H])(O[H])C([H])([H])C([H])=C(C([H])(O[H])C4([H])C2([H])C(=C([H])[H])C([H])(O[H])C2([H])C(C([H])([H])[H])(C([H])([H])[H])C([H])([H])C([H])([H])C([H])(O[H])C42C([H])([H])[H])C13[H]

$$$$
23:0:2
     RDKit          3D

 63 67  0  0  1  0  0  0  0  0999 V2000
    7.9255   -5.3729    1.3785 C   0  0  0  0  0  0  0  0  0  0  0  0
    6.7502   -4.7850    1.7032 C   0  0  0  0  0  0  0  0  0  0  0  0
    6.3898   -3.3699    1.2567 C   0  0  1  0  0  0  0  0  0  0  0  0
    7.5361   -2.6946    0.8027 O   0  0  0  0  0  0  0  0  0  0  0  0
    5.2749   -3.3908    0.1612 C   0  0  2  0  0  0  0  0  0  0  0  0
    4.6884   -1.9847   -0.2805 C   0  0  0  0  0  0  0  0  0  0  0  0
    4.0543   -1.1878    0.8867 C   0  0  0  0  0  0  0  0  0  0  0  0
    5.7869   -1.0886   -0.8856 C   0  0  0  0  0  0  0  0  0  0  0  0
    3.6524   -2.1361   -1.4305 C   0  0  0  0  0  0  0  0  0  0  0  0
    2.8676   -3.4474   -1.4765 C   0  0  0  0  0  0  0  0  0  0  0  0
    2.8010   -4.1466   -0.1166 C   0  0  1  0  0  0  0  0  0  0  0  0
    1.9197   -5.2542   -0.2192 O   0  0  0  0  0  0  0  0  0  0  0  0
    4.2194   -4.5453    0.4295 C   0  0  1  0  0  0  0  0  0  0  0  0
    4.6895   -5.7811   -0.3954 C   0  0  0  0  0  0  0  0  0  0  0  0
    4.2037   -5.0209    1.9429 C   0  0  2  0  0  0  0  0  0  0  0  0
    3.5645   -4.0329    2.9972 C   0  0  1  0  0  0  0  0  0  0  0  0
    2.1667   -3.9319    2.8435 O   0  0  0  0  0  0  0  0  0  0  0  0
    3.8506   -4.3998    4.4527 C   0  0  0  0  0  0  0  0  0  0  0  0
    3.1133   -5.3412    5.0751 C   0  0  0  0  0  0  0  0  0  0  0  0
    3.3622   -6.7572    4.6011 C   0  0  0  0  0  0  0  0  0  0  0  0
    4.8893   -7.0199    4.4428 C   0  0  1  0  0  0  0  0  0  0  0  0
    5.1017   -8.1934    3.6884 O   0  0  0  0  0  0  0  0  0  0  0  0
    5.7709   -5.8046    3.9270 C   0  0  2  0  0  0  0  0  0  0  0  0
    7.2004   -5.9564    4.5144 C   0  0  0  0  0  0  0  0  0  0  0  0
    7.1808   -5.3217    5.7981 O   0  0  0  0  0  0  0  0  0  0  0  0
    5.9640   -4.6810    6.0210 C   0  0  1  0  0  0  0  0  0  0  0  0
    6.1021   -3.4401    6.6518 O   0  0  0  0  0  0  0  0  0  0  0  0
    5.3465   -4.5177    4.6251 C   0  0  2  0  0  0  0  0  0  0  0  0
    5.6218   -5.5710    2.3766 C   0  0  2  0  0  0  0  0  0  0  0  0
    8.1209   -6.4001    1.6485 H   0  0  0  0  0  0  0  0  0  0  0  0
    8.7050   -4.8569    0.8372 H   0  0  0  0  0  0  0  0  0  0  0  0
    6.0568   -2.8202    2.1293 H   0  0  0  0  0  0  0  0  0  0  0  0
    8.1987   -2.7420    1.4731 H   0  0  0  0  0  0  0  0  0  0  0  0
    5.8104   -3.7027   -0.7399 H   0  0  0  0  0  0  0  0  0  0  0  0
    3.7526   -0.1898    0.5644 H   0  0  0  0  0  0  0  0  0  0  0  0
    4.7513   -1.0424    1.7107 H   0  0  0  0  0  0  0  0  0  0  0  0
    3.1587   -1.6511    1.2888 H   0  0  0  0  0  0  0  0  0  0  0  0
    5.3371   -0.2559   -1.4274 H   0  0  0  0  0  0  0  0  0  0  0  0
    6.3870   -1.6520   -1.6033 H   0  0  0  0  0  0  0  0  0  0  0  0
    6.4356   -0.6580   -0.1258 H   0  0  0  0  0  0  0  0  0  0  0  0
    2.9580   -1.3025   -1.3893 H   0  0  0  0  0  0  0  0  0  0  0  0
    4.1352   -2.0292   -2.4095 H   0  0  0  0  0  0  0  0  0  0  0  0
    1.8603   -3.2576   -1.8548 H   0  0  0  0  0  0  0  0  0  0  0  0
    3.3514   -4.0628   -2.2238 H   0  0  0  0  0  0  0  0  0  0  0  0
    2.3099   -3.4375    0.5394 H   0  0  0  0  0  0  0  0  0  0  0  0
    2.2449   -5.8024   -0.9302 H   0  0  0  0  0  0  0  0  0  0  0  0
    4.1091   -6.6784   -0.1825 H   0  0  0  0  0  0  0  0  0  0  0  0
    5.7350   -6.0414   -0.2496 H   0  0  0  0  0  0  0  0  0  0  0  0
    4.6295   -5.5866   -1.4637 H   0  0  0  0  0  0  0  0  0  0  0  0
    3.5514   -5.8928    1.9476 H   0  0  0  0  0  0  0  0  0  0  0  0
    3.9799   -3.0405    2.8570 H   0  0  0  0  0  0  0  0  0  0  0  0
    1.8731   -3.1553    3.3070 H   0  0  0  0  0  0  0  0  0  0  0  0
    3.3042   -5.4123    6.1334 H   0  0  0  0  0  0  0  0  0  0  0  0
    2.9304   -7.4507    5.3223 H   0  0  0  0  0  0  0  0  0  0  0  0
    2.8336   -6.9202    3.6638 H   0  0  0  0  0  0  0  0  0  0  0  0
    5.2400   -7.2677    5.4427 H   0  0  0  0  0  0  0  0  0  0  0  0
    4.6404   -8.9148    4.1029 H   0  0  0  0  0  0  0  0  0  0  0  0
    7.4990   -7.0026    4.6072 H   0  0  0  0  0  0  0  0  0  0  0  0
    7.9662   -5.4472    3.9438 H   0  0  0  0  0  0  0  0  0  0  0  0
    5.3857   -5.3287    6.6829 H   0  0  0  0  0  0  0  0  0  0  0  0
    6.5336   -2.8512    6.0466 H   0  0  0  0  0  0  0  0  0  0  0  0
    5.8147   -3.6497    4.1640 H   0  0  0  0  0  0  0  0  0  0  0  0
    5.7262   -6.5552    1.9273 H   0  0  0  0  0  0  0  0  0  0  0  0
  1  2  2  0
  1 30  1  0
  1 31  1  0
  2 29  1  0
  2  3  1  0
  3  4  1  0
  3  5  1  0
  3 32  1  1
  4 33  1  0
  5 13  1  0
  5  6  1  0
  5 34  1  6
  6  7  1  0
  6  8  1  0
  6  9  1  0
  7 35  1  0
  7 36  1  0
  7 37  1  0
  8 38  1  0
  8 39  1  0
  8 40  1  0
  9 10  1  0
  9 41  1  0
  9 42  1  0
 10 11  1  0
 10 43  1  0
 10 44  1  0
 11 12  1  0
 11 13  1  0
 11 45  1  1
 12 46  1  0
 13 14  1  6
 13 15  1  0
 14 47  1  0
 14 48  1  0
 14 49  1  0
 15 29  1  0
 15 16  1  0
 15 50  1  6
 16 17  1  0
 16 18  1  0
 16 51  1  6
 17 52  1  0
 18 28  1  0
 18 19  2  0
 19 20  1  0
 19 53  1  0
 20 21  1  0
 20 54  1  0
 20 55  1  0
 21 22  1  0
 21 23  1  0
 21 56  1  1
 22 57  1  0
 23 28  1  0
 23 24  1  6
 23 29  1  0
 24 25  1  0
 24 58  1  0
 24 59  1  0
 25 26  1  0
 26 27  1  0
 26 28  1  0
 26 60  1  1
 27 61  1  0
 28 62  1  6
 29 63  1  6
M  END
>  <i_m_ct_stereo_status>  (91) 
1

>  <s_m_source_file>  (91) 
/var/tmp/pbs.5076255.sched01/tmppv1df_bs/0l6e7d74h.sdf

>  <i_m_source_file_index>  (91) 
33

>  <i_lp_mmshare_version>  (91) 
48012

>  <i_f3d_flags>  (91) 
0

>  <s_epik_input>  (91) 
W09IXVtDQEBIXTFbQ0gyXVtDSDJdQyhbQ0gzXSkoW0NIM10pW0NAQEhdKFtDQEhdKFtPSF0pQyg9W0NIMl0pW0NASF0yMylbQ0BAXTEoW0NIM10pW0NAQEhdMltDQEBIXShbT0hdKUMoPVtDSF1bQ0gyXVtDQEhdNFtPSF0pW0NASF0oW0NAXTM0NSlbQ0BIXShbT0hdKU9bQ0gyXTU=

>  <s_epik_cmdline>  (91) 
J2VwaWtfcHl0aG9uJywgJy1waHQnLCAnMi4wJywgJy1waCcsICc3LjAnLCAnLXRuJywgJzgnLCAnLW1hJywgJzIwMCcsICctaW1hZScsICc8aW5maWxlLm1hZT4nLCAnLW9tYWUnLCAnPG91dGZpbGUubWFlPic=

>  <r_lp_tautomer_probability>  (91) 
1

>  <r_epik_Ionization_Penalty>  (91) 
1.00429e-06

>  <r_epik_Ionization_Penalty_Charging>  (91) 
0

>  <r_epik_Ionization_Penalty_Neutral>  (91) 
1.00429e-06

>  <r_epik_State_Penalty>  (91) 
-0

>  <r_epik_Charging_Adjusted_Penalty>  (91) 
0

>  <i_epik_Tot_Q>  (91) 
0

>  <i_epik_Tot_abs_Q>  (91) 
0

>  <s_epik_Chemistry_Notes>  (91) 
This compound contains an acetal/aminal-like group ( X-CH(R)-Y where X, Y are N, S, or O) that may be acid/base labile, releasing an aldehyde.

>  <s_lp_Force_Field>  (91) 
OPLS3e

>  <r_lp_Energy>  (91) 
116.141

>  <b_lp_Chiralities_Consistent>  (91) 
1

>  <s_lp_Variant>  (91) 
23:0-1

>  <s_i_glide_gridfile>  (91) 
pfpi4k_grid

>  <i_i_glide_lignum>  (91) 
33

>  <i_i_glide_rotatable_bonds>  (91) 
5

>  <r_i_docking_score>  (91) 
-2.67619

>  <r_i_glide_ligand_efficiency>  (91) 
-0.0922823

>  <r_i_glide_ligand_efficiency_sa>  (91) 
-0.28352

>  <r_i_glide_ligand_efficiency_ln>  (91) 
-0.612779

>  <r_i_glide_gscore>  (91) 
-2.67619

>  <r_i_glide_lipo>  (91) 
-0.474484

>  <r_i_glide_hbond>  (91) 
0

>  <r_i_glide_metal>  (91) 
-0

>  <r_i_glide_rewards>  (91) 
-0.639983

>  <r_i_glide_evdw>  (91) 
-17.2227

>  <r_i_glide_ecoul>  (91) 
-4.67056

>  <r_i_glide_erotb>  (91) 
0

>  <r_i_glide_esite>  (91) 
0

>  <r_i_glide_emodel>  (91) 
-24.4287

>  <r_i_glide_energy>  (91) 
-21.8933

>  <r_i_glide_einternal>  (91) 
1.29186

>  <r_i_glide_intrahb_reward>  (91) 
-0

>  <i_i_glide_confnum>  (91) 
2

>  <i_i_glide_posenum>  (91) 
7

>  <r_i_glide_eff_state_penalty>  (91) 
0

>  <ligand_id>  (91) 
23

>  <original_smiles>  (91) 
C=C1C(O)C2C(C)(C)CCC(O)C2(C)C2C(O)C3=CCC(O)C4(COC(O)C34)C12

>  <smiles>  (91) 
[H]OC1([H])OC([H])([H])C23C([H])(O[H])C([H])([H])C([H])=C(C([H])(O[H])C4([H])C2([H])C(=C([H])[H])C([H])(O[H])C2([H])C(C([H])([H])[H])(C([H])([H])[H])C([H])([H])C([H])([H])C([H])(O[H])C42C([H])([H])[H])C13[H]

$$$$
24:0:0
     RDKit          3D

 32 34  0  0  1  0  0  0  0  0999 V2000
    6.5573   -5.8812    2.3212 C   0  0  0  0  0  0  0  0  0  0  0  0
    5.5573   -5.0558    2.0058 N   0  0  0  0  0  0  0  0  0  0  0  0
    5.9748   -4.0115    1.1718 C   0  0  0  0  0  0  0  0  0  0  0  0
    4.9629   -2.9822    0.7358 C   0  0  0  0  0  0  0  0  0  0  0  0
    5.0385   -2.6683   -0.7130 N   0  0  1  0  0  0  0  0  0  0  0  0
    4.7861   -3.8555   -1.5895 C   0  0  0  0  0  0  0  0  0  0  0  0
    4.8941   -3.5183   -3.0941 C   0  0  0  0  0  0  0  0  0  0  0  0
    3.9324   -2.3732   -3.3958 C   0  0  2  0  0  0  0  0  0  0  0  0
    3.9698   -1.8541   -4.7107 O   0  0  0  0  0  0  0  0  0  0  0  0
    3.4024   -0.5484   -4.6658 C   0  0  0  0  0  0  0  0  0  0  0  0
    3.5771   -0.0876   -3.2217 C   0  0  0  0  0  0  0  0  0  0  0  0
    4.3642   -1.1891   -2.5670 C   0  0  1  0  0  0  0  0  0  0  0  0
    4.1865   -1.4988   -1.0777 C   0  0  0  0  0  0  0  0  0  0  0  0
    7.3170   -4.0642    0.8654 C   0  0  0  0  0  0  0  0  0  0  0  0
    8.0981   -5.4560    1.5901 S   0  0  0  0  0  0  0  0  0  0  0  0
    6.3872   -6.7309    2.9686 H   0  0  0  0  0  0  0  0  0  0  0  0
    3.9527   -3.3285    0.9635 H   0  0  0  0  0  0  0  0  0  0  0  0
    5.1087   -2.0660    1.3100 H   0  0  0  0  0  0  0  0  0  0  0  0
    5.4932   -4.6501   -1.3619 H   0  0  0  0  0  0  0  0  0  0  0  0
    3.7905   -4.2478   -1.3759 H   0  0  0  0  0  0  0  0  0  0  0  0
    5.9197   -3.2534   -3.3666 H   0  0  0  0  0  0  0  0  0  0  0  0
    4.6329   -4.3957   -3.6853 H   0  0  0  0  0  0  0  0  0  0  0  0
    2.9028   -2.6575   -3.1515 H   0  0  0  0  0  0  0  0  0  0  0  0
    3.8986    0.1091   -5.3744 H   0  0  0  0  0  0  0  0  0  0  0  0
    2.3432   -0.5690   -4.9211 H   0  0  0  0  0  0  0  0  0  0  0  0
    4.0867    0.8747   -3.1625 H   0  0  0  0  0  0  0  0  0  0  0  0
    2.5974    0.0119   -2.7551 H   0  0  0  0  0  0  0  0  0  0  0  0
    5.4132   -0.9706   -2.7312 H   0  0  0  0  0  0  0  0  0  0  0  0
    3.1373   -1.7119   -0.8604 H   0  0  0  0  0  0  0  0  0  0  0  0
    4.4747   -0.6301   -0.4837 H   0  0  0  0  0  0  0  0  0  0  0  0
    7.9021   -3.3836    0.2617 H   0  0  0  0  0  0  0  0  0  0  0  0
    5.9953   -2.3978   -0.8841 H   0  0  0  0  0  0  0  0  0  0  0  0
  1 15  1  0
  1  2  2  0
  1 16  1  0
  2  3  1  0
  3  4  1  0
  3 14  2  0
  4  5  1  0
  4 17  1  0
  4 18  1  0
  5 13  1  0
  5  6  1  0
  5 32  1  1
  6  7  1  0
  6 19  1  0
  6 20  1  0
  7  8  1  0
  7 21  1  0
  7 22  1  0
  8 12  1  0
  8  9  1  0
  8 23  1  1
  9 10  1  0
 10 11  1  0
 10 24  1  0
 10 25  1  0
 11 12  1  0
 11 26  1  0
 11 27  1  0
 12 13  1  0
 12 28  1  1
 13 29  1  0
 13 30  1  0
 14 15  1  0
 14 31  1  0
M  CHG  1   5   1
M  END
>  <i_m_ct_stereo_status>  (92) 
1

>  <s_m_source_file>  (92) 
/var/tmp/pbs.5076255.sched01/tmppv1df_bs/0l6e7d74h.sdf

>  <i_m_source_file_index>  (92) 
34

>  <i_lp_mmshare_version>  (92) 
48012

>  <i_f3d_flags>  (92) 
0

>  <s_epik_input>  (92) 
W2NIXTFzW2NIXW5jMVtDSDJdTihbQ0gyXVtDSDJdMilbQ0gyXVtDQEBIXShbQ0BIXTIzKVtDSDJdW0NIMl1PMw==

>  <s_epik_cmdline>  (92) 
J2VwaWtfcHl0aG9uJywgJy1waHQnLCAnMi4wJywgJy1waCcsICc3LjAnLCAnLXRuJywgJzgnLCAnLW1hJywgJzIwMCcsICctaW1hZScsICc8aW5maWxlLm1hZT4nLCAnLW9tYWUnLCAnPG91dGZpbGUubWFlPic=

>  <r_epik_Ionization_Penalty>  (92) 
0.151623

>  <r_epik_Ionization_Penalty_Charging>  (92) 
0.151623

>  <r_epik_Ionization_Penalty_Neutral>  (92) 
1.42601e-07

>  <r_epik_State_Penalty>  (92) 
0.140913

>  <r_epik_Charging_Adjusted_Penalty>  (92) 
0.292536

>  <i_epik_Tot_Q>  (92) 
1

>  <i_epik_Tot_abs_Q>  (92) 
1

>  <s_lp_Force_Field>  (92) 
OPLS3e

>  <r_lp_Energy>  (92) 
10.6255

>  <b_lp_Chiralities_Consistent>  (92) 
1

>  <s_lp_Variant>  (92) 
24:0-1

>  <s_i_glide_gridfile>  (92) 
pfpi4k_grid

>  <i_i_glide_lignum>  (92) 
34

>  <i_i_glide_rotatable_bonds>  (92) 
2

>  <r_i_docking_score>  (92) 
-4.56321

>  <r_i_glide_ligand_efficiency>  (92) 
-0.304214

>  <r_i_glide_ligand_efficiency_sa>  (92) 
-0.750257

>  <r_i_glide_ligand_efficiency_ln>  (92) 
-1.23062

>  <r_i_glide_gscore>  (92) 
-4.56321

>  <r_i_glide_lipo>  (92) 
-0.986483

>  <r_i_glide_hbond>  (92) 
-0.32

>  <r_i_glide_metal>  (92) 
-0

>  <r_i_glide_rewards>  (92) 
-1.87274

>  <r_i_glide_evdw>  (92) 
-20.23

>  <r_i_glide_ecoul>  (92) 
-6.91296

>  <r_i_glide_erotb>  (92) 
0.668418

>  <r_i_glide_esite>  (92) 
-0.00396576

>  <r_i_glide_emodel>  (92) 
-36.8578

>  <r_i_glide_energy>  (92) 
-27.1429

>  <r_i_glide_einternal>  (92) 
0.56266

>  <r_i_glide_intrahb_reward>  (92) 
-0

>  <i_i_glide_confnum>  (92) 
3

>  <i_i_glide_posenum>  (92) 
24

>  <r_i_glide_eff_state_penalty>  (92) 
0

>  <ligand_id>  (92) 
24

>  <original_smiles>  (92) 
c1nc(CN2CCC3OCCC3C2)cs1

>  <smiles>  (92) 
[H]c1nc(C([H])([H])[N+]2([H])C([H])([H])C([H])([H])C3([H])OC([H])([H])C([H])([H])C3([H])C2([H])[H])c([H])s1

$$$$
24:0:1
     RDKit          3D

 32 34  0  0  1  0  0  0  0  0999 V2000
    7.6345   -5.3515    1.6420 C   0  0  0  0  0  0  0  0  0  0  0  0
    6.9871   -4.2449    1.2530 N   0  0  0  0  0  0  0  0  0  0  0  0
    5.6007   -4.4297    1.2340 C   0  0  0  0  0  0  0  0  0  0  0  0
    4.7053   -3.2959    0.8089 C   0  0  0  0  0  0  0  0  0  0  0  0
    4.9208   -2.9052   -0.6081 N   0  0  1  0  0  0  0  0  0  0  0  0
    4.7924   -4.0454   -1.5598 C   0  0  0  0  0  0  0  0  0  0  0  0
    5.0099   -3.6398   -3.0350 C   0  0  0  0  0  0  0  0  0  0  0  0
    4.0394   -2.5079   -3.3652 C   0  0  2  0  0  0  0  0  0  0  0  0
    4.1733   -1.9147   -4.6418 O   0  0  0  0  0  0  0  0  0  0  0  0
    3.5434   -0.6400   -4.5929 C   0  0  0  0  0  0  0  0  0  0  0  0
    3.5786   -0.2536   -3.1189 C   0  0  0  0  0  0  0  0  0  0  0  0
    4.3697   -1.3514   -2.4581 C   0  0  1  0  0  0  0  0  0  0  0  0
    4.0785   -1.7330   -1.0013 C   0  0  0  0  0  0  0  0  0  0  0  0
    5.2145   -5.7036    1.5839 C   0  0  0  0  0  0  0  0  0  0  0  0
    6.5844   -6.7186    1.9763 S   0  0  0  0  0  0  0  0  0  0  0  0
    8.7112   -5.3634    1.7289 H   0  0  0  0  0  0  0  0  0  0  0  0
    3.6556   -3.5518    0.9646 H   0  0  0  0  0  0  0  0  0  0  0  0
    4.9048   -2.4289    1.4363 H   0  0  0  0  0  0  0  0  0  0  0  0
    5.4985   -4.8356   -1.3142 H   0  0  0  0  0  0  0  0  0  0  0  0
    3.7976   -4.4696   -1.4341 H   0  0  0  0  0  0  0  0  0  0  0  0
    6.0465   -3.3345   -3.2109 H   0  0  0  0  0  0  0  0  0  0  0  0
    4.8243   -4.4957   -3.6824 H   0  0  0  0  0  0  0  0  0  0  0  0
    3.0022   -2.8341   -3.2262 H   0  0  0  0  0  0  0  0  0  0  0  0
    4.0942    0.0630   -5.2152 H   0  0  0  0  0  0  0  0  0  0  0  0
    2.5150   -0.6631   -4.9528 H   0  0  0  0  0  0  0  0  0  0  0  0
    4.0634    0.7145   -2.9938 H   0  0  0  0  0  0  0  0  0  0  0  0
    2.5664   -0.1983   -2.7196 H   0  0  0  0  0  0  0  0  0  0  0  0
    5.4236   -1.0961   -2.5567 H   0  0  0  0  0  0  0  0  0  0  0  0
    3.0191   -1.9824   -0.8854 H   0  0  0  0  0  0  0  0  0  0  0  0
    4.2885   -0.8880   -0.3446 H   0  0  0  0  0  0  0  0  0  0  0  0
    4.2137   -6.1138    1.6432 H   0  0  0  0  0  0  0  0  0  0  0  0
    5.8893   -2.6154   -0.6572 H   0  0  0  0  0  0  0  0  0  0  0  0
  1 15  1  0
  1  2  2  0
  1 16  1  0
  2  3  1  0
  3  4  1  0
  3 14  2  0
  4  5  1  0
  4 17  1  0
  4 18  1  0
  5 13  1  0
  5  6  1  0
  5 32  1  1
  6  7  1  0
  6 19  1  0
  6 20  1  0
  7  8  1  0
  7 21  1  0
  7 22  1  0
  8 12  1  0
  8  9  1  0
  8 23  1  1
  9 10  1  0
 10 11  1  0
 10 24  1  0
 10 25  1  0
 11 12  1  0
 11 26  1  0
 11 27  1  0
 12 13  1  0
 12 28  1  1
 13 29  1  0
 13 30  1  0
 14 15  1  0
 14 31  1  0
M  CHG  1   5   1
M  END
>  <i_m_ct_stereo_status>  (93) 
1

>  <s_m_source_file>  (93) 
/var/tmp/pbs.5076255.sched01/tmppv1df_bs/0l6e7d74h.sdf

>  <i_m_source_file_index>  (93) 
34

>  <i_lp_mmshare_version>  (93) 
48012

>  <i_f3d_flags>  (93) 
0

>  <s_epik_input>  (93) 
W2NIXTFzW2NIXW5jMVtDSDJdTihbQ0gyXVtDSDJdMilbQ0gyXVtDQEBIXShbQ0BIXTIzKVtDSDJdW0NIMl1PMw==

>  <s_epik_cmdline>  (93) 
J2VwaWtfcHl0aG9uJywgJy1waHQnLCAnMi4wJywgJy1waCcsICc3LjAnLCAnLXRuJywgJzgnLCAnLW1hJywgJzIwMCcsICctaW1hZScsICc8aW5maWxlLm1hZT4nLCAnLW9tYWUnLCAnPG91dGZpbGUubWFlPic=

>  <r_epik_Ionization_Penalty>  (93) 
0.151623

>  <r_epik_Ionization_Penalty_Charging>  (93) 
0.151623

>  <r_epik_Ionization_Penalty_Neutral>  (93) 
1.42601e-07

>  <r_epik_State_Penalty>  (93) 
0.140913

>  <r_epik_Charging_Adjusted_Penalty>  (93) 
0.292536

>  <i_epik_Tot_Q>  (93) 
1

>  <i_epik_Tot_abs_Q>  (93) 
1

>  <s_lp_Force_Field>  (93) 
OPLS3e

>  <r_lp_Energy>  (93) 
10.6255

>  <b_lp_Chiralities_Consistent>  (93) 
1

>  <s_lp_Variant>  (93) 
24:0-1

>  <s_i_glide_gridfile>  (93) 
pfpi4k_grid

>  <i_i_glide_lignum>  (93) 
34

>  <i_i_glide_rotatable_bonds>  (93) 
2

>  <r_i_docking_score>  (93) 
-4.54375

>  <r_i_glide_ligand_efficiency>  (93) 
-0.302917

>  <r_i_glide_ligand_efficiency_sa>  (93) 
-0.747057

>  <r_i_glide_ligand_efficiency_ln>  (93) 
-1.22537

>  <r_i_glide_gscore>  (93) 
-4.54375

>  <r_i_glide_lipo>  (93) 
-0.870425

>  <r_i_glide_hbond>  (93) 
-0.32

>  <r_i_glide_metal>  (93) 
-0

>  <r_i_glide_rewards>  (93) 
-1.87274

>  <r_i_glide_evdw>  (93) 
-18.8793

>  <r_i_glide_ecoul>  (93) 
-8.0336

>  <r_i_glide_erotb>  (93) 
0.668418

>  <r_i_glide_esite>  (93) 
0

>  <r_i_glide_emodel>  (93) 
-36.5643

>  <r_i_glide_energy>  (93) 
-26.9129

>  <r_i_glide_einternal>  (93) 
0.600558

>  <r_i_glide_intrahb_reward>  (93) 
-0

>  <i_i_glide_confnum>  (93) 
3

>  <i_i_glide_posenum>  (93) 
8

>  <r_i_glide_eff_state_penalty>  (93) 
0

>  <ligand_id>  (93) 
24

>  <original_smiles>  (93) 
c1nc(CN2CCC3OCCC3C2)cs1

>  <smiles>  (93) 
[H]c1nc(C([H])([H])[N+]2([H])C([H])([H])C([H])([H])C3([H])OC([H])([H])C([H])([H])C3([H])C2([H])[H])c([H])s1

$$$$
24:0:2
     RDKit          3D

 32 34  0  0  1  0  0  0  0  0999 V2000
    5.0171   -3.4354   -2.4928 C   0  0  0  0  0  0  0  0  0  0  0  0
    5.2239   -2.7836   -1.3454 N   0  0  0  0  0  0  0  0  0  0  0  0
    4.3005   -1.7512   -1.1581 C   0  0  0  0  0  0  0  0  0  0  0  0
    4.3987   -0.8850    0.0662 C   0  0  0  0  0  0  0  0  0  0  0  0
    3.1586   -0.9081    0.8825 N   0  0  1  0  0  0  0  0  0  0  0  0
    3.0946   -2.0993    1.7850 C   0  0  0  0  0  0  0  0  0  0  0  0
    1.8232   -2.1080    2.6639 C   0  0  0  0  0  0  0  0  0  0  0  0
    1.7250   -0.7842    3.4239 C   0  0  2  0  0  0  0  0  0  0  0  0
    0.5447   -0.5729    4.1723 O   0  0  0  0  0  0  0  0  0  0  0  0
    0.4548    0.8361    4.4005 C   0  0  0  0  0  0  0  0  0  0  0  0
    1.2648    1.5153    3.2803 C   0  0  0  0  0  0  0  0  0  0  0  0
    1.6519    0.3356    2.4095 C   0  0  1  0  0  0  0  0  0  0  0  0
    2.9677    0.3712    1.6274 C   0  0  0  0  0  0  0  0  0  0  0  0
    3.4130   -1.6185   -2.2008 C   0  0  0  0  0  0  0  0  0  0  0  0
    3.6854   -2.8086   -3.4542 S   0  0  0  0  0  0  0  0  0  0  0  0
    5.6493   -4.2608   -2.7738 H   0  0  0  0  0  0  0  0  0  0  0  0
    5.2540   -1.1855    0.6771 H   0  0  0  0  0  0  0  0  0  0  0  0
    4.6170    0.1316   -0.2496 H   0  0  0  0  0  0  0  0  0  0  0  0
    3.1419   -3.0111    1.1880 H   0  0  0  0  0  0  0  0  0  0  0  0
    3.9660   -2.1095    2.4452 H   0  0  0  0  0  0  0  0  0  0  0  0
    0.9428   -2.2304    2.0399 H   0  0  0  0  0  0  0  0  0  0  0  0
    1.8408   -2.9522    3.3540 H   0  0  0  0  0  0  0  0  0  0  0  0
    2.5924   -0.6563    4.0837 H   0  0  0  0  0  0  0  0  0  0  0  0
   -0.5900    1.1390    4.3926 H   0  0  0  0  0  0  0  0  0  0  0  0
    0.8681    1.0927    5.3759 H   0  0  0  0  0  0  0  0  0  0  0  0
    0.6724    2.2477    2.7306 H   0  0  0  0  0  0  0  0  0  0  0  0
    2.1397    2.0253    3.6887 H   0  0  0  0  0  0  0  0  0  0  0  0
    0.8276    0.1532    1.7143 H   0  0  0  0  0  0  0  0  0  0  0  0
    3.8101    0.5477    2.3016 H   0  0  0  0  0  0  0  0  0  0  0  0
    2.9327    1.1981    0.9222 H   0  0  0  0  0  0  0  0  0  0  0  0
    2.6154   -0.8941   -2.3118 H   0  0  0  0  0  0  0  0  0  0  0  0
    2.3779   -0.9795    0.2319 H   0  0  0  0  0  0  0  0  0  0  0  0
  1 15  1  0
  1  2  2  0
  1 16  1  0
  2  3  1  0
  3  4  1  0
  3 14  2  0
  4  5  1  0
  4 17  1  0
  4 18  1  0
  5 13  1  0
  5  6  1  0
  5 32  1  6
  6  7  1  0
  6 19  1  0
  6 20  1  0
  7  8  1  0
  7 21  1  0
  7 22  1  0
  8 12  1  0
  8  9  1  0
  8 23  1  1
  9 10  1  0
 10 11  1  0
 10 24  1  0
 10 25  1  0
 11 12  1  0
 11 26  1  0
 11 27  1  0
 12 13  1  0
 12 28  1  6
 13 29  1  0
 13 30  1  0
 14 15  1  0
 14 31  1  0
M  CHG  1   5   1
M  END
>  <i_m_ct_stereo_status>  (94) 
1

>  <s_m_source_file>  (94) 
/var/tmp/pbs.5076255.sched01/tmppv1df_bs/0l6e7d74h.sdf

>  <i_m_source_file_index>  (94) 
34

>  <i_lp_mmshare_version>  (94) 
48012

>  <i_f3d_flags>  (94) 
0

>  <s_epik_input>  (94) 
W2NIXTFzW2NIXW5jMVtDSDJdTihbQ0gyXVtDSDJdMilbQ0gyXVtDQEBIXShbQ0BIXTIzKVtDSDJdW0NIMl1PMw==

>  <s_epik_cmdline>  (94) 
J2VwaWtfcHl0aG9uJywgJy1waHQnLCAnMi4wJywgJy1waCcsICc3LjAnLCAnLXRuJywgJzgnLCAnLW1hJywgJzIwMCcsICctaW1hZScsICc8aW5maWxlLm1hZT4nLCAnLW9tYWUnLCAnPG91dGZpbGUubWFlPic=

>  <r_epik_Ionization_Penalty>  (94) 
0.151623

>  <r_epik_Ionization_Penalty_Charging>  (94) 
0.151623

>  <r_epik_Ionization_Penalty_Neutral>  (94) 
1.42601e-07

>  <r_epik_State_Penalty>  (94) 
0.140913

>  <r_epik_Charging_Adjusted_Penalty>  (94) 
0.292536

>  <i_epik_Tot_Q>  (94) 
1

>  <i_epik_Tot_abs_Q>  (94) 
1

>  <s_lp_Force_Field>  (94) 
OPLS3e

>  <r_lp_Energy>  (94) 
10.6255

>  <b_lp_Chiralities_Consistent>  (94) 
1

>  <s_lp_Variant>  (94) 
24:0-1

>  <s_i_glide_gridfile>  (94) 
pfpi4k_grid

>  <i_i_glide_lignum>  (94) 
34

>  <i_i_glide_rotatable_bonds>  (94) 
2

>  <r_i_docking_score>  (94) 
-3.79425

>  <r_i_glide_ligand_efficiency>  (94) 
-0.25295

>  <r_i_glide_ligand_efficiency_sa>  (94) 
-0.623828

>  <r_i_glide_ligand_efficiency_ln>  (94) 
-1.02325

>  <r_i_glide_gscore>  (94) 
-3.79425

>  <r_i_glide_lipo>  (94) 
-0.38222

>  <r_i_glide_hbond>  (94) 
-0.2

>  <r_i_glide_metal>  (94) 
-0

>  <r_i_glide_rewards>  (94) 
-1.87274

>  <r_i_glide_evdw>  (94) 
-21.9587

>  <r_i_glide_ecoul>  (94) 
-5.65186

>  <r_i_glide_erotb>  (94) 
0.668418

>  <r_i_glide_esite>  (94) 
-0.0619955

>  <r_i_glide_emodel>  (94) 
-35.3666

>  <r_i_glide_energy>  (94) 
-27.6105

>  <r_i_glide_einternal>  (94) 
1.06435

>  <r_i_glide_intrahb_reward>  (94) 
-0

>  <i_i_glide_confnum>  (94) 
1

>  <i_i_glide_posenum>  (94) 
1

>  <r_i_glide_eff_state_penalty>  (94) 
0

>  <ligand_id>  (94) 
24

>  <original_smiles>  (94) 
c1nc(CN2CCC3OCCC3C2)cs1

>  <smiles>  (94) 
[H]c1nc(C([H])([H])[N+]2([H])C([H])([H])C([H])([H])C3([H])OC([H])([H])C([H])([H])C3([H])C2([H])[H])c([H])s1

$$$$
24:1:0
     RDKit          3D

 31 33  0  0  1  0  0  0  0  0999 V2000
    7.2373   -6.1259    1.8226 C   0  0  0  0  0  0  0  0  0  0  0  0
    6.0880   -5.5084    1.5286 N   0  0  0  0  0  0  0  0  0  0  0  0
    6.3080   -4.2401    0.9801 C   0  0  0  0  0  0  0  0  0  0  0  0
    5.1617   -3.3878    0.5200 C   0  0  0  0  0  0  0  0  0  0  0  0
    5.1959   -2.9051   -0.8616 N   0  0  0  0  0  0  0  0  0  0  0  0
    4.9347   -4.0511   -1.7429 C   0  0  0  0  0  0  0  0  0  0  0  0
    4.9382   -3.6723   -3.2394 C   0  0  0  0  0  0  0  0  0  0  0  0
    3.9351   -2.5413   -3.4367 C   0  0  2  0  0  0  0  0  0  0  0  0
    3.8951   -1.9322   -4.7164 O   0  0  0  0  0  0  0  0  0  0  0  0
    3.3012   -0.6449   -4.5583 C   0  0  0  0  0  0  0  0  0  0  0  0
    3.5086   -0.2832   -3.0919 C   0  0  0  0  0  0  0  0  0  0  0  0
    4.3686   -1.3969   -2.5503 C   0  0  1  0  0  0  0  0  0  0  0  0
    4.2498   -1.8101   -1.0748 C   0  0  0  0  0  0  0  0  0  0  0  0
    7.6334   -3.9095    0.8683 C   0  0  0  0  0  0  0  0  0  0  0  0
    8.6764   -5.1919    1.4378 S   0  0  0  0  0  0  0  0  0  0  0  0
    7.2512   -7.1190    2.2468 H   0  0  0  0  0  0  0  0  0  0  0  0
    4.2262   -3.9378    0.6482 H   0  0  0  0  0  0  0  0  0  0  0  0
    5.0855   -2.5279    1.1787 H   0  0  0  0  0  0  0  0  0  0  0  0
    5.6852   -4.8062   -1.5467 H   0  0  0  0  0  0  0  0  0  0  0  0
    3.9746   -4.5040   -1.4941 H   0  0  0  0  0  0  0  0  0  0  0  0
    5.9392   -3.3626   -3.5345 H   0  0  0  0  0  0  0  0  0  0  0  0
    4.6761   -4.5320   -3.8580 H   0  0  0  0  0  0  0  0  0  0  0  0
    2.9248   -2.8716   -3.1693 H   0  0  0  0  0  0  0  0  0  0  0  0
    3.7588    0.0779   -5.2350 H   0  0  0  0  0  0  0  0  0  0  0  0
    2.2307   -0.6776   -4.7657 H   0  0  0  0  0  0  0  0  0  0  0  0
    3.9746    0.6929   -2.9732 H   0  0  0  0  0  0  0  0  0  0  0  0
    2.5452   -0.2797   -2.5800 H   0  0  0  0  0  0  0  0  0  0  0  0
    5.4101   -1.1397   -2.7393 H   0  0  0  0  0  0  0  0  0  0  0  0
    3.2257   -2.0985   -0.8243 H   0  0  0  0  0  0  0  0  0  0  0  0
    4.5248   -0.9702   -0.4374 H   0  0  0  0  0  0  0  0  0  0  0  0
    8.0383   -2.9849    0.4819 H   0  0  0  0  0  0  0  0  0  0  0  0
  1 15  1  0
  1  2  2  0
  1 16  1  0
  2  3  1  0
  3  4  1  0
  3 14  2  0
  4  5  1  0
  4 17  1  0
  4 18  1  0
  5 13  1  0
  5  6  1  0
  6  7  1  0
  6 19  1  0
  6 20  1  0
  7  8  1  0
  7 21  1  0
  7 22  1  0
  8 12  1  0
  8  9  1  0
  8 23  1  1
  9 10  1  0
 10 11  1  0
 10 24  1  0
 10 25  1  0
 11 12  1  0
 11 26  1  0
 11 27  1  0
 12 13  1  0
 12 28  1  6
 13 29  1  0
 13 30  1  0
 14 15  1  0
 14 31  1  0
M  END
>  <i_m_ct_stereo_status>  (95) 
1

>  <s_m_source_file>  (95) 
/var/tmp/pbs.5076255.sched01/tmppv1df_bs/0l6e7d74h.sdf

>  <i_m_source_file_index>  (95) 
35

>  <i_lp_mmshare_version>  (95) 
48012

>  <i_f3d_flags>  (95) 
0

>  <s_epik_input>  (95) 
W2NIXTFzW2NIXW5jMVtDSDJdTihbQ0gyXVtDSDJdMilbQ0gyXVtDQEBIXShbQ0BIXTIzKVtDSDJdW0NIMl1PMw==

>  <s_epik_cmdline>  (95) 
J2VwaWtfcHl0aG9uJywgJy1waHQnLCAnMi4wJywgJy1waCcsICc3LjAnLCAnLXRuJywgJzgnLCAnLW1hJywgJzIwMCcsICctaW1hZScsICc8aW5maWxlLm1hZT4nLCAnLW9tYWUnLCAnPG91dGZpbGUubWFlPic=

>  <r_epik_Ionization_Penalty>  (95) 
0.881766

>  <r_epik_Ionization_Penalty_Charging>  (95) 
0

>  <r_epik_Ionization_Penalty_Neutral>  (95) 
0.881766

>  <r_epik_State_Penalty>  (95) 
0.919978

>  <r_epik_Charging_Adjusted_Penalty>  (95) 
0.919978

>  <i_epik_Tot_Q>  (95) 
0

>  <i_epik_Tot_abs_Q>  (95) 
0

>  <s_lp_Force_Field>  (95) 
OPLS3e

>  <r_lp_Energy>  (95) 
12.7584

>  <b_lp_Chiralities_Consistent>  (95) 
1

>  <s_lp_Variant>  (95) 
24:0-2

>  <s_i_glide_gridfile>  (95) 
pfpi4k_grid

>  <i_i_glide_lignum>  (95) 
35

>  <i_i_glide_rotatable_bonds>  (95) 
2

>  <r_i_docking_score>  (95) 
-4.32384

>  <r_i_glide_ligand_efficiency>  (95) 
-0.288256

>  <r_i_glide_ligand_efficiency_sa>  (95) 
-0.710901

>  <r_i_glide_ligand_efficiency_ln>  (95) 
-1.16607

>  <r_i_glide_gscore>  (95) 
-4.32384

>  <r_i_glide_lipo>  (95) 
-0.906169

>  <r_i_glide_hbond>  (95) 
-0.32

>  <r_i_glide_metal>  (95) 
-0

>  <r_i_glide_rewards>  (95) 
-1.87961

>  <r_i_glide_evdw>  (95) 
-20.4324

>  <r_i_glide_ecoul>  (95) 
-5.79968

>  <r_i_glide_erotb>  (95) 
0.673508

>  <r_i_glide_esite>  (95) 
0

>  <r_i_glide_emodel>  (95) 
-30.6246

>  <r_i_glide_energy>  (95) 
-26.232

>  <r_i_glide_einternal>  (95) 
4.3228

>  <r_i_glide_intrahb_reward>  (95) 
-0

>  <i_i_glide_confnum>  (95) 
6

>  <i_i_glide_posenum>  (95) 
1

>  <r_i_glide_eff_state_penalty>  (95) 
0

>  <ligand_id>  (95) 
24

>  <original_smiles>  (95) 
c1nc(CN2CCC3OCCC3C2)cs1

>  <smiles>  (95) 
[H]c1nc(C([H])([H])N2C([H])([H])C([H])([H])C3([H])OC([H])([H])C([H])([H])C3([H])C2([H])[H])c([H])s1

$$$$
24:1:1
     RDKit          3D

 31 33  0  0  1  0  0  0  0  0999 V2000
    5.2835   -0.6143    3.3516 C   0  0  0  0  0  0  0  0  0  0  0  0
    5.4452   -1.6781    2.5678 N   0  0  0  0  0  0  0  0  0  0  0  0
    4.3092   -1.9417    1.7995 C   0  0  0  0  0  0  0  0  0  0  0  0
    4.3526   -3.0105    0.7461 C   0  0  0  0  0  0  0  0  0  0  0  0
    4.7398   -2.6381   -0.6155 N   0  0  0  0  0  0  0  0  0  0  0  0
    4.7212   -3.8255   -1.4813 C   0  0  0  0  0  0  0  0  0  0  0  0
    5.0206   -3.4819   -2.9598 C   0  0  0  0  0  0  0  0  0  0  0  0
    4.0345   -2.4110   -3.4090 C   0  0  2  0  0  0  0  0  0  0  0  0
    4.2102   -1.8551   -4.6987 O   0  0  0  0  0  0  0  0  0  0  0  0
    3.5641   -0.5851   -4.7135 C   0  0  0  0  0  0  0  0  0  0  0  0
    3.4600   -0.1670   -3.2551 C   0  0  0  0  0  0  0  0  0  0  0  0
    4.2523   -1.2158   -2.5246 C   0  0  1  0  0  0  0  0  0  0  0  0
    3.8468   -1.5758   -1.1014 C   0  0  0  0  0  0  0  0  0  0  0  0
    3.2708   -1.0721    2.0451 C   0  0  0  0  0  0  0  0  0  0  0  0
    3.6967    0.1408    3.2301 S   0  0  0  0  0  0  0  0  0  0  0  0
    6.0934   -0.2635    3.9805 H   0  0  0  0  0  0  0  0  0  0  0  0
    5.0715   -3.7703    1.0560 H   0  0  0  0  0  0  0  0  0  0  0  0
    3.3893   -3.5228    0.7129 H   0  0  0  0  0  0  0  0  0  0  0  0
    5.4462   -4.5557   -1.1205 H   0  0  0  0  0  0  0  0  0  0  0  0
    3.7425   -4.3025   -1.4249 H   0  0  0  0  0  0  0  0  0  0  0  0
    6.0490   -3.1235   -3.0620 H   0  0  0  0  0  0  0  0  0  0  0  0
    4.9378   -4.3672   -3.5902 H   0  0  0  0  0  0  0  0  0  0  0  0
    3.0024   -2.7687   -3.3250 H   0  0  0  0  0  0  0  0  0  0  0  0
    4.1356    0.1405   -5.2921 H   0  0  0  0  0  0  0  0  0  0  0  0
    2.5610   -0.6577   -5.1293 H   0  0  0  0  0  0  0  0  0  0  0  0
    3.8728    0.8308   -3.1151 H   0  0  0  0  0  0  0  0  0  0  0  0
    2.4218   -0.1668   -2.9277 H   0  0  0  0  0  0  0  0  0  0  0  0
    5.2981   -0.9017   -2.5230 H   0  0  0  0  0  0  0  0  0  0  0  0
    2.8070   -1.9015   -1.0550 H   0  0  0  0  0  0  0  0  0  0  0  0
    3.9605   -0.6794   -0.4956 H   0  0  0  0  0  0  0  0  0  0  0  0
    2.3178   -1.0436    1.5309 H   0  0  0  0  0  0  0  0  0  0  0  0
  1 15  1  0
  1  2  2  0
  1 16  1  0
  2  3  1  0
  3  4  1  0
  3 14  2  0
  4  5  1  0
  4 17  1  0
  4 18  1  0
  5 13  1  0
  5  6  1  0
  6  7  1  0
  6 19  1  0
  6 20  1  0
  7  8  1  0
  7 21  1  0
  7 22  1  0
  8 12  1  0
  8  9  1  0
  8 23  1  6
  9 10  1  0
 10 11  1  0
 10 24  1  0
 10 25  1  0
 11 12  1  0
 11 26  1  0
 11 27  1  0
 12 13  1  0
 12 28  1  1
 13 29  1  0
 13 30  1  0
 14 15  1  0
 14 31  1  0
M  END
>  <i_m_ct_stereo_status>  (96) 
1

>  <s_m_source_file>  (96) 
/var/tmp/pbs.5076255.sched01/tmppv1df_bs/0l6e7d74h.sdf

>  <i_m_source_file_index>  (96) 
35

>  <i_lp_mmshare_version>  (96) 
48012

>  <i_f3d_flags>  (96) 
0

>  <s_epik_input>  (96) 
W2NIXTFzW2NIXW5jMVtDSDJdTihbQ0gyXVtDSDJdMilbQ0gyXVtDQEBIXShbQ0BIXTIzKVtDSDJdW0NIMl1PMw==

>  <s_epik_cmdline>  (96) 
J2VwaWtfcHl0aG9uJywgJy1waHQnLCAnMi4wJywgJy1waCcsICc3LjAnLCAnLXRuJywgJzgnLCAnLW1hJywgJzIwMCcsICctaW1hZScsICc8aW5maWxlLm1hZT4nLCAnLW9tYWUnLCAnPG91dGZpbGUubWFlPic=

>  <r_epik_Ionization_Penalty>  (96) 
0.881766

>  <r_epik_Ionization_Penalty_Charging>  (96) 
0

>  <r_epik_Ionization_Penalty_Neutral>  (96) 
0.881766

>  <r_epik_State_Penalty>  (96) 
0.919978

>  <r_epik_Charging_Adjusted_Penalty>  (96) 
0.919978

>  <i_epik_Tot_Q>  (96) 
0

>  <i_epik_Tot_abs_Q>  (96) 
0

>  <s_lp_Force_Field>  (96) 
OPLS3e

>  <r_lp_Energy>  (96) 
12.7584

>  <b_lp_Chiralities_Consistent>  (96) 
1

>  <s_lp_Variant>  (96) 
24:0-2

>  <s_i_glide_gridfile>  (96) 
pfpi4k_grid

>  <i_i_glide_lignum>  (96) 
35

>  <i_i_glide_rotatable_bonds>  (96) 
2

>  <r_i_docking_score>  (96) 
-4.2946

>  <r_i_glide_ligand_efficiency>  (96) 
-0.286307

>  <r_i_glide_ligand_efficiency_sa>  (96) 
-0.706094

>  <r_i_glide_ligand_efficiency_ln>  (96) 
-1.15818

>  <r_i_glide_gscore>  (96) 
-4.2946

>  <r_i_glide_lipo>  (96) 
-0.800688

>  <r_i_glide_hbond>  (96) 
-0.32

>  <r_i_glide_metal>  (96) 
-0

>  <r_i_glide_rewards>  (96) 
-1.87961

>  <r_i_glide_evdw>  (96) 
-19.4031

>  <r_i_glide_ecoul>  (96) 
-6.65104

>  <r_i_glide_erotb>  (96) 
0.673508

>  <r_i_glide_esite>  (96) 
0

>  <r_i_glide_emodel>  (96) 
-32.0783

>  <r_i_glide_energy>  (96) 
-26.0541

>  <r_i_glide_einternal>  (96) 
0.932125

>  <r_i_glide_intrahb_reward>  (96) 
-0

>  <i_i_glide_confnum>  (96) 
6

>  <i_i_glide_posenum>  (96) 
6

>  <r_i_glide_eff_state_penalty>  (96) 
0

>  <ligand_id>  (96) 
24

>  <original_smiles>  (96) 
c1nc(CN2CCC3OCCC3C2)cs1

>  <smiles>  (96) 
[H]c1nc(C([H])([H])N2C([H])([H])C([H])([H])C3([H])OC([H])([H])C([H])([H])C3([H])C2([H])[H])c([H])s1

$$$$
24:1:2
     RDKit          3D

 31 33  0  0  1  0  0  0  0  0999 V2000
    3.2706   -2.4262   -4.0377 C   0  0  0  0  0  0  0  0  0  0  0  0
    4.1687   -2.7705   -3.1240 N   0  0  0  0  0  0  0  0  0  0  0  0
    4.6504   -1.6672   -2.3984 C   0  0  0  0  0  0  0  0  0  0  0  0
    5.4326   -1.8767   -1.1324 C   0  0  0  0  0  0  0  0  0  0  0  0
    4.8861   -2.6425   -0.0042 N   0  0  0  0  0  0  0  0  0  0  0  0
    3.5733   -2.0756    0.3382 C   0  0  0  0  0  0  0  0  0  0  0  0
    2.8322   -2.8654    1.4277 C   0  0  0  0  0  0  0  0  0  0  0  0
    2.7743   -4.3267    0.9933 C   0  0  2  0  0  0  0  0  0  0  0  0
    2.2188   -5.2384    1.9195 O   0  0  0  0  0  0  0  0  0  0  0  0
    2.7003   -6.5367    1.5547 C   0  0  0  0  0  0  0  0  0  0  0  0
    3.9792   -6.3140    0.7266 C   0  0  0  0  0  0  0  0  0  0  0  0
    4.2003   -4.8279    0.8684 C   0  0  1  0  0  0  0  0  0  0  0  0
    4.8756   -4.0936   -0.2869 C   0  0  0  0  0  0  0  0  0  0  0  0
    4.2140   -0.4735   -2.9427 C   0  0  0  0  0  0  0  0  0  0  0  0
    3.1724   -0.6859   -4.3130 S   0  0  0  0  0  0  0  0  0  0  0  0
    2.7442   -3.2046   -4.5758 H   0  0  0  0  0  0  0  0  0  0  0  0
    6.3840   -2.3419   -1.3736 H   0  0  0  0  0  0  0  0  0  0  0  0
    5.7061   -0.9066   -0.7141 H   0  0  0  0  0  0  0  0  0  0  0  0
    3.6856   -1.0301    0.6359 H   0  0  0  0  0  0  0  0  0  0  0  0
    2.9206   -2.0796   -0.5358 H   0  0  0  0  0  0  0  0  0  0  0  0
    3.3432   -2.7738    2.3858 H   0  0  0  0  0  0  0  0  0  0  0  0
    1.8306   -2.4573    1.5601 H   0  0  0  0  0  0  0  0  0  0  0  0
    2.2366   -4.4378    0.0414 H   0  0  0  0  0  0  0  0  0  0  0  0
    2.8907   -7.1267    2.4476 H   0  0  0  0  0  0  0  0  0  0  0  0
    1.9438   -7.0610    0.9683 H   0  0  0  0  0  0  0  0  0  0  0  0
    4.8269   -6.8931    1.0991 H   0  0  0  0  0  0  0  0  0  0  0  0
    3.8145   -6.6033   -0.3133 H   0  0  0  0  0  0  0  0  0  0  0  0
    4.7517   -4.6507    1.7944 H   0  0  0  0  0  0  0  0  0  0  0  0
    4.2925   -4.3423   -1.1699 H   0  0  0  0  0  0  0  0  0  0  0  0
    5.8940   -4.4565   -0.4441 H   0  0  0  0  0  0  0  0  0  0  0  0
    4.4467    0.5274   -2.6001 H   0  0  0  0  0  0  0  0  0  0  0  0
  1 15  1  0
  1  2  2  0
  1 16  1  0
  2  3  1  0
  3  4  1  0
  3 14  2  0
  4  5  1  0
  4 17  1  0
  4 18  1  0
  5 13  1  0
  5  6  1  0
  6  7  1  0
  6 19  1  0
  6 20  1  0
  7  8  1  0
  7 21  1  0
  7 22  1  0
  8 12  1  0
  8  9  1  0
  8 23  1  6
  9 10  1  0
 10 11  1  0
 10 24  1  0
 10 25  1  0
 11 12  1  0
 11 26  1  0
 11 27  1  0
 12 13  1  0
 12 28  1  1
 13 29  1  0
 13 30  1  0
 14 15  1  0
 14 31  1  0
M  END
>  <i_m_ct_stereo_status>  (97) 
1

>  <s_m_source_file>  (97) 
/var/tmp/pbs.5076255.sched01/tmppv1df_bs/0l6e7d74h.sdf

>  <i_m_source_file_index>  (97) 
35

>  <i_lp_mmshare_version>  (97) 
48012

>  <i_f3d_flags>  (97) 
0

>  <s_epik_input>  (97) 
W2NIXTFzW2NIXW5jMVtDSDJdTihbQ0gyXVtDSDJdMilbQ0gyXVtDQEBIXShbQ0BIXTIzKVtDSDJdW0NIMl1PMw==

>  <s_epik_cmdline>  (97) 
J2VwaWtfcHl0aG9uJywgJy1waHQnLCAnMi4wJywgJy1waCcsICc3LjAnLCAnLXRuJywgJzgnLCAnLW1hJywgJzIwMCcsICctaW1hZScsICc8aW5maWxlLm1hZT4nLCAnLW9tYWUnLCAnPG91dGZpbGUubWFlPic=

>  <r_epik_Ionization_Penalty>  (97) 
0.881766

>  <r_epik_Ionization_Penalty_Charging>  (97) 
0

>  <r_epik_Ionization_Penalty_Neutral>  (97) 
0.881766

>  <r_epik_State_Penalty>  (97) 
0.919978

>  <r_epik_Charging_Adjusted_Penalty>  (97) 
0.919978

>  <i_epik_Tot_Q>  (97) 
0

>  <i_epik_Tot_abs_Q>  (97) 
0

>  <s_lp_Force_Field>  (97) 
OPLS3e

>  <r_lp_Energy>  (97) 
12.7584

>  <b_lp_Chiralities_Consistent>  (97) 
1

>  <s_lp_Variant>  (97) 
24:0-2

>  <s_i_glide_gridfile>  (97) 
pfpi4k_grid

>  <i_i_glide_lignum>  (97) 
35

>  <i_i_glide_rotatable_bonds>  (97) 
2

>  <r_i_docking_score>  (97) 
-3.13224

>  <r_i_glide_ligand_efficiency>  (97) 
-0.208816

>  <r_i_glide_ligand_efficiency_sa>  (97) 
-0.514984

>  <r_i_glide_ligand_efficiency_ln>  (97) 
-0.844713

>  <r_i_glide_gscore>  (97) 
-3.13224

>  <r_i_glide_lipo>  (97) 
-0.585259

>  <r_i_glide_hbond>  (97) 
0

>  <r_i_glide_metal>  (97) 
-0

>  <r_i_glide_rewards>  (97) 
-1.87961

>  <r_i_glide_evdw>  (97) 
-24.3063

>  <r_i_glide_ecoul>  (97) 
-0.837049

>  <r_i_glide_erotb>  (97) 
0.673508

>  <r_i_glide_esite>  (97) 
0

>  <r_i_glide_emodel>  (97) 
-27.357

>  <r_i_glide_energy>  (97) 
-25.1434

>  <r_i_glide_einternal>  (97) 
4.48763

>  <r_i_glide_intrahb_reward>  (97) 
-0

>  <i_i_glide_confnum>  (97) 
5

>  <i_i_glide_posenum>  (97) 
2

>  <r_i_glide_eff_state_penalty>  (97) 
0

>  <ligand_id>  (97) 
24

>  <original_smiles>  (97) 
c1nc(CN2CCC3OCCC3C2)cs1

>  <smiles>  (97) 
[H]c1nc(C([H])([H])N2C([H])([H])C([H])([H])C3([H])OC([H])([H])C([H])([H])C3([H])C2([H])[H])c([H])s1

$$$$
25:0:0
     RDKit          3D

 56 59  0  0  1  0  0  0  0  0999 V2000
    8.2231   -3.5471    1.1960 C   0  0  0  0  0  0  0  0  0  0  0  0
    7.4124   -2.5412    0.7546 C   0  0  0  0  0  0  0  0  0  0  0  0
    7.9986   -1.1368    0.6024 C   0  0  0  0  0  0  0  0  0  0  0  0
    5.9146   -2.7372    0.2814 C   0  0  2  0  0  0  0  0  0  0  0  0
    6.4031   -2.9173   -1.2376 C   0  0  0  0  0  0  0  0  0  0  0  0
    5.5728   -2.8865   -2.5285 C   0  0  0  0  0  0  0  0  0  0  0  0
    4.6756   -1.6732   -2.5393 C   0  0  1  0  0  0  0  0  0  0  0  0
    4.2024   -1.2379   -3.9602 C   0  0  0  0  0  0  0  0  0  0  0  0
    3.5269   -2.1970   -1.6968 C   0  0  0  0  0  0  0  0  0  0  0  0
    2.4969   -2.5589   -2.2607 O   0  0  0  0  0  0  0  0  0  0  0  0
    3.6975   -2.4417   -0.1755 C   0  0  1  0  0  0  0  0  0  0  0  0
    3.7686   -3.8608    0.4485 C   0  0  2  0  0  0  0  0  0  0  0  0
    3.4173   -4.9499   -0.4953 C   0  0  0  0  0  0  0  0  0  0  0  0
    2.6923   -3.7589    1.5521 C   0  0  1  0  0  0  0  0  0  0  0  0
    2.3660   -5.0102    2.4426 C   0  0  0  0  0  0  0  0  0  0  0  0
    1.1564   -5.8505    2.0030 C   0  0  0  0  0  0  0  0  0  0  0  0
    0.5357   -6.4406    2.9043 O   0  0  0  0  0  0  0  0  0  0  0  0
    0.8619   -5.8593    0.7888 O   0  0  0  0  0  0  0  0  0  0  0  0
    2.7431   -2.4682    2.1938 O   0  0  0  0  0  0  0  0  0  0  0  0
    3.4158   -1.3737    1.5804 C   0  0  0  0  0  0  0  0  0  0  0  0
    2.9859   -0.2334    1.7438 O   0  0  0  0  0  0  0  0  0  0  0  0
    4.7648   -1.6021    0.7078 C   0  0  2  0  0  0  0  0  0  0  0  0
    5.3180   -1.5626    2.2857 C   0  0  0  0  0  0  0  0  0  0  0  0
    5.3252   -2.8757    3.1239 C   0  0  0  0  0  0  0  0  0  0  0  0
    5.6048   -4.0897    2.3037 N   0  0  1  0  0  0  0  0  0  0  0  0
    5.5799   -5.4080    3.0050 C   0  0  0  0  0  0  0  0  0  0  0  0
    5.2524   -4.0117    0.8308 C   0  0  2  0  0  0  0  0  0  0  0  0
    9.2466   -3.3341    1.4693 H   0  0  0  0  0  0  0  0  0  0  0  0
    7.9271   -4.5791    1.2779 H   0  0  0  0  0  0  0  0  0  0  0  0
    7.2371   -0.3415    0.5503 H   0  0  0  0  0  0  0  0  0  0  0  0
    8.5827   -1.1495   -0.2928 H   0  0  0  0  0  0  0  0  0  0  0  0
    8.7949   -0.9031    1.2998 H   0  0  0  0  0  0  0  0  0  0  0  0
    7.1249   -2.1329   -1.4905 H   0  0  0  0  0  0  0  0  0  0  0  0
    6.9682   -3.8502   -1.2879 H   0  0  0  0  0  0  0  0  0  0  0  0
    6.2406   -2.8538   -3.3893 H   0  0  0  0  0  0  0  0  0  0  0  0
    5.0299   -3.8161   -2.7119 H   0  0  0  0  0  0  0  0  0  0  0  0
    5.1509   -0.8363   -2.0211 H   0  0  0  0  0  0  0  0  0  0  0  0
    3.5121   -0.3906   -3.8982 H   0  0  0  0  0  0  0  0  0  0  0  0
    3.7342   -2.0541   -4.5204 H   0  0  0  0  0  0  0  0  0  0  0  0
    5.0081   -0.8807   -4.6116 H   0  0  0  0  0  0  0  0  0  0  0  0
    2.6190   -2.1848   -0.1738 H   0  0  0  0  0  0  0  0  0  0  0  0
    3.3936   -5.9396   -0.0453 H   0  0  0  0  0  0  0  0  0  0  0  0
    4.1845   -4.9772   -1.2473 H   0  0  0  0  0  0  0  0  0  0  0  0
    2.4628   -4.7166   -0.9558 H   0  0  0  0  0  0  0  0  0  0  0  0
    1.8165   -3.6170    0.9349 H   0  0  0  0  0  0  0  0  0  0  0  0
    3.1847   -5.7178    2.4801 H   0  0  0  0  0  0  0  0  0  0  0  0
    2.1386   -4.6536    3.4387 H   0  0  0  0  0  0  0  0  0  0  0  0
    6.3028   -1.1574    2.3408 H   0  0  0  0  0  0  0  0  0  0  0  0
    4.9858   -0.7690    2.9746 H   0  0  0  0  0  0  0  0  0  0  0  0
    6.1082   -2.8037    3.8379 H   0  0  0  0  0  0  0  0  0  0  0  0
    4.4206   -3.0253    3.7230 H   0  0  0  0  0  0  0  0  0  0  0  0
    4.8100   -5.4200    3.7739 H   0  0  0  0  0  0  0  0  0  0  0  0
    6.5380   -5.5049    3.5128 H   0  0  0  0  0  0  0  0  0  0  0  0
    5.4666   -6.2344    2.3038 H   0  0  0  0  0  0  0  0  0  0  0  0
    5.7196   -4.8745    0.3480 H   0  0  0  0  0  0  0  0  0  0  0  0
    6.5948   -3.9723    2.1700 H   0  0  0  0  0  0  0  0  0  0  0  0
  1  2  2  0
  1 28  1  0
  1 29  1  0
  2  3  1  0
  4  2  1  1
  3 30  1  0
  3 31  1  0
  3 32  1  0
  4 22  1  0
  4 27  1  0
  4  5  1  0
  5  6  1  0
  5 33  1  0
  5 34  1  0
  6  7  1  0
  6 35  1  0
  6 36  1  0
  7  8  1  0
  7  9  1  0
  7 37  1  1
  8 38  1  0
  8 39  1  0
  8 40  1  0
  9 10  2  0
  9 11  1  0
 11 22  1  0
 11 12  1  0
 11 41  1  1
 12 27  1  0
 12 13  1  6
 12 14  1  0
 13 42  1  0
 13 43  1  0
 13 44  1  0
 14 15  1  0
 14 19  1  0
 14 45  1  6
 15 16  1  0
 15 46  1  0
 15 47  1  0
 16 17  2  0
 16 18  1  0
 19 20  1  0
 20 21  2  0
 20 22  1  0
 22 23  1  6
 23 24  1  0
 23 48  1  0
 23 49  1  0
 24 25  1  0
 24 50  1  0
 24 51  1  0
 25 26  1  0
 25 27  1  0
 25 56  1  6
 26 52  1  0
 26 53  1  0
 26 54  1  0
 27 55  1  6
M  CHG  2  18  -1  25   1
M  END
>  <i_m_ct_stereo_status>  (98) 
1

>  <s_m_source_file>  (98) 
/var/tmp/pbs.5076255.sched01/tmppv1df_bs/0l6e7d74h.sdf

>  <i_m_source_file_index>  (98) 
36

>  <i_lp_mmshare_version>  (98) 
48012

>  <i_f3d_flags>  (98) 
0

>  <s_epik_input>  (98) 
W0NIMl09QyhbQ0gzXSlbQ0BdMShbQ0BdMjM0KVtDSF0oTihbQ0gzXSlbQ0gyXVtDSDJdNClbQ0BAXShbQ0gzXSkoW0NASF0oT0MzPU8pW0NIMl1DKD1PKVtPSF0pW0NAQEhdMkMoPU8pW0NASF0oW0NIM10pW0NIMl1bQ0gyXTE=

>  <s_epik_cmdline>  (98) 
J2VwaWtfcHl0aG9uJywgJy1waHQnLCAnMi4wJywgJy1waCcsICc3LjAnLCAnLXRuJywgJzgnLCAnLW1hJywgJzIwMCcsICctaW1hZScsICc8aW5maWxlLm1hZT4nLCAnLW9tYWUnLCAnPG91dGZpbGUubWFlPic=

>  <r_lp_tautomer_probability>  (98) 
1

>  <r_epik_Ionization_Penalty>  (98) 
0.0900981

>  <r_epik_Ionization_Penalty_Charging>  (98) 
0.0900981

>  <r_epik_Ionization_Penalty_Neutral>  (98) 
8.52629e-12

>  <r_epik_State_Penalty>  (98) 
0.0800627

>  <r_epik_Charging_Adjusted_Penalty>  (98) 
0.170161

>  <i_epik_Tot_Q>  (98) 
0

>  <i_epik_Tot_abs_Q>  (98) 
2

>  <s_epik_Chemistry_Notes>  (98) 
This compound has an ester and may undergo hydrolysis at high or low pH.

>  <s_lp_Force_Field>  (98) 
OPLS3e

>  <r_lp_Energy>  (98) 
262.912

>  <b_lp_Chiralities_Consistent>  (98) 
1

>  <s_lp_Variant>  (98) 
25:0-1

>  <s_i_glide_gridfile>  (98) 
pfpi4k_grid

>  <i_i_glide_lignum>  (98) 
36

>  <i_i_glide_rotatable_bonds>  (98) 
3

>  <r_i_docking_score>  (98) 
-2.82903

>  <r_i_glide_ligand_efficiency>  (98) 
-0.104779

>  <r_i_glide_ligand_efficiency_sa>  (98) 
-0.314337

>  <r_i_glide_ligand_efficiency_ln>  (98) 
-0.658552

>  <r_i_glide_gscore>  (98) 
-2.82903

>  <r_i_glide_lipo>  (98) 
-0.686908

>  <r_i_glide_hbond>  (98) 
-0.209744

>  <r_i_glide_metal>  (98) 
-0

>  <r_i_glide_rewards>  (98) 
-0.849145

>  <r_i_glide_evdw>  (98) 
-13.3004

>  <r_i_glide_ecoul>  (98) 
-3.59877

>  <r_i_glide_erotb>  (98) 
0.274487

>  <r_i_glide_esite>  (98) 
-0.152883

>  <r_i_glide_emodel>  (98) 
-16.5365

>  <r_i_glide_energy>  (98) 
-16.8992

>  <r_i_glide_einternal>  (98) 
6.40676

>  <r_i_glide_intrahb_reward>  (98) 
-0

>  <i_i_glide_confnum>  (98) 
1

>  <i_i_glide_posenum>  (98) 
15

>  <r_i_glide_eff_state_penalty>  (98) 
0

>  <ligand_id>  (98) 
25

>  <original_smiles>  (98) 
C=C(C)C12CCC(C)C(=O)C3C4(C)C(CC(=O)O)OC(=O)C31CCN(C)C42

>  <smiles>  (98) 
[H]C([H])=C(C([H])([H])[H])C12C([H])([H])C([H])([H])C([H])(C([H])([H])[H])C(=O)C3([H])C14C(=O)OC([H])(C([H])([H])C(=O)[O-])C3(C([H])([H])[H])C2([H])[N+]([H])(C([H])([H])[H])C([H])([H])C4([H])[H]

$$$$
25:0:1
     RDKit          3D

 56 59  0  0  1  0  0  0  0  0999 V2000
    7.4265   -1.2894    0.6395 C   0  0  0  0  0  0  0  0  0  0  0  0
    7.0658   -2.5931    0.7429 C   0  0  0  0  0  0  0  0  0  0  0  0
    8.1861   -3.6159    0.9830 C   0  0  0  0  0  0  0  0  0  0  0  0
    5.5861   -3.1009    0.4858 C   0  0  2  0  0  0  0  0  0  0  0  0
    5.9475   -3.3757   -1.0534 C   0  0  0  0  0  0  0  0  0  0  0  0
    5.0249   -3.6299   -2.2273 C   0  0  0  0  0  0  0  0  0  0  0  0
    3.9627   -2.5715   -2.2526 C   0  0  1  0  0  0  0  0  0  0  0  0
    3.4117   -2.3278   -3.6705 C   0  0  0  0  0  0  0  0  0  0  0  0
    2.9505   -3.1014   -1.2553 C   0  0  0  0  0  0  0  0  0  0  0  0
    1.8435   -3.4771   -1.6480 O   0  0  0  0  0  0  0  0  0  0  0  0
    3.3340   -3.2177    0.2437 C   0  0  1  0  0  0  0  0  0  0  0  0
    3.6730   -4.5599    0.9627 C   0  0  2  0  0  0  0  0  0  0  0  0
    3.3456   -5.8326    0.1493 C   0  0  0  0  0  0  0  0  0  0  0  0
    2.6635   -4.4563    2.1419 C   0  0  1  0  0  0  0  0  0  0  0  0
    2.6015   -5.5923    3.2067 C   0  0  0  0  0  0  0  0  0  0  0  0
    1.1800   -5.8717    3.7153 C   0  0  0  0  0  0  0  0  0  0  0  0
    1.0756   -6.1212    4.9372 O   0  0  0  0  0  0  0  0  0  0  0  0
    0.2399   -5.8652    2.8889 O   0  0  0  0  0  0  0  0  0  0  0  0
    2.5939   -3.1223    2.6627 O   0  0  0  0  0  0  0  0  0  0  0  0
    3.0234   -2.0063    1.9118 C   0  0  0  0  0  0  0  0  0  0  0  0
    2.4480   -0.9227    2.0170 O   0  0  0  0  0  0  0  0  0  0  0  0
    4.3118   -2.1171    0.9407 C   0  0  2  0  0  0  0  0  0  0  0  0
    4.9868   -1.8304    2.4274 C   0  0  0  0  0  0  0  0  0  0  0  0
    5.3024   -3.0457    3.3636 C   0  0  0  0  0  0  0  0  0  0  0  0
    5.7154   -4.2693    2.6313 N   0  0  1  0  0  0  0  0  0  0  0  0
    5.9155   -5.4819    3.4626 C   0  0  0  0  0  0  0  0  0  0  0  0
    5.2114   -4.4175    1.2229 C   0  0  2  0  0  0  0  0  0  0  0  0
    8.4505   -0.9775    0.7864 H   0  0  0  0  0  0  0  0  0  0  0  0
    6.7061   -0.5137    0.4140 H   0  0  0  0  0  0  0  0  0  0  0  0
    8.0812   -4.5287    0.3983 H   0  0  0  0  0  0  0  0  0  0  0  0
    8.2951   -3.9109    2.0203 H   0  0  0  0  0  0  0  0  0  0  0  0
    9.1403   -3.1728    0.6863 H   0  0  0  0  0  0  0  0  0  0  0  0
    6.5379   -2.5446   -1.4587 H   0  0  0  0  0  0  0  0  0  0  0  0
    6.6051   -4.2423   -1.0923 H   0  0  0  0  0  0  0  0  0  0  0  0
    5.6187   -3.5764   -3.1439 H   0  0  0  0  0  0  0  0  0  0  0  0
    4.6259   -4.6454   -2.2386 H   0  0  0  0  0  0  0  0  0  0  0  0
    4.3575   -1.6274   -1.8763 H   0  0  0  0  0  0  0  0  0  0  0  0
    2.6044   -1.5968   -3.6603 H   0  0  0  0  0  0  0  0  0  0  0  0
    3.0376   -3.2390   -4.1412 H   0  0  0  0  0  0  0  0  0  0  0  0
    4.1933   -1.9231   -4.3114 H   0  0  0  0  0  0  0  0  0  0  0  0
    2.2397   -3.1208    0.3602 H   0  0  0  0  0  0  0  0  0  0  0  0
    3.4824   -6.7468    0.7364 H   0  0  0  0  0  0  0  0  0  0  0  0
    3.9937   -5.9444   -0.7163 H   0  0  0  0  0  0  0  0  0  0  0  0
    2.3034   -5.8271   -0.1877 H   0  0  0  0  0  0  0  0  0  0  0  0
    1.7007   -4.5270    1.6402 H   0  0  0  0  0  0  0  0  0  0  0  0
    2.9538   -6.5465    2.8190 H   0  0  0  0  0  0  0  0  0  0  0  0
    3.1909   -5.3455    4.0787 H   0  0  0  0  0  0  0  0  0  0  0  0
    5.8850   -1.2459    2.3690 H   0  0  0  0  0  0  0  0  0  0  0  0
    4.6020   -1.0301    3.0899 H   0  0  0  0  0  0  0  0  0  0  0  0
    6.1182   -2.7391    4.0116 H   0  0  0  0  0  0  0  0  0  0  0  0
    4.4960   -3.2536    4.0652 H   0  0  0  0  0  0  0  0  0  0  0  0
    5.2340   -5.5301    4.3101 H   0  0  0  0  0  0  0  0  0  0  0  0
    6.9147   -5.4274    3.9043 H   0  0  0  0  0  0  0  0  0  0  0  0
    5.8552   -6.4012    2.8794 H   0  0  0  0  0  0  0  0  0  0  0  0
    5.7529   -5.2564    0.7775 H   0  0  0  0  0  0  0  0  0  0  0  0
    6.6718   -4.0362    2.4022 H   0  0  0  0  0  0  0  0  0  0  0  0
  1  2  2  0
  1 28  1  0
  1 29  1  0
  2  3  1  0
  4  2  1  1
  3 30  1  0
  3 31  1  0
  3 32  1  0
  4 22  1  0
  4 27  1  0
  4  5  1  0
  5  6  1  0
  5 33  1  0
  5 34  1  0
  6  7  1  0
  6 35  1  0
  6 36  1  0
  7  8  1  0
  7  9  1  0
  7 37  1  1
  8 38  1  0
  8 39  1  0
  8 40  1  0
  9 10  2  0
  9 11  1  0
 11 22  1  0
 11 12  1  0
 11 41  1  1
 12 27  1  0
 12 13  1  6
 12 14  1  0
 13 42  1  0
 13 43  1  0
 13 44  1  0
 14 15  1  0
 14 19  1  0
 14 45  1  6
 15 16  1  0
 15 46  1  0
 15 47  1  0
 16 17  2  0
 16 18  1  0
 19 20  1  0
 20 21  2  0
 20 22  1  0
 22 23  1  6
 23 24  1  0
 23 48  1  0
 23 49  1  0
 24 25  1  0
 24 50  1  0
 24 51  1  0
 25 26  1  0
 25 27  1  0
 25 56  1  6
 26 52  1  0
 26 53  1  0
 26 54  1  0
 27 55  1  6
M  CHG  2  18  -1  25   1
M  END
>  <i_m_ct_stereo_status>  (99) 
1

>  <s_m_source_file>  (99) 
/var/tmp/pbs.5076255.sched01/tmppv1df_bs/0l6e7d74h.sdf

>  <i_m_source_file_index>  (99) 
36

>  <i_lp_mmshare_version>  (99) 
48012

>  <i_f3d_flags>  (99) 
0

>  <s_epik_input>  (99) 
W0NIMl09QyhbQ0gzXSlbQ0BdMShbQ0BdMjM0KVtDSF0oTihbQ0gzXSlbQ0gyXVtDSDJdNClbQ0BAXShbQ0gzXSkoW0NASF0oT0MzPU8pW0NIMl1DKD1PKVtPSF0pW0NAQEhdMkMoPU8pW0NASF0oW0NIM10pW0NIMl1bQ0gyXTE=

>  <s_epik_cmdline>  (99) 
J2VwaWtfcHl0aG9uJywgJy1waHQnLCAnMi4wJywgJy1waCcsICc3LjAnLCAnLXRuJywgJzgnLCAnLW1hJywgJzIwMCcsICctaW1hZScsICc8aW5maWxlLm1hZT4nLCAnLW9tYWUnLCAnPG91dGZpbGUubWFlPic=

>  <r_lp_tautomer_probability>  (99) 
1

>  <r_epik_Ionization_Penalty>  (99) 
0.0900981

>  <r_epik_Ionization_Penalty_Charging>  (99) 
0.0900981

>  <r_epik_Ionization_Penalty_Neutral>  (99) 
8.52629e-12

>  <r_epik_State_Penalty>  (99) 
0.0800627

>  <r_epik_Charging_Adjusted_Penalty>  (99) 
0.170161

>  <i_epik_Tot_Q>  (99) 
0

>  <i_epik_Tot_abs_Q>  (99) 
2

>  <s_epik_Chemistry_Notes>  (99) 
This compound has an ester and may undergo hydrolysis at high or low pH.

>  <s_lp_Force_Field>  (99) 
OPLS3e

>  <r_lp_Energy>  (99) 
262.912

>  <b_lp_Chiralities_Consistent>  (99) 
1

>  <s_lp_Variant>  (99) 
25:0-1

>  <s_i_glide_gridfile>  (99) 
pfpi4k_grid

>  <i_i_glide_lignum>  (99) 
36

>  <i_i_glide_rotatable_bonds>  (99) 
3

>  <r_i_docking_score>  (99) 
-2.61506

>  <r_i_glide_ligand_efficiency>  (99) 
-0.096854

>  <r_i_glide_ligand_efficiency_sa>  (99) 
-0.290562

>  <r_i_glide_ligand_efficiency_ln>  (99) 
-0.608742

>  <r_i_glide_gscore>  (99) 
-2.61506

>  <r_i_glide_lipo>  (99) 
-0.799165

>  <r_i_glide_hbond>  (99) 
-0.122533

>  <r_i_glide_metal>  (99) 
-0

>  <r_i_glide_rewards>  (99) 
-0.860401

>  <r_i_glide_evdw>  (99) 
-19.1153

>  <r_i_glide_ecoul>  (99) 
-0.809049

>  <r_i_glide_erotb>  (99) 
0.274487

>  <r_i_glide_esite>  (99) 
-0.0303241

>  <r_i_glide_emodel>  (99) 
-20.4539

>  <r_i_glide_energy>  (99) 
-19.9243

>  <r_i_glide_einternal>  (99) 
4.99577

>  <r_i_glide_intrahb_reward>  (99) 
-0

>  <i_i_glide_confnum>  (99) 
2

>  <i_i_glide_posenum>  (99) 
1

>  <r_i_glide_eff_state_penalty>  (99) 
0

>  <ligand_id>  (99) 
25

>  <original_smiles>  (99) 
C=C(C)C12CCC(C)C(=O)C3C4(C)C(CC(=O)O)OC(=O)C31CCN(C)C42

>  <smiles>  (99) 
[H]C([H])=C(C([H])([H])[H])C12C([H])([H])C([H])([H])C([H])(C([H])([H])[H])C(=O)C3([H])C14C(=O)OC([H])(C([H])([H])C(=O)[O-])C3(C([H])([H])[H])C2([H])[N+]([H])(C([H])([H])[H])C([H])([H])C4([H])[H]

$$$$
25:0:2
     RDKit          3D

 56 59  0  0  1  0  0  0  0  0999 V2000
    7.9818   -3.6874    1.2487 C   0  0  0  0  0  0  0  0  0  0  0  0
    7.0313   -2.7992    0.8959 C   0  0  0  0  0  0  0  0  0  0  0  0
    7.4471   -1.3243    0.6508 C   0  0  0  0  0  0  0  0  0  0  0  0
    5.5348   -3.2170    0.5486 C   0  0  2  0  0  0  0  0  0  0  0  0
    5.9466   -3.4380   -0.9858 C   0  0  0  0  0  0  0  0  0  0  0  0
    5.0507   -3.7157   -2.1851 C   0  0  0  0  0  0  0  0  0  0  0  0
    3.9950   -2.6523   -2.2419 C   0  0  1  0  0  0  0  0  0  0  0  0
    3.4639   -2.3946   -3.6683 C   0  0  0  0  0  0  0  0  0  0  0  0
    2.9490   -3.1373   -1.2592 C   0  0  0  0  0  0  0  0  0  0  0  0
    1.8304   -3.4716   -1.6620 O   0  0  0  0  0  0  0  0  0  0  0  0
    3.3015   -3.2614    0.2472 C   0  0  1  0  0  0  0  0  0  0  0  0
    3.5655   -4.6173    0.9715 C   0  0  2  0  0  0  0  0  0  0  0  0
    3.2162   -5.8770    0.1402 C   0  0  0  0  0  0  0  0  0  0  0  0
    2.5432   -4.4919    2.1308 C   0  0  1  0  0  0  0  0  0  0  0  0
    2.4614   -5.6213    3.1955 C   0  0  0  0  0  0  0  0  0  0  0  0
    1.0167   -5.9032    3.6194 C   0  0  0  0  0  0  0  0  0  0  0  0
    0.7526   -5.7953    4.8268 O   0  0  0  0  0  0  0  0  0  0  0  0
    0.2081   -6.2193    2.7052 O   0  0  0  0  0  0  0  0  0  0  0  0
    2.5019   -3.1555    2.6422 O   0  0  0  0  0  0  0  0  0  0  0  0
    2.9933   -2.0517    1.9151 C   0  0  0  0  0  0  0  0  0  0  0  0
    2.4695   -0.9408    2.0097 O   0  0  0  0  0  0  0  0  0  0  0  0
    4.2936   -2.1995    0.9777 C   0  0  2  0  0  0  0  0  0  0  0  0
    4.9629   -1.9610    2.4934 C   0  0  0  0  0  0  0  0  0  0  0  0
    5.1742   -3.2036    3.4207 C   0  0  0  0  0  0  0  0  0  0  0  0
    5.5404   -4.4274    2.6820 N   0  0  1  0  0  0  0  0  0  0  0  0
    5.7280   -5.6470    3.4865 C   0  0  0  0  0  0  0  0  0  0  0  0
    5.0951   -4.5377    1.2484 C   0  0  2  0  0  0  0  0  0  0  0  0
    9.0097   -3.3763    1.3851 H   0  0  0  0  0  0  0  0  0  0  0  0
    7.8136   -4.7519    1.3658 H   0  0  0  0  0  0  0  0  0  0  0  0
    6.6464   -0.5650    0.7274 H   0  0  0  0  0  0  0  0  0  0  0  0
    7.8502   -1.2865   -0.3486 H   0  0  0  0  0  0  0  0  0  0  0  0
    8.3036   -1.0551    1.2685 H   0  0  0  0  0  0  0  0  0  0  0  0
    6.5750   -2.6198   -1.3485 H   0  0  0  0  0  0  0  0  0  0  0  0
    6.6210   -4.2752   -0.9370 H   0  0  0  0  0  0  0  0  0  0  0  0
    5.6521   -3.6836   -3.0945 H   0  0  0  0  0  0  0  0  0  0  0  0
    4.6376   -4.7182   -2.1843 H   0  0  0  0  0  0  0  0  0  0  0  0
    4.4052   -1.7131   -1.8720 H   0  0  0  0  0  0  0  0  0  0  0  0
    2.6778   -1.6370   -3.6664 H   0  0  0  0  0  0  0  0  0  0  0  0
    3.0592   -3.2896   -4.1457 H   0  0  0  0  0  0  0  0  0  0  0  0
    4.2610   -2.0126   -4.3066 H   0  0  0  0  0  0  0  0  0  0  0  0
    2.2143   -3.1295    0.3448 H   0  0  0  0  0  0  0  0  0  0  0  0
    3.3104   -6.8015    0.7308 H   0  0  0  0  0  0  0  0  0  0  0  0
    3.8824   -6.0064   -0.7165 H   0  0  0  0  0  0  0  0  0  0  0  0
    2.1729   -5.8302   -0.2152 H   0  0  0  0  0  0  0  0  0  0  0  0
    1.5829   -4.5445    1.6212 H   0  0  0  0  0  0  0  0  0  0  0  0
    2.8366   -6.5840    2.8413 H   0  0  0  0  0  0  0  0  0  0  0  0
    2.9927   -5.3518    4.1020 H   0  0  0  0  0  0  0  0  0  0  0  0
    5.9216   -1.4615    2.4583 H   0  0  0  0  0  0  0  0  0  0  0  0
    4.5960   -1.1302    3.1358 H   0  0  0  0  0  0  0  0  0  0  0  0
    6.0087   -2.9353    4.0577 H   0  0  0  0  0  0  0  0  0  0  0  0
    4.3563   -3.3646    4.1229 H   0  0  0  0  0  0  0  0  0  0  0  0
    5.0386   -5.6861    4.3374 H   0  0  0  0  0  0  0  0  0  0  0  0
    6.7316   -5.5946    3.9304 H   0  0  0  0  0  0  0  0  0  0  0  0
    5.6587   -6.5668    2.8962 H   0  0  0  0  0  0  0  0  0  0  0  0
    5.6135   -5.3804    0.7854 H   0  0  0  0  0  0  0  0  0  0  0  0
    6.5040   -4.2093    2.4618 H   0  0  0  0  0  0  0  0  0  0  0  0
  1  2  2  0
  1 28  1  0
  1 29  1  0
  2  3  1  0
  4  2  1  1
  3 30  1  0
  3 31  1  0
  3 32  1  0
  4 22  1  0
  4 27  1  0
  4  5  1  0
  5  6  1  0
  5 33  1  0
  5 34  1  0
  6  7  1  0
  6 35  1  0
  6 36  1  0
  7  8  1  0
  7  9  1  0
  7 37  1  1
  8 38  1  0
  8 39  1  0
  8 40  1  0
  9 10  2  0
  9 11  1  0
 11 22  1  0
 11 12  1  0
 11 41  1  1
 12 27  1  0
 12 13  1  6
 12 14  1  0
 13 42  1  0
 13 43  1  0
 13 44  1  0
 14 15  1  0
 14 19  1  0
 14 45  1  6
 15 16  1  0
 15 46  1  0
 15 47  1  0
 16 17  2  0
 16 18  1  0
 19 20  1  0
 20 21  2  0
 20 22  1  0
 22 23  1  6
 23 24  1  0
 23 48  1  0
 23 49  1  0
 24 25  1  0
 24 50  1  0
 24 51  1  0
 25 26  1  0
 25 27  1  0
 25 56  1  6
 26 52  1  0
 26 53  1  0
 26 54  1  0
 27 55  1  6
M  CHG  2  18  -1  25   1
M  END
>  <i_m_ct_stereo_status>  (100) 
1

>  <s_m_source_file>  (100) 
/var/tmp/pbs.5076255.sched01/tmppv1df_bs/0l6e7d74h.sdf

>  <i_m_source_file_index>  (100) 
36

>  <i_lp_mmshare_version>  (100) 
48012

>  <i_f3d_flags>  (100) 
0

>  <s_epik_input>  (100) 
W0NIMl09QyhbQ0gzXSlbQ0BdMShbQ0BdMjM0KVtDSF0oTihbQ0gzXSlbQ0gyXVtDSDJdNClbQ0BAXShbQ0gzXSkoW0NASF0oT0MzPU8pW0NIMl1DKD1PKVtPSF0pW0NAQEhdMkMoPU8pW0NASF0oW0NIM10pW0NIMl1bQ0gyXTE=

>  <s_epik_cmdline>  (100) 
J2VwaWtfcHl0aG9uJywgJy1waHQnLCAnMi4wJywgJy1waCcsICc3LjAnLCAnLXRuJywgJzgnLCAnLW1hJywgJzIwMCcsICctaW1hZScsICc8aW5maWxlLm1hZT4nLCAnLW9tYWUnLCAnPG91dGZpbGUubWFlPic=

>  <r_lp_tautomer_probability>  (100) 
1

>  <r_epik_Ionization_Penalty>  (100) 
0.0900981

>  <r_epik_Ionization_Penalty_Charging>  (100) 
0.0900981

>  <r_epik_Ionization_Penalty_Neutral>  (100) 
8.52629e-12

>  <r_epik_State_Penalty>  (100) 
0.0800627

>  <r_epik_Charging_Adjusted_Penalty>  (100) 
0.170161

>  <i_epik_Tot_Q>  (100) 
0

>  <i_epik_Tot_abs_Q>  (100) 
2

>  <s_epik_Chemistry_Notes>  (100) 
This compound has an ester and may undergo hydrolysis at high or low pH.

>  <s_lp_Force_Field>  (100) 
OPLS3e

>  <r_lp_Energy>  (100) 
262.912

>  <b_lp_Chiralities_Consistent>  (100) 
1

>  <s_lp_Variant>  (100) 
25:0-1

>  <s_i_glide_gridfile>  (100) 
pfpi4k_grid

>  <i_i_glide_lignum>  (100) 
36

>  <i_i_glide_rotatable_bonds>  (100) 
3

>  <r_i_docking_score>  (100) 
-2.51854

>  <r_i_glide_ligand_efficiency>  (100) 
-0.0932792

>  <r_i_glide_ligand_efficiency_sa>  (100) 
-0.279838

>  <r_i_glide_ligand_efficiency_ln>  (100) 
-0.586274

>  <r_i_glide_gscore>  (100) 
-2.51854

>  <r_i_glide_lipo>  (100) 
-0.697705

>  <r_i_glide_hbond>  (100) 
-0.166027

>  <r_i_glide_metal>  (100) 
-0

>  <r_i_glide_rewards>  (100) 
-0.878145

>  <r_i_glide_evdw>  (100) 
-18.8632

>  <r_i_glide_ecoul>  (100) 
-0.474606

>  <r_i_glide_erotb>  (100) 
0.274487

>  <r_i_glide_esite>  (100) 
-0.0367981

>  <r_i_glide_emodel>  (100) 
-19.8171

>  <r_i_glide_energy>  (100) 
-19.3378

>  <r_i_glide_einternal>  (100) 
4.80479

>  <r_i_glide_intrahb_reward>  (100) 
-0

>  <i_i_glide_confnum>  (100) 
1

>  <i_i_glide_posenum>  (100) 
13

>  <r_i_glide_eff_state_penalty>  (100) 
0

>  <ligand_id>  (100) 
25

>  <original_smiles>  (100) 
C=C(C)C12CCC(C)C(=O)C3C4(C)C(CC(=O)O)OC(=O)C31CCN(C)C42

>  <smiles>  (100) 
[H]C([H])=C(C([H])([H])[H])C12C([H])([H])C([H])([H])C([H])(C([H])([H])[H])C(=O)C3([H])C14C(=O)OC([H])(C([H])([H])C(=O)[O-])C3(C([H])([H])[H])C2([H])[N+]([H])(C([H])([H])[H])C([H])([H])C4([H])[H]

$$$$
25:1:0
     RDKit          3D

 55 58  0  0  1  0  0  0  0  0999 V2000
    1.1523   -1.6763    7.0674 C   0  0  0  0  0  0  0  0  0  0  0  0
    2.1854   -1.1004    6.4126 C   0  0  0  0  0  0  0  0  0  0  0  0
    3.5859   -1.2343    7.0206 C   0  0  0  0  0  0  0  0  0  0  0  0
    2.0511   -0.3597    5.0288 C   0  0  2  0  0  0  0  0  0  0  0  0
    2.4972   -1.5888    4.1279 C   0  0  0  0  0  0  0  0  0  0  0  0
    3.9918   -1.6966    3.7315 C   0  0  0  0  0  0  0  0  0  0  0  0
    4.5283   -0.4710    2.9897 C   0  0  1  0  0  0  0  0  0  0  0  0
    5.6538   -0.8474    2.0054 C   0  0  0  0  0  0  0  0  0  0  0  0
    3.3561    0.2696    2.3326 C   0  0  0  0  0  0  0  0  0  0  0  0
    3.1924    0.2347    1.1142 O   0  0  0  0  0  0  0  0  0  0  0  0
    2.4017    1.0466    3.2804 C   0  0  1  0  0  0  0  0  0  0  0  0
    0.8411    0.8967    3.2933 C   0  0  2  0  0  0  0  0  0  0  0  0
    0.2282    0.2578    2.0280 C   0  0  0  0  0  0  0  0  0  0  0  0
    0.4286    2.4128    3.3628 C   0  0  1  0  0  0  0  0  0  0  0  0
   -1.0855    2.7851    3.5344 C   0  0  0  0  0  0  0  0  0  0  0  0
   -1.3578    4.2507    3.8917 C   0  0  0  0  0  0  0  0  0  0  0  0
   -2.1907    4.8824    3.2174 O   0  0  0  0  0  0  0  0  0  0  0  0
   -0.8193    4.7396    4.9204 O   0  0  0  0  0  0  0  0  0  0  0  0
    1.3289    3.1378    4.2132 O   0  0  0  0  0  0  0  0  0  0  0  0
    2.5828    2.6652    4.5624 C   0  0  0  0  0  0  0  0  0  0  0  0
    3.5379    3.4293    4.7130 O   0  0  0  0  0  0  0  0  0  0  0  0
    2.8108    1.1093    4.8593 C   0  0  2  0  0  0  0  0  0  0  0  0
    2.1939    1.6262    6.3053 C   0  0  0  0  0  0  0  0  0  0  0  0
    0.6510    1.6091    6.5460 C   0  0  0  0  0  0  0  0  0  0  0  0
   -0.0790    0.7107    5.6591 N   0  0  0  0  0  0  0  0  0  0  0  0
   -1.4686    0.4162    5.9813 C   0  0  0  0  0  0  0  0  0  0  0  0
    0.6079    0.0053    4.5702 C   0  0  2  0  0  0  0  0  0  0  0  0
    1.3126   -2.1653    8.0163 H   0  0  0  0  0  0  0  0  0  0  0  0
    0.1526   -1.6699    6.6760 H   0  0  0  0  0  0  0  0  0  0  0  0
    4.2177   -0.3527    6.8626 H   0  0  0  0  0  0  0  0  0  0  0  0
    4.1063   -2.0996    6.6177 H   0  0  0  0  0  0  0  0  0  0  0  0
    3.5111   -1.3984    8.1004 H   0  0  0  0  0  0  0  0  0  0  0  0
    2.2077   -2.5388    4.5961 H   0  0  0  0  0  0  0  0  0  0  0  0
    1.9031   -1.6537    3.2182 H   0  0  0  0  0  0  0  0  0  0  0  0
    4.6313   -1.8753    4.5876 H   0  0  0  0  0  0  0  0  0  0  0  0
    4.1006   -2.5831    3.1041 H   0  0  0  0  0  0  0  0  0  0  0  0
    4.9457    0.2127    3.7301 H   0  0  0  0  0  0  0  0  0  0  0  0
    6.0708    0.0384    1.5311 H   0  0  0  0  0  0  0  0  0  0  0  0
    5.3020   -1.5114    1.2137 H   0  0  0  0  0  0  0  0  0  0  0  0
    6.4646   -1.3562    2.5241 H   0  0  0  0  0  0  0  0  0  0  0  0
    2.5783    1.9006    2.5967 H   0  0  0  0  0  0  0  0  0  0  0  0
   -0.8576    0.1995    2.1246 H   0  0  0  0  0  0  0  0  0  0  0  0
    0.5988   -0.7457    1.8112 H   0  0  0  0  0  0  0  0  0  0  0  0
    0.4400    0.8658    1.1436 H   0  0  0  0  0  0  0  0  0  0  0  0
    0.6548    2.8014    2.3686 H   0  0  0  0  0  0  0  0  0  0  0  0
   -1.6333    2.5099    2.6318 H   0  0  0  0  0  0  0  0  0  0  0  0
   -1.5709    2.2558    4.3336 H   0  0  0  0  0  0  0  0  0  0  0  0
    2.6471    1.0931    7.1279 H   0  0  0  0  0  0  0  0  0  0  0  0
    2.5596    2.5598    6.7743 H   0  0  0  0  0  0  0  0  0  0  0  0
    0.4641    1.3306    7.5800 H   0  0  0  0  0  0  0  0  0  0  0  0
    0.2361    2.6065    6.4247 H   0  0  0  0  0  0  0  0  0  0  0  0
   -1.9902   -0.0158    5.1210 H   0  0  0  0  0  0  0  0  0  0  0  0
   -1.9850    1.3403    6.2634 H   0  0  0  0  0  0  0  0  0  0  0  0
   -1.5387   -0.2647    6.8244 H   0  0  0  0  0  0  0  0  0  0  0  0
    0.0456   -0.9013    4.3349 H   0  0  0  0  0  0  0  0  0  0  0  0
  1  2  2  0
  1 28  1  0
  1 29  1  0
  2  3  1  0
  4  2  1  1
  3 30  1  0
  3 31  1  0
  3 32  1  0
  4 22  1  0
  4 27  1  0
  4  5  1  0
  5  6  1  0
  5 33  1  0
  5 34  1  0
  6  7  1  0
  6 35  1  0
  6 36  1  0
  7  8  1  0
  7  9  1  0
  7 37  1  1
  8 38  1  0
  8 39  1  0
  8 40  1  0
  9 10  2  0
  9 11  1  0
 11 22  1  0
 11 12  1  0
 11 41  1  6
 12 27  1  0
 12 13  1  6
 12 14  1  0
 13 42  1  0
 13 43  1  0
 13 44  1  0
 14 15  1  0
 14 19  1  0
 14 45  1  6
 15 16  1  0
 15 46  1  0
 15 47  1  0
 16 17  2  0
 16 18  1  0
 19 20  1  0
 20 21  2  0
 20 22  1  0
 22 23  1  6
 23 24  1  0
 23 48  1  0
 23 49  1  0
 24 25  1  0
 24 50  1  0
 24 51  1  0
 25 26  1  0
 25 27  1  0
 26 52  1  0
 26 53  1  0
 26 54  1  0
 27 55  1  6
M  CHG  1  18  -1
M  END
>  <i_m_ct_stereo_status>  (101) 
1

>  <s_m_source_file>  (101) 
/var/tmp/pbs.5076255.sched01/tmppv1df_bs/0l6e7d74h.sdf

>  <i_m_source_file_index>  (101) 
37

>  <i_lp_mmshare_version>  (101) 
48012

>  <i_f3d_flags>  (101) 
0

>  <s_epik_input>  (101) 
W0NIMl09QyhbQ0gzXSlbQ0BdMShbQ0BdMjM0KVtDSF0oTihbQ0gzXSlbQ0gyXVtDSDJdNClbQ0BAXShbQ0gzXSkoW0NASF0oT0MzPU8pW0NIMl1DKD1PKVtPSF0pW0NAQEhdMkMoPU8pW0NASF0oW0NIM10pW0NIMl1bQ0gyXTE=

>  <s_epik_cmdline>  (101) 
J2VwaWtfcHl0aG9uJywgJy1waHQnLCAnMi4wJywgJy1waCcsICc3LjAnLCAnLXRuJywgJzgnLCAnLW1hJywgJzIwMCcsICctaW1hZScsICc8aW5maWxlLm1hZT4nLCAnLW9tYWUnLCAnPG91dGZpbGUubWFlPic=

>  <r_lp_tautomer_probability>  (101) 
1

>  <r_epik_Ionization_Penalty>  (101) 
1.16394

>  <r_epik_Ionization_Penalty_Charging>  (101) 
0.000895568

>  <r_epik_Ionization_Penalty_Neutral>  (101) 
1.16305

>  <r_epik_State_Penalty>  (101) 
1.22545

>  <r_epik_Charging_Adjusted_Penalty>  (101) 
1.22635

>  <i_epik_Tot_Q>  (101) 
-1

>  <i_epik_Tot_abs_Q>  (101) 
1

>  <s_epik_Chemistry_Notes>  (101) 
This compound has an ester and may undergo hydrolysis at high or low pH.

>  <s_lp_Force_Field>  (101) 
OPLS3e

>  <r_lp_Energy>  (101) 
230.939

>  <b_lp_Chiralities_Consistent>  (101) 
1

>  <s_lp_Variant>  (101) 
25:0-2

>  <s_i_glide_gridfile>  (101) 
pfpi4k_grid

>  <i_i_glide_lignum>  (101) 
37

>  <i_i_glide_rotatable_bonds>  (101) 
3

>  <r_i_docking_score>  (101) 
-2.57865

>  <r_i_glide_ligand_efficiency>  (101) 
-0.0955056

>  <r_i_glide_ligand_efficiency_sa>  (101) 
-0.286517

>  <r_i_glide_ligand_efficiency_ln>  (101) 
-0.600268

>  <r_i_glide_gscore>  (101) 
-2.57865

>  <r_i_glide_lipo>  (101) 
-0.176927

>  <r_i_glide_hbond>  (101) 
-0.2

>  <r_i_glide_metal>  (101) 
-0

>  <r_i_glide_rewards>  (101) 
-0.910926

>  <r_i_glide_evdw>  (101) 
-16.2712

>  <r_i_glide_ecoul>  (101) 
-4.31069

>  <r_i_glide_erotb>  (101) 
0.27581

>  <r_i_glide_esite>  (101) 
-0.106445

>  <r_i_glide_emodel>  (101) 
-23.6436

>  <r_i_glide_energy>  (101) 
-20.5819

>  <r_i_glide_einternal>  (101) 
1.8701

>  <r_i_glide_intrahb_reward>  (101) 
-0

>  <i_i_glide_confnum>  (101) 
1

>  <i_i_glide_posenum>  (101) 
23

>  <r_i_glide_eff_state_penalty>  (101) 
0

>  <ligand_id>  (101) 
25

>  <original_smiles>  (101) 
C=C(C)C12CCC(C)C(=O)C3C4(C)C(CC(=O)O)OC(=O)C31CCN(C)C42

>  <smiles>  (101) 
[H]C([H])=C(C([H])([H])[H])C12C([H])([H])C([H])([H])C([H])(C([H])([H])[H])C(=O)C3([H])C14C(=O)OC([H])(C([H])([H])C(=O)[O-])C3(C([H])([H])[H])C2([H])N(C([H])([H])[H])C([H])([H])C4([H])[H]

$$$$
25:1:1
     RDKit          3D

 55 58  0  0  1  0  0  0  0  0999 V2000
    2.4959   -2.8859    6.3335 C   0  0  0  0  0  0  0  0  0  0  0  0
    1.4150   -2.5171    5.6217 C   0  0  0  0  0  0  0  0  0  0  0  0
    0.1504   -3.3642    5.7220 C   0  0  0  0  0  0  0  0  0  0  0  0
    1.4255   -1.2832    4.6405 C   0  0  2  0  0  0  0  0  0  0  0  0
    1.9259   -2.1227    3.3880 C   0  0  0  0  0  0  0  0  0  0  0  0
    3.4541   -2.2013    3.1621 C   0  0  0  0  0  0  0  0  0  0  0  0
    4.1110   -0.8310    2.9669 C   0  0  1  0  0  0  0  0  0  0  0  0
    5.3371   -0.9074    2.0320 C   0  0  0  0  0  0  0  0  0  0  0  0
    3.0436    0.1768    2.5157 C   0  0  0  0  0  0  0  0  0  0  0  0
    3.0174    0.5967    1.3610 O   0  0  0  0  0  0  0  0  0  0  0  0
    2.0142    0.6314    3.5876 C   0  0  1  0  0  0  0  0  0  0  0  0
    0.4568    0.5803    3.3931 C   0  0  2  0  0  0  0  0  0  0  0  0
   -0.0234    0.5029    1.9246 C   0  0  0  0  0  0  0  0  0  0  0  0
    0.0705    1.9786    3.9503 C   0  0  1  0  0  0  0  0  0  0  0  0
   -1.4337    2.3274    4.1118 C   0  0  0  0  0  0  0  0  0  0  0  0
   -1.6683    3.7766    4.5051 C   0  0  0  0  0  0  0  0  0  0  0  0
   -2.1822    4.5318    3.6734 O   0  0  0  0  0  0  0  0  0  0  0  0
   -1.3837    4.1058    5.6858 O   0  0  0  0  0  0  0  0  0  0  0  0
    0.8600    2.2845    5.1081 O   0  0  0  0  0  0  0  0  0  0  0  0
    2.0699    1.6544    5.3740 C   0  0  0  0  0  0  0  0  0  0  0  0
    3.0217    2.2566    5.8746 O   0  0  0  0  0  0  0  0  0  0  0  0
    2.2359    0.1013    5.1044 C   0  0  2  0  0  0  0  0  0  0  0  0
    1.4865    0.0805    6.5666 C   0  0  0  0  0  0  0  0  0  0  0  0
   -0.0715    0.0703    6.6513 C   0  0  0  0  0  0  0  0  0  0  0  0
   -0.7204   -0.4461    5.4463 N   0  0  0  0  0  0  0  0  0  0  0  0
   -2.1552   -0.6823    5.4733 C   0  0  0  0  0  0  0  0  0  0  0  0
    0.0533   -0.6943    4.2342 C   0  0  2  0  0  0  0  0  0  0  0  0
    2.4699   -3.7475    6.9912 H   0  0  0  0  0  0  0  0  0  0  0  0
    3.4233   -2.3299    6.2857 H   0  0  0  0  0  0  0  0  0  0  0  0
   -0.3073   -3.5064    4.7461 H   0  0  0  0  0  0  0  0  0  0  0  0
   -0.5757   -2.9133    6.3954 H   0  0  0  0  0  0  0  0  0  0  0  0
    0.3861   -4.3531    6.1166 H   0  0  0  0  0  0  0  0  0  0  0  0
    1.5758   -3.1570    3.4199 H   0  0  0  0  0  0  0  0  0  0  0  0
    1.4495   -1.8143    2.4586 H   0  0  0  0  0  0  0  0  0  0  0  0
    3.9427   -2.7295    3.9810 H   0  0  0  0  0  0  0  0  0  0  0  0
    3.6267   -2.8170    2.2776 H   0  0  0  0  0  0  0  0  0  0  0  0
    4.4674   -0.4886    3.9384 H   0  0  0  0  0  0  0  0  0  0  0  0
    5.8349    0.0575    1.9698 H   0  0  0  0  0  0  0  0  0  0  0  0
    5.0694   -1.2077    1.0178 H   0  0  0  0  0  0  0  0  0  0  0  0
    6.0666   -1.6268    2.4053 H   0  0  0  0  0  0  0  0  0  0  0  0
    2.2853    1.6649    3.2968 H   0  0  0  0  0  0  0  0  0  0  0  0
   -1.1140    0.4989    1.8658 H   0  0  0  0  0  0  0  0  0  0  0  0
    0.3315   -0.3818    1.3981 H   0  0  0  0  0  0  0  0  0  0  0  0
    0.3128    1.3623    1.3371 H   0  0  0  0  0  0  0  0  0  0  0  0
    0.4089    2.7039    3.2032 H   0  0  0  0  0  0  0  0  0  0  0  0
   -2.0002    2.1001    3.2059 H   0  0  0  0  0  0  0  0  0  0  0  0
   -1.8970    1.8018    4.9282 H   0  0  0  0  0  0  0  0  0  0  0  0
    1.8329   -0.7371    7.1707 H   0  0  0  0  0  0  0  0  0  0  0  0
    1.8201    0.7541    7.3721 H   0  0  0  0  0  0  0  0  0  0  0  0
   -0.3782   -0.5332    7.5015 H   0  0  0  0  0  0  0  0  0  0  0  0
   -0.4501    1.0710    6.8406 H   0  0  0  0  0  0  0  0  0  0  0  0
   -2.5761   -0.7092    4.4633 H   0  0  0  0  0  0  0  0  0  0  0  0
   -2.6565    0.1136    6.0257 H   0  0  0  0  0  0  0  0  0  0  0  0
   -2.3940   -1.6209    5.9766 H   0  0  0  0  0  0  0  0  0  0  0  0
   -0.5039   -1.4163    3.6340 H   0  0  0  0  0  0  0  0  0  0  0  0
  1  2  2  0
  1 28  1  0
  1 29  1  0
  2  3  1  0
  4  2  1  1
  3 30  1  0
  3 31  1  0
  3 32  1  0
  4 22  1  0
  4 27  1  0
  4  5  1  0
  5  6  1  0
  5 33  1  0
  5 34  1  0
  6  7  1  0
  6 35  1  0
  6 36  1  0
  7  8  1  0
  7  9  1  0
  7 37  1  1
  8 38  1  0
  8 39  1  0
  8 40  1  0
  9 10  2  0
  9 11  1  0
 11 22  1  0
 11 12  1  0
 11 41  1  1
 12 27  1  0
 12 13  1  6
 12 14  1  0
 13 42  1  0
 13 43  1  0
 13 44  1  0
 14 15  1  0
 14 19  1  0
 14 45  1  6
 15 16  1  0
 15 46  1  0
 15 47  1  0
 16 17  2  0
 16 18  1  0
 19 20  1  0
 20 21  2  0
 20 22  1  0
 22 23  1  6
 23 24  1  0
 23 48  1  0
 23 49  1  0
 24 25  1  0
 24 50  1  0
 24 51  1  0
 25 26  1  0
 25 27  1  0
 26 52  1  0
 26 53  1  0
 26 54  1  0
 27 55  1  6
M  CHG  1  18  -1
M  END
>  <i_m_ct_stereo_status>  (102) 
1

>  <s_m_source_file>  (102) 
/var/tmp/pbs.5076255.sched01/tmppv1df_bs/0l6e7d74h.sdf

>  <i_m_source_file_index>  (102) 
37

>  <i_lp_mmshare_version>  (102) 
48012

>  <i_f3d_flags>  (102) 
0

>  <s_epik_input>  (102) 
W0NIMl09QyhbQ0gzXSlbQ0BdMShbQ0BdMjM0KVtDSF0oTihbQ0gzXSlbQ0gyXVtDSDJdNClbQ0BAXShbQ0gzXSkoW0NASF0oT0MzPU8pW0NIMl1DKD1PKVtPSF0pW0NAQEhdMkMoPU8pW0NASF0oW0NIM10pW0NIMl1bQ0gyXTE=

>  <s_epik_cmdline>  (102) 
J2VwaWtfcHl0aG9uJywgJy1waHQnLCAnMi4wJywgJy1waCcsICc3LjAnLCAnLXRuJywgJzgnLCAnLW1hJywgJzIwMCcsICctaW1hZScsICc8aW5maWxlLm1hZT4nLCAnLW9tYWUnLCAnPG91dGZpbGUubWFlPic=

>  <r_lp_tautomer_probability>  (102) 
1

>  <r_epik_Ionization_Penalty>  (102) 
1.16394

>  <r_epik_Ionization_Penalty_Charging>  (102) 
0.000895568

>  <r_epik_Ionization_Penalty_Neutral>  (102) 
1.16305

>  <r_epik_State_Penalty>  (102) 
1.22545

>  <r_epik_Charging_Adjusted_Penalty>  (102) 
1.22635

>  <i_epik_Tot_Q>  (102) 
-1

>  <i_epik_Tot_abs_Q>  (102) 
1

>  <s_epik_Chemistry_Notes>  (102) 
This compound has an ester and may undergo hydrolysis at high or low pH.

>  <s_lp_Force_Field>  (102) 
OPLS3e

>  <r_lp_Energy>  (102) 
230.939

>  <b_lp_Chiralities_Consistent>  (102) 
1

>  <s_lp_Variant>  (102) 
25:0-2

>  <s_i_glide_gridfile>  (102) 
pfpi4k_grid

>  <i_i_glide_lignum>  (102) 
37

>  <i_i_glide_rotatable_bonds>  (102) 
3

>  <r_i_docking_score>  (102) 
-2.54269

>  <r_i_glide_ligand_efficiency>  (102) 
-0.0941739

>  <r_i_glide_ligand_efficiency_sa>  (102) 
-0.282522

>  <r_i_glide_ligand_efficiency_ln>  (102) 
-0.591897

>  <r_i_glide_gscore>  (102) 
-2.54269

>  <r_i_glide_lipo>  (102) 
-0.147194

>  <r_i_glide_hbond>  (102) 
-0.2

>  <r_i_glide_metal>  (102) 
-0

>  <r_i_glide_rewards>  (102) 
-0.896091

>  <r_i_glide_evdw>  (102) 
-19.3201

>  <r_i_glide_ecoul>  (102) 
-3.7431

>  <r_i_glide_erotb>  (102) 
0.27581

>  <r_i_glide_esite>  (102) 
-0.047746

>  <r_i_glide_emodel>  (102) 
-25.8504

>  <r_i_glide_energy>  (102) 
-23.0632

>  <r_i_glide_einternal>  (102) 
2.8078

>  <r_i_glide_intrahb_reward>  (102) 
-0

>  <i_i_glide_confnum>  (102) 
1

>  <i_i_glide_posenum>  (102) 
34

>  <r_i_glide_eff_state_penalty>  (102) 
0

>  <ligand_id>  (102) 
25

>  <original_smiles>  (102) 
C=C(C)C12CCC(C)C(=O)C3C4(C)C(CC(=O)O)OC(=O)C31CCN(C)C42

>  <smiles>  (102) 
[H]C([H])=C(C([H])([H])[H])C12C([H])([H])C([H])([H])C([H])(C([H])([H])[H])C(=O)C3([H])C14C(=O)OC([H])(C([H])([H])C(=O)[O-])C3(C([H])([H])[H])C2([H])N(C([H])([H])[H])C([H])([H])C4([H])[H]

$$$$
25:1:2
     RDKit          3D

 55 58  0  0  1  0  0  0  0  0999 V2000
    4.0253    1.2766    7.5415 C   0  0  0  0  0  0  0  0  0  0  0  0
    2.7818    0.8776    7.2110 C   0  0  0  0  0  0  0  0  0  0  0  0
    1.8945    0.2659    8.2898 C   0  0  0  0  0  0  0  0  0  0  0  0
    2.2342    0.9512    5.7344 C   0  0  2  0  0  0  0  0  0  0  0  0
    2.7906   -0.4802    5.3155 C   0  0  0  0  0  0  0  0  0  0  0  0
    4.2020   -0.5320    4.6890 C   0  0  0  0  0  0  0  0  0  0  0  0
    4.3333    0.2966    3.4023 C   0  0  1  0  0  0  0  0  0  0  0  0
    5.3597   -0.3154    2.4229 C   0  0  0  0  0  0  0  0  0  0  0  0
    2.9438    0.5213    2.7867 C   0  0  0  0  0  0  0  0  0  0  0  0
    2.6005   -0.0481    1.7500 O   0  0  0  0  0  0  0  0  0  0  0  0
    1.9891    1.4894    3.5411 C   0  0  1  0  0  0  0  0  0  0  0  0
    0.5307    1.1297    3.9938 C   0  0  2  0  0  0  0  0  0  0  0  0
   -0.1135   -0.0785    3.2756 C   0  0  0  0  0  0  0  0  0  0  0  0
   -0.2066    2.4355    3.5453 C   0  0  1  0  0  0  0  0  0  0  0  0
   -1.6984    2.6272    3.9313 C   0  0  0  0  0  0  0  0  0  0  0  0
   -2.3700    3.7909    3.2038 C   0  0  0  0  0  0  0  0  0  0  0  0
   -1.8779    4.9379    3.3104 O   0  0  0  0  0  0  0  0  0  0  0  0
   -3.4459    3.5407    2.6191 O   0  0  0  0  0  0  0  0  0  0  0  0
    0.5987    3.5921    3.8168 O   0  0  0  0  0  0  0  0  0  0  0  0
    1.9767    3.5103    3.9936 C   0  0  0  0  0  0  0  0  0  0  0  0
    2.7227    4.3936    3.5707 O   0  0  0  0  0  0  0  0  0  0  0  0
    2.6099    2.2895    4.8165 C   0  0  2  0  0  0  0  0  0  0  0  0
    2.1349    3.2927    6.0399 C   0  0  0  0  0  0  0  0  0  0  0  0
    0.6969    3.1709    6.6387 C   0  0  0  0  0  0  0  0  0  0  0  0
    0.0688    1.8743    6.4084 N   0  0  0  0  0  0  0  0  0  0  0  0
   -1.1782    1.5822    7.1038 C   0  0  0  0  0  0  0  0  0  0  0  0
    0.7002    0.8779    5.5396 C   0  0  2  0  0  0  0  0  0  0  0  0
    4.3870    1.1958    8.5587 H   0  0  0  0  0  0  0  0  0  0  0  0
    4.6993    1.6970    6.8074 H   0  0  0  0  0  0  0  0  0  0  0  0
    1.3519   -0.6025    7.9188 H   0  0  0  0  0  0  0  0  0  0  0  0
    1.1851    0.9959    8.6711 H   0  0  0  0  0  0  0  0  0  0  0  0
    2.4982   -0.0659    9.1352 H   0  0  0  0  0  0  0  0  0  0  0  0
    2.8089   -1.1767    6.1593 H   0  0  0  0  0  0  0  0  0  0  0  0
    2.1062   -1.0188    4.6662 H   0  0  0  0  0  0  0  0  0  0  0  0
    4.9574   -0.2102    5.4057 H   0  0  0  0  0  0  0  0  0  0  0  0
    4.4333   -1.5759    4.4749 H   0  0  0  0  0  0  0  0  0  0  0  0
    4.6953    1.2833    3.6876 H   0  0  0  0  0  0  0  0  0  0  0  0
    5.4976    0.3053    1.5396 H   0  0  0  0  0  0  0  0  0  0  0  0
    5.0532   -1.2998    2.0709 H   0  0  0  0  0  0  0  0  0  0  0  0
    6.3323   -0.4248    2.9004 H   0  0  0  0  0  0  0  0  0  0  0  0
    1.8541    1.9793    2.5582 H   0  0  0  0  0  0  0  0  0  0  0  0
   -1.1281   -0.2516    3.6414 H   0  0  0  0  0  0  0  0  0  0  0  0
    0.4263   -1.0156    3.4064 H   0  0  0  0  0  0  0  0  0  0  0  0
   -0.1783    0.1030    2.1988 H   0  0  0  0  0  0  0  0  0  0  0  0
   -0.2323    2.3887    2.4546 H   0  0  0  0  0  0  0  0  0  0  0  0
   -2.2687    1.7167    3.7522 H   0  0  0  0  0  0  0  0  0  0  0  0
   -1.8158    2.8824    4.9726 H   0  0  0  0  0  0  0  0  0  0  0  0
    2.8257    3.2380    6.8645 H   0  0  0  0  0  0  0  0  0  0  0  0
    2.3506    4.3745    5.9972 H   0  0  0  0  0  0  0  0  0  0  0  0
    0.7352    3.3663    7.7092 H   0  0  0  0  0  0  0  0  0  0  0  0
    0.0492    3.9394    6.2224 H   0  0  0  0  0  0  0  0  0  0  0  0
   -1.7067    0.7545    6.6252 H   0  0  0  0  0  0  0  0  0  0  0  0
   -1.8358    2.4545    7.0898 H   0  0  0  0  0  0  0  0  0  0  0  0
   -1.0011    1.3348    8.1524 H   0  0  0  0  0  0  0  0  0  0  0  0
    0.3246   -0.1083    5.8223 H   0  0  0  0  0  0  0  0  0  0  0  0
  1  2  2  0
  1 28  1  0
  1 29  1  0
  2  3  1  0
  4  2  1  1
  3 30  1  0
  3 31  1  0
  3 32  1  0
  4 22  1  0
  4 27  1  0
  4  5  1  0
  5  6  1  0
  5 33  1  0
  5 34  1  0
  6  7  1  0
  6 35  1  0
  6 36  1  0
  7  8  1  0
  7  9  1  0
  7 37  1  1
  8 38  1  0
  8 39  1  0
  8 40  1  0
  9 10  2  0
  9 11  1  0
 11 22  1  0
 11 12  1  0
 11 41  1  6
 12 27  1  0
 12 13  1  6
 12 14  1  0
 13 42  1  0
 13 43  1  0
 13 44  1  0
 14 15  1  0
 14 19  1  0
 14 45  1  6
 15 16  1  0
 15 46  1  0
 15 47  1  0
 16 17  2  0
 16 18  1  0
 19 20  1  0
 20 21  2  0
 20 22  1  0
 22 23  1  6
 23 24  1  0
 23 48  1  0
 23 49  1  0
 24 25  1  0
 24 50  1  0
 24 51  1  0
 25 26  1  0
 25 27  1  0
 26 52  1  0
 26 53  1  0
 26 54  1  0
 27 55  1  1
M  CHG  1  18  -1
M  END
>  <i_m_ct_stereo_status>  (103) 
1

>  <s_m_source_file>  (103) 
/var/tmp/pbs.5076255.sched01/tmppv1df_bs/0l6e7d74h.sdf

>  <i_m_source_file_index>  (103) 
37

>  <i_lp_mmshare_version>  (103) 
48012

>  <i_f3d_flags>  (103) 
0

>  <s_epik_input>  (103) 
W0NIMl09QyhbQ0gzXSlbQ0BdMShbQ0BdMjM0KVtDSF0oTihbQ0gzXSlbQ0gyXVtDSDJdNClbQ0BAXShbQ0gzXSkoW0NASF0oT0MzPU8pW0NIMl1DKD1PKVtPSF0pW0NAQEhdMkMoPU8pW0NASF0oW0NIM10pW0NIMl1bQ0gyXTE=

>  <s_epik_cmdline>  (103) 
J2VwaWtfcHl0aG9uJywgJy1waHQnLCAnMi4wJywgJy1waCcsICc3LjAnLCAnLXRuJywgJzgnLCAnLW1hJywgJzIwMCcsICctaW1hZScsICc8aW5maWxlLm1hZT4nLCAnLW9tYWUnLCAnPG91dGZpbGUubWFlPic=

>  <r_lp_tautomer_probability>  (103) 
1

>  <r_epik_Ionization_Penalty>  (103) 
1.16394

>  <r_epik_Ionization_Penalty_Charging>  (103) 
0.000895568

>  <r_epik_Ionization_Penalty_Neutral>  (103) 
1.16305

>  <r_epik_State_Penalty>  (103) 
1.22545

>  <r_epik_Charging_Adjusted_Penalty>  (103) 
1.22635

>  <i_epik_Tot_Q>  (103) 
-1

>  <i_epik_Tot_abs_Q>  (103) 
1

>  <s_epik_Chemistry_Notes>  (103) 
This compound has an ester and may undergo hydrolysis at high or low pH.

>  <s_lp_Force_Field>  (103) 
OPLS3e

>  <r_lp_Energy>  (103) 
230.939

>  <b_lp_Chiralities_Consistent>  (103) 
1

>  <s_lp_Variant>  (103) 
25:0-2

>  <s_i_glide_gridfile>  (103) 
pfpi4k_grid

>  <i_i_glide_lignum>  (103) 
37

>  <i_i_glide_rotatable_bonds>  (103) 
3

>  <r_i_docking_score>  (103) 
-2.24035

>  <r_i_glide_ligand_efficiency>  (103) 
-0.0829761

>  <r_i_glide_ligand_efficiency_sa>  (103) 
-0.248928

>  <r_i_glide_ligand_efficiency_ln>  (103) 
-0.521518

>  <r_i_glide_gscore>  (103) 
-2.24035

>  <r_i_glide_lipo>  (103) 
-0.104001

>  <r_i_glide_hbond>  (103) 
-0.2

>  <r_i_glide_metal>  (103) 
-0

>  <r_i_glide_rewards>  (103) 
-0.899947

>  <r_i_glide_evdw>  (103) 
-18.0151

>  <r_i_glide_ecoul>  (103) 
-2.0587

>  <r_i_glide_erotb>  (103) 
0.27581

>  <r_i_glide_esite>  (103) 
-0.102657

>  <r_i_glide_emodel>  (103) 
-22.639

>  <r_i_glide_energy>  (103) 
-20.0738

>  <r_i_glide_einternal>  (103) 
2.39215

>  <r_i_glide_intrahb_reward>  (103) 
-0

>  <i_i_glide_confnum>  (103) 
3

>  <i_i_glide_posenum>  (103) 
13

>  <r_i_glide_eff_state_penalty>  (103) 
0

>  <ligand_id>  (103) 
25

>  <original_smiles>  (103) 
C=C(C)C12CCC(C)C(=O)C3C4(C)C(CC(=O)O)OC(=O)C31CCN(C)C42

>  <smiles>  (103) 
[H]C([H])=C(C([H])([H])[H])C12C([H])([H])C([H])([H])C([H])(C([H])([H])[H])C(=O)C3([H])C14C(=O)OC([H])(C([H])([H])C(=O)[O-])C3(C([H])([H])[H])C2([H])N(C([H])([H])[H])C([H])([H])C4([H])[H]

$$$$
26:0:0
     RDKit          3D

 41 44  0  0  1  0  0  0  0  0999 V2000
    5.3268   -3.5797    4.7200 C   0  0  0  0  0  0  0  0  0  0  0  0
    4.6481   -3.3479    3.4193 N   0  0  1  0  0  0  0  0  0  0  0  0
    3.7163   -2.1949    3.5092 C   0  0  0  0  0  0  0  0  0  0  0  0
    2.9273   -1.8635    2.2232 C   0  0  1  0  0  0  0  0  0  0  0  0
    3.4079   -0.6146    1.4652 C   0  0  0  0  0  0  0  0  0  0  0  0
    4.8452   -0.6902    0.9471 C   0  0  0  0  0  0  0  0  0  0  0  0
    5.1648   -1.9361    0.0967 C   0  0  2  0  0  0  0  0  0  0  0  0
    4.4504   -1.9625   -1.2526 C   0  0  0  0  0  0  0  0  0  0  0  0
    4.6288   -0.9137   -2.1854 C   0  0  0  0  0  0  0  0  0  0  0  0
    3.9697   -0.9311   -3.4281 C   0  0  0  0  0  0  0  0  0  0  0  0
    3.1269   -2.0059   -3.7567 C   0  0  0  0  0  0  0  0  0  0  0  0
    2.9445   -3.0527   -2.8404 C   0  0  0  0  0  0  0  0  0  0  0  0
    3.6037   -3.0461   -1.5901 C   0  0  0  0  0  0  0  0  0  0  0  0
    3.4197   -4.2074   -0.6152 C   0  0  0  0  0  0  0  0  0  0  0  0
    3.6760   -3.8561    0.7853 N   0  0  0  0  0  0  0  0  0  0  0  0
    2.5674   -3.0252    1.2761 C   0  0  0  0  0  0  0  0  0  0  0  0
    5.0197   -3.2723    0.8713 C   0  0  2  0  0  0  0  0  0  0  0  0
    5.6243   -3.3215    2.2984 C   0  0  0  0  0  0  0  0  0  0  0  0
    5.9660   -2.7397    4.9870 H   0  0  0  0  0  0  0  0  0  0  0  0
    5.9437   -4.4759    4.6926 H   0  0  0  0  0  0  0  0  0  0  0  0
    4.6051   -3.7011    5.5287 H   0  0  0  0  0  0  0  0  0  0  0  0
    2.9952   -2.4452    4.2907 H   0  0  0  0  0  0  0  0  0  0  0  0
    4.2286   -1.3061    3.8752 H   0  0  0  0  0  0  0  0  0  0  0  0
    1.9578   -1.5476    2.6003 H   0  0  0  0  0  0  0  0  0  0  0  0
    2.7274   -0.4165    0.6333 H   0  0  0  0  0  0  0  0  0  0  0  0
    3.3225    0.2550    2.1177 H   0  0  0  0  0  0  0  0  0  0  0  0
    5.0444    0.2056    0.3659 H   0  0  0  0  0  0  0  0  0  0  0  0
    5.5241   -0.6274    1.7949 H   0  0  0  0  0  0  0  0  0  0  0  0
    6.2243   -1.8496   -0.1528 H   0  0  0  0  0  0  0  0  0  0  0  0
    5.2715   -0.0830   -1.9450 H   0  0  0  0  0  0  0  0  0  0  0  0
    4.1020   -0.1165   -4.1254 H   0  0  0  0  0  0  0  0  0  0  0  0
    2.6170   -2.0218   -4.7048 H   0  0  0  0  0  0  0  0  0  0  0  0
    2.2936   -3.8736   -3.1109 H   0  0  0  0  0  0  0  0  0  0  0  0
    2.4122   -4.6092   -0.7159 H   0  0  0  0  0  0  0  0  0  0  0  0
    4.1006   -5.0063   -0.9092 H   0  0  0  0  0  0  0  0  0  0  0  0
    1.8562   -3.6928    1.7599 H   0  0  0  0  0  0  0  0  0  0  0  0
    2.0240   -2.5927    0.4329 H   0  0  0  0  0  0  0  0  0  0  0  0
    5.6490   -3.9661    0.3193 H   0  0  0  0  0  0  0  0  0  0  0  0
    6.3550   -2.5278    2.4377 H   0  0  0  0  0  0  0  0  0  0  0  0
    6.1983   -4.2449    2.3710 H   0  0  0  0  0  0  0  0  0  0  0  0
    4.0681   -4.1577    3.2308 H   0  0  0  0  0  0  0  0  0  0  0  0
  1  2  1  0
  1 19  1  0
  1 20  1  0
  1 21  1  0
  2 18  1  0
  2  3  1  0
  2 41  1  6
  3  4  1  0
  3 22  1  0
  3 23  1  0
  4 16  1  0
  4  5  1  0
  4 24  1  1
  5  6  1  0
  5 25  1  0
  5 26  1  0
  6  7  1  0
  6 27  1  0
  6 28  1  0
  7 17  1  0
  7  8  1  0
  7 29  1  6
  8 13  1  0
  8  9  2  0
  9 10  1  0
  9 30  1  0
 10 11  2  0
 10 31  1  0
 11 12  1  0
 11 32  1  0
 12 13  2  0
 12 33  1  0
 13 14  1  0
 14 15  1  0
 14 34  1  0
 14 35  1  0
 15 16  1  0
 15 17  1  0
 16 36  1  0
 16 37  1  0
 17 18  1  0
 17 38  1  6
 18 39  1  0
 18 40  1  0
M  CHG  1   2   1
M  END
>  <i_m_ct_stereo_status>  (104) 
1

>  <s_m_source_file>  (104) 
/var/tmp/pbs.5076255.sched01/tmppv1df_bs/0l6e7d74h.sdf

>  <i_m_source_file_index>  (104) 
38

>  <i_lp_mmshare_version>  (104) 
48012

>  <i_f3d_flags>  (104) 
0

>  <s_epik_input>  (104) 
W0NASF0xMltDSDJdTihbQ0gzXSlbQ0gyXVtDQEBIXTNbQ0BIXShbQ0gyXVtDSDJdMSljNGMoW0NIMl1OM1tDSDJdMilbY0hdW2NIXVtjSF1bY0hdNA==

>  <s_epik_cmdline>  (104) 
J2VwaWtfcHl0aG9uJywgJy1waHQnLCAnMi4wJywgJy1waCcsICc3LjAnLCAnLXRuJywgJzgnLCAnLW1hJywgJzIwMCcsICctaW1hZScsICc8aW5maWxlLm1hZT4nLCAnLW9tYWUnLCAnPG91dGZpbGUubWFlPic=

>  <r_epik_Ionization_Penalty>  (104) 
0.00359588

>  <r_epik_Ionization_Penalty_Charging>  (104) 
0.0032756

>  <r_epik_Ionization_Penalty_Neutral>  (104) 
0.00032028

>  <r_epik_State_Penalty>  (104) 
0.0502257

>  <r_epik_Charging_Adjusted_Penalty>  (104) 
0.0535013

>  <i_epik_Tot_Q>  (104) 
1

>  <i_epik_Tot_abs_Q>  (104) 
1

>  <s_lp_Force_Field>  (104) 
OPLS3e

>  <r_lp_Energy>  (104) 
51.2068

>  <b_lp_Chiralities_Consistent>  (104) 
1

>  <s_lp_Variant>  (104) 
26:0-1

>  <s_i_glide_gridfile>  (104) 
pfpi4k_grid

>  <i_i_glide_lignum>  (104) 
38

>  <i_i_glide_rotatable_bonds>  (104) 
0

>  <r_i_docking_score>  (104) 
-3.7932

>  <r_i_glide_ligand_efficiency>  (104) 
-0.210734

>  <r_i_glide_ligand_efficiency_sa>  (104) 
-0.552278

>  <r_i_glide_ligand_efficiency_ln>  (104) 
-0.975023

>  <r_i_glide_gscore>  (104) 
-3.7932

>  <r_i_glide_lipo>  (104) 
-0.598311

>  <r_i_glide_hbond>  (104) 
0

>  <r_i_glide_metal>  (104) 
-0

>  <r_i_glide_rewards>  (104) 
-1.74977

>  <r_i_glide_evdw>  (104) 
-18.7431

>  <r_i_glide_ecoul>  (104) 
-3.38645

>  <r_i_glide_erotb>  (104) 
0

>  <r_i_glide_esite>  (104) 
0

>  <r_i_glide_emodel>  (104) 
-26.5279

>  <r_i_glide_energy>  (104) 
-22.1296

>  <r_i_glide_einternal>  (104) 
0

>  <r_i_glide_intrahb_reward>  (104) 
-0

>  <i_i_glide_confnum>  (104) 
2

>  <i_i_glide_posenum>  (104) 
39

>  <r_i_glide_eff_state_penalty>  (104) 
0

>  <ligand_id>  (104) 
26

>  <original_smiles>  (104) 
CN1CC2CCC3c4ccccc4CN(C2)C3C1

>  <smiles>  (104) 
[H]c1c([H])c([H])c2c(c1[H])C([H])([H])N1C([H])([H])C3([H])C([H])([H])C([H])([H])C2([H])C1([H])C([H])([H])[N+]([H])(C([H])([H])[H])C3([H])[H]

$$$$
26:0:1
     RDKit          3D

 41 44  0  0  1  0  0  0  0  0999 V2000
    4.4740   -4.4765    5.2742 C   0  0  0  0  0  0  0  0  0  0  0  0
    3.9821   -4.0927    3.9271 N   0  0  1  0  0  0  0  0  0  0  0  0
    3.0438   -2.9439    4.0186 C   0  0  0  0  0  0  0  0  0  0  0  0
    2.4440   -2.4548    2.6813 C   0  0  1  0  0  0  0  0  0  0  0  0
    3.0251   -1.1332    2.1430 C   0  0  0  0  0  0  0  0  0  0  0  0
    4.5217   -1.1671    1.8224 C   0  0  0  0  0  0  0  0  0  0  0  0
    4.9625   -2.3173    0.8921 C   0  0  2  0  0  0  0  0  0  0  0  0
    4.4467   -2.1876   -0.5432 C   0  0  0  0  0  0  0  0  0  0  0  0
    4.7653   -1.0494   -1.3126 C   0  0  0  0  0  0  0  0  0  0  0  0
    4.2762   -0.9089   -2.6250 C   0  0  0  0  0  0  0  0  0  0  0  0
    3.4879   -1.9208   -3.1966 C   0  0  0  0  0  0  0  0  0  0  0  0
    3.1814   -3.0681   -2.4417 C   0  0  0  0  0  0  0  0  0  0  0  0
    3.6534   -3.2065   -1.1194 C   0  0  0  0  0  0  0  0  0  0  0  0
    3.3350   -4.4660   -0.3189 C   0  0  0  0  0  0  0  0  0  0  0  0
    3.3942   -4.2793    1.1374 N   0  0  0  0  0  0  0  0  0  0  0  0
    2.2303   -3.4988    1.5697 C   0  0  0  0  0  0  0  0  0  0  0  0
    4.7101   -3.7315    1.4835 C   0  0  2  0  0  0  0  0  0  0  0  0
    5.1092   -3.9493    2.9679 C   0  0  0  0  0  0  0  0  0  0  0  0
    5.0816   -3.6812    5.7131 H   0  0  0  0  0  0  0  0  0  0  0  0
    5.0875   -5.3782    5.2292 H   0  0  0  0  0  0  0  0  0  0  0  0
    3.6445   -4.6758    5.9562 H   0  0  0  0  0  0  0  0  0  0  0  0
    2.2184   -3.2721    4.6535 H   0  0  0  0  0  0  0  0  0  0  0  0
    3.4988   -2.1092    4.5514 H   0  0  0  0  0  0  0  0  0  0  0  0
    1.4272   -2.1690    2.9497 H   0  0  0  0  0  0  0  0  0  0  0  0
    2.4678   -0.8328    1.2526 H   0  0  0  0  0  0  0  0  0  0  0  0
    2.8453   -0.3441    2.8749 H   0  0  0  0  0  0  0  0  0  0  0  0
    4.7999   -0.2104    1.3832 H   0  0  0  0  0  0  0  0  0  0  0  0
    5.0722   -1.2109    2.7602 H   0  0  0  0  0  0  0  0  0  0  0  0
    6.0448   -2.2181    0.8094 H   0  0  0  0  0  0  0  0  0  0  0  0
    5.3645   -0.2630   -0.8797 H   0  0  0  0  0  0  0  0  0  0  0  0
    4.4990   -0.0166   -3.1895 H   0  0  0  0  0  0  0  0  0  0  0  0
    3.1126   -1.8173   -4.2038 H   0  0  0  0  0  0  0  0  0  0  0  0
    2.5855   -3.8520   -2.8880 H   0  0  0  0  0  0  0  0  0  0  0  0
    2.3485   -4.8362   -0.6020 H   0  0  0  0  0  0  0  0  0  0  0  0
    4.0466   -5.2413   -0.6065 H   0  0  0  0  0  0  0  0  0  0  0  0
    1.4705   -4.2148    1.8847 H   0  0  0  0  0  0  0  0  0  0  0  0
    1.8151   -2.9613    0.7116 H   0  0  0  0  0  0  0  0  0  0  0  0
    5.4137   -4.3690    0.9478 H   0  0  0  0  0  0  0  0  0  0  0  0
    5.8111   -3.1877    3.3066 H   0  0  0  0  0  0  0  0  0  0  0  0
    5.6679   -4.8848    3.0113 H   0  0  0  0  0  0  0  0  0  0  0  0
    3.4362   -4.8660    3.5687 H   0  0  0  0  0  0  0  0  0  0  0  0
  1  2  1  0
  1 19  1  0
  1 20  1  0
  1 21  1  0
  2 18  1  0
  2  3  1  0
  2 41  1  6
  3  4  1  0
  3 22  1  0
  3 23  1  0
  4 16  1  0
  4  5  1  0
  4 24  1  1
  5  6  1  0
  5 25  1  0
  5 26  1  0
  6  7  1  0
  6 27  1  0
  6 28  1  0
  7 17  1  0
  7  8  1  0
  7 29  1  6
  8 13  1  0
  8  9  2  0
  9 10  1  0
  9 30  1  0
 10 11  2  0
 10 31  1  0
 11 12  1  0
 11 32  1  0
 12 13  2  0
 12 33  1  0
 13 14  1  0
 14 15  1  0
 14 34  1  0
 14 35  1  0
 15 16  1  0
 15 17  1  0
 16 36  1  0
 16 37  1  0
 17 18  1  0
 17 38  1  6
 18 39  1  0
 18 40  1  0
M  CHG  1   2   1
M  END
>  <i_m_ct_stereo_status>  (105) 
1

>  <s_m_source_file>  (105) 
/var/tmp/pbs.5076255.sched01/tmppv1df_bs/0l6e7d74h.sdf

>  <i_m_source_file_index>  (105) 
38

>  <i_lp_mmshare_version>  (105) 
48012

>  <i_f3d_flags>  (105) 
0

>  <s_epik_input>  (105) 
W0NASF0xMltDSDJdTihbQ0gzXSlbQ0gyXVtDQEBIXTNbQ0BIXShbQ0gyXVtDSDJdMSljNGMoW0NIMl1OM1tDSDJdMilbY0hdW2NIXVtjSF1bY0hdNA==

>  <s_epik_cmdline>  (105) 
J2VwaWtfcHl0aG9uJywgJy1waHQnLCAnMi4wJywgJy1waCcsICc3LjAnLCAnLXRuJywgJzgnLCAnLW1hJywgJzIwMCcsICctaW1hZScsICc8aW5maWxlLm1hZT4nLCAnLW9tYWUnLCAnPG91dGZpbGUubWFlPic=

>  <r_epik_Ionization_Penalty>  (105) 
0.00359588

>  <r_epik_Ionization_Penalty_Charging>  (105) 
0.0032756

>  <r_epik_Ionization_Penalty_Neutral>  (105) 
0.00032028

>  <r_epik_State_Penalty>  (105) 
0.0502257

>  <r_epik_Charging_Adjusted_Penalty>  (105) 
0.0535013

>  <i_epik_Tot_Q>  (105) 
1

>  <i_epik_Tot_abs_Q>  (105) 
1

>  <s_lp_Force_Field>  (105) 
OPLS3e

>  <r_lp_Energy>  (105) 
51.2068

>  <b_lp_Chiralities_Consistent>  (105) 
1

>  <s_lp_Variant>  (105) 
26:0-1

>  <s_i_glide_gridfile>  (105) 
pfpi4k_grid

>  <i_i_glide_lignum>  (105) 
38

>  <i_i_glide_rotatable_bonds>  (105) 
0

>  <r_i_docking_score>  (105) 
-3.2752

>  <r_i_glide_ligand_efficiency>  (105) 
-0.181956

>  <r_i_glide_ligand_efficiency_sa>  (105) 
-0.476859

>  <r_i_glide_ligand_efficiency_ln>  (105) 
-0.841874

>  <r_i_glide_gscore>  (105) 
-3.2752

>  <r_i_glide_lipo>  (105) 
-0.235825

>  <r_i_glide_hbond>  (105) 
0

>  <r_i_glide_metal>  (105) 
-0

>  <r_i_glide_rewards>  (105) 
-1.74977

>  <r_i_glide_evdw>  (105) 
-17.0042

>  <r_i_glide_ecoul>  (105) 
-2.9293

>  <r_i_glide_erotb>  (105) 
0

>  <r_i_glide_esite>  (105) 
0

>  <r_i_glide_emodel>  (105) 
-23.7044

>  <r_i_glide_energy>  (105) 
-19.9335

>  <r_i_glide_einternal>  (105) 
0

>  <r_i_glide_intrahb_reward>  (105) 
-0

>  <i_i_glide_confnum>  (105) 
1

>  <i_i_glide_posenum>  (105) 
2

>  <r_i_glide_eff_state_penalty>  (105) 
0

>  <ligand_id>  (105) 
26

>  <original_smiles>  (105) 
CN1CC2CCC3c4ccccc4CN(C2)C3C1

>  <smiles>  (105) 
[H]c1c([H])c([H])c2c(c1[H])C([H])([H])N1C([H])([H])C3([H])C([H])([H])C([H])([H])C2([H])C1([H])C([H])([H])[N+]([H])(C([H])([H])[H])C3([H])[H]

$$$$
26:1:0
     RDKit          3D

 41 44  0  0  1  0  0  0  0  0999 V2000
    5.1584   -5.7238    1.8990 C   0  0  0  0  0  0  0  0  0  0  0  0
    4.4866   -4.8232    0.9661 N   0  0  0  0  0  0  0  0  0  0  0  0
    3.8982   -3.7215    1.7252 C   0  0  0  0  0  0  0  0  0  0  0  0
    3.0356   -2.7790    0.8604 C   0  0  1  0  0  0  0  0  0  0  0  0
    3.6197   -1.3723    0.6412 C   0  0  0  0  0  0  0  0  0  0  0  0
    5.0132   -1.3515    0.0093 C   0  0  0  0  0  0  0  0  0  0  0  0
    5.1291   -2.0980   -1.3319 C   0  0  2  0  0  0  0  0  0  0  0  0
    4.3381   -1.4438   -2.4624 C   0  0  0  0  0  0  0  0  0  0  0  0
    4.6067   -0.1331   -2.8151 C   0  0  0  0  0  0  0  0  0  0  0  0
    3.9052    0.5275   -3.8460 C   0  0  0  0  0  0  0  0  0  0  0  0
    2.9112   -0.1273   -4.5506 C   0  0  0  0  0  0  0  0  0  0  0  0
    2.6216   -1.4581   -4.2011 C   0  0  0  0  0  0  0  0  0  0  0  0
    3.3217   -2.1003   -3.1577 C   0  0  0  0  0  0  0  0  0  0  0  0
    2.9370   -3.5000   -2.8011 C   0  0  0  0  0  0  0  0  0  0  0  0
    3.3757   -3.8402   -1.4397 N   0  0  2  0  0  0  0  0  0  0  0  0
    2.4430   -3.3969   -0.4101 C   0  0  0  0  0  0  0  0  0  0  0  0
    4.8038   -3.5903   -1.2282 C   0  0  2  0  0  0  0  0  0  0  0  0
    5.4361   -4.3896   -0.0624 C   0  0  0  0  0  0  0  0  0  0  0  0
    4.4554   -6.0960    2.6442 H   0  0  0  0  0  0  0  0  0  0  0  0
    5.9810   -5.2485    2.4387 H   0  0  0  0  0  0  0  0  0  0  0  0
    5.5606   -6.5971    1.3850 H   0  0  0  0  0  0  0  0  0  0  0  0
    3.2449   -4.1727    2.4723 H   0  0  0  0  0  0  0  0  0  0  0  0
    4.6338   -3.1554    2.2987 H   0  0  0  0  0  0  0  0  0  0  0  0
    2.1611   -2.5731    1.4801 H   0  0  0  0  0  0  0  0  0  0  0  0
    2.9320   -0.7716    0.0447 H   0  0  0  0  0  0  0  0  0  0  0  0
    3.6728   -0.8653    1.6045 H   0  0  0  0  0  0  0  0  0  0  0  0
    5.3129   -0.3115   -0.1179 H   0  0  0  0  0  0  0  0  0  0  0  0
    5.7215   -1.7748    0.7229 H   0  0  0  0  0  0  0  0  0  0  0  0
    6.1729   -2.0264   -1.6386 H   0  0  0  0  0  0  0  0  0  0  0  0
    5.4016    0.3793   -2.3220 H   0  0  0  0  0  0  0  0  0  0  0  0
    4.1316    1.5600   -4.0606 H   0  0  0  0  0  0  0  0  0  0  0  0
    2.3195    0.3996   -5.2916 H   0  0  0  0  0  0  0  0  0  0  0  0
    1.7835   -1.9463   -4.6780 H   0  0  0  0  0  0  0  0  0  0  0  0
    1.8733   -3.6701   -2.9526 H   0  0  0  0  0  0  0  0  0  0  0  0
    3.4369   -4.1355   -3.5235 H   0  0  0  0  0  0  0  0  0  0  0  0
    1.8233   -4.2501   -0.1572 H   0  0  0  0  0  0  0  0  0  0  0  0
    1.8250   -2.6517   -0.8701 H   0  0  0  0  0  0  0  0  0  0  0  0
    5.2693   -4.0232   -2.1074 H   0  0  0  0  0  0  0  0  0  0  0  0
    6.3088   -3.8735    0.3519 H   0  0  0  0  0  0  0  0  0  0  0  0
    5.8403   -5.3075   -0.4893 H   0  0  0  0  0  0  0  0  0  0  0  0
    3.2891   -4.8401   -1.4473 H   0  0  0  0  0  0  0  0  0  0  0  0
  1  2  1  0
  1 19  1  0
  1 20  1  0
  1 21  1  0
  2 18  1  0
  2  3  1  0
  3  4  1  0
  3 22  1  0
  3 23  1  0
  4 16  1  0
  4  5  1  0
  4 24  1  1
  5  6  1  0
  5 25  1  0
  5 26  1  0
  6  7  1  0
  6 27  1  0
  6 28  1  0
  7 17  1  0
  7  8  1  0
  7 29  1  6
  8 13  1  0
  8  9  2  0
  9 10  1  0
  9 30  1  0
 10 11  2  0
 10 31  1  0
 11 12  1  0
 11 32  1  0
 12 13  2  0
 12 33  1  0
 13 14  1  0
 14 15  1  0
 14 34  1  0
 14 35  1  0
 15 16  1  0
 15 17  1  0
 15 41  1  6
 16 36  1  0
 16 37  1  0
 17 18  1  0
 17 38  1  6
 18 39  1  0
 18 40  1  0
M  CHG  1  15   1
M  END
>  <i_m_ct_stereo_status>  (106) 
1

>  <s_m_source_file>  (106) 
/var/tmp/pbs.5076255.sched01/tmppv1df_bs/0l6e7d74h.sdf

>  <i_m_source_file_index>  (106) 
39

>  <i_lp_mmshare_version>  (106) 
48012

>  <i_f3d_flags>  (106) 
0

>  <s_epik_input>  (106) 
W0NASF0xMltDSDJdTihbQ0gzXSlbQ0gyXVtDQEBIXTNbQ0BIXShbQ0gyXVtDSDJdMSljNGMoW0NIMl1OM1tDSDJdMilbY0hdW2NIXVtjSF1bY0hdNA==

>  <s_epik_cmdline>  (106) 
J2VwaWtfcHl0aG9uJywgJy1waHQnLCAnMi4wJywgJy1waCcsICc3LjAnLCAnLXRuJywgJzgnLCAnLW1hJywgJzIwMCcsICctaW1hZScsICc8aW5maWxlLm1hZT4nLCAnLW9tYWUnLCAnPG91dGZpbGUubWFlPic=

>  <r_epik_Ionization_Penalty>  (106) 
0.0334109

>  <r_epik_Ionization_Penalty_Charging>  (106) 
0.0310504

>  <r_epik_Ionization_Penalty_Neutral>  (106) 
0.00236048

>  <r_epik_State_Penalty>  (106) 
1.48707

>  <r_epik_Charging_Adjusted_Penalty>  (106) 
1.51812

>  <i_epik_Tot_Q>  (106) 
1

>  <i_epik_Tot_abs_Q>  (106) 
1

>  <s_lp_Force_Field>  (106) 
OPLS3e

>  <r_lp_Energy>  (106) 
48.7342

>  <b_lp_Chiralities_Consistent>  (106) 
1

>  <s_lp_Variant>  (106) 
26:0-2

>  <s_i_glide_gridfile>  (106) 
pfpi4k_grid

>  <i_i_glide_lignum>  (106) 
39

>  <i_i_glide_rotatable_bonds>  (106) 
0

>  <r_i_docking_score>  (106) 
-3.39513

>  <r_i_glide_ligand_efficiency>  (106) 
-0.188618

>  <r_i_glide_ligand_efficiency_sa>  (106) 
-0.49432

>  <r_i_glide_ligand_efficiency_ln>  (106) 
-0.8727

>  <r_i_glide_gscore>  (106) 
-3.39513

>  <r_i_glide_lipo>  (106) 
-0.40372

>  <r_i_glide_hbond>  (106) 
0

>  <r_i_glide_metal>  (106) 
-0

>  <r_i_glide_rewards>  (106) 
-1.74977

>  <r_i_glide_evdw>  (106) 
-3.11066

>  <r_i_glide_ecoul>  (106) 
-7.20418

>  <r_i_glide_erotb>  (106) 
0

>  <r_i_glide_esite>  (106) 
-0.00548048

>  <r_i_glide_emodel>  (106) 
-10.3261

>  <r_i_glide_energy>  (106) 
-10.3148

>  <r_i_glide_einternal>  (106) 
0

>  <r_i_glide_intrahb_reward>  (106) 
-0

>  <i_i_glide_confnum>  (106) 
1

>  <i_i_glide_posenum>  (106) 
1

>  <r_i_glide_eff_state_penalty>  (106) 
0

>  <ligand_id>  (106) 
26

>  <original_smiles>  (106) 
CN1CC2CCC3c4ccccc4CN(C2)C3C1

>  <smiles>  (106) 
[H]c1c([H])c([H])c2c(c1[H])C1([H])C([H])([H])C([H])([H])C3([H])C([H])([H])N(C([H])([H])[H])C([H])([H])C1([H])[N+]([H])(C2([H])[H])C3([H])[H]

$$$$
27:0:0
     RDKit          3D

 41 44  0  0  1  0  0  0  0  0999 V2000
    1.7833   -6.8484    1.6331 C   0  0  0  0  0  0  0  0  0  0  0  0
    2.4371   -5.7717    2.5357 C   0  0  0  0  0  0  0  0  0  0  0  0
    1.4640   -5.6160    3.7351 C   0  0  0  0  0  0  0  0  0  0  0  0
    3.8843   -6.1330    2.9588 C   0  0  1  0  0  0  0  0  0  0  0  0
    4.8540   -6.1980    1.7240 C   0  0  0  0  0  0  0  0  0  0  0  0
    4.8041   -4.8728    0.8948 C   0  0  2  0  0  0  0  0  0  0  0  0
    5.0986   -3.6886    1.8154 C   0  0  0  0  0  0  0  0  0  0  0  0
    3.9013   -3.7938    2.7656 C   0  0  2  0  0  0  0  0  0  0  0  0
    4.2832   -4.9000    3.7690 C   0  0  0  0  0  0  0  0  0  0  0  0
    2.7278   -4.3869    1.8856 C   0  0  1  0  0  0  0  0  0  0  0  0
    3.3517   -4.5799    0.4709 C   0  0  1  0  0  0  0  0  0  0  0  0
    3.1387   -3.3734   -0.4866 C   0  0  2  0  0  0  0  0  0  0  0  0
    1.8270   -3.4550   -1.0231 O   0  0  0  0  0  0  0  0  0  0  0  0
    4.1769   -3.3290   -1.6381 C   0  0  0  0  0  0  0  0  0  0  0  0
    3.9582   -2.2551   -2.5834 N   0  0  0  0  0  0  0  0  0  0  0  0
    3.9719   -0.9662   -2.2224 N   0  0  0  0  0  0  0  0  0  0  0  0
    3.8148   -0.3985   -3.4039 C   0  0  0  0  0  0  0  0  0  0  0  0
    3.8050   -1.2777   -4.4449 N   0  0  0  0  0  0  0  0  0  0  0  0
    3.9084   -2.4559   -3.9167 N   0  0  0  0  0  0  0  0  0  0  0  0
    1.4528   -7.7014    2.2273 H   0  0  0  0  0  0  0  0  0  0  0  0
    2.4492   -7.2614    0.8793 H   0  0  0  0  0  0  0  0  0  0  0  0
    0.9086   -6.4502    1.1191 H   0  0  0  0  0  0  0  0  0  0  0  0
    1.6342   -4.7153    4.3246 H   0  0  0  0  0  0  0  0  0  0  0  0
    1.5302   -6.4732    4.4073 H   0  0  0  0  0  0  0  0  0  0  0  0
    0.4316   -5.5562    3.3925 H   0  0  0  0  0  0  0  0  0  0  0  0
    3.9351   -7.0475    3.5488 H   0  0  0  0  0  0  0  0  0  0  0  0
    5.8764   -6.3629    2.0673 H   0  0  0  0  0  0  0  0  0  0  0  0
    4.6165   -7.0414    1.0779 H   0  0  0  0  0  0  0  0  0  0  0  0
    5.5088   -4.9423    0.0683 H   0  0  0  0  0  0  0  0  0  0  0  0
    6.0653   -3.7762    2.3137 H   0  0  0  0  0  0  0  0  0  0  0  0
    5.0983   -2.7379    1.2839 H   0  0  0  0  0  0  0  0  0  0  0  0
    3.6756   -2.8494    3.2621 H   0  0  0  0  0  0  0  0  0  0  0  0
    3.7341   -4.8234    4.7050 H   0  0  0  0  0  0  0  0  0  0  0  0
    5.3382   -4.9060    4.0499 H   0  0  0  0  0  0  0  0  0  0  0  0
    1.8484   -3.7434    1.8671 H   0  0  0  0  0  0  0  0  0  0  0  0
    2.9670   -5.4389   -0.0756 H   0  0  0  0  0  0  0  0  0  0  0  0
    3.1838   -2.4324    0.0615 H   0  0  0  0  0  0  0  0  0  0  0  0
    1.5412   -2.5585   -1.2199 H   0  0  0  0  0  0  0  0  0  0  0  0
    5.1815   -3.1689   -1.2436 H   0  0  0  0  0  0  0  0  0  0  0  0
    4.2074   -4.2603   -2.1982 H   0  0  0  0  0  0  0  0  0  0  0  0
    3.7527    0.6724   -3.5286 H   0  0  0  0  0  0  0  0  0  0  0  0
  1  2  1  0
  1 20  1  0
  1 21  1  0
  1 22  1  0
  2 10  1  0
  2  3  1  0
  2  4  1  0
  3 23  1  0
  3 24  1  0
  3 25  1  0
  4  9  1  0
  4  5  1  0
  4 26  1  1
  5  6  1  0
  5 27  1  0
  5 28  1  0
  6 11  1  0
  6  7  1  0
  6 29  1  6
  7  8  1  0
  7 30  1  0
  7 31  1  0
  8  9  1  0
  8 10  1  0
  8 32  1  1
  9 33  1  0
  9 34  1  0
 10 11  1  0
 10 35  1  6
 11 12  1  0
 11 36  1  6
 12 13  1  0
 12 14  1  0
 12 37  1  1
 13 38  1  0
 14 15  1  0
 14 39  1  0
 14 40  1  0
 15 19  1  0
 15 16  1  0
 16 17  2  0
 17 18  1  0
 17 41  1  0
 18 19  2  0
M  END
>  <i_m_ct_stereo_status>  (107) 
1

>  <s_m_source_file>  (107) 
/var/tmp/pbs.5076255.sched01/tmppv1df_bs/0l6e7d74h.sdf

>  <i_m_source_file_index>  (107) 
40

>  <i_lp_mmshare_version>  (107) 
48012

>  <i_f3d_flags>  (107) 
0

>  <s_epik_input>  (107) 
W0NIM11DKFtDSDNdKShbQ0BASF0xMilbQ0BIXTNbQ0BASF0oW0NIMl0yKVtDSDJdW0NAQEhdKFtDSDJdMSlbQ0BASF0zW0NASF0oW09IXSlbQ0gyXW40bltjSF1ubjQ=

>  <s_epik_cmdline>  (107) 
J2VwaWtfcHl0aG9uJywgJy1waHQnLCAnMi4wJywgJy1waCcsICc3LjAnLCAnLXRuJywgJzgnLCAnLW1hJywgJzIwMCcsICctaW1hZScsICc8aW5maWxlLm1hZT4nLCAnLW9tYWUnLCAnPG91dGZpbGUubWFlPic=

>  <r_lp_tautomer_probability>  (107) 
1

>  <r_epik_Ionization_Penalty>  (107) 
3.94185e-06

>  <r_epik_Ionization_Penalty_Charging>  (107) 
0

>  <r_epik_Ionization_Penalty_Neutral>  (107) 
3.94185e-06

>  <r_epik_State_Penalty>  (107) 
-0

>  <r_epik_Charging_Adjusted_Penalty>  (107) 
0

>  <i_epik_Tot_Q>  (107) 
0

>  <i_epik_Tot_abs_Q>  (107) 
0

>  <s_lp_Force_Field>  (107) 
OPLS3e

>  <r_lp_Energy>  (107) 
47.0737

>  <b_lp_Chiralities_Consistent>  (107) 
1

>  <s_lp_Variant>  (107) 
27:0-1

>  <s_i_glide_gridfile>  (107) 
pfpi4k_grid

>  <i_i_glide_lignum>  (107) 
40

>  <i_i_glide_rotatable_bonds>  (107) 
4

>  <r_i_docking_score>  (107) 
-3.73686

>  <r_i_glide_ligand_efficiency>  (107) 
-0.196677

>  <r_i_glide_ligand_efficiency_sa>  (107) 
-0.524812

>  <r_i_glide_ligand_efficiency_ln>  (107) 
-0.947374

>  <r_i_glide_gscore>  (107) 
-3.73686

>  <r_i_glide_lipo>  (107) 
-0.197023

>  <r_i_glide_hbond>  (107) 
-0.199012

>  <r_i_glide_metal>  (107) 
-0

>  <r_i_glide_rewards>  (107) 
-1.98927

>  <r_i_glide_evdw>  (107) 
-20.077

>  <r_i_glide_ecoul>  (107) 
-5.67033

>  <r_i_glide_erotb>  (107) 
0.54122

>  <r_i_glide_esite>  (107) 
-0.0383795

>  <r_i_glide_emodel>  (107) 
-30.9339

>  <r_i_glide_energy>  (107) 
-25.7473

>  <r_i_glide_einternal>  (107) 
2.3421

>  <r_i_glide_intrahb_reward>  (107) 
-0

>  <i_i_glide_confnum>  (107) 
1

>  <i_i_glide_posenum>  (107) 
13

>  <r_i_glide_eff_state_penalty>  (107) 
0

>  <ligand_id>  (107) 
27

>  <original_smiles>  (107) 
CC1(C)C2CC3CC(C2)C1C3C(O)Cn1ncnn1

>  <smiles>  (107) 
[H]OC([H])(C([H])([H])n1nnc([H])n1)C1([H])C2([H])C([H])([H])C3([H])C([H])([H])C([H])(C2([H])[H])C(C([H])([H])[H])(C([H])([H])[H])C31[H]

$$$$
27:0:1
     RDKit          3D

 41 44  0  0  1  0  0  0  0  0999 V2000
    3.1842   -7.1327    1.4249 C   0  0  0  0  0  0  0  0  0  0  0  0
    3.4176   -5.8788    2.3059 C   0  0  0  0  0  0  0  0  0  0  0  0
    2.3964   -6.0179    3.4662 C   0  0  0  0  0  0  0  0  0  0  0  0
    4.8853   -5.7416    2.7872 C   0  0  1  0  0  0  0  0  0  0  0  0
    5.8748   -5.5195    1.5856 C   0  0  0  0  0  0  0  0  0  0  0  0
    5.4395   -4.3031    0.7068 C   0  0  2  0  0  0  0  0  0  0  0  0
    5.2883   -3.0637    1.5900 C   0  0  0  0  0  0  0  0  0  0  0  0
    4.1482   -3.5255    2.5062 C   0  0  2  0  0  0  0  0  0  0  0  0
    4.8263   -4.4231    3.5613 C   0  0  0  0  0  0  0  0  0  0  0  0
    3.2705   -4.4911    1.6152 C   0  0  1  0  0  0  0  0  0  0  0  0
    3.9861   -4.5071    0.2306 C   0  0  1  0  0  0  0  0  0  0  0  0
    3.4404   -3.4660   -0.7817 C   0  0  2  0  0  0  0  0  0  0  0  0
    2.1379   -3.8558   -1.1730 O   0  0  0  0  0  0  0  0  0  0  0  0
    4.3245   -3.3344   -2.0482 C   0  0  0  0  0  0  0  0  0  0  0  0
    3.9482   -2.1966   -2.8580 N   0  0  0  0  0  0  0  0  0  0  0  0
    3.1512   -2.2876   -3.9315 N   0  0  0  0  0  0  0  0  0  0  0  0
    3.0937   -1.0076   -4.2712 C   0  0  0  0  0  0  0  0  0  0  0  0
    3.8589   -0.1953   -3.4902 N   0  0  0  0  0  0  0  0  0  0  0  0
    4.3893   -0.9531   -2.5898 N   0  0  0  0  0  0  0  0  0  0  0  0
    3.1281   -8.0315    2.0402 H   0  0  0  0  0  0  0  0  0  0  0  0
    3.9711   -7.3267    0.6998 H   0  0  0  0  0  0  0  0  0  0  0  0
    2.2426   -7.0485    0.8801 H   0  0  0  0  0  0  0  0  0  0  0  0
    2.2411   -5.0956    4.0265 H   0  0  0  0  0  0  0  0  0  0  0  0
    2.7100   -6.7901    4.1709 H   0  0  0  0  0  0  0  0  0  0  0  0
    1.4152   -6.3059    3.0872 H   0  0  0  0  0  0  0  0  0  0  0  0
    5.2044   -6.5756    3.4130 H   0  0  0  0  0  0  0  0  0  0  0  0
    6.8799   -5.3338    1.9666 H   0  0  0  0  0  0  0  0  0  0  0  0
    5.9473   -6.4108    0.9631 H   0  0  0  0  0  0  0  0  0  0  0  0
    6.1674   -4.1546   -0.0890 H   0  0  0  0  0  0  0  0  0  0  0  0
    6.2080   -2.8161    2.1213 H   0  0  0  0  0  0  0  0  0  0  0  0
    5.0113   -2.1756    1.0241 H   0  0  0  0  0  0  0  0  0  0  0  0
    3.6076   -2.6923    2.9577 H   0  0  0  0  0  0  0  0  0  0  0  0
    4.2445   -4.5042    4.4778 H   0  0  0  0  0  0  0  0  0  0  0  0
    5.8116   -4.0781    3.8731 H   0  0  0  0  0  0  0  0  0  0  0  0
    2.2298   -4.1716    1.5400 H   0  0  0  0  0  0  0  0  0  0  0  0
    3.9029   -5.4563   -0.2949 H   0  0  0  0  0  0  0  0  0  0  0  0
    3.3245   -2.4870   -0.3124 H   0  0  0  0  0  0  0  0  0  0  0  0
    2.2351   -4.5493   -1.8229 H   0  0  0  0  0  0  0  0  0  0  0  0
    5.3737   -3.1758   -1.8057 H   0  0  0  0  0  0  0  0  0  0  0  0
    4.2814   -4.2362   -2.6644 H   0  0  0  0  0  0  0  0  0  0  0  0
    2.5139   -0.6488   -5.1046 H   0  0  0  0  0  0  0  0  0  0  0  0
  1  2  1  0
  1 20  1  0
  1 21  1  0
  1 22  1  0
  2 10  1  0
  2  3  1  0
  2  4  1  0
  3 23  1  0
  3 24  1  0
  3 25  1  0
  4  9  1  0
  4  5  1  0
  4 26  1  1
  5  6  1  0
  5 27  1  0
  5 28  1  0
  6 11  1  0
  6  7  1  0
  6 29  1  6
  7  8  1  0
  7 30  1  0
  7 31  1  0
  8  9  1  0
  8 10  1  0
  8 32  1  1
  9 33  1  0
  9 34  1  0
 10 11  1  0
 10 35  1  6
 11 12  1  0
 11 36  1  6
 12 13  1  0
 12 14  1  0
 12 37  1  1
 13 38  1  0
 14 15  1  0
 14 39  1  0
 14 40  1  0
 15 19  1  0
 15 16  1  0
 16 17  2  0
 17 18  1  0
 17 41  1  0
 18 19  2  0
M  END
>  <i_m_ct_stereo_status>  (108) 
1

>  <s_m_source_file>  (108) 
/var/tmp/pbs.5076255.sched01/tmppv1df_bs/0l6e7d74h.sdf

>  <i_m_source_file_index>  (108) 
40

>  <i_lp_mmshare_version>  (108) 
48012

>  <i_f3d_flags>  (108) 
0

>  <s_epik_input>  (108) 
W0NIM11DKFtDSDNdKShbQ0BASF0xMilbQ0BIXTNbQ0BASF0oW0NIMl0yKVtDSDJdW0NAQEhdKFtDSDJdMSlbQ0BASF0zW0NASF0oW09IXSlbQ0gyXW40bltjSF1ubjQ=

>  <s_epik_cmdline>  (108) 
J2VwaWtfcHl0aG9uJywgJy1waHQnLCAnMi4wJywgJy1waCcsICc3LjAnLCAnLXRuJywgJzgnLCAnLW1hJywgJzIwMCcsICctaW1hZScsICc8aW5maWxlLm1hZT4nLCAnLW9tYWUnLCAnPG91dGZpbGUubWFlPic=

>  <r_lp_tautomer_probability>  (108) 
1

>  <r_epik_Ionization_Penalty>  (108) 
3.94185e-06

>  <r_epik_Ionization_Penalty_Charging>  (108) 
0

>  <r_epik_Ionization_Penalty_Neutral>  (108) 
3.94185e-06

>  <r_epik_State_Penalty>  (108) 
-0

>  <r_epik_Charging_Adjusted_Penalty>  (108) 
0

>  <i_epik_Tot_Q>  (108) 
0

>  <i_epik_Tot_abs_Q>  (108) 
0

>  <s_lp_Force_Field>  (108) 
OPLS3e

>  <r_lp_Energy>  (108) 
47.0737

>  <b_lp_Chiralities_Consistent>  (108) 
1

>  <s_lp_Variant>  (108) 
27:0-1

>  <s_i_glide_gridfile>  (108) 
pfpi4k_grid

>  <i_i_glide_lignum>  (108) 
40

>  <i_i_glide_rotatable_bonds>  (108) 
4

>  <r_i_docking_score>  (108) 
-3.38433

>  <r_i_glide_ligand_efficiency>  (108) 
-0.178122

>  <r_i_glide_ligand_efficiency_sa>  (108) 
-0.475302

>  <r_i_glide_ligand_efficiency_ln>  (108) 
-0.857999

>  <r_i_glide_gscore>  (108) 
-3.38433

>  <r_i_glide_lipo>  (108) 
-0.302898

>  <r_i_glide_hbond>  (108) 
-0.32

>  <r_i_glide_metal>  (108) 
-0

>  <r_i_glide_rewards>  (108) 
-1.85449

>  <r_i_glide_evdw>  (108) 
-21.6244

>  <r_i_glide_ecoul>  (108) 
-3.91553

>  <r_i_glide_erotb>  (108) 
0.773172

>  <r_i_glide_esite>  (108) 
-0.0115631

>  <r_i_glide_emodel>  (108) 
-30.9368

>  <r_i_glide_energy>  (108) 
-25.5399

>  <r_i_glide_einternal>  (108) 
0.778993

>  <r_i_glide_intrahb_reward>  (108) 
-0

>  <i_i_glide_confnum>  (108) 
1

>  <i_i_glide_posenum>  (108) 
8

>  <r_i_glide_eff_state_penalty>  (108) 
0

>  <ligand_id>  (108) 
27

>  <original_smiles>  (108) 
CC1(C)C2CC3CC(C2)C1C3C(O)Cn1ncnn1

>  <smiles>  (108) 
[H]OC([H])(C([H])([H])n1nnc([H])n1)C1([H])C2([H])C([H])([H])C3([H])C([H])([H])C([H])(C2([H])[H])C(C([H])([H])[H])(C([H])([H])[H])C31[H]

$$$$
27:0:2
     RDKit          3D

 41 44  0  0  1  0  0  0  0  0999 V2000
   -0.3369    2.7266    5.3690 C   0  0  0  0  0  0  0  0  0  0  0  0
   -0.1846    2.1427    3.9407 C   0  0  0  0  0  0  0  0  0  0  0  0
   -1.2062    2.9388    3.0851 C   0  0  0  0  0  0  0  0  0  0  0  0
    1.2701    2.2185    3.4088 C   0  0  1  0  0  0  0  0  0  0  0  0
    2.2484    1.3279    4.2618 C   0  0  0  0  0  0  0  0  0  0  0  0
    1.7350   -0.1519    4.3559 C   0  0  2  0  0  0  0  0  0  0  0  0
    1.5215   -0.6925    2.9414 C   0  0  0  0  0  0  0  0  0  0  0  0
    0.4094    0.2499    2.4657 C   0  0  2  0  0  0  0  0  0  0  0  0
    1.1311    1.5429    2.0455 C   0  0  0  0  0  0  0  0  0  0  0  0
   -0.4131    0.6112    3.7647 C   0  0  1  0  0  0  0  0  0  0  0  0
    0.2968   -0.1658    4.9122 C   0  0  1  0  0  0  0  0  0  0  0  0
   -0.3046   -1.5619    5.2472 C   0  0  2  0  0  0  0  0  0  0  0  0
   -1.6448   -1.3702    5.6759 O   0  0  0  0  0  0  0  0  0  0  0  0
    0.4775   -2.2621    6.3830 C   0  0  0  0  0  0  0  0  0  0  0  0
   -0.0043   -3.6010    6.6745 N   0  0  0  0  0  0  0  0  0  0  0  0
    0.4394   -4.6876    6.0174 N   0  0  0  0  0  0  0  0  0  0  0  0
   -0.1877   -5.6313    6.6981 C   0  0  0  0  0  0  0  0  0  0  0  0
   -0.9838   -5.1564    7.7003 N   0  0  0  0  0  0  0  0  0  0  0  0
   -0.8593   -3.8677    7.6856 N   0  0  0  0  0  0  0  0  0  0  0  0
   -0.3484    3.8167    5.3400 H   0  0  0  0  0  0  0  0  0  0  0  0
    0.4708    2.4651    6.0491 H   0  0  0  0  0  0  0  0  0  0  0  0
   -1.2742    2.4021    5.8224 H   0  0  0  0  0  0  0  0  0  0  0  0
   -1.4112    2.4835    2.1169 H   0  0  0  0  0  0  0  0  0  0  0  0
   -0.8540    3.9545    2.8976 H   0  0  0  0  0  0  0  0  0  0  0  0
   -2.1702    3.0124    3.5901 H   0  0  0  0  0  0  0  0  0  0  0  0
    1.6327    3.2421    3.3176 H   0  0  0  0  0  0  0  0  0  0  0  0
    3.2379    1.3358    3.8014 H   0  0  0  0  0  0  0  0  0  0  0  0
    2.3836    1.7398    5.2607 H   0  0  0  0  0  0  0  0  0  0  0  0
    2.4371   -0.7616    4.9218 H   0  0  0  0  0  0  0  0  0  0  0  0
    2.4260   -0.6437    2.3328 H   0  0  0  0  0  0  0  0  0  0  0  0
    1.2010   -1.7323    2.9305 H   0  0  0  0  0  0  0  0  0  0  0  0
   -0.1752   -0.1641    1.6465 H   0  0  0  0  0  0  0  0  0  0  0  0
    0.5460    2.1333    1.3438 H   0  0  0  0  0  0  0  0  0  0  0  0
    2.0921    1.3785    1.5553 H   0  0  0  0  0  0  0  0  0  0  0  0
   -1.4720    0.3698    3.6783 H   0  0  0  0  0  0  0  0  0  0  0  0
    0.2721    0.3621    5.8618 H   0  0  0  0  0  0  0  0  0  0  0  0
   -0.3341   -2.2119    4.3717 H   0  0  0  0  0  0  0  0  0  0  0  0
   -2.1130   -0.9368    4.9791 H   0  0  0  0  0  0  0  0  0  0  0  0
    1.5343   -2.3563    6.1290 H   0  0  0  0  0  0  0  0  0  0  0  0
    0.4303   -1.6711    7.3003 H   0  0  0  0  0  0  0  0  0  0  0  0
   -0.0796   -6.6801    6.4678 H   0  0  0  0  0  0  0  0  0  0  0  0
  1  2  1  0
  1 20  1  0
  1 21  1  0
  1 22  1  0
  2 10  1  0
  2  3  1  0
  2  4  1  0
  3 23  1  0
  3 24  1  0
  3 25  1  0
  4  9  1  0
  4  5  1  0
  4 26  1  6
  5  6  1  0
  5 27  1  0
  5 28  1  0
  6 11  1  0
  6  7  1  0
  6 29  1  1
  7  8  1  0
  7 30  1  0
  7 31  1  0
  8  9  1  0
  8 10  1  0
  8 32  1  6
  9 33  1  0
  9 34  1  0
 10 11  1  0
 10 35  1  6
 11 12  1  0
 11 36  1  1
 12 13  1  0
 12 14  1  0
 12 37  1  6
 13 38  1  0
 14 15  1  0
 14 39  1  0
 14 40  1  0
 15 19  1  0
 15 16  1  0
 16 17  2  0
 17 18  1  0
 17 41  1  0
 18 19  2  0
M  END
>  <i_m_ct_stereo_status>  (109) 
1

>  <s_m_source_file>  (109) 
/var/tmp/pbs.5076255.sched01/tmppv1df_bs/0l6e7d74h.sdf

>  <i_m_source_file_index>  (109) 
40

>  <i_lp_mmshare_version>  (109) 
48012

>  <i_f3d_flags>  (109) 
0

>  <s_epik_input>  (109) 
W0NIM11DKFtDSDNdKShbQ0BASF0xMilbQ0BIXTNbQ0BASF0oW0NIMl0yKVtDSDJdW0NAQEhdKFtDSDJdMSlbQ0BASF0zW0NASF0oW09IXSlbQ0gyXW40bltjSF1ubjQ=

>  <s_epik_cmdline>  (109) 
J2VwaWtfcHl0aG9uJywgJy1waHQnLCAnMi4wJywgJy1waCcsICc3LjAnLCAnLXRuJywgJzgnLCAnLW1hJywgJzIwMCcsICctaW1hZScsICc8aW5maWxlLm1hZT4nLCAnLW9tYWUnLCAnPG91dGZpbGUubWFlPic=

>  <r_lp_tautomer_probability>  (109) 
1

>  <r_epik_Ionization_Penalty>  (109) 
3.94185e-06

>  <r_epik_Ionization_Penalty_Charging>  (109) 
0

>  <r_epik_Ionization_Penalty_Neutral>  (109) 
3.94185e-06

>  <r_epik_State_Penalty>  (109) 
-0

>  <r_epik_Charging_Adjusted_Penalty>  (109) 
0

>  <i_epik_Tot_Q>  (109) 
0

>  <i_epik_Tot_abs_Q>  (109) 
0

>  <s_lp_Force_Field>  (109) 
OPLS3e

>  <r_lp_Energy>  (109) 
47.0737

>  <b_lp_Chiralities_Consistent>  (109) 
1

>  <s_lp_Variant>  (109) 
27:0-1

>  <s_i_glide_gridfile>  (109) 
pfpi4k_grid

>  <i_i_glide_lignum>  (109) 
40

>  <i_i_glide_rotatable_bonds>  (109) 
4

>  <r_i_docking_score>  (109) 
-2.20677

>  <r_i_glide_ligand_efficiency>  (109) 
-0.116146

>  <r_i_glide_ligand_efficiency_sa>  (109) 
-0.309924

>  <r_i_glide_ligand_efficiency_ln>  (109) 
-0.559465

>  <r_i_glide_gscore>  (109) 
-2.20677

>  <r_i_glide_lipo>  (109) 
0

>  <r_i_glide_hbond>  (109) 
-0.000238283

>  <r_i_glide_metal>  (109) 
-0

>  <r_i_glide_rewards>  (109) 
-1.64522

>  <r_i_glide_evdw>  (109) 
-16.5791

>  <r_i_glide_ecoul>  (109) 
-2.96573

>  <r_i_glide_erotb>  (109) 
0.773172

>  <r_i_glide_esite>  (109) 
-0.0606746

>  <r_i_glide_emodel>  (109) 
-23.1193

>  <r_i_glide_energy>  (109) 
-19.5448

>  <r_i_glide_einternal>  (109) 
0.501674

>  <r_i_glide_intrahb_reward>  (109) 
-0

>  <i_i_glide_confnum>  (109) 
5

>  <i_i_glide_posenum>  (109) 
39

>  <r_i_glide_eff_state_penalty>  (109) 
0

>  <ligand_id>  (109) 
27

>  <original_smiles>  (109) 
CC1(C)C2CC3CC(C2)C1C3C(O)Cn1ncnn1

>  <smiles>  (109) 
[H]OC([H])(C([H])([H])n1nnc([H])n1)C1([H])C2([H])C([H])([H])C3([H])C([H])([H])C([H])(C2([H])[H])C(C([H])([H])[H])(C([H])([H])[H])C31[H]

$$$$
29:0:0
     RDKit          3D

 72 77  0  0  1  0  0  0  0  0999 V2000
    5.9707   -1.2553    6.3092 C   0  0  0  0  0  0  0  0  0  0  0  0
    5.3821   -1.8189    5.1334 O   0  0  0  0  0  0  0  0  0  0  0  0
    4.0891   -1.3620    4.6837 C   0  0  1  0  0  0  0  0  0  0  0  0
    3.0492   -1.2989    5.8594 C   0  0  0  0  0  0  0  0  0  0  0  0
    2.8291   -2.2774    6.5617 O   0  0  0  0  0  0  0  0  0  0  0  0
    2.3315    0.0295    6.1483 C   0  0  2  0  0  0  0  0  0  0  0  0
    3.2364    0.8600    7.0888 C   0  0  0  0  0  0  0  0  0  0  0  0
    0.9647   -0.0868    6.8851 C   0  0  0  0  0  0  0  0  0  0  0  0
    0.1084    1.0745    6.3376 C   0  0  0  0  0  0  0  0  0  0  0  0
    0.6800    1.3920    4.9705 C   0  0  2  0  0  0  0  0  0  0  0  0
    0.7859    0.3184    3.9067 C   0  0  0  0  0  0  0  0  0  0  0  0
    0.0460   -1.0034    4.0576 C   0  0  0  0  0  0  0  0  0  0  0  0
    0.6673    0.7937    2.4589 C   0  0  0  0  0  0  0  0  0  0  0  0
    1.9880    0.6844    4.8097 C   0  0  2  0  0  0  0  0  0  0  0  0
    3.2454    1.1365    4.0786 C   0  0  1  0  0  0  0  0  0  0  0  0
    3.8218    2.2865    4.6622 O   0  0  0  0  0  0  0  0  0  0  0  0
    4.2298   -0.0470    3.7802 C   0  0  1  0  0  0  0  0  0  0  0  0
    5.5657    0.4207    3.8258 O   0  0  0  0  0  0  0  0  0  0  0  0
    3.9259   -0.4343    2.4641 O   0  0  0  0  0  0  0  0  0  0  0  0
    4.2218   -1.8036    2.3228 C   0  0  1  0  0  0  0  0  0  0  0  0
    3.6598   -2.4058    3.6165 C   0  0  1  0  0  0  0  0  0  0  0  0
    4.0658   -3.9189    3.6913 C   0  0  1  0  0  0  0  0  0  0  0  0
    3.7375   -4.6565    5.0012 C   0  0  0  0  0  0  0  0  0  0  0  0
    3.5057   -4.6988    2.4550 C   0  0  1  0  0  0  0  0  0  0  0  0
    2.0991   -4.8142    2.5999 O   0  0  0  0  0  0  0  0  0  0  0  0
    3.9358   -4.0025    1.1188 C   0  0  1  0  0  0  0  0  0  0  0  0
    5.3501   -4.1855    1.0828 O   0  0  0  0  0  0  0  0  0  0  0  0
    3.5108   -4.5273   -0.2721 C   0  0  1  0  0  0  0  0  0  0  0  0
    2.1668   -4.9647   -0.3240 O   0  0  0  0  0  0  0  0  0  0  0  0
    3.7685   -3.3211   -1.2348 C   0  0  1  0  0  0  0  0  0  0  0  0
    2.6666   -3.0116   -2.2653 C   0  0  0  0  0  0  0  0  0  0  0  0
    4.0920   -2.0936   -0.3361 C   0  0  0  0  0  0  0  0  0  0  0  0
    3.6158   -2.4868    1.0727 C   0  0  2  0  0  0  0  0  0  0  0  0
    2.2127   -2.2562    1.1006 O   0  0  0  0  0  0  0  0  0  0  0  0
    6.9335   -1.7346    6.4821 H   0  0  0  0  0  0  0  0  0  0  0  0
    5.3776   -1.4180    7.2081 H   0  0  0  0  0  0  0  0  0  0  0  0
    6.1664   -0.1882    6.2138 H   0  0  0  0  0  0  0  0  0  0  0  0
    2.8484    1.8681    7.2290 H   0  0  0  0  0  0  0  0  0  0  0  0
    4.2587    0.9444    6.7290 H   0  0  0  0  0  0  0  0  0  0  0  0
    3.3014    0.3920    8.0709 H   0  0  0  0  0  0  0  0  0  0  0  0
    0.4741   -1.0399    6.6908 H   0  0  0  0  0  0  0  0  0  0  0  0
    1.0587   -0.0224    7.9710 H   0  0  0  0  0  0  0  0  0  0  0  0
   -0.9541    0.8361    6.2738 H   0  0  0  0  0  0  0  0  0  0  0  0
    0.2172    1.9567    6.9689 H   0  0  0  0  0  0  0  0  0  0  0  0
    0.6224    2.4315    4.6583 H   0  0  0  0  0  0  0  0  0  0  0  0
   -0.1171   -1.4643    3.0898 H   0  0  0  0  0  0  0  0  0  0  0  0
   -0.9196   -0.8426    4.5419 H   0  0  0  0  0  0  0  0  0  0  0  0
    0.6233   -1.7198    4.6369 H   0  0  0  0  0  0  0  0  0  0  0  0
    1.3369    0.2212    1.8171 H   0  0  0  0  0  0  0  0  0  0  0  0
    0.9270    1.8486    2.3657 H   0  0  0  0  0  0  0  0  0  0  0  0
   -0.3492    0.6796    2.0834 H   0  0  0  0  0  0  0  0  0  0  0  0
    2.9670    1.5433    3.1143 H   0  0  0  0  0  0  0  0  0  0  0  0
    4.3444    2.6950    3.9846 H   0  0  0  0  0  0  0  0  0  0  0  0
    6.1250   -0.3287    3.7011 H   0  0  0  0  0  0  0  0  0  0  0  0
    5.3125   -1.8995    2.3143 H   0  0  0  0  0  0  0  0  0  0  0  0
    2.5730   -2.3715    3.5612 H   0  0  0  0  0  0  0  0  0  0  0  0
    5.1533   -3.9567    3.6263 H   0  0  0  0  0  0  0  0  0  0  0  0
    2.6770   -4.6095    5.2513 H   0  0  0  0  0  0  0  0  0  0  0  0
    4.3050   -4.2452    5.8368 H   0  0  0  0  0  0  0  0  0  0  0  0
    4.0161   -5.7099    4.9284 H   0  0  0  0  0  0  0  0  0  0  0  0
    3.8882   -5.7214    2.4613 H   0  0  0  0  0  0  0  0  0  0  0  0
    1.9102   -5.3117    3.3801 H   0  0  0  0  0  0  0  0  0  0  0  0
    5.5187   -5.1165    1.0902 H   0  0  0  0  0  0  0  0  0  0  0  0
    4.1033   -5.3914   -0.5777 H   0  0  0  0  0  0  0  0  0  0  0  0
    2.0675   -5.3335   -1.2008 H   0  0  0  0  0  0  0  0  0  0  0  0
    4.6712   -3.5502   -1.8033 H   0  0  0  0  0  0  0  0  0  0  0  0
    1.7400   -2.7293   -1.7787 H   0  0  0  0  0  0  0  0  0  0  0  0
    2.4492   -3.8551   -2.9164 H   0  0  0  0  0  0  0  0  0  0  0  0
    2.9592   -2.1852   -2.9081 H   0  0  0  0  0  0  0  0  0  0  0  0
    5.1728   -1.9371   -0.3317 H   0  0  0  0  0  0  0  0  0  0  0  0
    3.6410   -1.1664   -0.6924 H   0  0  0  0  0  0  0  0  0  0  0  0
    1.9732   -1.6751    0.3815 H   0  0  0  0  0  0  0  0  0  0  0  0
  1  2  1  0
  1 35  1  0
  1 36  1  0
  1 37  1  0
  3  2  1  1
  3 17  1  0
  3 21  1  0
  3  4  1  0
  4  5  2  0
  4  6  1  0
  6 14  1  0
  6  7  1  1
  6  8  1  0
  7 38  1  0
  7 39  1  0
  7 40  1  0
  8  9  1  0
  8 41  1  0
  8 42  1  0
  9 10  1  0
  9 43  1  0
  9 44  1  0
 10 14  1  0
 10 11  1  0
 10 45  1  6
 11 12  1  0
 11 13  1  0
 14 11  1  6
 12 46  1  0
 12 47  1  0
 12 48  1  0
 13 49  1  0
 13 50  1  0
 13 51  1  0
 14 15  1  0
 15 16  1  0
 15 17  1  0
 15 52  1  6
 16 53  1  0
 17 18  1  6
 17 19  1  0
 18 54  1  0
 19 20  1  0
 20 33  1  0
 20 21  1  0
 20 55  1  1
 21 22  1  0
 21 56  1  6
 22 23  1  0
 22 24  1  0
 22 57  1  6
 23 58  1  0
 23 59  1  0
 23 60  1  0
 24 25  1  0
 24 26  1  0
 24 61  1  6
 25 62  1  0
 26 33  1  0
 26 27  1  6
 26 28  1  0
 27 63  1  0
 28 29  1  0
 28 30  1  0
 28 64  1  6
 29 65  1  0
 30 31  1  0
 30 32  1  0
 30 66  1  6
 31 67  1  0
 31 68  1  0
 31 69  1  0
 32 33  1  0
 32 70  1  0
 32 71  1  0
 33 34  1  6
 34 72  1  0
M  END
>  <i_m_ct_stereo_status>  (110) 
1

>  <s_m_source_file>  (110) 
/var/tmp/pbs.5076255.sched01/tmppv1df_bs/0l6e7d74h.sdf

>  <i_m_source_file_index>  (110) 
42

>  <i_lp_mmshare_version>  (110) 
48012

>  <i_f3d_flags>  (110) 
0

>  <s_epik_input>  (110) 
W0NIM11DMShbQ0gzXSlbQ0BIXTJbQ0gyXVtDSDJdW0NAQF0oW0NAQF0xMjMpKFtDSDNdKUMoPU8pW0NAXTQoT1tDSDNdKVtDQF0oW09IXSkoW0NAQEhdM1tPSF0pT1tDQEhdNVtDQEhdNFtDQEBIXShbQ0gzXSlbQ0BASF0oW09IXSlbQ0BdNihbT0hdKVtDQF01KFtPSF0pW0NIMl1bQ0BIXShbQ0gzXSlbQ0BASF02W09IXQ==

>  <s_epik_cmdline>  (110) 
J2VwaWtfcHl0aG9uJywgJy1waHQnLCAnMi4wJywgJy1waCcsICc3LjAnLCAnLXRuJywgJzgnLCAnLW1hJywgJzIwMCcsICctaW1hZScsICc8aW5maWxlLm1hZT4nLCAnLW9tYWUnLCAnPG91dGZpbGUubWFlPic=

>  <r_lp_tautomer_probability>  (110) 
1

>  <r_epik_Ionization_Penalty>  (110) 
2.80892e-05

>  <r_epik_Ionization_Penalty_Charging>  (110) 
0

>  <r_epik_Ionization_Penalty_Neutral>  (110) 
2.80892e-05

>  <r_epik_State_Penalty>  (110) 
-0

>  <r_epik_Charging_Adjusted_Penalty>  (110) 
0

>  <i_epik_Tot_Q>  (110) 
0

>  <i_epik_Tot_abs_Q>  (110) 
0

>  <s_lp_Force_Field>  (110) 
OPLS3e

>  <r_lp_Energy>  (110) 
77.3842

>  <b_lp_Chiralities_Consistent>  (110) 
1

>  <s_lp_Variant>  (110) 
29:0-1

>  <s_i_glide_gridfile>  (110) 
pfpi4k_grid

>  <i_i_glide_lignum>  (110) 
42

>  <i_i_glide_rotatable_bonds>  (110) 
7

>  <r_i_docking_score>  (110) 
-2.18345

>  <r_i_glide_ligand_efficiency>  (110) 
-0.0642191

>  <r_i_glide_ligand_efficiency_sa>  (110) 
-0.208045

>  <r_i_glide_ligand_efficiency_ln>  (110) 
-0.482385

>  <r_i_glide_gscore>  (110) 
-2.18345

>  <r_i_glide_lipo>  (110) 
-0.0749723

>  <r_i_glide_hbond>  (110) 
0

>  <r_i_glide_metal>  (110) 
-0

>  <r_i_glide_rewards>  (110) 
-0.14165

>  <r_i_glide_evdw>  (110) 
-15.766

>  <r_i_glide_ecoul>  (110) 
-7.85685

>  <r_i_glide_erotb>  (110) 
0

>  <r_i_glide_esite>  (110) 
0

>  <r_i_glide_emodel>  (110) 
-25.8404

>  <r_i_glide_energy>  (110) 
-23.6228

>  <r_i_glide_einternal>  (110) 
2.36192

>  <r_i_glide_intrahb_reward>  (110) 
-0

>  <i_i_glide_confnum>  (110) 
1

>  <i_i_glide_posenum>  (110) 
20

>  <r_i_glide_eff_state_penalty>  (110) 
0

>  <ligand_id>  (110) 
29

>  <original_smiles>  (110) 
COC12C(=O)C3(C)CCC4C(C)(C)C43C(O)C1(O)OC1C2C(C)C(O)C2(O)C(O)C(C)CC12O

>  <smiles>  (110) 
[H]OC1([H])C([H])(C([H])([H])[H])C([H])([H])C2(O[H])C3([H])OC4(O[H])C([H])(O[H])C56C([H])(C([H])([H])C([H])([H])C5(C([H])([H])[H])C(=O)C4(OC([H])([H])[H])C3([H])C([H])(C([H])([H])[H])C([H])(O[H])C12O[H])C6(C([H])([H])[H])C([H])([H])[H]

$$$$
29:0:1
     RDKit          3D

 72 77  0  0  1  0  0  0  0  0999 V2000
    5.8173   -2.3115    6.3007 C   0  0  0  0  0  0  0  0  0  0  0  0
    5.4161   -2.4422    4.9340 O   0  0  0  0  0  0  0  0  0  0  0  0
    4.2470   -1.7520    4.4505 C   0  0  1  0  0  0  0  0  0  0  0  0
    3.0190   -1.9917    5.3921 C   0  0  0  0  0  0  0  0  0  0  0  0
    2.6667   -3.1282    5.7055 O   0  0  0  0  0  0  0  0  0  0  0  0
    2.2885   -0.7749    5.9809 C   0  0  2  0  0  0  0  0  0  0  0  0
    3.0320   -0.3581    7.2752 C   0  0  0  0  0  0  0  0  0  0  0  0
    0.8156   -1.0206    6.4072 C   0  0  0  0  0  0  0  0  0  0  0  0
    0.0932    0.3123    6.1353 C   0  0  0  0  0  0  0  0  0  0  0  0
    0.9029    1.0066    5.0556 C   0  0  2  0  0  0  0  0  0  0  0  0
    1.1816    0.3237    3.7300 C   0  0  0  0  0  0  0  0  0  0  0  0
    0.4084   -0.9161    3.3083 C   0  0  0  0  0  0  0  0  0  0  0  0
    1.3311    1.2379    2.5203 C   0  0  0  0  0  0  0  0  0  0  0  0
    2.2118    0.2980    4.8913 C   0  0  2  0  0  0  0  0  0  0  0  0
    3.5862    0.8650    4.5576 C   0  0  1  0  0  0  0  0  0  0  0  0
    4.0802    1.7042    5.5840 O   0  0  0  0  0  0  0  0  0  0  0  0
    4.5791   -0.2319    4.0502 C   0  0  1  0  0  0  0  0  0  0  0  0
    5.8868    0.1250    4.4432 O   0  0  0  0  0  0  0  0  0  0  0  0
    4.4949   -0.1752    2.6523 O   0  0  0  0  0  0  0  0  0  0  0  0
    4.7997   -1.4485    2.1362 C   0  0  1  0  0  0  0  0  0  0  0  0
    4.0045   -2.3832    3.0514 C   0  0  1  0  0  0  0  0  0  0  0  0
    4.3656   -3.8704    2.6959 C   0  0  1  0  0  0  0  0  0  0  0  0
    3.7957   -4.9540    3.6242 C   0  0  0  0  0  0  0  0  0  0  0  0
    4.0450   -4.1821    1.1908 C   0  0  1  0  0  0  0  0  0  0  0  0
    2.6415   -4.2588    1.0193 O   0  0  0  0  0  0  0  0  0  0  0  0
    4.7158   -3.1300    0.2451 C   0  0  1  0  0  0  0  0  0  0  0  0
    6.1096   -3.3781    0.3851 O   0  0  0  0  0  0  0  0  0  0  0  0
    4.5269   -3.1571   -1.2931 C   0  0  1  0  0  0  0  0  0  0  0  0
    3.1911   -3.4539   -1.6583 O   0  0  0  0  0  0  0  0  0  0  0  0
    4.9670   -1.7208   -1.7446 C   0  0  1  0  0  0  0  0  0  0  0  0
    4.0609   -1.0242   -2.7811 C   0  0  0  0  0  0  0  0  0  0  0  0
    5.1410   -0.8725   -0.4515 C   0  0  0  0  0  0  0  0  0  0  0  0
    4.4281   -1.6651    0.6511 C   0  0  2  0  0  0  0  0  0  0  0  0
    3.0511   -1.3429    0.5439 O   0  0  0  0  0  0  0  0  0  0  0  0
    6.7251   -2.8924    6.4593 H   0  0  0  0  0  0  0  0  0  0  0  0
    5.0782   -2.7015    6.9999 H   0  0  0  0  0  0  0  0  0  0  0  0
    6.0528   -1.2858    6.5802 H   0  0  0  0  0  0  0  0  0  0  0  0
    2.6451    0.5817    7.6703 H   0  0  0  0  0  0  0  0  0  0  0  0
    4.1048   -0.2441    7.1337 H   0  0  0  0  0  0  0  0  0  0  0  0
    2.9136   -1.1162    8.0496 H   0  0  0  0  0  0  0  0  0  0  0  0
    0.3509   -1.8223    5.8356 H   0  0  0  0  0  0  0  0  0  0  0  0
    0.7190   -1.3108    7.4538 H   0  0  0  0  0  0  0  0  0  0  0  0
   -0.9460    0.1875    5.8249 H   0  0  0  0  0  0  0  0  0  0  0  0
    0.1027    0.9436    7.0259 H   0  0  0  0  0  0  0  0  0  0  0  0
    0.9145    2.0907    5.0915 H   0  0  0  0  0  0  0  0  0  0  0  0
    0.4032   -1.0170    2.2205 H   0  0  0  0  0  0  0  0  0  0  0  0
   -0.6206   -0.8493    3.6659 H   0  0  0  0  0  0  0  0  0  0  0  0
    0.8559   -1.8242    3.7038 H   0  0  0  0  0  0  0  0  0  0  0  0
    2.0944    0.8448    1.8465 H   0  0  0  0  0  0  0  0  0  0  0  0
    1.6195    2.2464    2.8166 H   0  0  0  0  0  0  0  0  0  0  0  0
    0.3955    1.3180    1.9667 H   0  0  0  0  0  0  0  0  0  0  0  0
    3.4924    1.5707    3.7449 H   0  0  0  0  0  0  0  0  0  0  0  0
    3.4934    2.4404    5.6696 H   0  0  0  0  0  0  0  0  0  0  0  0
    6.4697   -0.5637    4.1596 H   0  0  0  0  0  0  0  0  0  0  0  0
    5.8736   -1.6081    2.2784 H   0  0  0  0  0  0  0  0  0  0  0  0
    2.9446   -2.2540    2.8323 H   0  0  0  0  0  0  0  0  0  0  0  0
    5.4441   -3.9674    2.8139 H   0  0  0  0  0  0  0  0  0  0  0  0
    2.7085   -4.9082    3.6889 H   0  0  0  0  0  0  0  0  0  0  0  0
    4.2093   -4.8704    4.6281 H   0  0  0  0  0  0  0  0  0  0  0  0
    4.0634   -5.9460    3.2581 H   0  0  0  0  0  0  0  0  0  0  0  0
    4.4083   -5.1780    0.9352 H   0  0  0  0  0  0  0  0  0  0  0  0
    2.4718   -4.2510    0.0866 H   0  0  0  0  0  0  0  0  0  0  0  0
    6.3150   -3.4033    1.3055 H   0  0  0  0  0  0  0  0  0  0  0  0
    5.1592   -3.9129   -1.7656 H   0  0  0  0  0  0  0  0  0  0  0  0
    3.1499   -4.3578   -1.9697 H   0  0  0  0  0  0  0  0  0  0  0  0
    5.9511   -1.8187   -2.2060 H   0  0  0  0  0  0  0  0  0  0  0  0
    3.0626   -0.8339   -2.3834 H   0  0  0  0  0  0  0  0  0  0  0  0
    3.9524   -1.6200   -3.6868 H   0  0  0  0  0  0  0  0  0  0  0  0
    4.4771   -0.0575   -3.0696 H   0  0  0  0  0  0  0  0  0  0  0  0
    6.2046   -0.7882   -0.2215 H   0  0  0  0  0  0  0  0  0  0  0  0
    4.7410    0.1371   -0.5330 H   0  0  0  0  0  0  0  0  0  0  0  0
    2.7472   -1.4805   -0.3449 H   0  0  0  0  0  0  0  0  0  0  0  0
  1  2  1  0
  1 35  1  0
  1 36  1  0
  1 37  1  0
  3  2  1  1
  3 17  1  0
  3 21  1  0
  3  4  1  0
  4  5  2  0
  4  6  1  0
  6 14  1  0
  6  7  1  1
  6  8  1  0
  7 38  1  0
  7 39  1  0
  7 40  1  0
  8  9  1  0
  8 41  1  0
  8 42  1  0
  9 10  1  0
  9 43  1  0
  9 44  1  0
 10 14  1  0
 10 11  1  0
 10 45  1  6
 11 12  1  0
 11 13  1  0
 14 11  1  6
 12 46  1  0
 12 47  1  0
 12 48  1  0
 13 49  1  0
 13 50  1  0
 13 51  1  0
 14 15  1  0
 15 16  1  0
 15 17  1  0
 15 52  1  6
 16 53  1  0
 17 18  1  6
 17 19  1  0
 18 54  1  0
 19 20  1  0
 20 33  1  0
 20 21  1  0
 20 55  1  6
 21 22  1  0
 21 56  1  6
 22 23  1  0
 22 24  1  0
 22 57  1  6
 23 58  1  0
 23 59  1  0
 23 60  1  0
 24 25  1  0
 24 26  1  0
 24 61  1  6
 25 62  1  0
 26 33  1  0
 26 27  1  6
 26 28  1  0
 27 63  1  0
 28 29  1  0
 28 30  1  0
 28 64  1  6
 29 65  1  0
 30 31  1  0
 30 32  1  0
 30 66  1  6
 31 67  1  0
 31 68  1  0
 31 69  1  0
 32 33  1  0
 32 70  1  0
 32 71  1  0
 33 34  1  1
 34 72  1  0
M  END
>  <i_m_ct_stereo_status>  (111) 
1

>  <s_m_source_file>  (111) 
/var/tmp/pbs.5076255.sched01/tmppv1df_bs/0l6e7d74h.sdf

>  <i_m_source_file_index>  (111) 
42

>  <i_lp_mmshare_version>  (111) 
48012

>  <i_f3d_flags>  (111) 
0

>  <s_epik_input>  (111) 
W0NIM11DMShbQ0gzXSlbQ0BIXTJbQ0gyXVtDSDJdW0NAQF0oW0NAQF0xMjMpKFtDSDNdKUMoPU8pW0NAXTQoT1tDSDNdKVtDQF0oW09IXSkoW0NAQEhdM1tPSF0pT1tDQEhdNVtDQEhdNFtDQEBIXShbQ0gzXSlbQ0BASF0oW09IXSlbQ0BdNihbT0hdKVtDQF01KFtPSF0pW0NIMl1bQ0BIXShbQ0gzXSlbQ0BASF02W09IXQ==

>  <s_epik_cmdline>  (111) 
J2VwaWtfcHl0aG9uJywgJy1waHQnLCAnMi4wJywgJy1waCcsICc3LjAnLCAnLXRuJywgJzgnLCAnLW1hJywgJzIwMCcsICctaW1hZScsICc8aW5maWxlLm1hZT4nLCAnLW9tYWUnLCAnPG91dGZpbGUubWFlPic=

>  <r_lp_tautomer_probability>  (111) 
1

>  <r_epik_Ionization_Penalty>  (111) 
2.80892e-05

>  <r_epik_Ionization_Penalty_Charging>  (111) 
0

>  <r_epik_Ionization_Penalty_Neutral>  (111) 
2.80892e-05

>  <r_epik_State_Penalty>  (111) 
-0

>  <r_epik_Charging_Adjusted_Penalty>  (111) 
0

>  <i_epik_Tot_Q>  (111) 
0

>  <i_epik_Tot_abs_Q>  (111) 
0

>  <s_lp_Force_Field>  (111) 
OPLS3e

>  <r_lp_Energy>  (111) 
77.3842

>  <b_lp_Chiralities_Consistent>  (111) 
1

>  <s_lp_Variant>  (111) 
29:0-1

>  <s_i_glide_gridfile>  (111) 
pfpi4k_grid

>  <i_i_glide_lignum>  (111) 
42

>  <i_i_glide_rotatable_bonds>  (111) 
7

>  <r_i_docking_score>  (111) 
-2.09855

>  <r_i_glide_ligand_efficiency>  (111) 
-0.0617222

>  <r_i_glide_ligand_efficiency_sa>  (111) 
-0.199956

>  <r_i_glide_ligand_efficiency_ln>  (111) 
-0.463629

>  <r_i_glide_gscore>  (111) 
-2.09855

>  <r_i_glide_lipo>  (111) 
-0.162371

>  <r_i_glide_hbond>  (111) 
0

>  <r_i_glide_metal>  (111) 
-0

>  <r_i_glide_rewards>  (111) 
-0.19009

>  <r_i_glide_evdw>  (111) 
-21.8

>  <r_i_glide_ecoul>  (111) 
-4.37394

>  <r_i_glide_erotb>  (111) 
0

>  <r_i_glide_esite>  (111) 
0

>  <r_i_glide_emodel>  (111) 
-28.5344

>  <r_i_glide_energy>  (111) 
-26.174

>  <r_i_glide_einternal>  (111) 
1.89703

>  <r_i_glide_intrahb_reward>  (111) 
-0

>  <i_i_glide_confnum>  (111) 
2

>  <i_i_glide_posenum>  (111) 
22

>  <r_i_glide_eff_state_penalty>  (111) 
0

>  <ligand_id>  (111) 
29

>  <original_smiles>  (111) 
COC12C(=O)C3(C)CCC4C(C)(C)C43C(O)C1(O)OC1C2C(C)C(O)C2(O)C(O)C(C)CC12O

>  <smiles>  (111) 
[H]OC1([H])C([H])(C([H])([H])[H])C([H])([H])C2(O[H])C3([H])OC4(O[H])C([H])(O[H])C56C([H])(C([H])([H])C([H])([H])C5(C([H])([H])[H])C(=O)C4(OC([H])([H])[H])C3([H])C([H])(C([H])([H])[H])C([H])(O[H])C12O[H])C6(C([H])([H])[H])C([H])([H])[H]

$$$$
29:0:2
     RDKit          3D

 72 77  0  0  1  0  0  0  0  0999 V2000
    4.0109    0.1665    2.4137 C   0  0  0  0  0  0  0  0  0  0  0  0
    4.2097   -1.0437    3.1320 O   0  0  0  0  0  0  0  0  0  0  0  0
    3.8905   -2.3592    2.6739 C   0  0  1  0  0  0  0  0  0  0  0  0
    4.4677   -3.3747    3.7129 C   0  0  0  0  0  0  0  0  0  0  0  0
    5.6925   -3.3737    3.9785 O   0  0  0  0  0  0  0  0  0  0  0  0
    3.5954   -4.3799    4.4638 C   0  0  2  0  0  0  0  0  0  0  0  0
    3.0594   -3.6558    5.7273 C   0  0  0  0  0  0  0  0  0  0  0  0
    4.2464   -5.7014    4.9725 C   0  0  0  0  0  0  0  0  0  0  0  0
    3.1436   -6.7769    4.8603 C   0  0  0  0  0  0  0  0  0  0  0  0
    2.2104   -6.2843    3.7815 C   0  0  2  0  0  0  0  0  0  0  0  0
    2.7155   -5.9451    2.3911 C   0  0  0  0  0  0  0  0  0  0  0  0
    4.0884   -6.4128    1.9173 C   0  0  0  0  0  0  0  0  0  0  0  0
    1.7191   -6.1430    1.2554 C   0  0  0  0  0  0  0  0  0  0  0  0
    2.5337   -4.8607    3.4835 C   0  0  2  0  0  0  0  0  0  0  0  0
    1.6007   -3.7366    3.1445 C   0  0  1  0  0  0  0  0  0  0  0  0
    0.7076   -3.3721    4.2063 O   0  0  0  0  0  0  0  0  0  0  0  0
    2.3197   -2.5464    2.4201 C   0  0  1  0  0  0  0  0  0  0  0  0
    1.6042   -1.3758    2.7784 O   0  0  0  0  0  0  0  0  0  0  0  0
    2.2394   -2.8250    1.0409 O   0  0  0  0  0  0  0  0  0  0  0  0
    3.3110   -2.1975    0.3617 C   0  0  1  0  0  0  0  0  0  0  0  0
    4.4733   -2.5686    1.2489 C   0  0  1  0  0  0  0  0  0  0  0  0
    5.8054   -1.8962    0.7129 C   0  0  1  0  0  0  0  0  0  0  0  0
    7.0012   -2.0705    1.5763 C   0  0  0  0  0  0  0  0  0  0  0  0
    6.1273   -2.3319   -0.7531 C   0  0  1  0  0  0  0  0  0  0  0  0
    6.5051   -3.6920   -0.7560 O   0  0  0  0  0  0  0  0  0  0  0  0
    4.8914   -2.0561   -1.6260 C   0  0  1  0  0  0  0  0  0  0  0  0
    4.7997   -0.6496   -1.5755 O   0  0  0  0  0  0  0  0  0  0  0  0
    4.8364   -2.3131   -3.1297 C   0  0  1  0  0  0  0  0  0  0  0  0
    5.4229   -3.5270   -3.5159 O   0  0  0  0  0  0  0  0  0  0  0  0
    3.3274   -2.2784   -3.4809 C   0  0  1  0  0  0  0  0  0  0  0  0
    2.8129   -3.4319   -4.3166 C   0  0  0  0  0  0  0  0  0  0  0  0
    2.5668   -2.2305   -2.1596 C   0  0  0  0  0  0  0  0  0  0  0  0
    3.5891   -2.6500   -1.0764 C   0  0  2  0  0  0  0  0  0  0  0  0
    3.7307   -4.0632   -1.0624 O   0  0  0  0  0  0  0  0  0  0  0  0
    4.6140    0.8304    3.0403 H   0  0  0  0  0  0  0  0  0  0  0  0
    2.9885    0.5696    2.4592 H   0  0  0  0  0  0  0  0  0  0  0  0
    4.3975    0.2473    1.4384 H   0  0  0  0  0  0  0  0  0  0  0  0
    2.2785   -4.2340    6.2173 H   0  0  0  0  0  0  0  0  0  0  0  0
    2.6937   -2.6500    5.5249 H   0  0  0  0  0  0  0  0  0  0  0  0
    3.8696   -3.5228    6.4438 H   0  0  0  0  0  0  0  0  0  0  0  0
    5.1090   -5.9818    4.3648 H   0  0  0  0  0  0  0  0  0  0  0  0
    4.6093   -5.6171    6.0003 H   0  0  0  0  0  0  0  0  0  0  0  0
    3.5285   -7.7703    4.6184 H   0  0  0  0  0  0  0  0  0  0  0  0
    2.5803   -6.8487    5.7920 H   0  0  0  0  0  0  0  0  0  0  0  0
    1.1615   -6.5379    3.9057 H   0  0  0  0  0  0  0  0  0  0  0  0
    4.1226   -6.5022    0.8270 H   0  0  0  0  0  0  0  0  0  0  0  0
    4.3082   -7.3875    2.3564 H   0  0  0  0  0  0  0  0  0  0  0  0
    4.8573   -5.7039    2.2140 H   0  0  0  0  0  0  0  0  0  0  0  0
    1.8531   -5.3778    0.4943 H   0  0  0  0  0  0  0  0  0  0  0  0
    0.6947   -6.1156    1.6156 H   0  0  0  0  0  0  0  0  0  0  0  0
    1.8593   -7.1194    0.7968 H   0  0  0  0  0  0  0  0  0  0  0  0
    0.8788   -4.1587    2.4666 H   0  0  0  0  0  0  0  0  0  0  0  0
    1.1619   -2.8226    4.8243 H   0  0  0  0  0  0  0  0  0  0  0  0
    1.9875   -0.6212    2.3553 H   0  0  0  0  0  0  0  0  0  0  0  0
    3.1059   -1.1285    0.3514 H   0  0  0  0  0  0  0  0  0  0  0  0
    4.6300   -3.6426    1.1722 H   0  0  0  0  0  0  0  0  0  0  0  0
    5.7217   -0.8500    0.6475 H   0  0  0  0  0  0  0  0  0  0  0  0
    7.2046   -3.1249    1.7731 H   0  0  0  0  0  0  0  0  0  0  0  0
    6.6918   -1.5347    2.4703 H   0  0  0  0  0  0  0  0  0  0  0  0
    7.8517   -1.5718    1.1263 H   0  0  0  0  0  0  0  0  0  0  0  0
    6.9944   -1.7618   -1.1064 H   0  0  0  0  0  0  0  0  0  0  0  0
    5.7115   -4.2030   -0.6444 H   0  0  0  0  0  0  0  0  0  0  0  0
    3.9174   -0.3912   -1.7689 H   0  0  0  0  0  0  0  0  0  0  0  0
    5.3327   -1.5242   -3.6788 H   0  0  0  0  0  0  0  0  0  0  0  0
    5.0116   -4.2419   -3.0641 H   0  0  0  0  0  0  0  0  0  0  0  0
    3.1293   -1.3440   -4.0214 H   0  0  0  0  0  0  0  0  0  0  0  0
    2.9283   -4.4048   -3.8843 H   0  0  0  0  0  0  0  0  0  0  0  0
    3.4843   -3.4456   -5.1361 H   0  0  0  0  0  0  0  0  0  0  0  0
    1.7812   -3.2845   -4.6273 H   0  0  0  0  0  0  0  0  0  0  0  0
    2.3002   -1.1860   -2.0953 H   0  0  0  0  0  0  0  0  0  0  0  0
    1.6460   -2.8369   -2.1622 H   0  0  0  0  0  0  0  0  0  0  0  0
    3.4936   -4.3967   -1.9181 H   0  0  0  0  0  0  0  0  0  0  0  0
  1  2  1  0
  1 35  1  0
  1 36  1  0
  1 37  1  0
  3  2  1  1
  3 17  1  0
  3 21  1  0
  3  4  1  0
  4  5  2  0
  4  6  1  0
  6 14  1  0
  6  7  1  1
  6  8  1  0
  7 38  1  0
  7 39  1  0
  7 40  1  0
  8  9  1  0
  8 41  1  0
  8 42  1  0
  9 10  1  0
  9 43  1  0
  9 44  1  0
 10 14  1  0
 10 11  1  0
 10 45  1  6
 11 12  1  0
 11 13  1  0
 14 11  1  6
 12 46  1  0
 12 47  1  0
 12 48  1  0
 13 49  1  0
 13 50  1  0
 13 51  1  0
 14 15  1  0
 15 16  1  0
 15 17  1  0
 15 52  1  6
 16 53  1  0
 17 18  1  6
 17 19  1  0
 18 54  1  0
 19 20  1  0
 20 33  1  0
 20 21  1  0
 20 55  1  6
 21 22  1  0
 21 56  1  1
 22 23  1  0
 22 24  1  0
 22 57  1  6
 23 58  1  0
 23 59  1  0
 23 60  1  0
 24 25  1  0
 24 26  1  0
 24 61  1  6
 25 62  1  0
 26 33  1  0
 26 27  1  6
 26 28  1  0
 27 63  1  0
 28 29  1  0
 28 30  1  0
 28 64  1  6
 29 65  1  0
 30 31  1  0
 30 32  1  0
 30 66  1  6
 31 67  1  0
 31 68  1  0
 31 69  1  0
 32 33  1  0
 32 70  1  0
 32 71  1  0
 33 34  1  1
 34 72  1  0
M  END
>  <i_m_ct_stereo_status>  (112) 
1

>  <s_m_source_file>  (112) 
/var/tmp/pbs.5076255.sched01/tmppv1df_bs/0l6e7d74h.sdf

>  <i_m_source_file_index>  (112) 
42

>  <i_lp_mmshare_version>  (112) 
48012

>  <i_f3d_flags>  (112) 
0

>  <s_epik_input>  (112) 
W0NIM11DMShbQ0gzXSlbQ0BIXTJbQ0gyXVtDSDJdW0NAQF0oW0NAQF0xMjMpKFtDSDNdKUMoPU8pW0NAXTQoT1tDSDNdKVtDQF0oW09IXSkoW0NAQEhdM1tPSF0pT1tDQEhdNVtDQEhdNFtDQEBIXShbQ0gzXSlbQ0BASF0oW09IXSlbQ0BdNihbT0hdKVtDQF01KFtPSF0pW0NIMl1bQ0BIXShbQ0gzXSlbQ0BASF02W09IXQ==

>  <s_epik_cmdline>  (112) 
J2VwaWtfcHl0aG9uJywgJy1waHQnLCAnMi4wJywgJy1waCcsICc3LjAnLCAnLXRuJywgJzgnLCAnLW1hJywgJzIwMCcsICctaW1hZScsICc8aW5maWxlLm1hZT4nLCAnLW9tYWUnLCAnPG91dGZpbGUubWFlPic=

>  <r_lp_tautomer_probability>  (112) 
1

>  <r_epik_Ionization_Penalty>  (112) 
2.80892e-05

>  <r_epik_Ionization_Penalty_Charging>  (112) 
0

>  <r_epik_Ionization_Penalty_Neutral>  (112) 
2.80892e-05

>  <r_epik_State_Penalty>  (112) 
-0

>  <r_epik_Charging_Adjusted_Penalty>  (112) 
0

>  <i_epik_Tot_Q>  (112) 
0

>  <i_epik_Tot_abs_Q>  (112) 
0

>  <s_lp_Force_Field>  (112) 
OPLS3e

>  <r_lp_Energy>  (112) 
77.3842

>  <b_lp_Chiralities_Consistent>  (112) 
1

>  <s_lp_Variant>  (112) 
29:0-1

>  <s_i_glide_gridfile>  (112) 
pfpi4k_grid

>  <i_i_glide_lignum>  (112) 
42

>  <i_i_glide_rotatable_bonds>  (112) 
7

>  <r_i_docking_score>  (112) 
-1.96273

>  <r_i_glide_ligand_efficiency>  (112) 
-0.0577272

>  <r_i_glide_ligand_efficiency_sa>  (112) 
-0.187014

>  <r_i_glide_ligand_efficiency_ln>  (112) 
-0.433621

>  <r_i_glide_gscore>  (112) 
-1.96273

>  <r_i_glide_lipo>  (112) 
-0.418255

>  <r_i_glide_hbond>  (112) 
0

>  <r_i_glide_metal>  (112) 
-0

>  <r_i_glide_rewards>  (112) 
-0.640414

>  <r_i_glide_evdw>  (112) 
-7.88892

>  <r_i_glide_ecoul>  (112) 
-3.34655

>  <r_i_glide_erotb>  (112) 
0

>  <r_i_glide_esite>  (112) 
-0.00762835

>  <r_i_glide_emodel>  (112) 
-12.5522

>  <r_i_glide_energy>  (112) 
-11.2355

>  <r_i_glide_einternal>  (112) 
9.36429

>  <r_i_glide_intrahb_reward>  (112) 
-0.5

>  <i_i_glide_confnum>  (112) 
2

>  <i_i_glide_posenum>  (112) 
2

>  <r_i_glide_eff_state_penalty>  (112) 
0

>  <ligand_id>  (112) 
29

>  <original_smiles>  (112) 
COC12C(=O)C3(C)CCC4C(C)(C)C43C(O)C1(O)OC1C2C(C)C(O)C2(O)C(O)C(C)CC12O

>  <smiles>  (112) 
[H]OC1([H])C([H])(C([H])([H])[H])C([H])([H])C2(O[H])C3([H])OC4(O[H])C([H])(O[H])C56C([H])(C([H])([H])C([H])([H])C5(C([H])([H])[H])C(=O)C4(OC([H])([H])[H])C3([H])C([H])(C([H])([H])[H])C([H])(O[H])C12O[H])C6(C([H])([H])[H])C([H])([H])[H]

$$$$
30:0:0
     RDKit          3D

 51 55  0  0  1  0  0  0  0  0999 V2000
    5.3724   -0.6916   -1.1318 O   0  0  0  0  0  0  0  0  0  0  0  0
    4.6928   -1.6144   -0.6769 C   0  0  0  0  0  0  0  0  0  0  0  0
    4.3072   -2.7662   -1.6346 C   0  0  0  0  0  0  0  0  0  0  0  0
    5.3842   -3.1281   -2.6641 C   0  0  0  0  0  0  0  0  0  0  0  0
    4.6240   -3.8549   -3.7707 C   0  0  0  0  0  0  0  0  0  0  0  0
    3.2205   -3.2307   -3.7939 C   0  0  0  0  0  0  0  0  0  0  0  0
    3.1002   -2.3944   -2.5106 C   0  0  0  0  0  0  0  0  0  0  0  0
    4.3096   -1.6504    0.6253 N   0  0  0  0  0  0  0  0  0  0  0  0
    3.4621   -2.6824    1.2442 C   0  0  1  0  0  0  0  0  0  0  0  0
    4.3072   -3.5165    2.2238 C   0  0  0  0  0  0  0  0  0  0  0  0
    5.0399   -2.6635    3.2713 C   0  0  0  0  0  0  0  0  0  0  0  0
    5.6648   -1.3883    2.6636 C   0  0  0  0  0  0  0  0  0  0  0  0
    4.7644   -0.6733    1.6327 C   0  0  2  0  0  0  0  0  0  0  0  0
    3.5597    0.0857    2.2357 C   0  0  0  0  0  0  0  0  0  0  0  0
    2.4219   -0.8236    2.7441 C   0  0  1  0  0  0  0  0  0  0  0  0
    1.1571   -0.0350    2.9459 C   0  0  0  0  0  0  0  0  0  0  0  0
    0.4716    0.5639    1.9695 N   0  0  0  0  0  0  0  0  0  0  0  0
   -0.6251    1.2034    2.5106 N   0  0  0  0  0  0  0  0  0  0  0  0
   -0.5820    1.0110    3.8199 C   0  0  0  0  0  0  0  0  0  0  0  0
   -1.4132    1.4424    4.8899 C   0  0  0  0  0  0  0  0  0  0  0  0
   -1.1073    1.0764    6.1740 C   0  0  0  0  0  0  0  0  0  0  0  0
    0.0236    0.2609    6.4429 C   0  0  0  0  0  0  0  0  0  0  0  0
    0.8342   -0.1638    5.4147 C   0  0  0  0  0  0  0  0  0  0  0  0
    0.5337    0.2124    4.1344 N   0  0  0  0  0  0  0  0  0  0  0  0
    2.1963   -2.0414    1.8295 C   0  0  0  0  0  0  0  0  0  0  0  0
    4.1221   -3.7050   -1.1160 H   0  0  0  0  0  0  0  0  0  0  0  0
    5.8740   -2.2516   -3.0701 H   0  0  0  0  0  0  0  0  0  0  0  0
    6.1423   -3.7722   -2.2196 H   0  0  0  0  0  0  0  0  0  0  0  0
    5.1181   -3.8084   -4.7324 H   0  0  0  0  0  0  0  0  0  0  0  0
    4.6092   -4.9155   -3.5217 H   0  0  0  0  0  0  0  0  0  0  0  0
    3.0746   -2.5918   -4.6667 H   0  0  0  0  0  0  0  0  0  0  0  0
    2.4510   -4.0028   -3.8240 H   0  0  0  0  0  0  0  0  0  0  0  0
    2.1619   -2.5921   -1.9895 H   0  0  0  0  0  0  0  0  0  0  0  0
    3.1093   -1.3303   -2.7701 H   0  0  0  0  0  0  0  0  0  0  0  0
    3.0456   -3.3819    0.5282 H   0  0  0  0  0  0  0  0  0  0  0  0
    3.6845   -4.2645    2.7135 H   0  0  0  0  0  0  0  0  0  0  0  0
    5.0485   -4.0661    1.6434 H   0  0  0  0  0  0  0  0  0  0  0  0
    4.3666   -2.4068    4.0842 H   0  0  0  0  0  0  0  0  0  0  0  0
    5.8117   -3.2650    3.7468 H   0  0  0  0  0  0  0  0  0  0  0  0
    5.9506   -0.6979    3.4595 H   0  0  0  0  0  0  0  0  0  0  0  0
    6.5930   -1.6636    2.1607 H   0  0  0  0  0  0  0  0  0  0  0  0
    5.3897    0.0959    1.1755 H   0  0  0  0  0  0  0  0  0  0  0  0
    3.8790    0.7510    3.0422 H   0  0  0  0  0  0  0  0  0  0  0  0
    3.1715    0.7363    1.4489 H   0  0  0  0  0  0  0  0  0  0  0  0
    2.7135   -1.2234    3.7085 H   0  0  0  0  0  0  0  0  0  0  0  0
   -2.2710    2.0650    4.6536 H   0  0  0  0  0  0  0  0  0  0  0  0
   -1.7370    1.4254    6.9896 H   0  0  0  0  0  0  0  0  0  0  0  0
    0.2744   -0.0183    7.4622 H   0  0  0  0  0  0  0  0  0  0  0  0
    1.7150   -0.7742    5.5755 H   0  0  0  0  0  0  0  0  0  0  0  0
    1.6349   -1.7177    0.9604 H   0  0  0  0  0  0  0  0  0  0  0  0
    1.5732   -2.7876    2.3234 H   0  0  0  0  0  0  0  0  0  0  0  0
  1  2  2  0
  2  3  1  0
  2  8  1  0
  3  7  1  0
  3  4  1  0
  3 26  1  0
  4  5  1  0
  4 27  1  0
  4 28  1  0
  5  6  1  0
  5 29  1  0
  5 30  1  0
  6  7  1  0
  6 31  1  0
  6 32  1  0
  7 33  1  0
  7 34  1  0
  8 13  1  0
  8  9  1  0
  9 25  1  0
  9 10  1  0
  9 35  1  6
 10 11  1  0
 10 36  1  0
 10 37  1  0
 11 12  1  0
 11 38  1  0
 11 39  1  0
 12 13  1  0
 12 40  1  0
 12 41  1  0
 13 14  1  0
 13 42  1  6
 14 15  1  0
 14 43  1  0
 14 44  1  0
 15 16  1  0
 15 25  1  0
 15 45  1  1
 16 24  1  0
 16 17  2  0
 17 18  1  0
 18 19  2  0
 19 24  1  0
 19 20  1  0
 20 21  2  0
 20 46  1  0
 21 22  1  0
 21 47  1  0
 22 23  2  0
 22 48  1  0
 23 24  1  0
 23 49  1  0
 25 50  1  0
 25 51  1  0
M  END
>  <i_m_ct_stereo_status>  (113) 
1

>  <s_m_source_file>  (113) 
/var/tmp/pbs.5076255.sched01/tmppv1df_bs/0l6e7d74h.sdf

>  <i_m_source_file_index>  (113) 
43

>  <i_lp_mmshare_version>  (113) 
48012

>  <i_f3d_flags>  (113) 
0

>  <s_epik_input>  (113) 
W0NIMl0xW0NIMl1bQ0gyXVtDSDJdW0NIXTFDKD1PKU4oW0NAQEhdMjMpW0NASF0oW0NIMl1bQ0gyXVtDSDJdMilbQ0gyXVtDQEhdKFtDSDJdMyljKG5uNCluKGM0NSlbY0hdW2NIXVtjSF1bY0hdNQ==

>  <s_epik_cmdline>  (113) 
J2VwaWtfcHl0aG9uJywgJy1waHQnLCAnMi4wJywgJy1waCcsICc3LjAnLCAnLXRuJywgJzgnLCAnLW1hJywgJzIwMCcsICctaW1hZScsICc8aW5maWxlLm1hZT4nLCAnLW9tYWUnLCAnPG91dGZpbGUubWFlPic=

>  <r_lp_tautomer_probability>  (113) 
1

>  <r_epik_Ionization_Penalty>  (113) 
0.000431303

>  <r_epik_Ionization_Penalty_Charging>  (113) 
0

>  <r_epik_Ionization_Penalty_Neutral>  (113) 
0.000431303

>  <r_epik_State_Penalty>  (113) 
-0

>  <r_epik_Charging_Adjusted_Penalty>  (113) 
0

>  <i_epik_Tot_Q>  (113) 
0

>  <i_epik_Tot_abs_Q>  (113) 
0

>  <s_lp_Force_Field>  (113) 
OPLS3e

>  <r_lp_Energy>  (113) 
54.2125

>  <b_lp_Chiralities_Consistent>  (113) 
1

>  <s_lp_Variant>  (113) 
30:0-1

>  <s_i_glide_gridfile>  (113) 
pfpi4k_grid

>  <i_i_glide_lignum>  (113) 
43

>  <i_i_glide_rotatable_bonds>  (113) 
3

>  <r_i_docking_score>  (113) 
-2.91232

>  <r_i_glide_ligand_efficiency>  (113) 
-0.116493

>  <r_i_glide_ligand_efficiency_sa>  (113) 
-0.340627

>  <r_i_glide_ligand_efficiency_ln>  (113) 
-0.690306

>  <r_i_glide_gscore>  (113) 
-2.91232

>  <r_i_glide_lipo>  (113) 
-0.678614

>  <r_i_glide_hbond>  (113) 
-0.000451369

>  <r_i_glide_metal>  (113) 
-0

>  <r_i_glide_rewards>  (113) 
-1.1015

>  <r_i_glide_evdw>  (113) 
-31.1174

>  <r_i_glide_ecoul>  (113) 
1.08584

>  <r_i_glide_erotb>  (113) 
0.495314

>  <r_i_glide_esite>  (113) 
-0.234068

>  <r_i_glide_emodel>  (113) 
-35.8589

>  <r_i_glide_energy>  (113) 
-30.0316

>  <r_i_glide_einternal>  (113) 
0.551808

>  <r_i_glide_intrahb_reward>  (113) 
-0

>  <i_i_glide_confnum>  (113) 
3

>  <i_i_glide_posenum>  (113) 
16

>  <r_i_glide_eff_state_penalty>  (113) 
0

>  <ligand_id>  (113) 
30

>  <original_smiles>  (113) 
O=C(C1CCCC1)N1C2CCCC1CC(c1nnc3ccccn13)C2

>  <smiles>  (113) 
[H]c1c([H])c([H])n2c(C3([H])C([H])([H])C4([H])N(C(=O)C5([H])C([H])([H])C([H])([H])C([H])([H])C5([H])[H])C([H])(C([H])([H])C([H])([H])C4([H])[H])C3([H])[H])nnc2c1[H]

$$$$
30:0:1
     RDKit          3D

 51 55  0  0  1  0  0  0  0  0999 V2000
    1.7980   -8.1121    4.7187 O   0  0  0  0  0  0  0  0  0  0  0  0
    1.9367   -8.0516    3.4963 C   0  0  0  0  0  0  0  0  0  0  0  0
    0.6559   -8.1747    2.6333 C   0  0  0  0  0  0  0  0  0  0  0  0
   -0.3616   -7.0558    2.9180 C   0  0  0  0  0  0  0  0  0  0  0  0
   -1.7334   -7.7297    3.0487 C   0  0  0  0  0  0  0  0  0  0  0  0
   -1.5415   -9.1547    2.5427 C   0  0  0  0  0  0  0  0  0  0  0  0
   -0.0904   -9.4918    2.8695 C   0  0  0  0  0  0  0  0  0  0  0  0
    3.1655   -7.8589    2.9390 N   0  0  0  0  0  0  0  0  0  0  0  0
    4.3974   -7.6973    3.7312 C   0  0  1  0  0  0  0  0  0  0  0  0
    5.3281   -8.9109    3.5004 C   0  0  0  0  0  0  0  0  0  0  0  0
    5.6172   -9.2053    2.0167 C   0  0  0  0  0  0  0  0  0  0  0  0
    4.3641   -9.0550    1.1470 C   0  0  0  0  0  0  0  0  0  0  0  0
    3.5008   -7.8384    1.5105 C   0  0  2  0  0  0  0  0  0  0  0  0
    4.0382   -6.4575    1.0938 C   0  0  0  0  0  0  0  0  0  0  0  0
    5.2100   -5.9657    1.9608 C   0  0  1  0  0  0  0  0  0  0  0  0
    5.4377   -4.4968    1.7528 C   0  0  0  0  0  0  0  0  0  0  0  0
    4.5983   -3.5399    2.1456 N   0  0  0  0  0  0  0  0  0  0  0  0
    5.1028   -2.3133    1.7600 N   0  0  0  0  0  0  0  0  0  0  0  0
    6.2414   -2.5495    1.1046 C   0  0  0  0  0  0  0  0  0  0  0  0
    7.1820   -1.6985    0.4784 C   0  0  0  0  0  0  0  0  0  0  0  0
    8.2907   -2.2572   -0.1230 C   0  0  0  0  0  0  0  0  0  0  0  0
    8.4895   -3.6491   -0.1280 C   0  0  0  0  0  0  0  0  0  0  0  0
    7.5848   -4.4869    0.4853 C   0  0  0  0  0  0  0  0  0  0  0  0
    6.4858   -3.9362    1.0857 N   0  0  0  0  0  0  0  0  0  0  0  0
    5.0216   -6.3075    3.4567 C   0  0  0  0  0  0  0  0  0  0  0  0
    0.7761   -8.1449    1.5517 H   0  0  0  0  0  0  0  0  0  0  0  0
   -0.1309   -6.4581    3.8067 H   0  0  0  0  0  0  0  0  0  0  0  0
   -0.3547   -6.3710    2.0689 H   0  0  0  0  0  0  0  0  0  0  0  0
   -2.0239   -7.7428    4.0991 H   0  0  0  0  0  0  0  0  0  0  0  0
   -2.5098   -7.2151    2.4823 H   0  0  0  0  0  0  0  0  0  0  0  0
   -2.2307   -9.8559    3.0075 H   0  0  0  0  0  0  0  0  0  0  0  0
   -1.6939   -9.1957    1.4640 H   0  0  0  0  0  0  0  0  0  0  0  0
    0.2939  -10.2881    2.2253 H   0  0  0  0  0  0  0  0  0  0  0  0
   -0.0145   -9.8343    3.9039 H   0  0  0  0  0  0  0  0  0  0  0  0
    4.1764   -7.6988    4.7977 H   0  0  0  0  0  0  0  0  0  0  0  0
    6.2653   -8.7722    4.0382 H   0  0  0  0  0  0  0  0  0  0  0  0
    4.8538   -9.7898    3.9414 H   0  0  0  0  0  0  0  0  0  0  0  0
    6.3973   -8.5489    1.6432 H   0  0  0  0  0  0  0  0  0  0  0  0
    6.0128  -10.2151    1.9058 H   0  0  0  0  0  0  0  0  0  0  0  0
    4.6223   -9.0303    0.0889 H   0  0  0  0  0  0  0  0  0  0  0  0
    3.7424   -9.9404    1.2826 H   0  0  0  0  0  0  0  0  0  0  0  0
    2.6383   -7.9685    0.8763 H   0  0  0  0  0  0  0  0  0  0  0  0
    4.3069   -6.4537    0.0351 H   0  0  0  0  0  0  0  0  0  0  0  0
    3.2065   -5.7582    1.1915 H   0  0  0  0  0  0  0  0  0  0  0  0
    6.0932   -6.4927    1.6246 H   0  0  0  0  0  0  0  0  0  0  0  0
    7.0173   -0.6299    0.5055 H   0  0  0  0  0  0  0  0  0  0  0  0
    9.0137   -1.6096   -0.5995 H   0  0  0  0  0  0  0  0  0  0  0  0
    9.3588   -4.0635   -0.6313 H   0  0  0  0  0  0  0  0  0  0  0  0
    7.7052   -5.5628    0.5055 H   0  0  0  0  0  0  0  0  0  0  0  0
    4.3457   -5.5765    3.9019 H   0  0  0  0  0  0  0  0  0  0  0  0
    5.9689   -6.1992    3.9865 H   0  0  0  0  0  0  0  0  0  0  0  0
  1  2  2  0
  2  3  1  0
  2  8  1  0
  3  7  1  0
  3  4  1  0
  3 26  1  0
  4  5  1  0
  4 27  1  0
  4 28  1  0
  5  6  1  0
  5 29  1  0
  5 30  1  0
  6  7  1  0
  6 31  1  0
  6 32  1  0
  7 33  1  0
  7 34  1  0
  8 13  1  0
  8  9  1  0
  9 25  1  0
  9 10  1  0
  9 35  1  1
 10 11  1  0
 10 36  1  0
 10 37  1  0
 11 12  1  0
 11 38  1  0
 11 39  1  0
 12 13  1  0
 12 40  1  0
 12 41  1  0
 13 14  1  0
 13 42  1  6
 14 15  1  0
 14 43  1  0
 14 44  1  0
 15 16  1  0
 15 25  1  0
 15 45  1  6
 16 24  1  0
 16 17  2  0
 17 18  1  0
 18 19  2  0
 19 24  1  0
 19 20  1  0
 20 21  2  0
 20 46  1  0
 21 22  1  0
 21 47  1  0
 22 23  2  0
 22 48  1  0
 23 24  1  0
 23 49  1  0
 25 50  1  0
 25 51  1  0
M  END
>  <i_m_ct_stereo_status>  (114) 
1

>  <s_m_source_file>  (114) 
/var/tmp/pbs.5076255.sched01/tmppv1df_bs/0l6e7d74h.sdf

>  <i_m_source_file_index>  (114) 
43

>  <i_lp_mmshare_version>  (114) 
48012

>  <i_f3d_flags>  (114) 
0

>  <s_epik_input>  (114) 
W0NIMl0xW0NIMl1bQ0gyXVtDSDJdW0NIXTFDKD1PKU4oW0NAQEhdMjMpW0NASF0oW0NIMl1bQ0gyXVtDSDJdMilbQ0gyXVtDQEhdKFtDSDJdMyljKG5uNCluKGM0NSlbY0hdW2NIXVtjSF1bY0hdNQ==

>  <s_epik_cmdline>  (114) 
J2VwaWtfcHl0aG9uJywgJy1waHQnLCAnMi4wJywgJy1waCcsICc3LjAnLCAnLXRuJywgJzgnLCAnLW1hJywgJzIwMCcsICctaW1hZScsICc8aW5maWxlLm1hZT4nLCAnLW9tYWUnLCAnPG91dGZpbGUubWFlPic=

>  <r_lp_tautomer_probability>  (114) 
1

>  <r_epik_Ionization_Penalty>  (114) 
0.000431303

>  <r_epik_Ionization_Penalty_Charging>  (114) 
0

>  <r_epik_Ionization_Penalty_Neutral>  (114) 
0.000431303

>  <r_epik_State_Penalty>  (114) 
-0

>  <r_epik_Charging_Adjusted_Penalty>  (114) 
0

>  <i_epik_Tot_Q>  (114) 
0

>  <i_epik_Tot_abs_Q>  (114) 
0

>  <s_lp_Force_Field>  (114) 
OPLS3e

>  <r_lp_Energy>  (114) 
54.2125

>  <b_lp_Chiralities_Consistent>  (114) 
1

>  <s_lp_Variant>  (114) 
30:0-1

>  <s_i_glide_gridfile>  (114) 
pfpi4k_grid

>  <i_i_glide_lignum>  (114) 
43

>  <i_i_glide_rotatable_bonds>  (114) 
3

>  <r_i_docking_score>  (114) 
-2.87848

>  <r_i_glide_ligand_efficiency>  (114) 
-0.115139

>  <r_i_glide_ligand_efficiency_sa>  (114) 
-0.336669

>  <r_i_glide_ligand_efficiency_ln>  (114) 
-0.682287

>  <r_i_glide_gscore>  (114) 
-2.87848

>  <r_i_glide_lipo>  (114) 
-0.545441

>  <r_i_glide_hbond>  (114) 
0

>  <r_i_glide_metal>  (114) 
-0

>  <r_i_glide_rewards>  (114) 
-1.40886

>  <r_i_glide_evdw>  (114) 
-30.6303

>  <r_i_glide_ecoul>  (114) 
0.805749

>  <r_i_glide_erotb>  (114) 
0.495314

>  <r_i_glide_esite>  (114) 
-0.00884682

>  <r_i_glide_emodel>  (114) 
-35.8478

>  <r_i_glide_energy>  (114) 
-29.8245

>  <r_i_glide_einternal>  (114) 
0.114123

>  <r_i_glide_intrahb_reward>  (114) 
-0

>  <i_i_glide_confnum>  (114) 
4

>  <i_i_glide_posenum>  (114) 
3

>  <r_i_glide_eff_state_penalty>  (114) 
0

>  <ligand_id>  (114) 
30

>  <original_smiles>  (114) 
O=C(C1CCCC1)N1C2CCCC1CC(c1nnc3ccccn13)C2

>  <smiles>  (114) 
[H]c1c([H])c([H])n2c(C3([H])C([H])([H])C4([H])N(C(=O)C5([H])C([H])([H])C([H])([H])C([H])([H])C5([H])[H])C([H])(C([H])([H])C([H])([H])C4([H])[H])C3([H])[H])nnc2c1[H]

$$$$
30:0:2
     RDKit          3D

 51 55  0  0  1  0  0  0  0  0999 V2000
    5.3377   -0.8727    2.3887 O   0  0  0  0  0  0  0  0  0  0  0  0
    4.1887   -0.7809    1.9634 C   0  0  0  0  0  0  0  0  0  0  0  0
    3.8930   -1.2872    0.5328 C   0  0  0  0  0  0  0  0  0  0  0  0
    3.4571   -2.7717    0.5114 C   0  0  0  0  0  0  0  0  0  0  0  0
    4.2617   -3.4670   -0.6022 C   0  0  0  0  0  0  0  0  0  0  0  0
    4.8963   -2.3450   -1.4199 C   0  0  0  0  0  0  0  0  0  0  0  0
    5.1077   -1.2249   -0.4126 C   0  0  0  0  0  0  0  0  0  0  0  0
    3.1942   -0.2687    2.7392 N   0  0  0  0  0  0  0  0  0  0  0  0
    3.4193    0.1374    4.1394 C   0  0  1  0  0  0  0  0  0  0  0  0
    3.2556    1.6651    4.2766 C   0  0  0  0  0  0  0  0  0  0  0  0
    1.9335    2.1989    3.6961 C   0  0  0  0  0  0  0  0  0  0  0  0
    1.5625    1.5299    2.3591 C   0  0  0  0  0  0  0  0  0  0  0  0
    1.8112    0.0084    2.3228 C   0  0  2  0  0  0  0  0  0  0  0  0
    0.8340   -0.8419    3.1489 C   0  0  0  0  0  0  0  0  0  0  0  0
    1.0665   -0.8099    4.6757 C   0  0  1  0  0  0  0  0  0  0  0  0
    0.3772   -1.9370    5.3825 C   0  0  0  0  0  0  0  0  0  0  0  0
   -0.5842   -1.8055    6.2952 N   0  0  0  0  0  0  0  0  0  0  0  0
   -0.9539   -3.0628    6.7345 N   0  0  0  0  0  0  0  0  0  0  0  0
   -0.1975   -3.9539    6.0776 C   0  0  0  0  0  0  0  0  0  0  0  0
   -0.1237   -5.3668    6.0970 C   0  0  0  0  0  0  0  0  0  0  0  0
    0.7717   -6.0117    5.2603 C   0  0  0  0  0  0  0  0  0  0  0  0
    1.6020   -5.2741    4.3948 C   0  0  0  0  0  0  0  0  0  0  0  0
    1.5416   -3.8990    4.3768 C   0  0  0  0  0  0  0  0  0  0  0  0
    0.6508   -3.2635    5.1974 N   0  0  0  0  0  0  0  0  0  0  0  0
    2.5518   -0.7134    5.0890 C   0  0  0  0  0  0  0  0  0  0  0  0
    3.1417   -0.6829    0.0236 H   0  0  0  0  0  0  0  0  0  0  0  0
    3.6168   -3.2877    1.4635 H   0  0  0  0  0  0  0  0  0  0  0  0
    2.3907   -2.8372    0.2978 H   0  0  0  0  0  0  0  0  0  0  0  0
    5.0438   -4.0862   -0.1565 H   0  0  0  0  0  0  0  0  0  0  0  0
    3.6435   -4.1148   -1.2244 H   0  0  0  0  0  0  0  0  0  0  0  0
    5.8312   -2.6447   -1.8955 H   0  0  0  0  0  0  0  0  0  0  0  0
    4.2064   -2.0092   -2.2005 H   0  0  0  0  0  0  0  0  0  0  0  0
    5.1597   -0.2612   -0.9168 H   0  0  0  0  0  0  0  0  0  0  0  0
    6.0609   -1.3870    0.0972 H   0  0  0  0  0  0  0  0  0  0  0  0
    4.4419   -0.0717    4.4604 H   0  0  0  0  0  0  0  0  0  0  0  0
    3.3623    1.9654    5.3211 H   0  0  0  0  0  0  0  0  0  0  0  0
    4.0808    2.1348    3.7440 H   0  0  0  0  0  0  0  0  0  0  0  0
    1.1304    2.0575    4.4155 H   0  0  0  0  0  0  0  0  0  0  0  0
    2.0086    3.2776    3.5516 H   0  0  0  0  0  0  0  0  0  0  0  0
    0.5236    1.7478    2.1048 H   0  0  0  0  0  0  0  0  0  0  0  0
    2.1670    1.9805    1.5730 H   0  0  0  0  0  0  0  0  0  0  0  0
    1.5968   -0.2928    1.2991 H   0  0  0  0  0  0  0  0  0  0  0  0
   -0.1976   -0.5738    2.9208 H   0  0  0  0  0  0  0  0  0  0  0  0
    0.9490   -1.8546    2.7668 H   0  0  0  0  0  0  0  0  0  0  0  0
    0.5832    0.0971    5.0365 H   0  0  0  0  0  0  0  0  0  0  0  0
   -0.7631   -5.9218    6.7679 H   0  0  0  0  0  0  0  0  0  0  0  0
    0.8350   -7.0981    5.2833 H   0  0  0  0  0  0  0  0  0  0  0  0
    2.3157   -5.7750    3.7440 H   0  0  0  0  0  0  0  0  0  0  0  0
    2.1867   -3.3074    3.7395 H   0  0  0  0  0  0  0  0  0  0  0  0
    2.9949   -1.7099    5.0872 H   0  0  0  0  0  0  0  0  0  0  0  0
    2.6373   -0.3657    6.1232 H   0  0  0  0  0  0  0  0  0  0  0  0
  1  2  2  0
  2  3  1  0
  2  8  1  0
  3  7  1  0
  3  4  1  0
  3 26  1  0
  4  5  1  0
  4 27  1  0
  4 28  1  0
  5  6  1  0
  5 29  1  0
  5 30  1  0
  6  7  1  0
  6 31  1  0
  6 32  1  0
  7 33  1  0
  7 34  1  0
  8 13  1  0
  8  9  1  0
  9 25  1  0
  9 10  1  0
  9 35  1  1
 10 11  1  0
 10 36  1  0
 10 37  1  0
 11 12  1  0
 11 38  1  0
 11 39  1  0
 12 13  1  0
 12 40  1  0
 12 41  1  0
 13 14  1  0
 13 42  1  6
 14 15  1  0
 14 43  1  0
 14 44  1  0
 15 16  1  0
 15 25  1  0
 15 45  1  1
 16 24  1  0
 16 17  2  0
 17 18  1  0
 18 19  2  0
 19 24  1  0
 19 20  1  0
 20 21  2  0
 20 46  1  0
 21 22  1  0
 21 47  1  0
 22 23  2  0
 22 48  1  0
 23 24  1  0
 23 49  1  0
 25 50  1  0
 25 51  1  0
M  END
>  <i_m_ct_stereo_status>  (115) 
1

>  <s_m_source_file>  (115) 
/var/tmp/pbs.5076255.sched01/tmppv1df_bs/0l6e7d74h.sdf

>  <i_m_source_file_index>  (115) 
43

>  <i_lp_mmshare_version>  (115) 
48012

>  <i_f3d_flags>  (115) 
0

>  <s_epik_input>  (115) 
W0NIMl0xW0NIMl1bQ0gyXVtDSDJdW0NIXTFDKD1PKU4oW0NAQEhdMjMpW0NASF0oW0NIMl1bQ0gyXVtDSDJdMilbQ0gyXVtDQEhdKFtDSDJdMyljKG5uNCluKGM0NSlbY0hdW2NIXVtjSF1bY0hdNQ==

>  <s_epik_cmdline>  (115) 
J2VwaWtfcHl0aG9uJywgJy1waHQnLCAnMi4wJywgJy1waCcsICc3LjAnLCAnLXRuJywgJzgnLCAnLW1hJywgJzIwMCcsICctaW1hZScsICc8aW5maWxlLm1hZT4nLCAnLW9tYWUnLCAnPG91dGZpbGUubWFlPic=

>  <r_lp_tautomer_probability>  (115) 
1

>  <r_epik_Ionization_Penalty>  (115) 
0.000431303

>  <r_epik_Ionization_Penalty_Charging>  (115) 
0

>  <r_epik_Ionization_Penalty_Neutral>  (115) 
0.000431303

>  <r_epik_State_Penalty>  (115) 
-0

>  <r_epik_Charging_Adjusted_Penalty>  (115) 
0

>  <i_epik_Tot_Q>  (115) 
0

>  <i_epik_Tot_abs_Q>  (115) 
0

>  <s_lp_Force_Field>  (115) 
OPLS3e

>  <r_lp_Energy>  (115) 
54.2125

>  <b_lp_Chiralities_Consistent>  (115) 
1

>  <s_lp_Variant>  (115) 
30:0-1

>  <s_i_glide_gridfile>  (115) 
pfpi4k_grid

>  <i_i_glide_lignum>  (115) 
43

>  <i_i_glide_rotatable_bonds>  (115) 
3

>  <r_i_docking_score>  (115) 
-2.8261

>  <r_i_glide_ligand_efficiency>  (115) 
-0.113044

>  <r_i_glide_ligand_efficiency_sa>  (115) 
-0.330542

>  <r_i_glide_ligand_efficiency_ln>  (115) 
-0.66987

>  <r_i_glide_gscore>  (115) 
-2.8261

>  <r_i_glide_lipo>  (115) 
-0.0536551

>  <r_i_glide_hbond>  (115) 
0

>  <r_i_glide_metal>  (115) 
-0

>  <r_i_glide_rewards>  (115) 
-1.16902

>  <r_i_glide_evdw>  (115) 
-25.6151

>  <r_i_glide_ecoul>  (115) 
-4.64003

>  <r_i_glide_erotb>  (115) 
0.495314

>  <r_i_glide_esite>  (115) 
-0.121973

>  <r_i_glide_emodel>  (115) 
-34.6931

>  <r_i_glide_energy>  (115) 
-30.2551

>  <r_i_glide_einternal>  (115) 
2.9577

>  <r_i_glide_intrahb_reward>  (115) 
-0

>  <i_i_glide_confnum>  (115) 
6

>  <i_i_glide_posenum>  (115) 
36

>  <r_i_glide_eff_state_penalty>  (115) 
0

>  <ligand_id>  (115) 
30

>  <original_smiles>  (115) 
O=C(C1CCCC1)N1C2CCCC1CC(c1nnc3ccccn13)C2

>  <smiles>  (115) 
[H]c1c([H])c([H])n2c(C3([H])C([H])([H])C4([H])N(C(=O)C5([H])C([H])([H])C([H])([H])C([H])([H])C5([H])[H])C([H])(C([H])([H])C([H])([H])C4([H])[H])C3([H])[H])nnc2c1[H]

$$$$
30:1:0
     RDKit          3D

 51 55  0  0  1  0  0  0  0  0999 V2000
    2.2112   -2.3108    1.8789 O   0  0  0  0  0  0  0  0  0  0  0  0
    2.5970   -1.1333    1.8991 C   0  0  0  0  0  0  0  0  0  0  0  0
    3.7901   -0.7430    1.0069 C   0  0  0  0  0  0  0  0  0  0  0  0
    3.8449   -1.4791   -0.3362 C   0  0  0  0  0  0  0  0  0  0  0  0
    5.3009   -1.3940   -0.7724 C   0  0  0  0  0  0  0  0  0  0  0  0
    6.1258   -1.3607    0.5217 C   0  0  0  0  0  0  0  0  0  0  0  0
    5.1327   -1.1073    1.6591 C   0  0  0  0  0  0  0  0  0  0  0  0
    1.9933   -0.2055    2.6676 N   0  0  0  0  0  0  0  0  0  0  0  0
    0.7403   -0.4467    3.4041 C   0  0  1  0  0  0  0  0  0  0  0  0
    1.0249   -0.4687    4.9331 C   0  0  0  0  0  0  0  0  0  0  0  0
    1.9222    0.6742    5.4682 C   0  0  0  0  0  0  0  0  0  0  0  0
    2.9548    1.1873    4.4804 C   0  0  0  0  0  0  0  0  0  0  0  0
    2.5183    1.1324    2.9905 C   0  0  2  0  0  0  0  0  0  0  0  0
    1.5286    2.2127    2.5045 C   0  0  0  0  0  0  0  0  0  0  0  0
    0.0477    2.0465    2.9901 C   0  0  2  0  0  0  0  0  0  0  0  0
   -0.2876    2.7026    4.3176 C   0  0  0  0  0  0  0  0  0  0  0  0
   -0.8945    2.0962    5.3449 N   0  0  0  0  0  0  0  0  0  0  0  0
   -0.6840    2.8702    6.4802 N   0  0  0  0  0  0  0  0  0  0  0  0
   -0.2196    4.0261    6.0685 C   0  0  0  0  0  0  0  0  0  0  0  0
   -0.0100    5.2930    6.6998 C   0  0  0  0  0  0  0  0  0  0  0  0
    0.3315    6.3704    5.9653 C   0  0  0  0  0  0  0  0  0  0  0  0
    0.5807    6.2485    4.5618 C   0  0  0  0  0  0  0  0  0  0  0  0
    0.4637    5.0399    3.9427 C   0  0  0  0  0  0  0  0  0  0  0  0
    0.0244    3.9672    4.6761 N   0  0  0  0  0  0  0  0  0  0  0  0
   -0.3496    0.5561    2.9241 C   0  0  0  0  0  0  0  0  0  0  0  0
    3.7727    0.3115    0.7325 H   0  0  0  0  0  0  0  0  0  0  0  0
    3.5503   -2.5221   -0.2340 H   0  0  0  0  0  0  0  0  0  0  0  0
    3.1709   -1.0456   -1.0787 H   0  0  0  0  0  0  0  0  0  0  0  0
    5.5891   -2.2170   -1.4271 H   0  0  0  0  0  0  0  0  0  0  0  0
    5.4612   -0.4662   -1.3241 H   0  0  0  0  0  0  0  0  0  0  0  0
    6.6534   -2.3010    0.6775 H   0  0  0  0  0  0  0  0  0  0  0  0
    6.8828   -0.5791    0.4787 H   0  0  0  0  0  0  0  0  0  0  0  0
    5.4872   -0.3386    2.3461 H   0  0  0  0  0  0  0  0  0  0  0  0
    5.0315   -2.0223    2.2467 H   0  0  0  0  0  0  0  0  0  0  0  0
    0.3449   -1.4361    3.1625 H   0  0  0  0  0  0  0  0  0  0  0  0
    0.0843   -0.5658    5.4820 H   0  0  0  0  0  0  0  0  0  0  0  0
    1.5824   -1.3909    5.1546 H   0  0  0  0  0  0  0  0  0  0  0  0
    1.4178    1.6114    5.7177 H   0  0  0  0  0  0  0  0  0  0  0  0
    2.2690    0.4806    6.4830 H   0  0  0  0  0  0  0  0  0  0  0  0
    3.2265    2.2154    4.7407 H   0  0  0  0  0  0  0  0  0  0  0  0
    3.8323    0.5574    4.6443 H   0  0  0  0  0  0  0  0  0  0  0  0
    3.4570    1.3446    2.4901 H   0  0  0  0  0  0  0  0  0  0  0  0
    1.9389    3.1905    2.7293 H   0  0  0  0  0  0  0  0  0  0  0  0
    1.5386    2.1793    1.4125 H   0  0  0  0  0  0  0  0  0  0  0  0
   -0.5778    2.5918    2.2849 H   0  0  0  0  0  0  0  0  0  0  0  0
   -0.2321    5.3575    7.7679 H   0  0  0  0  0  0  0  0  0  0  0  0
    0.4178    7.3481    6.4355 H   0  0  0  0  0  0  0  0  0  0  0  0
    0.8388    7.1247    3.9797 H   0  0  0  0  0  0  0  0  0  0  0  0
    0.5989    4.8995    2.8785 H   0  0  0  0  0  0  0  0  0  0  0  0
   -0.5813    0.3083    1.8865 H   0  0  0  0  0  0  0  0  0  0  0  0
   -1.2846    0.3866    3.4586 H   0  0  0  0  0  0  0  0  0  0  0  0
  1  2  2  0
  2  3  1  0
  2  8  1  0
  3  7  1  0
  3  4  1  0
  3 26  1  0
  4  5  1  0
  4 27  1  0
  4 28  1  0
  5  6  1  0
  5 29  1  0
  5 30  1  0
  6  7  1  0
  6 31  1  0
  6 32  1  0
  7 33  1  0
  7 34  1  0
  8 13  1  0
  8  9  1  0
  9 25  1  0
  9 10  1  0
  9 35  1  6
 10 11  1  0
 10 36  1  0
 10 37  1  0
 11 12  1  0
 11 38  1  0
 11 39  1  0
 12 13  1  0
 12 40  1  0
 12 41  1  0
 13 14  1  0
 13 42  1  6
 14 15  1  0
 14 43  1  0
 14 44  1  0
 15 16  1  0
 15 25  1  0
 15 45  1  6
 16 24  1  0
 16 17  2  0
 17 18  1  0
 18 19  2  0
 19 24  1  0
 19 20  1  0
 20 21  2  0
 20 46  1  0
 21 22  1  0
 21 47  1  0
 22 23  2  0
 22 48  1  0
 23 24  1  0
 23 49  1  0
 25 50  1  0
 25 51  1  0
M  END
>  <i_m_ct_stereo_status>  (116) 
1

>  <s_m_source_file>  (116) 
/var/tmp/pbs.5076255.sched01/tmppv1df_bs/0l6e7d74h.sdf

>  <i_m_source_file_index>  (116) 
44

>  <i_lp_mmshare_version>  (116) 
48012

>  <i_f3d_flags>  (116) 
0

>  <s_epik_input>  (116) 
W0NIMl0xW0NIMl1bQ0gyXVtDSDJdW0NIXTFDKD1PKU4oW0NAQEhdMjMpW0NASF0oW0NIMl1bQ0gyXVtDSDJdMilbQ0gyXVtDQEhdKFtDSDJdMyljKG5uNCluKGM0NSlbY0hdW2NIXVtjSF1bY0hdNQ==

>  <s_epik_cmdline>  (116) 
J2VwaWtfcHl0aG9uJywgJy1waHQnLCAnMi4wJywgJy1waCcsICc3LjAnLCAnLXRuJywgJzgnLCAnLW1hJywgJzIwMCcsICctaW1hZScsICc8aW5maWxlLm1hZT4nLCAnLW9tYWUnLCAnPG91dGZpbGUubWFlPic=

>  <r_lp_tautomer_probability>  (116) 
1

>  <r_epik_Ionization_Penalty>  (116) 
0.000431303

>  <r_epik_Ionization_Penalty_Charging>  (116) 
0

>  <r_epik_Ionization_Penalty_Neutral>  (116) 
0.000431303

>  <r_epik_State_Penalty>  (116) 
-0

>  <r_epik_Charging_Adjusted_Penalty>  (116) 
0

>  <i_epik_Tot_Q>  (116) 
0

>  <i_epik_Tot_abs_Q>  (116) 
0

>  <s_lp_Force_Field>  (116) 
OPLS3e

>  <r_lp_Energy>  (116) 
58.0775

>  <b_lp_Chiralities_Consistent>  (116) 
1

>  <s_lp_Variant>  (116) 
30:0-2

>  <s_i_glide_gridfile>  (116) 
pfpi4k_grid

>  <i_i_glide_lignum>  (116) 
44

>  <i_i_glide_rotatable_bonds>  (116) 
3

>  <r_i_docking_score>  (116) 
-2.74219

>  <r_i_glide_ligand_efficiency>  (116) 
-0.109688

>  <r_i_glide_ligand_efficiency_sa>  (116) 
-0.320729

>  <r_i_glide_ligand_efficiency_ln>  (116) 
-0.649982

>  <r_i_glide_gscore>  (116) 
-2.74219

>  <r_i_glide_lipo>  (116) 
-0.230952

>  <r_i_glide_hbond>  (116) 
0

>  <r_i_glide_metal>  (116) 
-0

>  <r_i_glide_rewards>  (116) 
-1.1015

>  <r_i_glide_evdw>  (116) 
-27.5806

>  <r_i_glide_ecoul>  (116) 
-2.61803

>  <r_i_glide_erotb>  (116) 
0.495314

>  <r_i_glide_esite>  (116) 
-0.133319

>  <r_i_glide_emodel>  (116) 
-33.3786

>  <r_i_glide_energy>  (116) 
-30.1987

>  <r_i_glide_einternal>  (116) 
1.18996

>  <r_i_glide_intrahb_reward>  (116) 
-0

>  <i_i_glide_confnum>  (116) 
2

>  <i_i_glide_posenum>  (116) 
37

>  <r_i_glide_eff_state_penalty>  (116) 
0

>  <ligand_id>  (116) 
30

>  <original_smiles>  (116) 
O=C(C1CCCC1)N1C2CCCC1CC(c1nnc3ccccn13)C2

>  <smiles>  (116) 
[H]c1c([H])c([H])n2c(C3([H])C([H])([H])C4([H])N(C(=O)C5([H])C([H])([H])C([H])([H])C([H])([H])C5([H])[H])C([H])(C([H])([H])C([H])([H])C4([H])[H])C3([H])[H])nnc2c1[H]

$$$$
30:1:1
     RDKit          3D

 51 55  0  0  1  0  0  0  0  0999 V2000
    5.6859   -1.8670    2.3480 O   0  0  0  0  0  0  0  0  0  0  0  0
    4.5482   -1.6300    1.9338 C   0  0  0  0  0  0  0  0  0  0  0  0
    4.1642   -2.1192    0.5016 C   0  0  0  0  0  0  0  0  0  0  0  0
    4.5696   -3.5709    0.2104 C   0  0  0  0  0  0  0  0  0  0  0  0
    4.6237   -3.6291   -1.3123 C   0  0  0  0  0  0  0  0  0  0  0  0
    5.0375   -2.2259   -1.7916 C   0  0  0  0  0  0  0  0  0  0  0  0
    4.9024   -1.3034   -0.5827 C   0  0  0  0  0  0  0  0  0  0  0  0
    3.6338   -0.9649    2.6855 N   0  0  0  0  0  0  0  0  0  0  0  0
    2.2977   -0.5574    2.2245 C   0  0  1  0  0  0  0  0  0  0  0  0
    1.2306   -1.4218    2.9615 C   0  0  0  0  0  0  0  0  0  0  0  0
    1.3642   -1.4445    4.4778 C   0  0  0  0  0  0  0  0  0  0  0  0
    2.8277   -1.4264    4.9736 C   0  0  0  0  0  0  0  0  0  0  0  0
    3.8355   -0.6055    4.1087 C   0  0  2  0  0  0  0  0  0  0  0  0
    3.7661    0.9305    4.2881 C   0  0  0  0  0  0  0  0  0  0  0  0
    2.4990    1.6066    3.6901 C   0  0  2  0  0  0  0  0  0  0  0  0
    1.3381    1.6053    4.6685 C   0  0  0  0  0  0  0  0  0  0  0  0
    1.3626    1.1404    5.9206 N   0  0  0  0  0  0  0  0  0  0  0  0
    0.0591    1.0555    6.3890 N   0  0  0  0  0  0  0  0  0  0  0  0
   -0.6868    1.7448    5.5125 C   0  0  0  0  0  0  0  0  0  0  0  0
   -2.0333    2.1685    5.5504 C   0  0  0  0  0  0  0  0  0  0  0  0
   -2.5168    2.9524    4.5265 C   0  0  0  0  0  0  0  0  0  0  0  0
   -1.7018    3.2671    3.4211 C   0  0  0  0  0  0  0  0  0  0  0  0
   -0.4127    2.8191    3.3544 C   0  0  0  0  0  0  0  0  0  0  0  0
    0.0895    2.1109    4.4018 N   0  0  0  0  0  0  0  0  0  0  0  0
    2.1542    0.9776    2.3213 C   0  0  0  0  0  0  0  0  0  0  0  0
    3.1066   -2.1199    0.3105 H   0  0  0  0  0  0  0  0  0  0  0  0
    5.5463   -3.8032    0.6440 H   0  0  0  0  0  0  0  0  0  0  0  0
    3.8526   -4.2864    0.6245 H   0  0  0  0  0  0  0  0  0  0  0  0
    5.3007   -4.4047   -1.6672 H   0  0  0  0  0  0  0  0  0  0  0  0
    3.6320   -3.8590   -1.7111 H   0  0  0  0  0  0  0  0  0  0  0  0
    6.0596   -2.2282   -2.1580 H   0  0  0  0  0  0  0  0  0  0  0  0
    4.4010   -1.9006   -2.6126 H   0  0  0  0  0  0  0  0  0  0  0  0
    4.3769   -0.3781   -0.8230 H   0  0  0  0  0  0  0  0  0  0  0  0
    5.8971   -1.0163   -0.2289 H   0  0  0  0  0  0  0  0  0  0  0  0
    2.1250   -0.7401    1.1845 H   0  0  0  0  0  0  0  0  0  0  0  0
    0.2391   -1.0679    2.6840 H   0  0  0  0  0  0  0  0  0  0  0  0
    1.3154   -2.4706    2.6154 H   0  0  0  0  0  0  0  0  0  0  0  0
    0.7668   -0.6538    4.7287 H   0  0  0  0  0  0  0  0  0  0  0  0
    0.7976   -2.2426    4.9639 H   0  0  0  0  0  0  0  0  0  0  0  0
    2.9046   -1.1144    6.0155 H   0  0  0  0  0  0  0  0  0  0  0  0
    3.1786   -2.4765    4.9711 H   0  0  0  0  0  0  0  0  0  0  0  0
    4.8371   -0.9005    4.4356 H   0  0  0  0  0  0  0  0  0  0  0  0
    3.8744    1.2033    5.3334 H   0  0  0  0  0  0  0  0  0  0  0  0
    4.6387    1.3507    3.7976 H   0  0  0  0  0  0  0  0  0  0  0  0
    2.7107    2.6584    3.5261 H   0  0  0  0  0  0  0  0  0  0  0  0
   -2.6417    1.9271    6.4158 H   0  0  0  0  0  0  0  0  0  0  0  0
   -3.5299    3.3208    4.5758 H   0  0  0  0  0  0  0  0  0  0  0  0
   -2.0925    3.8824    2.6134 H   0  0  0  0  0  0  0  0  0  0  0  0
    0.2538    3.0625    2.5300 H   0  0  0  0  0  0  0  0  0  0  0  0
    2.8173    1.3910    1.5632 H   0  0  0  0  0  0  0  0  0  0  0  0
    1.1583    1.2403    1.9690 H   0  0  0  0  0  0  0  0  0  0  0  0
  1  2  2  0
  2  3  1  0
  2  8  1  0
  3  7  1  0
  3  4  1  0
  3 26  1  0
  4  5  1  0
  4 27  1  0
  4 28  1  0
  5  6  1  0
  5 29  1  0
  5 30  1  0
  6  7  1  0
  6 31  1  0
  6 32  1  0
  7 33  1  0
  7 34  1  0
  8 13  1  0
  8  9  1  0
  9 25  1  0
  9 10  1  0
  9 35  1  6
 10 11  1  0
 10 36  1  0
 10 37  1  0
 11 12  1  0
 11 38  1  0
 11 39  1  0
 12 13  1  0
 12 40  1  0
 12 41  1  0
 13 14  1  0
 13 42  1  1
 14 15  1  0
 14 43  1  0
 14 44  1  0
 15 16  1  0
 15 25  1  0
 15 45  1  6
 16 24  1  0
 16 17  2  0
 17 18  1  0
 18 19  2  0
 19 24  1  0
 19 20  1  0
 20 21  2  0
 20 46  1  0
 21 22  1  0
 21 47  1  0
 22 23  2  0
 22 48  1  0
 23 24  1  0
 23 49  1  0
 25 50  1  0
 25 51  1  0
M  END
>  <i_m_ct_stereo_status>  (117) 
1

>  <s_m_source_file>  (117) 
/var/tmp/pbs.5076255.sched01/tmppv1df_bs/0l6e7d74h.sdf

>  <i_m_source_file_index>  (117) 
44

>  <i_lp_mmshare_version>  (117) 
48012

>  <i_f3d_flags>  (117) 
0

>  <s_epik_input>  (117) 
W0NIMl0xW0NIMl1bQ0gyXVtDSDJdW0NIXTFDKD1PKU4oW0NAQEhdMjMpW0NASF0oW0NIMl1bQ0gyXVtDSDJdMilbQ0gyXVtDQEhdKFtDSDJdMyljKG5uNCluKGM0NSlbY0hdW2NIXVtjSF1bY0hdNQ==

>  <s_epik_cmdline>  (117) 
J2VwaWtfcHl0aG9uJywgJy1waHQnLCAnMi4wJywgJy1waCcsICc3LjAnLCAnLXRuJywgJzgnLCAnLW1hJywgJzIwMCcsICctaW1hZScsICc8aW5maWxlLm1hZT4nLCAnLW9tYWUnLCAnPG91dGZpbGUubWFlPic=

>  <r_lp_tautomer_probability>  (117) 
1

>  <r_epik_Ionization_Penalty>  (117) 
0.000431303

>  <r_epik_Ionization_Penalty_Charging>  (117) 
0

>  <r_epik_Ionization_Penalty_Neutral>  (117) 
0.000431303

>  <r_epik_State_Penalty>  (117) 
-0

>  <r_epik_Charging_Adjusted_Penalty>  (117) 
0

>  <i_epik_Tot_Q>  (117) 
0

>  <i_epik_Tot_abs_Q>  (117) 
0

>  <s_lp_Force_Field>  (117) 
OPLS3e

>  <r_lp_Energy>  (117) 
58.0775

>  <b_lp_Chiralities_Consistent>  (117) 
1

>  <s_lp_Variant>  (117) 
30:0-2

>  <s_i_glide_gridfile>  (117) 
pfpi4k_grid

>  <i_i_glide_lignum>  (117) 
44

>  <i_i_glide_rotatable_bonds>  (117) 
3

>  <r_i_docking_score>  (117) 
-2.41524

>  <r_i_glide_ligand_efficiency>  (117) 
-0.0966097

>  <r_i_glide_ligand_efficiency_sa>  (117) 
-0.282489

>  <r_i_glide_ligand_efficiency_ln>  (117) 
-0.572485

>  <r_i_glide_gscore>  (117) 
-2.41524

>  <r_i_glide_lipo>  (117) 
-0.0346914

>  <r_i_glide_hbond>  (117) 
0

>  <r_i_glide_metal>  (117) 
-0

>  <r_i_glide_rewards>  (117) 
-1.15393

>  <r_i_glide_evdw>  (117) 
-26.1179

>  <r_i_glide_ecoul>  (117) 
-2.51745

>  <r_i_glide_erotb>  (117) 
0.495314

>  <r_i_glide_esite>  (117) 
-0.038422

>  <r_i_glide_emodel>  (117) 
-31.4187

>  <r_i_glide_energy>  (117) 
-28.6354

>  <r_i_glide_einternal>  (117) 
1.49566

>  <r_i_glide_intrahb_reward>  (117) 
-0

>  <i_i_glide_confnum>  (117) 
3

>  <i_i_glide_posenum>  (117) 
19

>  <r_i_glide_eff_state_penalty>  (117) 
0

>  <ligand_id>  (117) 
30

>  <original_smiles>  (117) 
O=C(C1CCCC1)N1C2CCCC1CC(c1nnc3ccccn13)C2

>  <smiles>  (117) 
[H]c1c([H])c([H])n2c(C3([H])C([H])([H])C4([H])N(C(=O)C5([H])C([H])([H])C([H])([H])C([H])([H])C5([H])[H])C([H])(C([H])([H])C([H])([H])C4([H])[H])C3([H])[H])nnc2c1[H]

$$$$
30:1:2
     RDKit          3D

 51 55  0  0  1  0  0  0  0  0999 V2000
    3.5423   -3.4049    2.5071 O   0  0  0  0  0  0  0  0  0  0  0  0
    3.3214   -2.1917    2.4731 C   0  0  0  0  0  0  0  0  0  0  0  0
    4.0180   -1.3708    1.3669 C   0  0  0  0  0  0  0  0  0  0  0  0
    3.9453   -2.0045   -0.0282 C   0  0  0  0  0  0  0  0  0  0  0  0
    5.1209   -1.3670   -0.7851 C   0  0  0  0  0  0  0  0  0  0  0  0
    6.1998   -1.0586    0.2639 C   0  0  0  0  0  0  0  0  0  0  0  0
    5.5272   -1.2203    1.6362 C   0  0  0  0  0  0  0  0  0  0  0  0
    2.5035   -1.5889    3.3716 N   0  0  0  0  0  0  0  0  0  0  0  0
    1.7810   -2.3289    4.4185 C   0  0  1  0  0  0  0  0  0  0  0  0
    2.3430   -1.9417    5.8049 C   0  0  0  0  0  0  0  0  0  0  0  0
    2.5354   -0.4173    6.0162 C   0  0  0  0  0  0  0  0  0  0  0  0
    2.8776    0.3899    4.7878 C   0  0  0  0  0  0  0  0  0  0  0  0
    2.2605   -0.1434    3.4880 C   0  0  2  0  0  0  0  0  0  0  0  0
    0.7664    0.1675    3.2453 C   0  0  0  0  0  0  0  0  0  0  0  0
   -0.2019   -0.6589    4.1406 C   0  0  2  0  0  0  0  0  0  0  0  0
   -0.4757   -0.0611    5.4957 C   0  0  0  0  0  0  0  0  0  0  0  0
   -0.2981   -0.6567    6.6954 N   0  0  0  0  0  0  0  0  0  0  0  0
   -0.2808    0.3311    7.6609 N   0  0  0  0  0  0  0  0  0  0  0  0
   -0.9252    1.3498    7.1264 C   0  0  0  0  0  0  0  0  0  0  0  0
   -1.5478    2.4943    7.6792 C   0  0  0  0  0  0  0  0  0  0  0  0
   -2.2699    3.3249    6.8704 C   0  0  0  0  0  0  0  0  0  0  0  0
   -2.3895    3.0643    5.4824 C   0  0  0  0  0  0  0  0  0  0  0  0
   -1.7696    1.9737    4.9249 C   0  0  0  0  0  0  0  0  0  0  0  0
   -1.0708    1.1313    5.7406 N   0  0  0  0  0  0  0  0  0  0  0  0
    0.2532   -2.1357    4.2375 C   0  0  0  0  0  0  0  0  0  0  0  0
    3.5682   -0.4010    1.2188 H   0  0  0  0  0  0  0  0  0  0  0  0
    4.0816   -3.0813    0.0343 H   0  0  0  0  0  0  0  0  0  0  0  0
    2.9929   -1.8360   -0.5389 H   0  0  0  0  0  0  0  0  0  0  0  0
    5.4930   -2.0089   -1.5835 H   0  0  0  0  0  0  0  0  0  0  0  0
    4.7939   -0.4337   -1.2464 H   0  0  0  0  0  0  0  0  0  0  0  0
    7.0494   -1.7389    0.1714 H   0  0  0  0  0  0  0  0  0  0  0  0
    6.5903   -0.0471    0.1308 H   0  0  0  0  0  0  0  0  0  0  0  0
    5.7621   -0.3900    2.3063 H   0  0  0  0  0  0  0  0  0  0  0  0
    5.9107   -2.1231    2.1133 H   0  0  0  0  0  0  0  0  0  0  0  0
    1.9607   -3.4008    4.3230 H   0  0  0  0  0  0  0  0  0  0  0  0
    1.7686   -2.4138    6.6109 H   0  0  0  0  0  0  0  0  0  0  0  0
    3.3513   -2.3218    5.8964 H   0  0  0  0  0  0  0  0  0  0  0  0
    1.7300    0.1486    6.3228 H   0  0  0  0  0  0  0  0  0  0  0  0
    3.0684   -0.1879    6.9207 H   0  0  0  0  0  0  0  0  0  0  0  0
    2.6183    1.4434    4.9396 H   0  0  0  0  0  0  0  0  0  0  0  0
    3.9478    0.3257    4.7552 H   0  0  0  0  0  0  0  0  0  0  0  0
    2.7865    0.4326    2.7455 H   0  0  0  0  0  0  0  0  0  0  0  0
    0.5745    1.2324    3.3634 H   0  0  0  0  0  0  0  0  0  0  0  0
    0.5513   -0.0452    2.1888 H   0  0  0  0  0  0  0  0  0  0  0  0
   -1.1830   -0.6338    3.6749 H   0  0  0  0  0  0  0  0  0  0  0  0
   -1.4602    2.6672    8.7455 H   0  0  0  0  0  0  0  0  0  0  0  0
   -2.7585    4.1931    7.2952 H   0  0  0  0  0  0  0  0  0  0  0  0
   -2.9759    3.7369    4.8684 H   0  0  0  0  0  0  0  0  0  0  0  0
   -1.8580    1.7158    3.8731 H   0  0  0  0  0  0  0  0  0  0  0  0
   -0.0365   -2.6589    3.3249 H   0  0  0  0  0  0  0  0  0  0  0  0
   -0.2948   -2.6354    5.0369 H   0  0  0  0  0  0  0  0  0  0  0  0
  1  2  2  0
  2  3  1  0
  2  8  1  0
  3  7  1  0
  3  4  1  0
  3 26  1  0
  4  5  1  0
  4 27  1  0
  4 28  1  0
  5  6  1  0
  5 29  1  0
  5 30  1  0
  6  7  1  0
  6 31  1  0
  6 32  1  0
  7 33  1  0
  7 34  1  0
  8 13  1  0
  8  9  1  0
  9 25  1  0
  9 10  1  0
  9 35  1  6
 10 11  1  0
 10 36  1  0
 10 37  1  0
 11 12  1  0
 11 38  1  0
 11 39  1  0
 12 13  1  0
 12 40  1  0
 12 41  1  0
 13 14  1  0
 13 42  1  6
 14 15  1  0
 14 43  1  0
 14 44  1  0
 15 16  1  0
 15 25  1  0
 15 45  1  6
 16 24  1  0
 16 17  2  0
 17 18  1  0
 18 19  2  0
 19 24  1  0
 19 20  1  0
 20 21  2  0
 20 46  1  0
 21 22  1  0
 21 47  1  0
 22 23  2  0
 22 48  1  0
 23 24  1  0
 23 49  1  0
 25 50  1  0
 25 51  1  0
M  END
>  <i_m_ct_stereo_status>  (118) 
1

>  <s_m_source_file>  (118) 
/var/tmp/pbs.5076255.sched01/tmppv1df_bs/0l6e7d74h.sdf

>  <i_m_source_file_index>  (118) 
44

>  <i_lp_mmshare_version>  (118) 
48012

>  <i_f3d_flags>  (118) 
0

>  <s_epik_input>  (118) 
W0NIMl0xW0NIMl1bQ0gyXVtDSDJdW0NIXTFDKD1PKU4oW0NAQEhdMjMpW0NASF0oW0NIMl1bQ0gyXVtDSDJdMilbQ0gyXVtDQEhdKFtDSDJdMyljKG5uNCluKGM0NSlbY0hdW2NIXVtjSF1bY0hdNQ==

>  <s_epik_cmdline>  (118) 
J2VwaWtfcHl0aG9uJywgJy1waHQnLCAnMi4wJywgJy1waCcsICc3LjAnLCAnLXRuJywgJzgnLCAnLW1hJywgJzIwMCcsICctaW1hZScsICc8aW5maWxlLm1hZT4nLCAnLW9tYWUnLCAnPG91dGZpbGUubWFlPic=

>  <r_lp_tautomer_probability>  (118) 
1

>  <r_epik_Ionization_Penalty>  (118) 
0.000431303

>  <r_epik_Ionization_Penalty_Charging>  (118) 
0

>  <r_epik_Ionization_Penalty_Neutral>  (118) 
0.000431303

>  <r_epik_State_Penalty>  (118) 
-0

>  <r_epik_Charging_Adjusted_Penalty>  (118) 
0

>  <i_epik_Tot_Q>  (118) 
0

>  <i_epik_Tot_abs_Q>  (118) 
0

>  <s_lp_Force_Field>  (118) 
OPLS3e

>  <r_lp_Energy>  (118) 
58.0775

>  <b_lp_Chiralities_Consistent>  (118) 
1

>  <s_lp_Variant>  (118) 
30:0-2

>  <s_i_glide_gridfile>  (118) 
pfpi4k_grid

>  <i_i_glide_lignum>  (118) 
44

>  <i_i_glide_rotatable_bonds>  (118) 
3

>  <r_i_docking_score>  (118) 
-2.18249

>  <r_i_glide_ligand_efficiency>  (118) 
-0.0872997

>  <r_i_glide_ligand_efficiency_sa>  (118) 
-0.255266

>  <r_i_glide_ligand_efficiency_ln>  (118) 
-0.517316

>  <r_i_glide_gscore>  (118) 
-2.18249

>  <r_i_glide_lipo>  (118) 
-0.320245

>  <r_i_glide_hbond>  (118) 
0

>  <r_i_glide_metal>  (118) 
-0

>  <r_i_glide_rewards>  (118) 
-1.1015

>  <r_i_glide_evdw>  (118) 
-23.9562

>  <r_i_glide_ecoul>  (118) 
-3.02564

>  <r_i_glide_erotb>  (118) 
0.495314

>  <r_i_glide_esite>  (118) 
-0.187327

>  <r_i_glide_emodel>  (118) 
-26.3818

>  <r_i_glide_energy>  (118) 
-26.9819

>  <r_i_glide_einternal>  (118) 
0.665838

>  <r_i_glide_intrahb_reward>  (118) 
-0

>  <i_i_glide_confnum>  (118) 
2

>  <i_i_glide_posenum>  (118) 
29

>  <r_i_glide_eff_state_penalty>  (118) 
0

>  <ligand_id>  (118) 
30

>  <original_smiles>  (118) 
O=C(C1CCCC1)N1C2CCCC1CC(c1nnc3ccccn13)C2

>  <smiles>  (118) 
[H]c1c([H])c([H])n2c(C3([H])C([H])([H])C4([H])N(C(=O)C5([H])C([H])([H])C([H])([H])C([H])([H])C5([H])[H])C([H])(C([H])([H])C([H])([H])C4([H])[H])C3([H])[H])nnc2c1[H]

$$$$
31:0:0
     RDKit          3D

 55 60  0  0  1  0  0  0  0  0999 V2000
    2.7247   -4.3762    6.1039 O   0  0  0  0  0  0  0  0  0  0  0  0
    3.4923   -4.1061    5.0035 C   0  0  0  0  0  0  0  0  0  0  0  0
    4.3745   -5.0884    4.5104 C   0  0  0  0  0  0  0  0  0  0  0  0
    4.8567   -4.9491    3.1896 C   0  0  0  0  0  0  0  0  0  0  0  0
    4.6397   -3.7557    2.4682 C   0  0  0  0  0  0  0  0  0  0  0  0
    4.1694   -2.6503    3.2008 C   0  0  0  0  0  0  0  0  0  0  0  0
    3.3242   -2.9066    4.2991 C   0  0  0  0  0  0  0  0  0  0  0  0
    2.0166   -2.1331    4.1546 C   0  0  0  0  0  0  0  0  0  0  0  0
    1.6862   -1.5320    2.7241 C   0  0  1  0  0  0  0  0  0  0  0  0
    0.9072   -0.2113    2.9726 C   0  0  0  0  0  0  0  0  0  0  0  0
    1.6625    0.8832    3.7651 C   0  0  0  0  0  0  0  0  0  0  0  0
    3.1448    1.1176    3.4096 C   0  0  0  0  0  0  0  0  0  0  0  0
    4.1154   -0.0771    3.6125 C   0  0  0  0  0  0  0  0  0  0  0  0
    4.1415   -1.2423    2.5415 C   0  0  1  0  0  0  0  0  0  0  0  0
    5.3692   -0.9275    1.6157 C   0  0  0  0  0  0  0  0  0  0  0  0
    5.5465   -1.7862    0.3577 C   0  0  0  0  0  0  0  0  0  0  0  0
    4.2534   -2.0122   -0.3231 N   0  0  1  0  0  0  0  0  0  0  0  0
    4.3970   -2.7915   -1.5851 C   0  0  0  0  0  0  0  0  0  0  0  0
    3.2858   -2.5137   -2.5731 C   0  0  0  0  0  0  0  0  0  0  0  0
    3.2815   -3.2170   -3.9163 C   0  0  0  0  0  0  0  0  0  0  0  0
    3.5422   -1.7406   -3.8470 C   0  0  0  0  0  0  0  0  0  0  0  0
    3.2082   -2.5080    0.6365 C   0  0  1  0  0  0  0  0  0  0  0  0
    3.7172   -3.8493    1.2433 C   0  0  0  0  0  0  0  0  0  0  0  0
    2.8853   -1.3760    1.6950 C   0  0  1  0  0  0  0  0  0  0  0  0
    2.6151   -0.2686    0.8490 O   0  0  0  0  0  0  0  0  0  0  0  0
    2.9253   -5.2087    6.5006 H   0  0  0  0  0  0  0  0  0  0  0  0
    4.5104   -6.0237    5.0237 H   0  0  0  0  0  0  0  0  0  0  0  0
    5.2222   -5.8324    2.6741 H   0  0  0  0  0  0  0  0  0  0  0  0
    1.1992   -2.7847    4.4531 H   0  0  0  0  0  0  0  0  0  0  0  0
    2.0457   -1.3810    4.9334 H   0  0  0  0  0  0  0  0  0  0  0  0
    0.9995   -2.2274    2.2548 H   0  0  0  0  0  0  0  0  0  0  0  0
    0.5179    0.1942    2.0374 H   0  0  0  0  0  0  0  0  0  0  0  0
    0.0140   -0.4559    3.5464 H   0  0  0  0  0  0  0  0  0  0  0  0
    1.1268    1.8195    3.6149 H   0  0  0  0  0  0  0  0  0  0  0  0
    1.5823    0.7003    4.8381 H   0  0  0  0  0  0  0  0  0  0  0  0
    3.2461    1.5470    2.4142 H   0  0  0  0  0  0  0  0  0  0  0  0
    3.4862    1.9114    4.0701 H   0  0  0  0  0  0  0  0  0  0  0  0
    5.1166    0.3398    3.6708 H   0  0  0  0  0  0  0  0  0  0  0  0
    4.0068   -0.4517    4.6262 H   0  0  0  0  0  0  0  0  0  0  0  0
    5.2644    0.1043    1.2794 H   0  0  0  0  0  0  0  0  0  0  0  0
    6.2959   -0.9373    2.1927 H   0  0  0  0  0  0  0  0  0  0  0  0
    6.2359   -1.2819   -0.3109 H   0  0  0  0  0  0  0  0  0  0  0  0
    6.0453   -2.7152    0.6079 H   0  0  0  0  0  0  0  0  0  0  0  0
    5.3339   -2.5368   -2.0688 H   0  0  0  0  0  0  0  0  0  0  0  0
    4.4610   -3.8706   -1.4676 H   0  0  0  0  0  0  0  0  0  0  0  0
    2.2890   -2.4268   -2.1458 H   0  0  0  0  0  0  0  0  0  0  0  0
    4.1109   -3.8810   -4.1536 H   0  0  0  0  0  0  0  0  0  0  0  0
    2.3101   -3.5362   -4.2939 H   0  0  0  0  0  0  0  0  0  0  0  0
    2.7414   -1.0737   -4.1695 H   0  0  0  0  0  0  0  0  0  0  0  0
    4.5566   -1.3889   -4.0326 H   0  0  0  0  0  0  0  0  0  0  0  0
    2.3109   -2.7068    0.0670 H   0  0  0  0  0  0  0  0  0  0  0  0
    4.2243   -4.5011    0.5378 H   0  0  0  0  0  0  0  0  0  0  0  0
    2.8290   -4.4158    1.5295 H   0  0  0  0  0  0  0  0  0  0  0  0
    1.8511   -0.4605    0.3154 H   0  0  0  0  0  0  0  0  0  0  0  0
    3.9408   -1.0870   -0.5764 H   0  0  0  0  0  0  0  0  0  0  0  0
  1  2  1  0
  1 26  1  0
  2  7  2  0
  2  3  1  0
  3  4  2  0
  3 27  1  0
  4  5  1  0
  4 28  1  0
  5 23  1  0
  5  6  2  0
  6 14  1  0
  6  7  1  0
  7  8  1  0
  8  9  1  0
  8 29  1  0
  8 30  1  0
  9 24  1  0
  9 10  1  0
  9 31  1  6
 10 11  1  0
 10 32  1  0
 10 33  1  0
 11 12  1  0
 11 34  1  0
 11 35  1  0
 12 13  1  0
 12 36  1  0
 12 37  1  0
 14 13  1  1
 13 38  1  0
 13 39  1  0
 14 24  1  0
 14 15  1  0
 15 16  1  0
 15 40  1  0
 15 41  1  0
 16 17  1  0
 16 42  1  0
 16 43  1  0
 17 18  1  0
 17 22  1  0
 17 55  1  6
 18 19  1  0
 18 44  1  0
 18 45  1  0
 19 21  1  0
 19 20  1  0
 19 46  1  0
 20 21  1  0
 20 47  1  0
 20 48  1  0
 21 49  1  0
 21 50  1  0
 22 23  1  0
 22 24  1  0
 22 51  1  6
 23 52  1  0
 23 53  1  0
 24 25  1  6
 25 54  1  0
M  CHG  1  17   1
M  END
>  <i_m_ct_stereo_status>  (119) 
1

>  <s_m_source_file>  (119) 
/var/tmp/pbs.5076255.sched01/tmppv1df_bs/0l6e7d74h.sdf

>  <i_m_source_file_index>  (119) 
45

>  <i_lp_mmshare_version>  (119) 
48012

>  <i_f3d_flags>  (119) 
0

>  <s_epik_input>  (119) 
W0NAXTEyM2M0YzVbY0hdW2NIXWMoW09IXSljNFtDSDJdW0NAQEhdKFtDSDJdW0NIMl1bQ0gyXVtDSDJdMSlbQ0BdMyhbT0hdKVtDQEhdKFtDSDJdNSlOKFtDSDJdW0NIMl0yKVtDSDJdW0NIXTZbQ0gyXVtDSDJdNg==

>  <s_epik_cmdline>  (119) 
J2VwaWtfcHl0aG9uJywgJy1waHQnLCAnMi4wJywgJy1waCcsICc3LjAnLCAnLXRuJywgJzgnLCAnLW1hJywgJzIwMCcsICctaW1hZScsICc8aW5maWxlLm1hZT4nLCAnLW9tYWUnLCAnPG91dGZpbGUubWFlPic=

>  <r_lp_tautomer_probability>  (119) 
1

>  <r_epik_Ionization_Penalty>  (119) 
0.0148258

>  <r_epik_Ionization_Penalty_Charging>  (119) 
0.0144368

>  <r_epik_Ionization_Penalty_Neutral>  (119) 
0.00038897

>  <r_epik_State_Penalty>  (119) 
0.011292

>  <r_epik_Charging_Adjusted_Penalty>  (119) 
0.0257288

>  <i_epik_Tot_Q>  (119) 
1

>  <i_epik_Tot_abs_Q>  (119) 
1

>  <s_lp_Force_Field>  (119) 
OPLS3e

>  <r_lp_Energy>  (119) 
144.714

>  <b_lp_Chiralities_Consistent>  (119) 
1

>  <s_lp_Variant>  (119) 
31:0-1

>  <s_i_glide_gridfile>  (119) 
pfpi4k_grid

>  <i_i_glide_lignum>  (119) 
45

>  <i_i_glide_rotatable_bonds>  (119) 
4

>  <r_i_docking_score>  (119) 
-3.80735

>  <r_i_glide_ligand_efficiency>  (119) 
-0.152294

>  <r_i_glide_ligand_efficiency_sa>  (119) 
-0.445311

>  <r_i_glide_ligand_efficiency_ln>  (119) 
-0.902456

>  <r_i_glide_gscore>  (119) 
-3.80735

>  <r_i_glide_lipo>  (119) 
-0.458051

>  <r_i_glide_hbond>  (119) 
-0.16

>  <r_i_glide_metal>  (119) 
-0

>  <r_i_glide_rewards>  (119) 
-1.08764

>  <r_i_glide_evdw>  (119) 
-24.7891

>  <r_i_glide_ecoul>  (119) 
-7.7713

>  <r_i_glide_erotb>  (119) 
0.326723

>  <r_i_glide_esite>  (119) 
-0.0232336

>  <r_i_glide_emodel>  (119) 
-41.3426

>  <r_i_glide_energy>  (119) 
-32.5604

>  <r_i_glide_einternal>  (119) 
1.8137

>  <r_i_glide_intrahb_reward>  (119) 
-0

>  <i_i_glide_confnum>  (119) 
3

>  <i_i_glide_posenum>  (119) 
2

>  <r_i_glide_eff_state_penalty>  (119) 
0

>  <ligand_id>  (119) 
31

>  <original_smiles>  (119) 
Oc1ccc2c3c1CC1CCCCC34CCN(CC3CC3)C(C2)C14O

>  <smiles>  (119) 
[H]Oc1c([H])c([H])c2c3c1C([H])([H])C1([H])C([H])([H])C([H])([H])C([H])([H])C([H])([H])C34C([H])([H])C([H])([H])[N+]([H])(C([H])([H])C3([H])C([H])([H])C3([H])[H])C([H])(C2([H])[H])C14O[H]

$$$$
31:0:1
     RDKit          3D

 55 60  0  0  1  0  0  0  0  0999 V2000
    7.4401   -6.3085    2.4064 O   0  0  0  0  0  0  0  0  0  0  0  0
    6.3190   -6.7929    3.0038 C   0  0  0  0  0  0  0  0  0  0  0  0
    5.2326   -5.9273    3.2437 C   0  0  0  0  0  0  0  0  0  0  0  0
    3.9789   -6.4935    3.5132 C   0  0  0  0  0  0  0  0  0  0  0  0
    3.8607   -7.8864    3.6647 C   0  0  0  0  0  0  0  0  0  0  0  0
    5.0271   -8.5980    3.9813 C   0  0  0  0  0  0  0  0  0  0  0  0
    6.1524   -8.1749    3.2707 C   0  0  0  0  0  0  0  0  0  0  0  0
    6.7733   -9.2891    2.4400 C   0  0  0  0  0  0  0  0  0  0  0  0
    5.8438  -10.5529    2.1579 C   0  0  1  0  0  0  0  0  0  0  0  0
    6.7766  -11.7931    2.1051 C   0  0  0  0  0  0  0  0  0  0  0  0
    7.5684  -12.0898    3.4047 C   0  0  0  0  0  0  0  0  0  0  0  0
    6.8145  -11.9730    4.7469 C   0  0  0  0  0  0  0  0  0  0  0  0
    6.2572  -10.5739    5.1091 C   0  0  0  0  0  0  0  0  0  0  0  0
    4.9249  -10.0890    4.4229 C   0  0  1  0  0  0  0  0  0  0  0  0
    3.7995  -10.3987    5.4651 C   0  0  0  0  0  0  0  0  0  0  0  0
    2.3550  -10.1701    5.0327 C   0  0  0  0  0  0  0  0  0  0  0  0
    2.1165  -10.6661    3.6342 N   0  0  1  0  0  0  0  0  0  0  0  0
    0.6855  -10.5384    3.1745 C   0  0  0  0  0  0  0  0  0  0  0  0
   -0.0527   -9.2620    3.6215 C   0  0  0  0  0  0  0  0  0  0  0  0
   -1.3664   -8.8102    3.0112 C   0  0  0  0  0  0  0  0  0  0  0  0
   -0.1316   -8.0539    2.7151 C   0  0  0  0  0  0  0  0  0  0  0  0
    3.1779  -10.1957    2.6569 C   0  0  1  0  0  0  0  0  0  0  0  0
    3.0770   -8.6437    2.5906 C   0  0  0  0  0  0  0  0  0  0  0  0
    4.5822  -10.7803    3.0939 C   0  0  1  0  0  0  0  0  0  0  0  0
    4.2860  -12.1796    3.1933 O   0  0  0  0  0  0  0  0  0  0  0  0
    8.0933   -6.9824    2.2609 H   0  0  0  0  0  0  0  0  0  0  0  0
    5.3094   -4.8750    3.0362 H   0  0  0  0  0  0  0  0  0  0  0  0
    3.0928   -5.9099    3.3328 H   0  0  0  0  0  0  0  0  0  0  0  0
    7.0900   -8.8839    1.4743 H   0  0  0  0  0  0  0  0  0  0  0  0
    7.6969   -9.5597    2.9478 H   0  0  0  0  0  0  0  0  0  0  0  0
    5.4374  -10.4152    1.1548 H   0  0  0  0  0  0  0  0  0  0  0  0
    6.2308  -12.6748    1.7725 H   0  0  0  0  0  0  0  0  0  0  0  0
    7.4969  -11.6132    1.3107 H   0  0  0  0  0  0  0  0  0  0  0  0
    7.9531  -13.1026    3.3210 H   0  0  0  0  0  0  0  0  0  0  0  0
    8.4624  -11.4674    3.4508 H   0  0  0  0  0  0  0  0  0  0  0  0
    6.0492  -12.7406    4.8399 H   0  0  0  0  0  0  0  0  0  0  0  0
    7.5366  -12.2101    5.5212 H   0  0  0  0  0  0  0  0  0  0  0  0
    6.0727  -10.5616    6.1781 H   0  0  0  0  0  0  0  0  0  0  0  0
    7.0384   -9.8311    5.0206 H   0  0  0  0  0  0  0  0  0  0  0  0
    3.8801  -11.4491    5.7672 H   0  0  0  0  0  0  0  0  0  0  0  0
    3.9489   -9.8063    6.3579 H   0  0  0  0  0  0  0  0  0  0  0  0
    1.6704  -10.6862    5.7036 H   0  0  0  0  0  0  0  0  0  0  0  0
    2.1180   -9.1147    5.1005 H   0  0  0  0  0  0  0  0  0  0  0  0
    0.6123  -10.6609    2.0957 H   0  0  0  0  0  0  0  0  0  0  0  0
    0.1607  -11.3629    3.6318 H   0  0  0  0  0  0  0  0  0  0  0  0
   -0.0266   -9.0740    4.7095 H   0  0  0  0  0  0  0  0  0  0  0  0
   -1.8248   -9.4194    2.2254 H   0  0  0  0  0  0  0  0  0  0  0  0
   -2.1006   -8.3453    3.6732 H   0  0  0  0  0  0  0  0  0  0  0  0
    0.0700   -7.1048    3.2135 H   0  0  0  0  0  0  0  0  0  0  0  0
    0.3240   -8.1405    1.7076 H   0  0  0  0  0  0  0  0  0  0  0  0
    2.9049  -10.6344    1.6984 H   0  0  0  0  0  0  0  0  0  0  0  0
    2.0598   -8.3040    2.6501 H   0  0  0  0  0  0  0  0  0  0  0  0
    3.5007   -8.3556    1.6185 H   0  0  0  0  0  0  0  0  0  0  0  0
    4.2303  -12.5094    2.2982 H   0  0  0  0  0  0  0  0  0  0  0  0
    2.2927  -11.6748    3.6931 H   0  0  0  0  0  0  0  0  0  0  0  0
  1  2  1  0
  1 26  1  0
  2  7  2  0
  2  3  1  0
  3  4  2  0
  3 27  1  0
  4  5  1  0
  4 28  1  0
  5 23  1  0
  5  6  2  0
  6 14  1  0
  6  7  1  0
  7  8  1  0
  8  9  1  0
  8 29  1  0
  8 30  1  0
  9 24  1  0
  9 10  1  0
  9 31  1  6
 10 11  1  0
 10 32  1  0
 10 33  1  0
 11 12  1  0
 11 34  1  0
 11 35  1  0
 12 13  1  0
 12 36  1  0
 12 37  1  0
 14 13  1  1
 13 38  1  0
 13 39  1  0
 14 24  1  0
 14 15  1  0
 15 16  1  0
 15 40  1  0
 15 41  1  0
 16 17  1  0
 16 42  1  0
 16 43  1  0
 17 18  1  0
 17 22  1  0
 17 55  1  1
 18 19  1  0
 18 44  1  0
 18 45  1  0
 19 21  1  0
 19 20  1  0
 19 46  1  0
 20 21  1  0
 20 47  1  0
 20 48  1  0
 21 49  1  0
 21 50  1  0
 22 23  1  0
 22 24  1  0
 22 51  1  6
 23 52  1  0
 23 53  1  0
 24 25  1  1
 25 54  1  0
M  CHG  1  17   1
M  END
>  <i_m_ct_stereo_status>  (120) 
1

>  <s_m_source_file>  (120) 
/var/tmp/pbs.5076255.sched01/tmppv1df_bs/0l6e7d74h.sdf

>  <i_m_source_file_index>  (120) 
45

>  <i_lp_mmshare_version>  (120) 
48012

>  <i_f3d_flags>  (120) 
0

>  <s_epik_input>  (120) 
W0NAXTEyM2M0YzVbY0hdW2NIXWMoW09IXSljNFtDSDJdW0NAQEhdKFtDSDJdW0NIMl1bQ0gyXVtDSDJdMSlbQ0BdMyhbT0hdKVtDQEhdKFtDSDJdNSlOKFtDSDJdW0NIMl0yKVtDSDJdW0NIXTZbQ0gyXVtDSDJdNg==

>  <s_epik_cmdline>  (120) 
J2VwaWtfcHl0aG9uJywgJy1waHQnLCAnMi4wJywgJy1waCcsICc3LjAnLCAnLXRuJywgJzgnLCAnLW1hJywgJzIwMCcsICctaW1hZScsICc8aW5maWxlLm1hZT4nLCAnLW9tYWUnLCAnPG91dGZpbGUubWFlPic=

>  <r_lp_tautomer_probability>  (120) 
1

>  <r_epik_Ionization_Penalty>  (120) 
0.0148258

>  <r_epik_Ionization_Penalty_Charging>  (120) 
0.0144368

>  <r_epik_Ionization_Penalty_Neutral>  (120) 
0.00038897

>  <r_epik_State_Penalty>  (120) 
0.011292

>  <r_epik_Charging_Adjusted_Penalty>  (120) 
0.0257288

>  <i_epik_Tot_Q>  (120) 
1

>  <i_epik_Tot_abs_Q>  (120) 
1

>  <s_lp_Force_Field>  (120) 
OPLS3e

>  <r_lp_Energy>  (120) 
144.714

>  <b_lp_Chiralities_Consistent>  (120) 
1

>  <s_lp_Variant>  (120) 
31:0-1

>  <s_i_glide_gridfile>  (120) 
pfpi4k_grid

>  <i_i_glide_lignum>  (120) 
45

>  <i_i_glide_rotatable_bonds>  (120) 
4

>  <r_i_docking_score>  (120) 
-3.11882

>  <r_i_glide_ligand_efficiency>  (120) 
-0.124753

>  <r_i_glide_ligand_efficiency_sa>  (120) 
-0.364779

>  <r_i_glide_ligand_efficiency_ln>  (120) 
-0.739253

>  <r_i_glide_gscore>  (120) 
-3.11882

>  <r_i_glide_lipo>  (120) 
-0.143544

>  <r_i_glide_hbond>  (120) 
-0.159637

>  <r_i_glide_metal>  (120) 
-0

>  <r_i_glide_rewards>  (120) 
-1.08764

>  <r_i_glide_evdw>  (120) 
-24.0236

>  <r_i_glide_ecoul>  (120) 
-5.69024

>  <r_i_glide_erotb>  (120) 
0.326723

>  <r_i_glide_esite>  (120) 
0

>  <r_i_glide_emodel>  (120) 
-32.912

>  <r_i_glide_energy>  (120) 
-29.7139

>  <r_i_glide_einternal>  (120) 
5.72493

>  <r_i_glide_intrahb_reward>  (120) 
-0

>  <i_i_glide_confnum>  (120) 
2

>  <i_i_glide_posenum>  (120) 
9

>  <r_i_glide_eff_state_penalty>  (120) 
0

>  <ligand_id>  (120) 
31

>  <original_smiles>  (120) 
Oc1ccc2c3c1CC1CCCCC34CCN(CC3CC3)C(C2)C14O

>  <smiles>  (120) 
[H]Oc1c([H])c([H])c2c3c1C([H])([H])C1([H])C([H])([H])C([H])([H])C([H])([H])C([H])([H])C34C([H])([H])C([H])([H])[N+]([H])(C([H])([H])C3([H])C([H])([H])C3([H])[H])C([H])(C2([H])[H])C14O[H]

$$$$
31:0:2
     RDKit          3D

 55 60  0  0  1  0  0  0  0  0999 V2000
    5.8148   -3.4088    5.6874 O   0  0  0  0  0  0  0  0  0  0  0  0
    5.4190   -4.6122    5.1816 C   0  0  0  0  0  0  0  0  0  0  0  0
    5.3100   -5.7179    6.0332 C   0  0  0  0  0  0  0  0  0  0  0  0
    4.5519   -6.8227    5.6192 C   0  0  0  0  0  0  0  0  0  0  0  0
    4.0655   -6.8840    4.2939 C   0  0  0  0  0  0  0  0  0  0  0  0
    4.6386   -5.9996    3.3659 C   0  0  0  0  0  0  0  0  0  0  0  0
    4.9696   -4.7258    3.8477 C   0  0  0  0  0  0  0  0  0  0  0  0
    4.2841   -3.6288    3.0415 C   0  0  0  0  0  0  0  0  0  0  0  0
    3.0578   -4.0612    2.1343 C   0  0  1  0  0  0  0  0  0  0  0  0
    3.0850   -3.1372    0.8888 C   0  0  0  0  0  0  0  0  0  0  0  0
    4.3542   -3.2122    0.0091 C   0  0  0  0  0  0  0  0  0  0  0  0
    4.9327   -4.6138   -0.2791 C   0  0  0  0  0  0  0  0  0  0  0  0
    5.3990   -5.4412    0.9509 C   0  0  0  0  0  0  0  0  0  0  0  0
    4.3302   -6.1731    1.8482 C   0  0  1  0  0  0  0  0  0  0  0  0
    4.3290   -7.6586    1.3564 C   0  0  0  0  0  0  0  0  0  0  0  0
    3.2413   -8.5927    1.9137 C   0  0  0  0  0  0  0  0  0  0  0  0
    1.9272   -7.9164    1.9751 N   0  0  1  0  0  0  0  0  0  0  0  0
    0.8421   -8.7972    2.4797 C   0  0  0  0  0  0  0  0  0  0  0  0
   -0.5326   -8.2528    2.1405 C   0  0  0  0  0  0  0  0  0  0  0  0
   -1.3885   -7.6347    3.2180 C   0  0  0  0  0  0  0  0  0  0  0  0
   -1.7567   -8.9731    2.6422 C   0  0  0  0  0  0  0  0  0  0  0  0
    2.0298   -6.5735    2.6550 C   0  0  1  0  0  0  0  0  0  0  0  0
    2.5497   -6.8108    4.1008 C   0  0  0  0  0  0  0  0  0  0  0  0
    2.9173   -5.6061    1.7689 C   0  0  1  0  0  0  0  0  0  0  0  0
    2.3067   -5.7542    0.4847 O   0  0  0  0  0  0  0  0  0  0  0  0
    5.7680   -2.7118    5.0563 H   0  0  0  0  0  0  0  0  0  0  0  0
    5.6258   -5.6405    7.0645 H   0  0  0  0  0  0  0  0  0  0  0  0
    4.1650   -7.5055    6.3643 H   0  0  0  0  0  0  0  0  0  0  0  0
    3.9354   -2.8598    3.7324 H   0  0  0  0  0  0  0  0  0  0  0  0
    5.0724   -3.1340    2.4754 H   0  0  0  0  0  0  0  0  0  0  0  0
    2.1541   -3.8185    2.6890 H   0  0  0  0  0  0  0  0  0  0  0  0
    2.1936   -3.2672    0.2732 H   0  0  0  0  0  0  0  0  0  0  0  0
    3.0093   -2.1080    1.2444 H   0  0  0  0  0  0  0  0  0  0  0  0
    4.1169   -2.7331   -0.9406 H   0  0  0  0  0  0  0  0  0  0  0  0
    5.1424   -2.5828    0.4284 H   0  0  0  0  0  0  0  0  0  0  0  0
    4.2823   -5.1893   -0.9337 H   0  0  0  0  0  0  0  0  0  0  0  0
    5.8129   -4.4375   -0.8941 H   0  0  0  0  0  0  0  0  0  0  0  0
    6.0854   -6.1968    0.5804 H   0  0  0  0  0  0  0  0  0  0  0  0
    6.0893   -4.8382    1.5381 H   0  0  0  0  0  0  0  0  0  0  0  0
    4.2131   -7.6416    0.2735 H   0  0  0  0  0  0  0  0  0  0  0  0
    5.2987   -8.1190    1.5277 H   0  0  0  0  0  0  0  0  0  0  0  0
    3.1640   -9.4801    1.2773 H   0  0  0  0  0  0  0  0  0  0  0  0
    3.5343   -8.9777    2.8899 H   0  0  0  0  0  0  0  0  0  0  0  0
    0.9235   -9.7625    1.9722 H   0  0  0  0  0  0  0  0  0  0  0  0
    0.8896   -9.0510    3.5464 H   0  0  0  0  0  0  0  0  0  0  0  0
   -0.6241   -7.8657    1.1189 H   0  0  0  0  0  0  0  0  0  0  0  0
   -0.9823   -7.6126    4.2302 H   0  0  0  0  0  0  0  0  0  0  0  0
   -1.9956   -6.7823    2.9308 H   0  0  0  0  0  0  0  0  0  0  0  0
   -2.6230   -9.0055    1.9887 H   0  0  0  0  0  0  0  0  0  0  0  0
   -1.6239   -9.8484    3.2790 H   0  0  0  0  0  0  0  0  0  0  0  0
    1.0229   -6.1586    2.6944 H   0  0  0  0  0  0  0  0  0  0  0  0
    2.1132   -7.6891    4.5780 H   0  0  0  0  0  0  0  0  0  0  0  0
    2.2002   -5.9645    4.6912 H   0  0  0  0  0  0  0  0  0  0  0  0
    2.8832   -5.3495   -0.1441 H   0  0  0  0  0  0  0  0  0  0  0  0
    1.7188   -7.6871    1.0107 H   0  0  0  0  0  0  0  0  0  0  0  0
  1  2  1  0
  1 26  1  0
  2  7  2  0
  2  3  1  0
  3  4  2  0
  3 27  1  0
  4  5  1  0
  4 28  1  0
  5 23  1  0
  5  6  2  0
  6 14  1  0
  6  7  1  0
  7  8  1  0
  8  9  1  0
  8 29  1  0
  8 30  1  0
  9 24  1  0
  9 10  1  0
  9 31  1  1
 10 11  1  0
 10 32  1  0
 10 33  1  0
 11 12  1  0
 11 34  1  0
 11 35  1  0
 12 13  1  0
 12 36  1  0
 12 37  1  0
 14 13  1  6
 13 38  1  0
 13 39  1  0
 14 24  1  0
 14 15  1  0
 15 16  1  0
 15 40  1  0
 15 41  1  0
 16 17  1  0
 16 42  1  0
 16 43  1  0
 17 18  1  0
 17 22  1  0
 17 55  1  6
 18 19  1  0
 18 44  1  0
 18 45  1  0
 19 21  1  0
 19 20  1  0
 19 46  1  0
 20 21  1  0
 20 47  1  0
 20 48  1  0
 21 49  1  0
 21 50  1  0
 22 23  1  0
 22 24  1  0
 22 51  1  1
 23 52  1  0
 23 53  1  0
 24 25  1  6
 25 54  1  0
M  CHG  1  17   1
M  END
>  <i_m_ct_stereo_status>  (121) 
1

>  <s_m_source_file>  (121) 
/var/tmp/pbs.5076255.sched01/tmppv1df_bs/0l6e7d74h.sdf

>  <i_m_source_file_index>  (121) 
45

>  <i_lp_mmshare_version>  (121) 
48012

>  <i_f3d_flags>  (121) 
0

>  <s_epik_input>  (121) 
W0NAXTEyM2M0YzVbY0hdW2NIXWMoW09IXSljNFtDSDJdW0NAQEhdKFtDSDJdW0NIMl1bQ0gyXVtDSDJdMSlbQ0BdMyhbT0hdKVtDQEhdKFtDSDJdNSlOKFtDSDJdW0NIMl0yKVtDSDJdW0NIXTZbQ0gyXVtDSDJdNg==

>  <s_epik_cmdline>  (121) 
J2VwaWtfcHl0aG9uJywgJy1waHQnLCAnMi4wJywgJy1waCcsICc3LjAnLCAnLXRuJywgJzgnLCAnLW1hJywgJzIwMCcsICctaW1hZScsICc8aW5maWxlLm1hZT4nLCAnLW9tYWUnLCAnPG91dGZpbGUubWFlPic=

>  <r_lp_tautomer_probability>  (121) 
1

>  <r_epik_Ionization_Penalty>  (121) 
0.0148258

>  <r_epik_Ionization_Penalty_Charging>  (121) 
0.0144368

>  <r_epik_Ionization_Penalty_Neutral>  (121) 
0.00038897

>  <r_epik_State_Penalty>  (121) 
0.011292

>  <r_epik_Charging_Adjusted_Penalty>  (121) 
0.0257288

>  <i_epik_Tot_Q>  (121) 
1

>  <i_epik_Tot_abs_Q>  (121) 
1

>  <s_lp_Force_Field>  (121) 
OPLS3e

>  <r_lp_Energy>  (121) 
144.714

>  <b_lp_Chiralities_Consistent>  (121) 
1

>  <s_lp_Variant>  (121) 
31:0-1

>  <s_i_glide_gridfile>  (121) 
pfpi4k_grid

>  <i_i_glide_lignum>  (121) 
45

>  <i_i_glide_rotatable_bonds>  (121) 
4

>  <r_i_docking_score>  (121) 
-2.95995

>  <r_i_glide_ligand_efficiency>  (121) 
-0.118398

>  <r_i_glide_ligand_efficiency_sa>  (121) 
-0.346198

>  <r_i_glide_ligand_efficiency_ln>  (121) 
-0.701598

>  <r_i_glide_gscore>  (121) 
-2.95995

>  <r_i_glide_lipo>  (121) 
-0.33764

>  <r_i_glide_hbond>  (121) 
0

>  <r_i_glide_metal>  (121) 
-0

>  <r_i_glide_rewards>  (121) 
-1.08764

>  <r_i_glide_evdw>  (121) 
-24.3511

>  <r_i_glide_ecoul>  (121) 
-4.15298

>  <r_i_glide_erotb>  (121) 
0.326723

>  <r_i_glide_esite>  (121) 
-0.0208936

>  <r_i_glide_emodel>  (121) 
-34.9007

>  <r_i_glide_energy>  (121) 
-28.5041

>  <r_i_glide_einternal>  (121) 
2.13588

>  <r_i_glide_intrahb_reward>  (121) 
-0

>  <i_i_glide_confnum>  (121) 
2

>  <i_i_glide_posenum>  (121) 
3

>  <r_i_glide_eff_state_penalty>  (121) 
0

>  <ligand_id>  (121) 
31

>  <original_smiles>  (121) 
Oc1ccc2c3c1CC1CCCCC34CCN(CC3CC3)C(C2)C14O

>  <smiles>  (121) 
[H]Oc1c([H])c([H])c2c3c1C([H])([H])C1([H])C([H])([H])C([H])([H])C([H])([H])C([H])([H])C34C([H])([H])C([H])([H])[N+]([H])(C([H])([H])C3([H])C([H])([H])C3([H])[H])C([H])(C2([H])[H])C14O[H]

$$$$
31:1:0
     RDKit          3D

 54 59  0  0  1  0  0  0  0  0999 V2000
    7.1815   -1.4254    0.6179 O   0  0  0  0  0  0  0  0  0  0  0  0
    5.9297   -1.8510    0.9674 C   0  0  0  0  0  0  0  0  0  0  0  0
    4.8150   -1.0289    0.7336 C   0  0  0  0  0  0  0  0  0  0  0  0
    3.5346   -1.6152    0.7580 C   0  0  0  0  0  0  0  0  0  0  0  0
    3.3627   -2.9445    1.2253 C   0  0  0  0  0  0  0  0  0  0  0  0
    4.4484   -3.5183    1.9088 C   0  0  0  0  0  0  0  0  0  0  0  0
    5.7387   -3.1520    1.4853 C   0  0  0  0  0  0  0  0  0  0  0  0
    6.5270   -4.3900    1.0790 C   0  0  0  0  0  0  0  0  0  0  0  0
    5.7190   -5.7408    0.8743 C   0  0  1  0  0  0  0  0  0  0  0  0
    6.6757   -6.8813    1.3188 C   0  0  0  0  0  0  0  0  0  0  0  0
    7.1406   -6.8457    2.7985 C   0  0  0  0  0  0  0  0  0  0  0  0
    6.0945   -6.4873    3.8801 C   0  0  0  0  0  0  0  0  0  0  0  0
    5.4218   -5.0920    3.7674 C   0  0  0  0  0  0  0  0  0  0  0  0
    4.2785   -4.8637    2.6936 C   0  0  1  0  0  0  0  0  0  0  0  0
    2.9427   -5.0062    3.4970 C   0  0  0  0  0  0  0  0  0  0  0  0
    1.6489   -4.9454    2.6872 C   0  0  0  0  0  0  0  0  0  0  0  0
    1.6926   -5.6984    1.4273 N   0  0  0  0  0  0  0  0  0  0  0  0
    1.1468   -7.0497    1.4734 C   0  0  0  0  0  0  0  0  0  0  0  0
   -0.3273   -7.0797    1.8142 C   0  0  0  0  0  0  0  0  0  0  0  0
   -0.7771   -7.3917    3.2215 C   0  0  0  0  0  0  0  0  0  0  0  0
   -1.0045   -8.3943    2.1187 C   0  0  0  0  0  0  0  0  0  0  0  0
    2.9600   -5.4891    0.6972 C   0  0  1  0  0  0  0  0  0  0  0  0
    2.8737   -4.0118    0.2354 C   0  0  0  0  0  0  0  0  0  0  0  0
    4.2736   -5.8436    1.5289 C   0  0  1  0  0  0  0  0  0  0  0  0
    4.0545   -7.1945    1.9014 O   0  0  0  0  0  0  0  0  0  0  0  0
    7.3455   -0.5293    0.8810 H   0  0  0  0  0  0  0  0  0  0  0  0
    4.9346   -0.0399    0.3089 H   0  0  0  0  0  0  0  0  0  0  0  0
    2.7293   -1.1249    0.2311 H   0  0  0  0  0  0  0  0  0  0  0  0
    7.0663   -4.1645    0.1591 H   0  0  0  0  0  0  0  0  0  0  0  0
    7.3138   -4.4769    1.8235 H   0  0  0  0  0  0  0  0  0  0  0  0
    5.5588   -5.8484   -0.1986 H   0  0  0  0  0  0  0  0  0  0  0  0
    6.2570   -7.8571    1.0849 H   0  0  0  0  0  0  0  0  0  0  0  0
    7.5750   -6.8252    0.7069 H   0  0  0  0  0  0  0  0  0  0  0  0
    7.5442   -7.8303    3.0337 H   0  0  0  0  0  0  0  0  0  0  0  0
    7.9988   -6.1808    2.9053 H   0  0  0  0  0  0  0  0  0  0  0  0
    5.3522   -7.2731    3.9893 H   0  0  0  0  0  0  0  0  0  0  0  0
    6.6276   -6.5005    4.8297 H   0  0  0  0  0  0  0  0  0  0  0  0
    5.0035   -4.8681    4.7472 H   0  0  0  0  0  0  0  0  0  0  0  0
    6.1943   -4.3315    3.7092 H   0  0  0  0  0  0  0  0  0  0  0  0
    2.9608   -5.9729    4.0042 H   0  0  0  0  0  0  0  0  0  0  0  0
    2.8941   -4.2675    4.2951 H   0  0  0  0  0  0  0  0  0  0  0  0
    0.8344   -5.2791    3.3225 H   0  0  0  0  0  0  0  0  0  0  0  0
    1.4187   -3.8978    2.4915 H   0  0  0  0  0  0  0  0  0  0  0  0
    1.2407   -7.5067    0.4922 H   0  0  0  0  0  0  0  0  0  0  0  0
    1.6852   -7.6724    2.1863 H   0  0  0  0  0  0  0  0  0  0  0  0
   -0.9259   -6.3712    1.2482 H   0  0  0  0  0  0  0  0  0  0  0  0
    0.0142   -7.5855    3.9440 H   0  0  0  0  0  0  0  0  0  0  0  0
   -1.6367   -6.8454    3.6055 H   0  0  0  0  0  0  0  0  0  0  0  0
   -2.0270   -8.5361    1.7785 H   0  0  0  0  0  0  0  0  0  0  0  0
   -0.3788   -9.2841    2.0961 H   0  0  0  0  0  0  0  0  0  0  0  0
    2.9374   -6.1004   -0.2058 H   0  0  0  0  0  0  0  0  0  0  0  0
    1.8470   -3.7783   -0.0680 H   0  0  0  0  0  0  0  0  0  0  0  0
    3.4598   -3.9064   -0.6782 H   0  0  0  0  0  0  0  0  0  0  0  0
    4.0706   -7.7310    1.1236 H   0  0  0  0  0  0  0  0  0  0  0  0
  1  2  1  0
  1 26  1  0
  2  7  2  0
  2  3  1  0
  3  4  2  0
  3 27  1  0
  4  5  1  0
  4 28  1  0
  5 23  1  0
  5  6  2  0
  6 14  1  0
  6  7  1  0
  7  8  1  0
  8  9  1  0
  8 29  1  0
  8 30  1  0
  9 24  1  0
  9 10  1  0
  9 31  1  6
 10 11  1  0
 10 32  1  0
 10 33  1  0
 11 12  1  0
 11 34  1  0
 11 35  1  0
 12 13  1  0
 12 36  1  0
 12 37  1  0
 14 13  1  1
 13 38  1  0
 13 39  1  0
 14 24  1  0
 14 15  1  0
 15 16  1  0
 15 40  1  0
 15 41  1  0
 16 17  1  0
 16 42  1  0
 16 43  1  0
 17 18  1  0
 17 22  1  0
 18 19  1  0
 18 44  1  0
 18 45  1  0
 19 21  1  0
 19 20  1  0
 19 46  1  0
 20 21  1  0
 20 47  1  0
 20 48  1  0
 21 49  1  0
 21 50  1  0
 22 23  1  0
 22 24  1  0
 22 51  1  6
 23 52  1  0
 23 53  1  0
 24 25  1  1
 25 54  1  0
M  END
>  <i_m_ct_stereo_status>  (122) 
1

>  <s_m_source_file>  (122) 
/var/tmp/pbs.5076255.sched01/tmp323fbwsu/45qgza_o8k.sdf

>  <i_m_source_file_index>  (122) 
1

>  <i_lp_mmshare_version>  (122) 
48012

>  <i_f3d_flags>  (122) 
0

>  <s_epik_input>  (122) 
W0NAXTEyM2M0YzVbY0hdW2NIXWMoW09IXSljNFtDSDJdW0NAQEhdKFtDSDJdW0NIMl1bQ0gyXVtDSDJdMSlbQ0BdMyhbT0hdKVtDQEhdKFtDSDJdNSlOKFtDSDJdW0NIMl0yKVtDSDJdW0NIXTZbQ0gyXVtDSDJdNg==

>  <s_epik_cmdline>  (122) 
J2VwaWtfcHl0aG9uJywgJy1waHQnLCAnMi4wJywgJy1waCcsICc3LjAnLCAnLXRuJywgJzgnLCAnLW1hJywgJzIwMCcsICctaW1hZScsICc8aW5maWxlLm1hZT4nLCAnLW9tYWUnLCAnPG91dGZpbGUubWFlPic=

>  <r_lp_tautomer_probability>  (122) 
1

>  <r_epik_Ionization_Penalty>  (122) 
2.20804

>  <r_epik_Ionization_Penalty_Charging>  (122) 
0

>  <r_epik_Ionization_Penalty_Neutral>  (122) 
2.20804

>  <r_epik_State_Penalty>  (122) 
2.35202

>  <r_epik_Charging_Adjusted_Penalty>  (122) 
2.35202

>  <i_epik_Tot_Q>  (122) 
0

>  <i_epik_Tot_abs_Q>  (122) 
0

>  <s_lp_Force_Field>  (122) 
OPLS3e

>  <r_lp_Energy>  (122) 
152.324

>  <b_lp_Chiralities_Consistent>  (122) 
1

>  <s_lp_Variant>  (122) 
31:0-2

>  <s_i_glide_gridfile>  (122) 
pfpi4k_grid

>  <i_i_glide_lignum>  (122) 
1

>  <i_i_glide_rotatable_bonds>  (122) 
4

>  <r_i_docking_score>  (122) 
-3.59844

>  <r_i_glide_ligand_efficiency>  (122) 
-0.143938

>  <r_i_glide_ligand_efficiency_sa>  (122) 
-0.420876

>  <r_i_glide_ligand_efficiency_ln>  (122) 
-0.852938

>  <r_i_glide_gscore>  (122) 
-3.59844

>  <r_i_glide_lipo>  (122) 
-0.627927

>  <r_i_glide_hbond>  (122) 
-0.346498

>  <r_i_glide_metal>  (122) 
-0

>  <r_i_glide_rewards>  (122) 
-1.09451

>  <r_i_glide_evdw>  (122) 
-21.2071

>  <r_i_glide_ecoul>  (122) 
-5.31727

>  <r_i_glide_erotb>  (122) 
0.328445

>  <r_i_glide_esite>  (122) 
0

>  <r_i_glide_emodel>  (122) 
-30.621

>  <r_i_glide_energy>  (122) 
-26.5244

>  <r_i_glide_einternal>  (122) 
1.57413

>  <r_i_glide_intrahb_reward>  (122) 
-0

>  <i_i_glide_confnum>  (122) 
3

>  <i_i_glide_posenum>  (122) 
22

>  <r_i_glide_eff_state_penalty>  (122) 
0

>  <ligand_id>  (122) 
31

>  <original_smiles>  (122) 
Oc1ccc2c3c1CC1CCCCC34CCN(CC3CC3)C(C2)C14O

>  <smiles>  (122) 
[H]Oc1c([H])c([H])c2c3c1C([H])([H])C1([H])C([H])([H])C([H])([H])C([H])([H])C([H])([H])C34C([H])([H])C([H])([H])N(C([H])([H])C3([H])C([H])([H])C3([H])[H])C([H])(C2([H])[H])C14O[H]

$$$$
31:1:1
     RDKit          3D

 54 59  0  0  1  0  0  0  0  0999 V2000
    7.4048   -1.8551    0.1416 O   0  0  0  0  0  0  0  0  0  0  0  0
    6.1370   -2.1654    0.5414 C   0  0  0  0  0  0  0  0  0  0  0  0
    5.0665   -1.3287    0.1784 C   0  0  0  0  0  0  0  0  0  0  0  0
    3.7661   -1.8645    0.2154 C   0  0  0  0  0  0  0  0  0  0  0  0
    3.5220   -3.1214    0.8223 C   0  0  0  0  0  0  0  0  0  0  0  0
    4.5537   -3.6516    1.6207 C   0  0  0  0  0  0  0  0  0  0  0  0
    5.8733   -3.3815    1.2143 C   0  0  0  0  0  0  0  0  0  0  0  0
    6.6228   -4.6867    0.9790 C   0  0  0  0  0  0  0  0  0  0  0  0
    5.7701   -6.0197    0.8923 C   0  0  1  0  0  0  0  0  0  0  0  0
    6.6646   -7.1391    1.4953 C   0  0  0  0  0  0  0  0  0  0  0  0
    7.0737   -6.9560    2.9817 C   0  0  0  0  0  0  0  0  0  0  0  0
    6.0026   -6.4393    3.9724 C   0  0  0  0  0  0  0  0  0  0  0  0
    5.3926   -5.0405    3.6768 C   0  0  0  0  0  0  0  0  0  0  0  0
    4.3000   -4.8935    2.5406 C   0  0  1  0  0  0  0  0  0  0  0  0
    2.9327   -4.9050    3.2994 C   0  0  0  0  0  0  0  0  0  0  0  0
    1.6697   -4.8964    2.4360 C   0  0  0  0  0  0  0  0  0  0  0  0
    1.7293   -5.7800    1.2660 N   0  0  0  0  0  0  0  0  0  0  0  0
    1.1298   -7.0990    1.4275 C   0  0  0  0  0  0  0  0  0  0  0  0
   -0.3459   -7.0481    1.7568 C   0  0  0  0  0  0  0  0  0  0  0  0
   -0.8155   -7.2771    3.1746 C   0  0  0  0  0  0  0  0  0  0  0  0
   -1.0821   -8.3161    2.1160 C   0  0  0  0  0  0  0  0  0  0  0  0
    3.0339   -5.6888    0.5738 C   0  0  1  0  0  0  0  0  0  0  0  0
    3.0199   -4.2751   -0.0549 C   0  0  0  0  0  0  0  0  0  0  0  0
    4.2986   -5.9975    1.4931 C   0  0  1  0  0  0  0  0  0  0  0  0
    4.0144   -7.2913    2.0006 O   0  0  0  0  0  0  0  0  0  0  0  0
    8.0363   -2.4839    0.4496 H   0  0  0  0  0  0  0  0  0  0  0  0
    5.2426   -0.4008   -0.3537 H   0  0  0  0  0  0  0  0  0  0  0  0
    3.0081   -1.4090   -0.4058 H   0  0  0  0  0  0  0  0  0  0  0  0
    7.2071   -4.5936    0.0621 H   0  0  0  0  0  0  0  0  0  0  0  0
    7.3808   -4.7188    1.7589 H   0  0  0  0  0  0  0  0  0  0  0  0
    5.6389   -6.2400   -0.1670 H   0  0  0  0  0  0  0  0  0  0  0  0
    6.2175   -8.1207    1.3501 H   0  0  0  0  0  0  0  0  0  0  0  0
    7.5865   -7.1882    0.9152 H   0  0  0  0  0  0  0  0  0  0  0  0
    7.4286   -7.9209    3.3434 H   0  0  0  0  0  0  0  0  0  0  0  0
    7.9528   -6.3140    3.0511 H   0  0  0  0  0  0  0  0  0  0  0  0
    5.2240   -7.1800    4.1369 H   0  0  0  0  0  0  0  0  0  0  0  0
    6.4982   -6.3644    4.9383 H   0  0  0  0  0  0  0  0  0  0  0  0
    4.9508   -4.6894    4.6087 H   0  0  0  0  0  0  0  0  0  0  0  0
    6.1996   -4.3260    3.5588 H   0  0  0  0  0  0  0  0  0  0  0  0
    2.8922   -5.8092    3.9119 H   0  0  0  0  0  0  0  0  0  0  0  0
    2.8795   -4.0749    4.0025 H   0  0  0  0  0  0  0  0  0  0  0  0
    0.8156   -5.1250    3.0703 H   0  0  0  0  0  0  0  0  0  0  0  0
    1.4964   -3.8672    2.1201 H   0  0  0  0  0  0  0  0  0  0  0  0
    1.2153   -7.6443    0.4904 H   0  0  0  0  0  0  0  0  0  0  0  0
    1.6378   -7.6745    2.1963 H   0  0  0  0  0  0  0  0  0  0  0  0
   -0.9061   -6.3356    1.1584 H   0  0  0  0  0  0  0  0  0  0  0  0
   -0.0435   -7.4822    3.9148 H   0  0  0  0  0  0  0  0  0  0  0  0
   -1.6571   -6.6864    3.5312 H   0  0  0  0  0  0  0  0  0  0  0  0
   -2.1082   -8.4263    1.7725 H   0  0  0  0  0  0  0  0  0  0  0  0
   -0.4983   -9.2340    2.1349 H   0  0  0  0  0  0  0  0  0  0  0  0
    3.0340   -6.3844   -0.2587 H   0  0  0  0  0  0  0  0  0  0  0  0
    2.0121   -4.0432   -0.4225 H   0  0  0  0  0  0  0  0  0  0  0  0
    3.6415   -4.2936   -0.9521 H   0  0  0  0  0  0  0  0  0  0  0  0
    4.0455   -7.9159    1.2904 H   0  0  0  0  0  0  0  0  0  0  0  0
  1  2  1  0
  1 26  1  0
  2  7  2  0
  2  3  1  0
  3  4  2  0
  3 27  1  0
  4  5  1  0
  4 28  1  0
  5 23  1  0
  5  6  2  0
  6 14  1  0
  6  7  1  0
  7  8  1  0
  8  9  1  0
  8 29  1  0
  8 30  1  0
  9 24  1  0
  9 10  1  0
  9 31  1  6
 10 11  1  0
 10 32  1  0
 10 33  1  0
 11 12  1  0
 11 34  1  0
 11 35  1  0
 12 13  1  0
 12 36  1  0
 12 37  1  0
 14 13  1  1
 13 38  1  0
 13 39  1  0
 14 24  1  0
 14 15  1  0
 15 16  1  0
 15 40  1  0
 15 41  1  0
 16 17  1  0
 16 42  1  0
 16 43  1  0
 17 18  1  0
 17 22  1  0
 18 19  1  0
 18 44  1  0
 18 45  1  0
 19 21  1  0
 19 20  1  0
 19 46  1  0
 20 21  1  0
 20 47  1  0
 20 48  1  0
 21 49  1  0
 21 50  1  0
 22 23  1  0
 22 24  1  0
 22 51  1  6
 23 52  1  0
 23 53  1  0
 24 25  1  1
 25 54  1  0
M  END
>  <i_m_ct_stereo_status>  (123) 
1

>  <s_m_source_file>  (123) 
/var/tmp/pbs.5076255.sched01/tmp323fbwsu/45qgza_o8k.sdf

>  <i_m_source_file_index>  (123) 
1

>  <i_lp_mmshare_version>  (123) 
48012

>  <i_f3d_flags>  (123) 
0

>  <s_epik_input>  (123) 
W0NAXTEyM2M0YzVbY0hdW2NIXWMoW09IXSljNFtDSDJdW0NAQEhdKFtDSDJdW0NIMl1bQ0gyXVtDSDJdMSlbQ0BdMyhbT0hdKVtDQEhdKFtDSDJdNSlOKFtDSDJdW0NIMl0yKVtDSDJdW0NIXTZbQ0gyXVtDSDJdNg==

>  <s_epik_cmdline>  (123) 
J2VwaWtfcHl0aG9uJywgJy1waHQnLCAnMi4wJywgJy1waCcsICc3LjAnLCAnLXRuJywgJzgnLCAnLW1hJywgJzIwMCcsICctaW1hZScsICc8aW5maWxlLm1hZT4nLCAnLW9tYWUnLCAnPG91dGZpbGUubWFlPic=

>  <r_lp_tautomer_probability>  (123) 
1

>  <r_epik_Ionization_Penalty>  (123) 
2.20804

>  <r_epik_Ionization_Penalty_Charging>  (123) 
0

>  <r_epik_Ionization_Penalty_Neutral>  (123) 
2.20804

>  <r_epik_State_Penalty>  (123) 
2.35202

>  <r_epik_Charging_Adjusted_Penalty>  (123) 
2.35202

>  <i_epik_Tot_Q>  (123) 
0

>  <i_epik_Tot_abs_Q>  (123) 
0

>  <s_lp_Force_Field>  (123) 
OPLS3e

>  <r_lp_Energy>  (123) 
152.324

>  <b_lp_Chiralities_Consistent>  (123) 
1

>  <s_lp_Variant>  (123) 
31:0-2

>  <s_i_glide_gridfile>  (123) 
pfpi4k_grid

>  <i_i_glide_lignum>  (123) 
1

>  <i_i_glide_rotatable_bonds>  (123) 
4

>  <r_i_docking_score>  (123) 
-3.09306

>  <r_i_glide_ligand_efficiency>  (123) 
-0.123722

>  <r_i_glide_ligand_efficiency_sa>  (123) 
-0.361767

>  <r_i_glide_ligand_efficiency_ln>  (123) 
-0.733148

>  <r_i_glide_gscore>  (123) 
-3.09306

>  <r_i_glide_lipo>  (123) 
-0.551084

>  <r_i_glide_hbond>  (123) 
-0.139067

>  <r_i_glide_metal>  (123) 
-0

>  <r_i_glide_rewards>  (123) 
-1.09451

>  <r_i_glide_evdw>  (123) 
-21.6433

>  <r_i_glide_ecoul>  (123) 
-3.69785

>  <r_i_glide_erotb>  (123) 
0.328445

>  <r_i_glide_esite>  (123) 
0

>  <r_i_glide_emodel>  (123) 
-30.1324

>  <r_i_glide_energy>  (123) 
-25.3411

>  <r_i_glide_einternal>  (123) 
0.0185632

>  <r_i_glide_intrahb_reward>  (123) 
-0

>  <i_i_glide_confnum>  (123) 
4

>  <i_i_glide_posenum>  (123) 
28

>  <r_i_glide_eff_state_penalty>  (123) 
0

>  <ligand_id>  (123) 
31

>  <original_smiles>  (123) 
Oc1ccc2c3c1CC1CCCCC34CCN(CC3CC3)C(C2)C14O

>  <smiles>  (123) 
[H]Oc1c([H])c([H])c2c3c1C([H])([H])C1([H])C([H])([H])C([H])([H])C([H])([H])C([H])([H])C34C([H])([H])C([H])([H])N(C([H])([H])C3([H])C([H])([H])C3([H])[H])C([H])(C2([H])[H])C14O[H]

$$$$
31:1:2
     RDKit          3D

 54 59  0  0  1  0  0  0  0  0999 V2000
    0.8145   -1.7668    3.8955 O   0  0  0  0  0  0  0  0  0  0  0  0
    1.3843   -0.6245    4.3773 C   0  0  0  0  0  0  0  0  0  0  0  0
    2.7480   -0.6108    4.7094 C   0  0  0  0  0  0  0  0  0  0  0  0
    3.4046    0.6345    4.8001 C   0  0  0  0  0  0  0  0  0  0  0  0
    2.6530    1.8342    4.7716 C   0  0  0  0  0  0  0  0  0  0  0  0
    1.2638    1.7233    4.9565 C   0  0  0  0  0  0  0  0  0  0  0  0
    0.6472    0.5783    4.4172 C   0  0  0  0  0  0  0  0  0  0  0  0
   -0.4291    0.9838    3.4177 C   0  0  0  0  0  0  0  0  0  0  0  0
   -0.4368    2.4876    2.9225 C   0  0  1  0  0  0  0  0  0  0  0  0
   -1.9219    2.8659    2.6861 C   0  0  0  0  0  0  0  0  0  0  0  0
   -2.8318    2.8078    3.9267 C   0  0  0  0  0  0  0  0  0  0  0  0
   -2.2920    3.3380    5.2718 C   0  0  0  0  0  0  0  0  0  0  0  0
   -1.0213    2.6434    5.8298 C   0  0  0  0  0  0  0  0  0  0  0  0
    0.3859    2.9969    5.2007 C   0  0  1  0  0  0  0  0  0  0  0  0
    1.0095    4.0591    6.1642 C   0  0  0  0  0  0  0  0  0  0  0  0
    2.3412    4.6838    5.7373 C   0  0  0  0  0  0  0  0  0  0  0  0
    2.4044    5.0174    4.3148 N   0  0  0  0  0  0  0  0  0  0  0  0
    2.1125    6.4005    3.9587 C   0  0  0  0  0  0  0  0  0  0  0  0
    3.2217    7.3577    4.3577 C   0  0  0  0  0  0  0  0  0  0  0  0
    3.3549    8.6927    3.6658 C   0  0  0  0  0  0  0  0  0  0  0  0
    4.3765    7.6138    3.4150 C   0  0  0  0  0  0  0  0  0  0  0  0
    1.8414    3.9595    3.4537 C   0  0  1  0  0  0  0  0  0  0  0  0
    2.8524    2.8029    3.5982 C   0  0  0  0  0  0  0  0  0  0  0  0
    0.3370    3.5671    3.7920 C   0  0  1  0  0  0  0  0  0  0  0  0
   -0.3344    4.8188    3.6617 O   0  0  0  0  0  0  0  0  0  0  0  0
   -0.0228   -1.6081    3.4903 H   0  0  0  0  0  0  0  0  0  0  0  0
    3.3297   -1.5205    4.6583 H   0  0  0  0  0  0  0  0  0  0  0  0
    4.4745    0.6618    4.6749 H   0  0  0  0  0  0  0  0  0  0  0  0
   -0.3513    0.3403    2.5407 H   0  0  0  0  0  0  0  0  0  0  0  0
   -1.3649    0.6799    3.8788 H   0  0  0  0  0  0  0  0  0  0  0  0
    0.0554    2.4827    1.9524 H   0  0  0  0  0  0  0  0  0  0  0  0
   -2.0132    3.8284    2.1850 H   0  0  0  0  0  0  0  0  0  0  0  0
   -2.3437    2.1449    1.9891 H   0  0  0  0  0  0  0  0  0  0  0  0
   -3.7679    3.3144    3.6834 H   0  0  0  0  0  0  0  0  0  0  0  0
   -3.0860    1.7700    4.0747 H   0  0  0  0  0  0  0  0  0  0  0  0
   -2.1665    4.4145    5.2454 H   0  0  0  0  0  0  0  0  0  0  0  0
   -3.0889    3.1728    6.0007 H   0  0  0  0  0  0  0  0  0  0  0  0
   -0.9759    2.8827    6.8881 H   0  0  0  0  0  0  0  0  0  0  0  0
   -1.1940    1.5700    5.8793 H   0  0  0  0  0  0  0  0  0  0  0  0
    0.2946    4.8771    6.2609 H   0  0  0  0  0  0  0  0  0  0  0  0
    1.1151    3.6509    7.1675 H   0  0  0  0  0  0  0  0  0  0  0  0
    2.5291    5.5603    6.3513 H   0  0  0  0  0  0  0  0  0  0  0  0
    3.1441    3.9918    5.9944 H   0  0  0  0  0  0  0  0  0  0  0  0
    1.9936    6.4760    2.8817 H   0  0  0  0  0  0  0  0  0  0  0  0
    1.1780    6.7269    4.4128 H   0  0  0  0  0  0  0  0  0  0  0  0
    3.4695    7.3558    5.4167 H   0  0  0  0  0  0  0  0  0  0  0  0
    2.6325    8.9282    2.8853 H   0  0  0  0  0  0  0  0  0  0  0  0
    3.6781    9.5372    4.2674 H   0  0  0  0  0  0  0  0  0  0  0  0
    5.3644    7.7474    3.8558 H   0  0  0  0  0  0  0  0  0  0  0  0
    4.3652    7.0900    2.4601 H   0  0  0  0  0  0  0  0  0  0  0  0
    1.9015    4.2975    2.4161 H   0  0  0  0  0  0  0  0  0  0  0  0
    3.8540    3.2257    3.6713 H   0  0  0  0  0  0  0  0  0  0  0  0
    2.8468    2.2147    2.6815 H   0  0  0  0  0  0  0  0  0  0  0  0
   -0.2146    5.0606    2.7496 H   0  0  0  0  0  0  0  0  0  0  0  0
  1  2  1  0
  1 26  1  0
  2  7  2  0
  2  3  1  0
  3  4  2  0
  3 27  1  0
  4  5  1  0
  4 28  1  0
  5 23  1  0
  5  6  2  0
  6 14  1  0
  6  7  1  0
  7  8  1  0
  8  9  1  0
  8 29  1  0
  8 30  1  0
  9 24  1  0
  9 10  1  0
  9 31  1  6
 10 11  1  0
 10 32  1  0
 10 33  1  0
 11 12  1  0
 11 34  1  0
 11 35  1  0
 12 13  1  0
 12 36  1  0
 12 37  1  0
 14 13  1  1
 13 38  1  0
 13 39  1  0
 14 24  1  0
 14 15  1  0
 15 16  1  0
 15 40  1  0
 15 41  1  0
 16 17  1  0
 16 42  1  0
 16 43  1  0
 17 18  1  0
 17 22  1  0
 18 19  1  0
 18 44  1  0
 18 45  1  0
 19 21  1  0
 19 20  1  0
 19 46  1  0
 20 21  1  0
 20 47  1  0
 20 48  1  0
 21 49  1  0
 21 50  1  0
 22 23  1  0
 22 24  1  0
 22 51  1  6
 23 52  1  0
 23 53  1  0
 24 25  1  1
 25 54  1  0
M  END
>  <i_m_ct_stereo_status>  (124) 
1

>  <s_m_source_file>  (124) 
/var/tmp/pbs.5076255.sched01/tmp323fbwsu/45qgza_o8k.sdf

>  <i_m_source_file_index>  (124) 
1

>  <i_lp_mmshare_version>  (124) 
48012

>  <i_f3d_flags>  (124) 
0

>  <s_epik_input>  (124) 
W0NAXTEyM2M0YzVbY0hdW2NIXWMoW09IXSljNFtDSDJdW0NAQEhdKFtDSDJdW0NIMl1bQ0gyXVtDSDJdMSlbQ0BdMyhbT0hdKVtDQEhdKFtDSDJdNSlOKFtDSDJdW0NIMl0yKVtDSDJdW0NIXTZbQ0gyXVtDSDJdNg==

>  <s_epik_cmdline>  (124) 
J2VwaWtfcHl0aG9uJywgJy1waHQnLCAnMi4wJywgJy1waCcsICc3LjAnLCAnLXRuJywgJzgnLCAnLW1hJywgJzIwMCcsICctaW1hZScsICc8aW5maWxlLm1hZT4nLCAnLW9tYWUnLCAnPG91dGZpbGUubWFlPic=

>  <r_lp_tautomer_probability>  (124) 
1

>  <r_epik_Ionization_Penalty>  (124) 
2.20804

>  <r_epik_Ionization_Penalty_Charging>  (124) 
0

>  <r_epik_Ionization_Penalty_Neutral>  (124) 
2.20804

>  <r_epik_State_Penalty>  (124) 
2.35202

>  <r_epik_Charging_Adjusted_Penalty>  (124) 
2.35202

>  <i_epik_Tot_Q>  (124) 
0

>  <i_epik_Tot_abs_Q>  (124) 
0

>  <s_lp_Force_Field>  (124) 
OPLS3e

>  <r_lp_Energy>  (124) 
152.324

>  <b_lp_Chiralities_Consistent>  (124) 
1

>  <s_lp_Variant>  (124) 
31:0-2

>  <s_i_glide_gridfile>  (124) 
pfpi4k_grid

>  <i_i_glide_lignum>  (124) 
1

>  <i_i_glide_rotatable_bonds>  (124) 
4

>  <r_i_docking_score>  (124) 
-2.88739

>  <r_i_glide_ligand_efficiency>  (124) 
-0.115495

>  <r_i_glide_ligand_efficiency_sa>  (124) 
-0.337711

>  <r_i_glide_ligand_efficiency_ln>  (124) 
-0.684397

>  <r_i_glide_gscore>  (124) 
-2.88739

>  <r_i_glide_lipo>  (124) 
-0.154556

>  <r_i_glide_hbond>  (124) 
-0.115401

>  <r_i_glide_metal>  (124) 
-0

>  <r_i_glide_rewards>  (124) 
-1.09451

>  <r_i_glide_evdw>  (124) 
-18.4875

>  <r_i_glide_ecoul>  (124) 
-6.17989

>  <r_i_glide_erotb>  (124) 
0.328445

>  <r_i_glide_esite>  (124) 
0

>  <r_i_glide_emodel>  (124) 
-28.5565

>  <r_i_glide_energy>  (124) 
-24.6674

>  <r_i_glide_einternal>  (124) 
0.78312

>  <r_i_glide_intrahb_reward>  (124) 
-0

>  <i_i_glide_confnum>  (124) 
3

>  <i_i_glide_posenum>  (124) 
12

>  <r_i_glide_eff_state_penalty>  (124) 
0

>  <ligand_id>  (124) 
31

>  <original_smiles>  (124) 
Oc1ccc2c3c1CC1CCCCC34CCN(CC3CC3)C(C2)C14O

>  <smiles>  (124) 
[H]Oc1c([H])c([H])c2c3c1C([H])([H])C1([H])C([H])([H])C([H])([H])C([H])([H])C([H])([H])C34C([H])([H])C([H])([H])N(C([H])([H])C3([H])C([H])([H])C3([H])[H])C([H])(C2([H])[H])C14O[H]

$$$$
32:0:0
     RDKit          3D

 53 59  0  0  1  0  0  0  0  0999 V2000
    1.4800    0.4268    2.8911 C   0  0  0  0  0  0  0  0  0  0  0  0
    1.9059   -0.4111    1.6890 C   0  0  0  0  0  0  0  0  0  0  0  0
    3.2623   -1.0130    1.8259 N   0  0  1  0  0  0  0  0  0  0  0  0
    3.2519   -2.3067    2.5634 C   0  0  0  0  0  0  0  0  0  0  0  0
    4.6746   -2.8630    2.8603 C   0  0  1  0  0  0  0  0  0  0  0  0
    4.6197   -4.3109    3.3653 C   0  0  0  0  0  0  0  0  0  0  0  0
    5.7229   -2.6642    1.7120 C   0  0  1  0  0  0  0  0  0  0  0  0
    5.4401   -3.1010    0.2837 C   0  0  1  0  0  0  0  0  0  0  0  0
    5.8452   -2.3204   -1.2376 C   0  0  2  0  0  0  0  0  0  0  0  0
    5.0503   -2.2430   -2.5709 C   0  0  2  0  0  0  0  0  0  0  0  0
    4.1738   -0.9983   -2.7651 C   0  0  0  0  0  0  0  0  0  0  0  0
    3.1144   -1.7677   -1.9866 C   0  0  1  0  0  0  0  0  0  0  0  0
    3.8079   -3.0355   -2.4526 C   0  0  2  0  0  0  0  0  0  0  0  0
    3.8093   -3.6633   -1.1065 C   0  0  2  0  0  0  0  0  0  0  0  0
    3.2774   -2.1830   -0.4989 C   0  0  1  0  0  0  0  0  0  0  0  0
    4.0761   -1.0905    0.5735 C   0  0  2  0  0  0  0  0  0  0  0  0
    5.6622   -1.2585    1.2448 C   0  0  1  0  0  0  0  0  0  0  0  0
    5.7778   -0.2894    2.2762 O   0  0  0  0  0  0  0  0  0  0  0  0
    7.1881   -1.2167    0.6471 C   0  0  0  0  0  0  0  0  0  0  0  0
    7.8217   -2.5436   -0.1153 C   0  0  0  0  0  0  0  0  0  0  0  0
    6.7756   -3.3705   -1.0242 C   0  0  1  0  0  0  0  0  0  0  0  0
    5.3412   -4.1409   -0.6272 C   0  0  1  0  0  0  0  0  0  0  0  0
    5.4373   -5.4539   -0.1271 O   0  0  0  0  0  0  0  0  0  0  0  0
    0.5053    0.8738    2.6839 H   0  0  0  0  0  0  0  0  0  0  0  0
    2.1822    1.2418    3.0716 H   0  0  0  0  0  0  0  0  0  0  0  0
    1.3840   -0.1754    3.7937 H   0  0  0  0  0  0  0  0  0  0  0  0
    1.1593   -1.1881    1.4985 H   0  0  0  0  0  0  0  0  0  0  0  0
    1.8824    0.2515    0.8205 H   0  0  0  0  0  0  0  0  0  0  0  0
    2.7341   -2.1580    3.5127 H   0  0  0  0  0  0  0  0  0  0  0  0
    2.6661   -3.0496    2.0188 H   0  0  0  0  0  0  0  0  0  0  0  0
    5.0460   -2.2763    3.6996 H   0  0  0  0  0  0  0  0  0  0  0  0
    4.2430   -4.9954    2.6050 H   0  0  0  0  0  0  0  0  0  0  0  0
    3.9749   -4.3921    4.2392 H   0  0  0  0  0  0  0  0  0  0  0  0
    5.6082   -4.6540    3.6650 H   0  0  0  0  0  0  0  0  0  0  0  0
    6.6824   -3.0154    2.0816 H   0  0  0  0  0  0  0  0  0  0  0  0
    4.5924   -3.6065    0.7553 H   0  0  0  0  0  0  0  0  0  0  0  0
    6.2307   -1.3130   -1.3410 H   0  0  0  0  0  0  0  0  0  0  0  0
    5.6247   -2.4906   -3.4604 H   0  0  0  0  0  0  0  0  0  0  0  0
    4.5053   -0.0958   -2.2501 H   0  0  0  0  0  0  0  0  0  0  0  0
    3.8867   -0.8086   -3.8037 H   0  0  0  0  0  0  0  0  0  0  0  0
    2.1096   -1.7287   -2.3747 H   0  0  0  0  0  0  0  0  0  0  0  0
    3.4107   -3.5428   -3.3302 H   0  0  0  0  0  0  0  0  0  0  0  0
    3.0507   -4.4288   -1.0137 H   0  0  0  0  0  0  0  0  0  0  0  0
    2.2646   -2.4115   -0.1592 H   0  0  0  0  0  0  0  0  0  0  0  0
    4.0604   -0.1052    0.1182 H   0  0  0  0  0  0  0  0  0  0  0  0
    6.6707    0.0503    2.2427 H   0  0  0  0  0  0  0  0  0  0  0  0
    7.3116   -0.3015    0.1004 H   0  0  0  0  0  0  0  0  0  0  0  0
    7.8758   -1.0283    1.4652 H   0  0  0  0  0  0  0  0  0  0  0  0
    8.6545   -2.2139   -0.7365 H   0  0  0  0  0  0  0  0  0  0  0  0
    8.2944   -3.2205    0.6001 H   0  0  0  0  0  0  0  0  0  0  0  0
    7.1821   -3.6855   -1.9847 H   0  0  0  0  0  0  0  0  0  0  0  0
    5.4323   -5.9898   -0.9003 H   0  0  0  0  0  0  0  0  0  0  0  0
    3.8065   -0.3604    2.3832 H   0  0  0  0  0  0  0  0  0  0  0  0
  1  2  1  0
  1 24  1  0
  1 25  1  0
  1 26  1  0
  2  3  1  0
  2 27  1  0
  2 28  1  0
  3 16  1  0
  3  4  1  0
  3 53  1  1
  4  5  1  0
  4 29  1  0
  4 30  1  0
  5  6  1  0
  5  7  1  0
  5 31  1  1
  6 32  1  0
  6 33  1  0
  6 34  1  0
  7 17  1  0
  7  8  1  0
  7 35  1  1
  8 22  1  0
  8  9  1  0
  8 36  1  1
  9 21  1  0
  9 10  1  0
  9 37  1  1
 10 13  1  0
 10 11  1  0
 10 38  1  6
 11 12  1  0
 11 39  1  0
 11 40  1  0
 12 15  1  0
 12 13  1  0
 12 41  1  6
 13 14  1  0
 13 42  1  6
 14 22  1  0
 14 15  1  0
 14 43  1  6
 15 16  1  0
 15 44  1  1
 16 17  1  0
 16 45  1  6
 17 18  1  1
 17 19  1  0
 18 46  1  0
 19 20  1  0
 19 47  1  0
 19 48  1  0
 20 21  1  0
 20 49  1  0
 20 50  1  0
 21 22  1  0
 21 51  1  6
 22 23  1  1
 23 52  1  0
M  CHG  1   3   1
M  END
>  <i_m_ct_stereo_status>  (125) 
1

>  <s_m_source_file>  (125) 
/var/tmp/pbs.5076255.sched01/tmp323fbwsu/45qgza_o8k.sdf

>  <i_m_source_file_index>  (125) 
2

>  <i_lp_mmshare_version>  (125) 
48012

>  <i_f3d_flags>  (125) 
0

>  <s_epik_input>  (125) 
W0NIM11bQ0BASF0xW0NIMl1OKFtDSDJdW0NIM10pW0NAQEhdMltDQEhdKFtDQEBIXTNbQ0BAXTQoW09IXSlbQ0BASF01W0NIMl1bQ0gyXTYpW0NAQEhdKFtDSDJdNylbQ0BIXTNbQ0BASF03W0NASF01W0NAQEhdNFtDQEhdMVtDQF0yNltPSF0=

>  <s_epik_cmdline>  (125) 
J2VwaWtfcHl0aG9uJywgJy1waHQnLCAnMi4wJywgJy1waCcsICc3LjAnLCAnLXRuJywgJzgnLCAnLW1hJywgJzIwMCcsICctaW1hZScsICc8aW5maWxlLm1hZT4nLCAnLW9tYWUnLCAnPG91dGZpbGUubWFlPic=

>  <r_epik_Ionization_Penalty>  (125) 
0.00141647

>  <r_epik_Ionization_Penalty_Charging>  (125) 
0.00141465

>  <r_epik_Ionization_Penalty_Neutral>  (125) 
1.8241e-06

>  <r_epik_State_Penalty>  (125) 
0.000943994

>  <r_epik_Charging_Adjusted_Penalty>  (125) 
0.00235864

>  <i_epik_Tot_Q>  (125) 
1

>  <i_epik_Tot_abs_Q>  (125) 
1

>  <s_lp_Force_Field>  (125) 
OPLS3e

>  <r_lp_Energy>  (125) 
414.666

>  <b_lp_Chiralities_Consistent>  (125) 
1

>  <s_lp_Variant>  (125) 
32:0-1

>  <s_i_glide_gridfile>  (125) 
pfpi4k_grid

>  <i_i_glide_lignum>  (125) 
2

>  <i_i_glide_rotatable_bonds>  (125) 
3

>  <r_i_docking_score>  (125) 
-4.52206

>  <r_i_glide_ligand_efficiency>  (125) 
-0.196611

>  <r_i_glide_ligand_efficiency_sa>  (125) 
-0.559137

>  <r_i_glide_ligand_efficiency_ln>  (125) 
-1.09348

>  <r_i_glide_gscore>  (125) 
-4.52206

>  <r_i_glide_lipo>  (125) 
-0.696981

>  <r_i_glide_hbond>  (125) 
-0.539466

>  <r_i_glide_metal>  (125) 
-0

>  <r_i_glide_rewards>  (125) 
-1.25142

>  <r_i_glide_evdw>  (125) 
-19.5958

>  <r_i_glide_ecoul>  (125) 
-6.90848

>  <r_i_glide_erotb>  (125) 
0

>  <r_i_glide_esite>  (125) 
-0.0181304

>  <r_i_glide_emodel>  (125) 
-31.5443

>  <r_i_glide_energy>  (125) 
-26.5042

>  <r_i_glide_einternal>  (125) 
1.3985

>  <r_i_glide_intrahb_reward>  (125) 
-0

>  <i_i_glide_confnum>  (125) 
2

>  <i_i_glide_posenum>  (125) 
14

>  <r_i_glide_eff_state_penalty>  (125) 
0

>  <ligand_id>  (125) 
32

>  <original_smiles>  (125) 
CCN1CC(C)C2C3C4C5CC6C5C5C6C1C2(O)CCC4C53O

>  <smiles>  (125) 
[H]OC12C3([H])C([H])([H])C([H])([H])C4(O[H])C5([H])C1([H])C3([H])C1([H])C([H])([H])C3([H])C1([H])C2([H])C3([H])C4([H])[N+]([H])(C([H])([H])C([H])([H])[H])C([H])([H])C5([H])C([H])([H])[H]

$$$$
32:0:1
     RDKit          3D

 53 59  0  0  1  0  0  0  0  0999 V2000
    1.4471    0.5357    2.8149 C   0  0  0  0  0  0  0  0  0  0  0  0
    1.9199   -0.3164    1.6426 C   0  0  0  0  0  0  0  0  0  0  0  0
    3.2531   -0.9307    1.8421 N   0  0  1  0  0  0  0  0  0  0  0  0
    3.2018   -2.1896    2.6305 C   0  0  0  0  0  0  0  0  0  0  0  0
    4.6038   -2.7538    2.9857 C   0  0  1  0  0  0  0  0  0  0  0  0
    4.5248   -4.1830    3.5530 C   0  0  0  0  0  0  0  0  0  0  0  0
    5.6873   -2.6168    1.8591 C   0  0  1  0  0  0  0  0  0  0  0  0
    5.4414   -3.1122    0.4435 C   0  0  1  0  0  0  0  0  0  0  0  0
    5.8930   -2.4010   -1.0952 C   0  0  2  0  0  0  0  0  0  0  0  0
    5.1370   -2.3624   -2.4491 C   0  0  2  0  0  0  0  0  0  0  0  0
    4.2777   -1.1177   -2.7154 C   0  0  0  0  0  0  0  0  0  0  0  0
    3.1919   -1.8426   -1.9317 C   0  0  1  0  0  0  0  0  0  0  0  0
    3.8844   -3.1382   -2.3327 C   0  0  2  0  0  0  0  0  0  0  0  0
    3.8469   -3.7210   -0.9638 C   0  0  2  0  0  0  0  0  0  0  0  0
    3.3155   -2.1964   -0.4273 C   0  0  1  0  0  0  0  0  0  0  0  0
    4.1003   -1.0730    0.6197 C   0  0  2  0  0  0  0  0  0  0  0  0
    5.6632   -1.2390    1.3301 C   0  0  1  0  0  0  0  0  0  0  0  0
    5.7755   -0.2612    2.3490 O   0  0  0  0  0  0  0  0  0  0  0  0
    7.2017   -1.2365    0.7691 C   0  0  0  0  0  0  0  0  0  0  0  0
    7.8416   -2.5937    0.0857 C   0  0  0  0  0  0  0  0  0  0  0  0
    6.8122   -3.4446   -0.8138 C   0  0  1  0  0  0  0  0  0  0  0  0
    5.3727   -4.1922   -0.4317 C   0  0  1  0  0  0  0  0  0  0  0  0
    5.5004   -5.4976    0.0886 O   0  0  0  0  0  0  0  0  0  0  0  0
    0.4830    0.9927    2.5731 H   0  0  0  0  0  0  0  0  0  0  0  0
    2.1499    1.3444    3.0211 H   0  0  0  0  0  0  0  0  0  0  0  0
    1.3100   -0.0587    3.7182 H   0  0  0  0  0  0  0  0  0  0  0  0
    1.1770   -1.0814    1.4304 H   0  0  0  0  0  0  0  0  0  0  0  0
    1.9321    0.3263    0.7673 H   0  0  0  0  0  0  0  0  0  0  0  0
    2.6670   -2.0004    3.5579 H   0  0  0  0  0  0  0  0  0  0  0  0
    2.6224   -2.9455    2.1064 H   0  0  0  0  0  0  0  0  0  0  0  0
    4.9694   -2.1504    3.8161 H   0  0  0  0  0  0  0  0  0  0  0  0
    4.1550   -4.8971    2.8145 H   0  0  0  0  0  0  0  0  0  0  0  0
    3.8584   -4.2227    4.4178 H   0  0  0  0  0  0  0  0  0  0  0  0
    5.5051   -4.5278    3.8925 H   0  0  0  0  0  0  0  0  0  0  0  0
    6.6207   -2.9743    2.2690 H   0  0  0  0  0  0  0  0  0  0  0  0
    4.5711   -3.5770    0.8988 H   0  0  0  0  0  0  0  0  0  0  0  0
    6.2839   -1.4091   -1.2280 H   0  0  0  0  0  0  0  0  0  0  0  0
    5.7454   -2.6528   -3.3048 H   0  0  0  0  0  0  0  0  0  0  0  0
    4.6149   -0.2028   -2.2298 H   0  0  0  0  0  0  0  0  0  0  0  0
    4.0317   -0.9633   -3.7695 H   0  0  0  0  0  0  0  0  0  0  0  0
    2.1951   -1.7676   -2.3429 H   0  0  0  0  0  0  0  0  0  0  0  0
    3.5113   -3.6843   -3.2010 H   0  0  0  0  0  0  0  0  0  0  0  0
    3.0792   -4.4779   -0.8583 H   0  0  0  0  0  0  0  0  0  0  0  0
    2.2935   -2.3912   -0.1102 H   0  0  0  0  0  0  0  0  0  0  0  0
    4.1123   -0.1087    0.1204 H   0  0  0  0  0  0  0  0  0  0  0  0
    6.6657    0.0840    2.3176 H   0  0  0  0  0  0  0  0  0  0  0  0
    7.3625   -0.3639    0.1379 H   0  0  0  0  0  0  0  0  0  0  0  0
    7.8615   -1.0391    1.6023 H   0  0  0  0  0  0  0  0  0  0  0  0
    8.6963   -2.2998   -0.5267 H   0  0  0  0  0  0  0  0  0  0  0  0
    8.2826   -3.2466    0.8422 H   0  0  0  0  0  0  0  0  0  0  0  0
    7.2431   -3.8146   -1.7383 H   0  0  0  0  0  0  0  0  0  0  0  0
    5.1212   -5.4889    0.9555 H   0  0  0  0  0  0  0  0  0  0  0  0
    3.7884   -0.2665    2.3830 H   0  0  0  0  0  0  0  0  0  0  0  0
  1  2  1  0
  1 24  1  0
  1 25  1  0
  1 26  1  0
  2  3  1  0
  2 27  1  0
  2 28  1  0
  3 16  1  0
  3  4  1  0
  3 53  1  1
  4  5  1  0
  4 29  1  0
  4 30  1  0
  5  6  1  0
  5  7  1  0
  5 31  1  1
  6 32  1  0
  6 33  1  0
  6 34  1  0
  7 17  1  0
  7  8  1  0
  7 35  1  1
  8 22  1  0
  8  9  1  0
  8 36  1  6
  9 21  1  0
  9 10  1  0
  9 37  1  1
 10 13  1  0
 10 11  1  0
 10 38  1  6
 11 12  1  0
 11 39  1  0
 11 40  1  0
 12 15  1  0
 12 13  1  0
 12 41  1  6
 13 14  1  0
 13 42  1  6
 14 22  1  0
 14 15  1  0
 14 43  1  6
 15 16  1  0
 15 44  1  1
 16 17  1  0
 16 45  1  6
 17 18  1  1
 17 19  1  0
 18 46  1  0
 19 20  1  0
 19 47  1  0
 19 48  1  0
 20 21  1  0
 20 49  1  0
 20 50  1  0
 21 22  1  0
 21 51  1  6
 22 23  1  1
 23 52  1  0
M  CHG  1   3   1
M  END
>  <i_m_ct_stereo_status>  (126) 
1

>  <s_m_source_file>  (126) 
/var/tmp/pbs.5076255.sched01/tmp323fbwsu/45qgza_o8k.sdf

>  <i_m_source_file_index>  (126) 
2

>  <i_lp_mmshare_version>  (126) 
48012

>  <i_f3d_flags>  (126) 
0

>  <s_epik_input>  (126) 
W0NIM11bQ0BASF0xW0NIMl1OKFtDSDJdW0NIM10pW0NAQEhdMltDQEhdKFtDQEBIXTNbQ0BAXTQoW09IXSlbQ0BASF01W0NIMl1bQ0gyXTYpW0NAQEhdKFtDSDJdNylbQ0BIXTNbQ0BASF03W0NASF01W0NAQEhdNFtDQEhdMVtDQF0yNltPSF0=

>  <s_epik_cmdline>  (126) 
J2VwaWtfcHl0aG9uJywgJy1waHQnLCAnMi4wJywgJy1waCcsICc3LjAnLCAnLXRuJywgJzgnLCAnLW1hJywgJzIwMCcsICctaW1hZScsICc8aW5maWxlLm1hZT4nLCAnLW9tYWUnLCAnPG91dGZpbGUubWFlPic=

>  <r_epik_Ionization_Penalty>  (126) 
0.00141647

>  <r_epik_Ionization_Penalty_Charging>  (126) 
0.00141465

>  <r_epik_Ionization_Penalty_Neutral>  (126) 
1.8241e-06

>  <r_epik_State_Penalty>  (126) 
0.000943994

>  <r_epik_Charging_Adjusted_Penalty>  (126) 
0.00235864

>  <i_epik_Tot_Q>  (126) 
1

>  <i_epik_Tot_abs_Q>  (126) 
1

>  <s_lp_Force_Field>  (126) 
OPLS3e

>  <r_lp_Energy>  (126) 
414.666

>  <b_lp_Chiralities_Consistent>  (126) 
1

>  <s_lp_Variant>  (126) 
32:0-1

>  <s_i_glide_gridfile>  (126) 
pfpi4k_grid

>  <i_i_glide_lignum>  (126) 
2

>  <i_i_glide_rotatable_bonds>  (126) 
3

>  <r_i_docking_score>  (126) 
-4.43707

>  <r_i_glide_ligand_efficiency>  (126) 
-0.192916

>  <r_i_glide_ligand_efficiency_sa>  (126) 
-0.548627

>  <r_i_glide_ligand_efficiency_ln>  (126) 
-1.07292

>  <r_i_glide_gscore>  (126) 
-4.43707

>  <r_i_glide_lipo>  (126) 
-0.735698

>  <r_i_glide_hbond>  (126) 
-0.542717

>  <r_i_glide_metal>  (126) 
-0

>  <r_i_glide_rewards>  (126) 
-1.25142

>  <r_i_glide_evdw>  (126) 
-19.4744

>  <r_i_glide_ecoul>  (126) 
-6.10468

>  <r_i_glide_erotb>  (126) 
0

>  <r_i_glide_esite>  (126) 
-0.0178025

>  <r_i_glide_emodel>  (126) 
-30.6641

>  <r_i_glide_energy>  (126) 
-25.5791

>  <r_i_glide_einternal>  (126) 
1.14072

>  <r_i_glide_intrahb_reward>  (126) 
-0

>  <i_i_glide_confnum>  (126) 
2

>  <i_i_glide_posenum>  (126) 
1

>  <r_i_glide_eff_state_penalty>  (126) 
0

>  <ligand_id>  (126) 
32

>  <original_smiles>  (126) 
CCN1CC(C)C2C3C4C5CC6C5C5C6C1C2(O)CCC4C53O

>  <smiles>  (126) 
[H]OC12C3([H])C([H])([H])C([H])([H])C4(O[H])C5([H])C1([H])C3([H])C1([H])C([H])([H])C3([H])C1([H])C2([H])C3([H])C4([H])[N+]([H])(C([H])([H])C([H])([H])[H])C([H])([H])C5([H])C([H])([H])[H]

$$$$
32:0:2
     RDKit          3D

 53 59  0  0  1  0  0  0  0  0999 V2000
    1.2259    0.1543    2.9523 C   0  0  0  0  0  0  0  0  0  0  0  0
    1.7847   -0.5051    1.6938 C   0  0  0  0  0  0  0  0  0  0  0  0
    3.1357   -1.0850    1.8811 N   0  0  1  0  0  0  0  0  0  0  0  0
    3.1432   -2.3573    2.6684 C   0  0  0  0  0  0  0  0  0  0  0  0
    4.5744   -2.8702    3.0243 C   0  0  1  0  0  0  0  0  0  0  0  0
    4.5347   -4.3046    3.5717 C   0  0  0  0  0  0  0  0  0  0  0  0
    5.6563   -2.6819    1.9009 C   0  0  1  0  0  0  0  0  0  0  0  0
    5.4147   -3.1724    0.4774 C   0  0  1  0  0  0  0  0  0  0  0  0
    5.8467   -2.4197   -1.0537 C   0  0  2  0  0  0  0  0  0  0  0  0
    5.1002   -2.3971   -2.4135 C   0  0  2  0  0  0  0  0  0  0  0  0
    4.2050   -1.1777   -2.6735 C   0  0  0  0  0  0  0  0  0  0  0  0
    3.1260   -1.9458   -1.9147 C   0  0  1  0  0  0  0  0  0  0  0  0
    3.8673   -3.2124   -2.3096 C   0  0  2  0  0  0  0  0  0  0  0  0
    3.8420   -3.8087   -0.9426 C   0  0  2  0  0  0  0  0  0  0  0  0
    3.2492   -2.3190   -0.4059 C   0  0  1  0  0  0  0  0  0  0  0  0
    4.0003   -1.1759    0.6606 C   0  0  2  0  0  0  0  0  0  0  0  0
    5.5706   -1.2853    1.3869 C   0  0  1  0  0  0  0  0  0  0  0  0
    5.6522   -0.2626    2.3659 O   0  0  0  0  0  0  0  0  0  0  0  0
    7.1172   -1.2398    0.8319 C   0  0  0  0  0  0  0  0  0  0  0  0
    7.7976   -2.5761    0.1281 C   0  0  0  0  0  0  0  0  0  0  0  0
    6.7950   -3.4432   -0.7882 C   0  0  1  0  0  0  0  0  0  0  0  0
    5.3787   -4.2478   -0.4153 C   0  0  1  0  0  0  0  0  0  0  0  0
    5.5471   -5.5482    0.0973 O   0  0  0  0  0  0  0  0  0  0  0  0
    0.2563    0.5950    2.7161 H   0  0  0  0  0  0  0  0  0  0  0  0
    1.8695    0.9606    3.3185 H   0  0  0  0  0  0  0  0  0  0  0  0
    1.0573   -0.5592    3.7654 H   0  0  0  0  0  0  0  0  0  0  0  0
    1.0876   -1.2791    1.3513 H   0  0  0  0  0  0  0  0  0  0  0  0
    1.8348    0.2629    0.9028 H   0  0  0  0  0  0  0  0  0  0  0  0
    2.6144   -2.2006    3.6103 H   0  0  0  0  0  0  0  0  0  0  0  0
    2.5918   -3.1321    2.1305 H   0  0  0  0  0  0  0  0  0  0  0  0
    4.9157   -2.2550    3.8560 H   0  0  0  0  0  0  0  0  0  0  0  0
    4.1863   -5.0205    2.8259 H   0  0  0  0  0  0  0  0  0  0  0  0
    3.8684   -4.3701    4.4318 H   0  0  0  0  0  0  0  0  0  0  0  0
    5.5237   -4.6183    3.9076 H   0  0  0  0  0  0  0  0  0  0  0  0
    6.6070   -2.9949    2.3025 H   0  0  0  0  0  0  0  0  0  0  0  0
    4.5587   -3.6738    0.9368 H   0  0  0  0  0  0  0  0  0  0  0  0
    6.2310   -1.4152   -1.1833 H   0  0  0  0  0  0  0  0  0  0  0  0
    5.7110   -2.6600   -3.2767 H   0  0  0  0  0  0  0  0  0  0  0  0
    4.4996   -0.2524   -2.1723 H   0  0  0  0  0  0  0  0  0  0  0  0
    3.9474   -1.0239   -3.7239 H   0  0  0  0  0  0  0  0  0  0  0  0
    2.1331   -1.9467   -2.3511 H   0  0  0  0  0  0  0  0  0  0  0  0
    3.5071   -3.7536   -3.1833 H   0  0  0  0  0  0  0  0  0  0  0  0
    3.0869   -4.5884   -0.8381 H   0  0  0  0  0  0  0  0  0  0  0  0
    2.2312   -2.5540   -0.0930 H   0  0  0  0  0  0  0  0  0  0  0  0
    3.9811   -0.2039    0.1732 H   0  0  0  0  0  0  0  0  0  0  0  0
    5.0312   -0.3771    3.0632 H   0  0  0  0  0  0  0  0  0  0  0  0
    7.2475   -0.3554    0.2066 H   0  0  0  0  0  0  0  0  0  0  0  0
    7.7636   -1.0423    1.6813 H   0  0  0  0  0  0  0  0  0  0  0  0
    8.6365   -2.2512   -0.4884 H   0  0  0  0  0  0  0  0  0  0  0  0
    8.2630   -3.2243    0.8729 H   0  0  0  0  0  0  0  0  0  0  0  0
    7.2342   -3.8027   -1.7143 H   0  0  0  0  0  0  0  0  0  0  0  0
    5.2644   -5.5281    0.9986 H   0  0  0  0  0  0  0  0  0  0  0  0
    3.5804   -0.3632    2.4271 H   0  0  0  0  0  0  0  0  0  0  0  0
  1  2  1  0
  1 24  1  0
  1 25  1  0
  1 26  1  0
  2  3  1  0
  2 27  1  0
  2 28  1  0
  3 16  1  0
  3  4  1  0
  3 53  1  1
  4  5  1  0
  4 29  1  0
  4 30  1  0
  5  6  1  0
  5  7  1  0
  5 31  1  1
  6 32  1  0
  6 33  1  0
  6 34  1  0
  7 17  1  0
  7  8  1  0
  7 35  1  1
  8 22  1  0
  8  9  1  0
  8 36  1  6
  9 21  1  0
  9 10  1  0
  9 37  1  1
 10 13  1  0
 10 11  1  0
 10 38  1  6
 11 12  1  0
 11 39  1  0
 11 40  1  0
 12 15  1  0
 12 13  1  0
 12 41  1  6
 13 14  1  0
 13 42  1  6
 14 22  1  0
 14 15  1  0
 14 43  1  6
 15 16  1  0
 15 44  1  1
 16 17  1  0
 16 45  1  6
 17 18  1  1
 17 19  1  0
 18 46  1  0
 19 20  1  0
 19 47  1  0
 19 48  1  0
 20 21  1  0
 20 49  1  0
 20 50  1  0
 21 22  1  0
 21 51  1  6
 22 23  1  1
 23 52  1  0
M  CHG  1   3   1
M  END
>  <i_m_ct_stereo_status>  (127) 
1

>  <s_m_source_file>  (127) 
/var/tmp/pbs.5076255.sched01/tmp323fbwsu/45qgza_o8k.sdf

>  <i_m_source_file_index>  (127) 
2

>  <i_lp_mmshare_version>  (127) 
48012

>  <i_f3d_flags>  (127) 
0

>  <s_epik_input>  (127) 
W0NIM11bQ0BASF0xW0NIMl1OKFtDSDJdW0NIM10pW0NAQEhdMltDQEhdKFtDQEBIXTNbQ0BAXTQoW09IXSlbQ0BASF01W0NIMl1bQ0gyXTYpW0NAQEhdKFtDSDJdNylbQ0BIXTNbQ0BASF03W0NASF01W0NAQEhdNFtDQEhdMVtDQF0yNltPSF0=

>  <s_epik_cmdline>  (127) 
J2VwaWtfcHl0aG9uJywgJy1waHQnLCAnMi4wJywgJy1waCcsICc3LjAnLCAnLXRuJywgJzgnLCAnLW1hJywgJzIwMCcsICctaW1hZScsICc8aW5maWxlLm1hZT4nLCAnLW9tYWUnLCAnPG91dGZpbGUubWFlPic=

>  <r_epik_Ionization_Penalty>  (127) 
0.00141647

>  <r_epik_Ionization_Penalty_Charging>  (127) 
0.00141465

>  <r_epik_Ionization_Penalty_Neutral>  (127) 
1.8241e-06

>  <r_epik_State_Penalty>  (127) 
0.000943994

>  <r_epik_Charging_Adjusted_Penalty>  (127) 
0.00235864

>  <i_epik_Tot_Q>  (127) 
1

>  <i_epik_Tot_abs_Q>  (127) 
1

>  <s_lp_Force_Field>  (127) 
OPLS3e

>  <r_lp_Energy>  (127) 
414.666

>  <b_lp_Chiralities_Consistent>  (127) 
1

>  <s_lp_Variant>  (127) 
32:0-1

>  <s_i_glide_gridfile>  (127) 
pfpi4k_grid

>  <i_i_glide_lignum>  (127) 
2

>  <i_i_glide_rotatable_bonds>  (127) 
3

>  <r_i_docking_score>  (127) 
-3.82899

>  <r_i_glide_ligand_efficiency>  (127) 
-0.166478

>  <r_i_glide_ligand_efficiency_sa>  (127) 
-0.473441

>  <r_i_glide_ligand_efficiency_ln>  (127) 
-0.925884

>  <r_i_glide_gscore>  (127) 
-3.82899

>  <r_i_glide_lipo>  (127) 
-0.728895

>  <r_i_glide_hbond>  (127) 
-0.216245

>  <r_i_glide_metal>  (127) 
-0

>  <r_i_glide_rewards>  (127) 
-1.25142

>  <r_i_glide_evdw>  (127) 
-19.8514

>  <r_i_glide_ecoul>  (127) 
-4.13247

>  <r_i_glide_erotb>  (127) 
0

>  <r_i_glide_esite>  (127) 
-0.0199857

>  <r_i_glide_emodel>  (127) 
-28.9056

>  <r_i_glide_energy>  (127) 
-23.9839

>  <r_i_glide_einternal>  (127) 
0.0497912

>  <r_i_glide_intrahb_reward>  (127) 
-0

>  <i_i_glide_confnum>  (127) 
1

>  <i_i_glide_posenum>  (127) 
5

>  <r_i_glide_eff_state_penalty>  (127) 
0

>  <ligand_id>  (127) 
32

>  <original_smiles>  (127) 
CCN1CC(C)C2C3C4C5CC6C5C5C6C1C2(O)CCC4C53O

>  <smiles>  (127) 
[H]OC12C3([H])C([H])([H])C([H])([H])C4(O[H])C5([H])C1([H])C3([H])C1([H])C([H])([H])C3([H])C1([H])C2([H])C3([H])C4([H])[N+]([H])(C([H])([H])C([H])([H])[H])C([H])([H])C5([H])C([H])([H])[H]

$$$$
36:0:0
     RDKit          3D

 65 73  0  0  1  0  0  0  0  0999 V2000
    3.1531    4.3631    3.5421 C   0  0  0  0  0  0  0  0  0  0  0  0
    1.7599    4.0115    3.9165 N   0  0  2  0  0  0  0  0  0  0  0  0
    1.4508    4.3782    5.3513 C   0  0  0  0  0  0  0  0  0  0  0  0
    1.7673    3.3670    6.5306 C   0  0  0  0  0  0  0  0  0  0  0  0
    1.2685    1.8523    6.3965 C   0  0  1  0  0  0  0  0  0  0  0  0
    2.5593    2.0954    5.6576 O   0  0  0  0  0  0  0  0  0  0  0  0
    2.5000    0.9948    4.7988 C   0  0  1  0  0  0  0  0  0  0  0  0
    2.2386    1.4807    3.4148 C   0  0  1  0  0  0  0  0  0  0  0  0
    2.0231    0.0981    2.7267 C   0  0  1  0  0  0  0  0  0  0  0  0
    2.0000    0.2348    1.3183 O   0  0  0  0  0  0  0  0  0  0  0  0
    3.3232   -0.5630    3.2471 C   0  0  2  0  0  0  0  0  0  0  0  0
    3.8270   -1.9681    2.9919 C   0  0  0  0  0  0  0  0  0  0  0  0
    5.3165   -1.9450    3.4152 C   0  0  0  0  0  0  0  0  0  0  0  0
    5.8216   -0.5880    3.5230 O   0  0  0  0  0  0  0  0  0  0  0  0
    5.2035    0.3250    4.4756 C   0  0  2  0  0  0  0  0  0  0  0  0
    5.9296   -0.0171    5.7834 C   0  0  0  0  0  0  0  0  0  0  0  0
    5.0095   -0.9335    6.5281 C   0  0  0  0  0  0  0  0  0  0  0  0
    5.1938   -1.6310    7.7349 C   0  0  0  0  0  0  0  0  0  0  0  0
    4.0497   -2.1497    8.3699 C   0  0  0  0  0  0  0  0  0  0  0  0
    2.7550   -1.8830    7.8575 C   0  0  0  0  0  0  0  0  0  0  0  0
    1.6586   -2.2670    8.5698 O   0  0  0  0  0  0  0  0  0  0  0  0
    2.5623   -1.1559    6.6604 C   0  0  0  0  0  0  0  0  0  0  0  0
    3.7339   -0.8148    5.9649 C   0  0  0  0  0  0  0  0  0  0  0  0
    3.6790   -0.0027    4.6663 C   0  0  1  0  0  0  0  0  0  0  0  0
    1.3278   -0.6913    6.2997 O   0  0  0  0  0  0  0  0  0  0  0  0
    1.2927    0.5290    5.5624 C   0  0  1  0  0  0  0  0  0  0  0  0
    1.2629    2.7024    3.3186 C   0  0  1  0  0  0  0  0  0  0  0  0
   -0.2362    2.4212    3.4954 C   0  0  0  0  0  0  0  0  0  0  0  0
   -0.8662    2.5360    4.8786 C   0  0  0  0  0  0  0  0  0  0  0  0
   -2.2224    2.9238    4.8694 C   0  0  0  0  0  0  0  0  0  0  0  0
   -2.9530    3.0455    6.0593 C   0  0  0  0  0  0  0  0  0  0  0  0
   -2.3347    2.7706    7.2825 C   0  0  0  0  0  0  0  0  0  0  0  0
   -3.0592    2.9159    8.4293 O   0  0  0  0  0  0  0  0  0  0  0  0
   -0.9918    2.3676    7.3154 C   0  0  0  0  0  0  0  0  0  0  0  0
   -0.2087    2.2654    6.1322 C   0  0  0  0  0  0  0  0  0  0  0  0
    3.8722    3.7747    4.1130 H   0  0  0  0  0  0  0  0  0  0  0  0
    3.3550    5.4167    3.7449 H   0  0  0  0  0  0  0  0  0  0  0  0
    3.3320    4.1990    2.4773 H   0  0  0  0  0  0  0  0  0  0  0  0
    2.0158    5.2770    5.6004 H   0  0  0  0  0  0  0  0  0  0  0  0
    0.4145    4.7168    5.4158 H   0  0  0  0  0  0  0  0  0  0  0  0
    2.7583    3.5412    7.0078 H   0  0  0  0  0  0  0  0  0  0  0  0
    1.1936    3.8003    7.3555 H   0  0  0  0  0  0  0  0  0  0  0  0
    3.1671    1.8754    3.0012 H   0  0  0  0  0  0  0  0  0  0  0  0
    1.1481   -0.4502    3.0830 H   0  0  0  0  0  0  0  0  0  0  0  0
    1.5154   -0.4881    0.9310 H   0  0  0  0  0  0  0  0  0  0  0  0
    3.9406   -0.0149    2.5269 H   0  0  0  0  0  0  0  0  0  0  0  0
    3.2688   -2.7068    3.5622 H   0  0  0  0  0  0  0  0  0  0  0  0
    3.7446   -2.2141    1.9331 H   0  0  0  0  0  0  0  0  0  0  0  0
    5.4633   -2.4916    4.3465 H   0  0  0  0  0  0  0  0  0  0  0  0
    5.9115   -2.4809    2.6757 H   0  0  0  0  0  0  0  0  0  0  0  0
    5.3890    1.3436    4.1358 H   0  0  0  0  0  0  0  0  0  0  0  0
    6.9148   -0.4667    5.6741 H   0  0  0  0  0  0  0  0  0  0  0  0
    6.0653    0.8786    6.3824 H   0  0  0  0  0  0  0  0  0  0  0  0
    6.1697   -1.7058    8.1933 H   0  0  0  0  0  0  0  0  0  0  0  0
    4.1583   -2.6609    9.3151 H   0  0  0  0  0  0  0  0  0  0  0  0
    1.8883   -2.7104    9.3713 H   0  0  0  0  0  0  0  0  0  0  0  0
    0.4374    0.4113    4.9088 H   0  0  0  0  0  0  0  0  0  0  0  0
    1.3188    2.9057    2.2498 H   0  0  0  0  0  0  0  0  0  0  0  0
   -0.7664    3.1064    2.8335 H   0  0  0  0  0  0  0  0  0  0  0  0
   -0.4615    1.4346    3.0993 H   0  0  0  0  0  0  0  0  0  0  0  0
   -2.7306    3.1216    3.9393 H   0  0  0  0  0  0  0  0  0  0  0  0
   -3.9845    3.3408    6.0138 H   0  0  0  0  0  0  0  0  0  0  0  0
   -2.5740    2.8176    9.2339 H   0  0  0  0  0  0  0  0  0  0  0  0
   -0.5286    2.1708    8.2696 H   0  0  0  0  0  0  0  0  0  0  0  0
    1.2212    4.6933    3.4041 H   0  0  0  0  0  0  0  0  0  0  0  0
  1  2  1  0
  1 36  1  0
  1 37  1  0
  1 38  1  0
  2 27  1  0
  2  3  1  0
  2 65  1  6
  3  4  1  0
  3 39  1  0
  3 40  1  0
  4  5  1  0
  4 41  1  0
  4 42  1  0
  5 26  1  0
  5 35  1  0
  5  6  1  1
  7  6  1  1
  7 24  1  0
  7 26  1  0
  7  8  1  0
  8  9  1  0
  8 27  1  0
  8 43  1  6
  9 10  1  0
  9 11  1  0
  9 44  1  1
 10 45  1  0
 11 24  1  0
 11 12  1  0
 11 46  1  6
 12 13  1  0
 12 47  1  0
 12 48  1  0
 13 14  1  0
 13 49  1  0
 13 50  1  0
 14 15  1  0
 15 24  1  0
 15 16  1  0
 15 51  1  6
 16 17  1  0
 16 52  1  0
 16 53  1  0
 17 23  2  0
 17 18  1  0
 18 19  2  0
 18 54  1  0
 19 20  1  0
 19 55  1  0
 20 21  1  0
 20 22  2  0
 21 56  1  0
 22 23  1  0
 22 25  1  0
 24 23  1  1
 25 26  1  0
 26 57  1  6
 27 28  1  0
 27 58  1  6
 28 29  1  0
 28 59  1  0
 28 60  1  0
 29 35  2  0
 29 30  1  0
 30 31  2  0
 30 61  1  0
 31 32  1  0
 31 62  1  0
 32 33  1  0
 32 34  2  0
 33 63  1  0
 34 35  1  0
 34 64  1  0
M  CHG  1   2   1
M  END
>  <i_m_ct_stereo_status>  (128) 
1

>  <s_m_source_file>  (128) 
/var/tmp/pbs.5076255.sched01/tmp323fbwsu/45qgza_o8k.sdf

>  <i_m_source_file_index>  (128) 
6

>  <i_lp_mmshare_version>  (128) 
48012

>  <i_f3d_flags>  (128) 
0

>  <s_epik_input>  (128) 
W2NIXTFbY0hdYyhbT0hdKVtjSF1jMmMxW0NIMl1bQ0BASF0oTihbQ0gzXSlbQ0gyXVtDSDJdMylbQ0BASF00W0NAQEhdKFtPSF0pW0NAQEhdKFtDQF01NltDQF00KE83KVtDQEBIXThDMjM3KVtDSDJdW0NIMl1PW0NAQEhdNVtDSDJdYzljNmMoTzgpYyhbT0hdKVtjSF1bY0hdOQ==

>  <s_epik_cmdline>  (128) 
J2VwaWtfcHl0aG9uJywgJy1waHQnLCAnMi4wJywgJy1waCcsICc3LjAnLCAnLXRuJywgJzgnLCAnLW1hJywgJzIwMCcsICctaW1hZScsICc8aW5maWxlLm1hZT4nLCAnLW9tYWUnLCAnPG91dGZpbGUubWFlPic=

>  <r_lp_tautomer_probability>  (128) 
1

>  <r_epik_Ionization_Penalty>  (128) 
0.0488699

>  <r_epik_Ionization_Penalty_Charging>  (128) 
0.0456802

>  <r_epik_Ionization_Penalty_Neutral>  (128) 
0.00318975

>  <r_epik_State_Penalty>  (128) 
0.0387931

>  <r_epik_Charging_Adjusted_Penalty>  (128) 
0.0844733

>  <i_epik_Tot_Q>  (128) 
1

>  <i_epik_Tot_abs_Q>  (128) 
1

>  <s_lp_Force_Field>  (128) 
OPLS3e

>  <r_lp_Energy>  (128) 
258.712

>  <b_lp_Chiralities_Consistent>  (128) 
1

>  <s_lp_Variant>  (128) 
36:0-1

>  <s_i_glide_gridfile>  (128) 
pfpi4k_grid

>  <i_i_glide_lignum>  (128) 
6

>  <i_i_glide_rotatable_bonds>  (128) 
3

>  <r_i_docking_score>  (128) 
-2.85501

>  <r_i_glide_ligand_efficiency>  (128) 
-0.0815717

>  <r_i_glide_ligand_efficiency_sa>  (128) 
-0.266827

>  <r_i_glide_ligand_efficiency_ln>  (128) 
-0.626738

>  <r_i_glide_gscore>  (128) 
-2.85501

>  <r_i_glide_lipo>  (128) 
-0.483467

>  <r_i_glide_hbond>  (128) 
-0.124935

>  <r_i_glide_metal>  (128) 
-0

>  <r_i_glide_rewards>  (128) 
-0.159948

>  <r_i_glide_evdw>  (128) 
-19.4021

>  <r_i_glide_ecoul>  (128) 
-7.18632

>  <r_i_glide_erotb>  (128) 
0

>  <r_i_glide_esite>  (128) 
-0.0386062

>  <r_i_glide_emodel>  (128) 
-30.8977

>  <r_i_glide_energy>  (128) 
-26.5884

>  <r_i_glide_einternal>  (128) 
0.927764

>  <r_i_glide_intrahb_reward>  (128) 
-0

>  <i_i_glide_confnum>  (128) 
2

>  <i_i_glide_posenum>  (128) 
5

>  <r_i_glide_eff_state_penalty>  (128) 
0

>  <ligand_id>  (128) 
36

>  <original_smiles>  (128) 
CN1CCC23OC45C(C(O)C6CCOC7Cc8ccc(O)c(c8C764)OC25)C1Cc1ccc(O)cc13

>  <smiles>  (128) 
[H]Oc1c([H])c([H])c2c(c1[H])C13OC45C1([H])Oc1c(O[H])c([H])c([H])c6c1C41C([H])(OC([H])([H])C([H])([H])C1([H])C([H])(O[H])C5([H])C([H])(C2([H])[H])[N+]([H])(C([H])([H])[H])C([H])([H])C3([H])[H])C6([H])[H]

$$$$
36:0:1
     RDKit          3D

 65 73  0  0  1  0  0  0  0  0999 V2000
    3.2555    4.3702    3.2365 C   0  0  0  0  0  0  0  0  0  0  0  0
    1.8520    3.9896    3.5305 N   0  0  2  0  0  0  0  0  0  0  0  0
    1.4655    4.3496    4.9445 C   0  0  0  0  0  0  0  0  0  0  0  0
    1.7354    3.3434    6.1408 C   0  0  0  0  0  0  0  0  0  0  0  0
    1.2781    1.8232    5.9820 C   0  0  1  0  0  0  0  0  0  0  0  0
    2.6027    2.0907    5.3131 O   0  0  0  0  0  0  0  0  0  0  0  0
    2.6074    0.9824    4.4580 C   0  0  1  0  0  0  0  0  0  0  0  0
    2.4127    1.4664    3.0619 C   0  0  1  0  0  0  0  0  0  0  0  0
    2.2515    0.0771    2.3727 C   0  0  1  0  0  0  0  0  0  0  0  0
    2.2977    0.1892    0.9661 O   0  0  0  0  0  0  0  0  0  0  0  0
    3.5376   -0.5569    2.9510 C   0  0  2  0  0  0  0  0  0  0  0  0
    4.0792   -1.9474    2.7196 C   0  0  0  0  0  0  0  0  0  0  0  0
    5.5409   -1.9123    3.2169 C   0  0  0  0  0  0  0  0  0  0  0  0
    6.0257   -0.5502    3.3474 O   0  0  0  0  0  0  0  0  0  0  0  0
    5.3396    0.3369    4.2833 C   0  0  2  0  0  0  0  0  0  0  0  0
    5.9928    0.0345    5.6383 C   0  0  0  0  0  0  0  0  0  0  0  0
    5.0493   -0.9018    6.3262 C   0  0  0  0  0  0  0  0  0  0  0  0
    5.1820   -1.5915    7.5360 C   0  0  0  0  0  0  0  0  0  0  0  0
    4.0138   -2.1326    8.1091 C   0  0  0  0  0  0  0  0  0  0  0  0
    2.7462   -1.8885    7.5209 C   0  0  0  0  0  0  0  0  0  0  0  0
    1.6233   -2.2911    8.1781 O   0  0  0  0  0  0  0  0  0  0  0  0
    2.6037   -1.1682    6.3158 C   0  0  0  0  0  0  0  0  0  0  0  0
    3.8011   -0.8087    5.6896 C   0  0  0  0  0  0  0  0  0  0  0  0
    3.8067    0.0022    4.3868 C   0  0  1  0  0  0  0  0  0  0  0  0
    1.3768   -0.7206    5.8992 O   0  0  0  0  0  0  0  0  0  0  0  0
    1.3671    0.4998    5.1554 C   0  0  1  0  0  0  0  0  0  0  0  0
    1.4170    2.6666    2.9124 C   0  0  1  0  0  0  0  0  0  0  0  0
   -0.0802    2.3357    3.0131 C   0  0  0  0  0  0  0  0  0  0  0  0
   -0.7874    2.4572    4.3526 C   0  0  0  0  0  0  0  0  0  0  0  0
   -2.1498    2.8331    4.2660 C   0  0  0  0  0  0  0  0  0  0  0  0
   -2.9361    2.9584    5.4104 C   0  0  0  0  0  0  0  0  0  0  0  0
   -2.3890    2.6833    6.6665 C   0  0  0  0  0  0  0  0  0  0  0  0
   -3.1761    2.7983    7.7666 O   0  0  0  0  0  0  0  0  0  0  0  0
   -1.0398    2.2994    6.7726 C   0  0  0  0  0  0  0  0  0  0  0  0
   -0.1939    2.2056    5.6413 C   0  0  0  0  0  0  0  0  0  0  0  0
    3.9423    3.7919    3.8548 H   0  0  0  0  0  0  0  0  0  0  0  0
    3.4377    5.4260    3.4480 H   0  0  0  0  0  0  0  0  0  0  0  0
    3.4947    4.2099    2.1848 H   0  0  0  0  0  0  0  0  0  0  0  0
    2.0004    5.2570    5.2232 H   0  0  0  0  0  0  0  0  0  0  0  0
    0.4243    4.6728    4.9522 H   0  0  0  0  0  0  0  0  0  0  0  0
    2.6959    3.5340    6.6684 H   0  0  0  0  0  0  0  0  0  0  0  0
    1.1109    3.7687    6.9313 H   0  0  0  0  0  0  0  0  0  0  0  0
    3.3548    1.8759    2.6990 H   0  0  0  0  0  0  0  0  0  0  0  0
    1.3721   -0.4926    2.6828 H   0  0  0  0  0  0  0  0  0  0  0  0
    1.5996   -0.3139    0.5548 H   0  0  0  0  0  0  0  0  0  0  0  0
    4.1866    0.0076    2.2637 H   0  0  0  0  0  0  0  0  0  0  0  0
    3.5058   -2.6999    3.2625 H   0  0  0  0  0  0  0  0  0  0  0  0
    4.0601   -2.1971    1.6563 H   0  0  0  0  0  0  0  0  0  0  0  0
    5.6500   -2.4457    4.1572 H   0  0  0  0  0  0  0  0  0  0  0  0
    6.1794   -2.4360    2.5072 H   0  0  0  0  0  0  0  0  0  0  0  0
    5.5372    1.3315    3.9484 H   0  0  0  0  0  0  0  0  0  0  0  0
    6.9996   -0.3713    5.5990 H   0  0  0  0  0  0  0  0  0  0  0  0
    6.0586    0.9420    6.2288 H   0  0  0  0  0  0  0  0  0  0  0  0
    6.1327   -1.6493    8.0539 H   0  0  0  0  0  0  0  0  0  0  0  0
    4.0608   -2.6419    9.0612 H   0  0  0  0  0  0  0  0  0  0  0  0
    0.8581   -2.0654    7.6739 H   0  0  0  0  0  0  0  0  0  0  0  0
    0.5539    0.3642    4.4524 H   0  0  0  0  0  0  0  0  0  0  0  0
    1.5277    2.8723    1.8502 H   0  0  0  0  0  0  0  0  0  0  0  0
   -0.6204    2.9731    2.3235 H   0  0  0  0  0  0  0  0  0  0  0  0
   -0.2544    1.3449    2.6063 H   0  0  0  0  0  0  0  0  0  0  0  0
   -2.6072    3.0186    3.3047 H   0  0  0  0  0  0  0  0  0  0  0  0
   -3.9769    3.2408    5.3239 H   0  0  0  0  0  0  0  0  0  0  0  0
   -2.7283    2.7331    8.5984 H   0  0  0  0  0  0  0  0  0  0  0  0
   -0.6285    2.1097    7.7534 H   0  0  0  0  0  0  0  0  0  0  0  0
    1.3290    4.6598    2.9818 H   0  0  0  0  0  0  0  0  0  0  0  0
  1  2  1  0
  1 36  1  0
  1 37  1  0
  1 38  1  0
  2 27  1  0
  2  3  1  0
  2 65  1  6
  3  4  1  0
  3 39  1  0
  3 40  1  0
  4  5  1  0
  4 41  1  0
  4 42  1  0
  5 26  1  0
  5 35  1  0
  5  6  1  1
  7  6  1  1
  7 24  1  0
  7 26  1  0
  7  8  1  0
  8  9  1  0
  8 27  1  0
  8 43  1  6
  9 10  1  0
  9 11  1  0
  9 44  1  6
 10 45  1  0
 11 24  1  0
 11 12  1  0
 11 46  1  6
 12 13  1  0
 12 47  1  0
 12 48  1  0
 13 14  1  0
 13 49  1  0
 13 50  1  0
 14 15  1  0
 15 24  1  0
 15 16  1  0
 15 51  1  6
 16 17  1  0
 16 52  1  0
 16 53  1  0
 17 23  2  0
 17 18  1  0
 18 19  2  0
 18 54  1  0
 19 20  1  0
 19 55  1  0
 20 21  1  0
 20 22  2  0
 21 56  1  0
 22 23  1  0
 22 25  1  0
 24 23  1  1
 25 26  1  0
 26 57  1  6
 27 28  1  0
 27 58  1  6
 28 29  1  0
 28 59  1  0
 28 60  1  0
 29 35  2  0
 29 30  1  0
 30 31  2  0
 30 61  1  0
 31 32  1  0
 31 62  1  0
 32 33  1  0
 32 34  2  0
 33 63  1  0
 34 35  1  0
 34 64  1  0
M  CHG  1   2   1
M  END
>  <i_m_ct_stereo_status>  (129) 
1

>  <s_m_source_file>  (129) 
/var/tmp/pbs.5076255.sched01/tmp323fbwsu/45qgza_o8k.sdf

>  <i_m_source_file_index>  (129) 
6

>  <i_lp_mmshare_version>  (129) 
48012

>  <i_f3d_flags>  (129) 
0

>  <s_epik_input>  (129) 
W2NIXTFbY0hdYyhbT0hdKVtjSF1jMmMxW0NIMl1bQ0BASF0oTihbQ0gzXSlbQ0gyXVtDSDJdMylbQ0BASF00W0NAQEhdKFtPSF0pW0NAQEhdKFtDQF01NltDQF00KE83KVtDQEBIXThDMjM3KVtDSDJdW0NIMl1PW0NAQEhdNVtDSDJdYzljNmMoTzgpYyhbT0hdKVtjSF1bY0hdOQ==

>  <s_epik_cmdline>  (129) 
J2VwaWtfcHl0aG9uJywgJy1waHQnLCAnMi4wJywgJy1waCcsICc3LjAnLCAnLXRuJywgJzgnLCAnLW1hJywgJzIwMCcsICctaW1hZScsICc8aW5maWxlLm1hZT4nLCAnLW9tYWUnLCAnPG91dGZpbGUubWFlPic=

>  <r_lp_tautomer_probability>  (129) 
1

>  <r_epik_Ionization_Penalty>  (129) 
0.0488699

>  <r_epik_Ionization_Penalty_Charging>  (129) 
0.0456802

>  <r_epik_Ionization_Penalty_Neutral>  (129) 
0.00318975

>  <r_epik_State_Penalty>  (129) 
0.0387931

>  <r_epik_Charging_Adjusted_Penalty>  (129) 
0.0844733

>  <i_epik_Tot_Q>  (129) 
1

>  <i_epik_Tot_abs_Q>  (129) 
1

>  <s_lp_Force_Field>  (129) 
OPLS3e

>  <r_lp_Energy>  (129) 
258.712

>  <b_lp_Chiralities_Consistent>  (129) 
1

>  <s_lp_Variant>  (129) 
36:0-1

>  <s_i_glide_gridfile>  (129) 
pfpi4k_grid

>  <i_i_glide_lignum>  (129) 
6

>  <i_i_glide_rotatable_bonds>  (129) 
3

>  <r_i_docking_score>  (129) 
-2.83004

>  <r_i_glide_ligand_efficiency>  (129) 
-0.0808582

>  <r_i_glide_ligand_efficiency_sa>  (129) 
-0.264492

>  <r_i_glide_ligand_efficiency_ln>  (129) 
-0.621256

>  <r_i_glide_gscore>  (129) 
-2.83004

>  <r_i_glide_lipo>  (129) 
-0.444251

>  <r_i_glide_hbond>  (129) 
-0.16

>  <r_i_glide_metal>  (129) 
-0

>  <r_i_glide_rewards>  (129) 
-0.159948

>  <r_i_glide_evdw>  (129) 
-14.3965

>  <r_i_glide_ecoul>  (129) 
-8.63062

>  <r_i_glide_erotb>  (129) 
0

>  <r_i_glide_esite>  (129) 
-0.0514209

>  <r_i_glide_emodel>  (129) 
-26.9066

>  <r_i_glide_energy>  (129) 
-23.0271

>  <r_i_glide_einternal>  (129) 
1.55738

>  <r_i_glide_intrahb_reward>  (129) 
-0

>  <i_i_glide_confnum>  (129) 
2

>  <i_i_glide_posenum>  (129) 
1

>  <r_i_glide_eff_state_penalty>  (129) 
0

>  <ligand_id>  (129) 
36

>  <original_smiles>  (129) 
CN1CCC23OC45C(C(O)C6CCOC7Cc8ccc(O)c(c8C764)OC25)C1Cc1ccc(O)cc13

>  <smiles>  (129) 
[H]Oc1c([H])c([H])c2c(c1[H])C13OC45C1([H])Oc1c(O[H])c([H])c([H])c6c1C41C([H])(OC([H])([H])C([H])([H])C1([H])C([H])(O[H])C5([H])C([H])(C2([H])[H])[N+]([H])(C([H])([H])[H])C([H])([H])C3([H])[H])C6([H])[H]

$$$$
36:0:2
     RDKit          3D

 65 73  0  0  1  0  0  0  0  0999 V2000
    3.2565    4.3828    3.1793 C   0  0  0  0  0  0  0  0  0  0  0  0
    1.8504    4.0123    3.4586 N   0  0  2  0  0  0  0  0  0  0  0  0
    1.4513    4.3874    4.8661 C   0  0  0  0  0  0  0  0  0  0  0  0
    1.7038    3.3923    6.0717 C   0  0  0  0  0  0  0  0  0  0  0  0
    1.2493    1.8739    5.9378 C   0  0  1  0  0  0  0  0  0  0  0  0
    2.5730    2.1205    5.2597 O   0  0  0  0  0  0  0  0  0  0  0  0
    2.5748    1.0069    4.4258 C   0  0  1  0  0  0  0  0  0  0  0  0
    2.4002    1.4835    3.0328 C   0  0  1  0  0  0  0  0  0  0  0  0
    2.2340    0.0933    2.3460 C   0  0  1  0  0  0  0  0  0  0  0  0
    2.2986    0.2112    0.9405 O   0  0  0  0  0  0  0  0  0  0  0  0
    3.5094   -0.5476    2.9410 C   0  0  2  0  0  0  0  0  0  0  0  0
    4.0402   -1.9517    2.7207 C   0  0  0  0  0  0  0  0  0  0  0  0
    5.4961   -1.9158    3.2343 C   0  0  0  0  0  0  0  0  0  0  0  0
    5.9819   -0.5551    3.3596 O   0  0  0  0  0  0  0  0  0  0  0  0
    5.2997    0.3334    4.2828 C   0  0  2  0  0  0  0  0  0  0  0  0
    5.9417    0.0432    5.6362 C   0  0  0  0  0  0  0  0  0  0  0  0
    4.9900   -0.8818    6.3319 C   0  0  0  0  0  0  0  0  0  0  0  0
    5.1032   -1.5648    7.5569 C   0  0  0  0  0  0  0  0  0  0  0  0
    3.9215   -2.0873    8.1132 C   0  0  0  0  0  0  0  0  0  0  0  0
    2.6634   -1.8435    7.5082 C   0  0  0  0  0  0  0  0  0  0  0  0
    1.5339   -2.2456    8.1456 O   0  0  0  0  0  0  0  0  0  0  0  0
    2.5271   -1.1263    6.2943 C   0  0  0  0  0  0  0  0  0  0  0  0
    3.7472   -0.7795    5.6813 C   0  0  0  0  0  0  0  0  0  0  0  0
    3.7715    0.0205    4.3793 C   0  0  1  0  0  0  0  0  0  0  0  0
    1.3127   -0.6737    5.8583 O   0  0  0  0  0  0  0  0  0  0  0  0
    1.3170    0.5438    5.1152 C   0  0  1  0  0  0  0  0  0  0  0  0
    1.4156    2.6868    2.8563 C   0  0  1  0  0  0  0  0  0  0  0  0
   -0.0781    2.3567    2.9415 C   0  0  0  0  0  0  0  0  0  0  0  0
   -0.7896    2.5031    4.2741 C   0  0  0  0  0  0  0  0  0  0  0  0
   -2.1460    2.9014    4.1654 C   0  0  0  0  0  0  0  0  0  0  0  0
   -2.9366    3.0540    5.3015 C   0  0  0  0  0  0  0  0  0  0  0  0
   -2.4178    2.7654    6.5639 C   0  0  0  0  0  0  0  0  0  0  0  0
   -3.2196    2.8647    7.6716 O   0  0  0  0  0  0  0  0  0  0  0  0
   -1.0785    2.3683    6.6934 C   0  0  0  0  0  0  0  0  0  0  0  0
   -0.2199    2.2578    5.5725 C   0  0  0  0  0  0  0  0  0  0  0  0
    3.9297    3.8061    3.8067 H   0  0  0  0  0  0  0  0  0  0  0  0
    3.4492    5.4327    3.3837 H   0  0  0  0  0  0  0  0  0  0  0  0
    3.5090    4.2137    2.1362 H   0  0  0  0  0  0  0  0  0  0  0  0
    1.9878    5.2833    5.1448 H   0  0  0  0  0  0  0  0  0  0  0  0
    0.4176    4.7187    4.8639 H   0  0  0  0  0  0  0  0  0  0  0  0
    2.6622    3.5762    6.6018 H   0  0  0  0  0  0  0  0  0  0  0  0
    1.0740    3.8307    6.8563 H   0  0  0  0  0  0  0  0  0  0  0  0
    3.3513    1.8807    2.6696 H   0  0  0  0  0  0  0  0  0  0  0  0
    1.3462   -0.4674    2.6426 H   0  0  0  0  0  0  0  0  0  0  0  0
    1.6164   -0.3010    0.5108 H   0  0  0  0  0  0  0  0  0  0  0  0
    4.1637    0.0055    2.2586 H   0  0  0  0  0  0  0  0  0  0  0  0
    3.4647   -2.6869    3.2678 H   0  0  0  0  0  0  0  0  0  0  0  0
    4.0323   -2.2024    1.6613 H   0  0  0  0  0  0  0  0  0  0  0  0
    5.5932   -2.4405    4.1869 H   0  0  0  0  0  0  0  0  0  0  0  0
    6.1504   -2.4457    2.5421 H   0  0  0  0  0  0  0  0  0  0  0  0
    5.5065    1.3062    3.9374 H   0  0  0  0  0  0  0  0  0  0  0  0
    6.9487   -0.3737    5.6135 H   0  0  0  0  0  0  0  0  0  0  0  0
    6.0116    0.9511    6.2298 H   0  0  0  0  0  0  0  0  0  0  0  0
    6.0537   -1.6194    8.0770 H   0  0  0  0  0  0  0  0  0  0  0  0
    3.9552   -2.5880    9.0679 H   0  0  0  0  0  0  0  0  0  0  0  0
    0.7796   -2.0459    7.6144 H   0  0  0  0  0  0  0  0  0  0  0  0
    0.5169    0.4134    4.4000 H   0  0  0  0  0  0  0  0  0  0  0  0
    1.5398    2.8611    1.7930 H   0  0  0  0  0  0  0  0  0  0  0  0
   -0.6310    2.9640    2.2366 H   0  0  0  0  0  0  0  0  0  0  0  0
   -0.2531    1.3619    2.5445 H   0  0  0  0  0  0  0  0  0  0  0  0
   -2.6000    3.0752    3.1972 H   0  0  0  0  0  0  0  0  0  0  0  0
   -3.9749    3.3318    5.1939 H   0  0  0  0  0  0  0  0  0  0  0  0
   -4.1028    3.1503    7.5003 H   0  0  0  0  0  0  0  0  0  0  0  0
   -0.6948    2.1823    7.6858 H   0  0  0  0  0  0  0  0  0  0  0  0
    1.3376    4.6800    2.9017 H   0  0  0  0  0  0  0  0  0  0  0  0
  1  2  1  0
  1 36  1  0
  1 37  1  0
  1 38  1  0
  2 27  1  0
  2  3  1  0
  2 65  1  6
  3  4  1  0
  3 39  1  0
  3 40  1  0
  4  5  1  0
  4 41  1  0
  4 42  1  0
  5 26  1  0
  5 35  1  0
  5  6  1  1
  7  6  1  1
  7 24  1  0
  7 26  1  0
  7  8  1  0
  8  9  1  0
  8 27  1  0
  8 43  1  6
  9 10  1  0
  9 11  1  0
  9 44  1  6
 10 45  1  0
 11 24  1  0
 11 12  1  0
 11 46  1  6
 12 13  1  0
 12 47  1  0
 12 48  1  0
 13 14  1  0
 13 49  1  0
 13 50  1  0
 14 15  1  0
 15 24  1  0
 15 16  1  0
 15 51  1  6
 16 17  1  0
 16 52  1  0
 16 53  1  0
 17 23  2  0
 17 18  1  0
 18 19  2  0
 18 54  1  0
 19 20  1  0
 19 55  1  0
 20 21  1  0
 20 22  2  0
 21 56  1  0
 22 23  1  0
 22 25  1  0
 24 23  1  1
 25 26  1  0
 26 57  1  6
 27 28  1  0
 27 58  1  6
 28 29  1  0
 28 59  1  0
 28 60  1  0
 29 35  2  0
 29 30  1  0
 30 31  2  0
 30 61  1  0
 31 32  1  0
 31 62  1  0
 32 33  1  0
 32 34  2  0
 33 63  1  0
 34 35  1  0
 34 64  1  0
M  CHG  1   2   1
M  END
>  <i_m_ct_stereo_status>  (130) 
1

>  <s_m_source_file>  (130) 
/var/tmp/pbs.5076255.sched01/tmp323fbwsu/45qgza_o8k.sdf

>  <i_m_source_file_index>  (130) 
6

>  <i_lp_mmshare_version>  (130) 
48012

>  <i_f3d_flags>  (130) 
0

>  <s_epik_input>  (130) 
W2NIXTFbY0hdYyhbT0hdKVtjSF1jMmMxW0NIMl1bQ0BASF0oTihbQ0gzXSlbQ0gyXVtDSDJdMylbQ0BASF00W0NAQEhdKFtPSF0pW0NAQEhdKFtDQF01NltDQF00KE83KVtDQEBIXThDMjM3KVtDSDJdW0NIMl1PW0NAQEhdNVtDSDJdYzljNmMoTzgpYyhbT0hdKVtjSF1bY0hdOQ==

>  <s_epik_cmdline>  (130) 
J2VwaWtfcHl0aG9uJywgJy1waHQnLCAnMi4wJywgJy1waCcsICc3LjAnLCAnLXRuJywgJzgnLCAnLW1hJywgJzIwMCcsICctaW1hZScsICc8aW5maWxlLm1hZT4nLCAnLW9tYWUnLCAnPG91dGZpbGUubWFlPic=

>  <r_lp_tautomer_probability>  (130) 
1

>  <r_epik_Ionization_Penalty>  (130) 
0.0488699

>  <r_epik_Ionization_Penalty_Charging>  (130) 
0.0456802

>  <r_epik_Ionization_Penalty_Neutral>  (130) 
0.00318975

>  <r_epik_State_Penalty>  (130) 
0.0387931

>  <r_epik_Charging_Adjusted_Penalty>  (130) 
0.0844733

>  <i_epik_Tot_Q>  (130) 
1

>  <i_epik_Tot_abs_Q>  (130) 
1

>  <s_lp_Force_Field>  (130) 
OPLS3e

>  <r_lp_Energy>  (130) 
258.712

>  <b_lp_Chiralities_Consistent>  (130) 
1

>  <s_lp_Variant>  (130) 
36:0-1

>  <s_i_glide_gridfile>  (130) 
pfpi4k_grid

>  <i_i_glide_lignum>  (130) 
6

>  <i_i_glide_rotatable_bonds>  (130) 
3

>  <r_i_docking_score>  (130) 
-2.74732

>  <r_i_glide_ligand_efficiency>  (130) 
-0.0784948

>  <r_i_glide_ligand_efficiency_sa>  (130) 
-0.256762

>  <r_i_glide_ligand_efficiency_ln>  (130) 
-0.603097

>  <r_i_glide_gscore>  (130) 
-2.74732

>  <r_i_glide_lipo>  (130) 
-0.449953

>  <r_i_glide_hbond>  (130) 
-0.16

>  <r_i_glide_metal>  (130) 
-0

>  <r_i_glide_rewards>  (130) 
-0.159948

>  <r_i_glide_evdw>  (130) 
-14.483

>  <r_i_glide_ecoul>  (130) 
-7.99069

>  <r_i_glide_erotb>  (130) 
0

>  <r_i_glide_esite>  (130) 
-0.0546626

>  <r_i_glide_emodel>  (130) 
-26.2062

>  <r_i_glide_energy>  (130) 
-22.4737

>  <r_i_glide_einternal>  (130) 
1.51046

>  <r_i_glide_intrahb_reward>  (130) 
-0

>  <i_i_glide_confnum>  (130) 
2

>  <i_i_glide_posenum>  (130) 
3

>  <r_i_glide_eff_state_penalty>  (130) 
0

>  <ligand_id>  (130) 
36

>  <original_smiles>  (130) 
CN1CCC23OC45C(C(O)C6CCOC7Cc8ccc(O)c(c8C764)OC25)C1Cc1ccc(O)cc13

>  <smiles>  (130) 
[H]Oc1c([H])c([H])c2c(c1[H])C13OC45C1([H])Oc1c(O[H])c([H])c([H])c6c1C41C([H])(OC([H])([H])C([H])([H])C1([H])C([H])(O[H])C5([H])C([H])(C2([H])[H])[N+]([H])(C([H])([H])[H])C([H])([H])C3([H])[H])C6([H])[H]

$$$$
36:1:0
     RDKit          3D

 64 72  0  0  1  0  0  0  0  0999 V2000
    7.5499   -5.4585    0.7729 C   0  0  0  0  0  0  0  0  0  0  0  0
    6.7559   -4.4047    0.1449 N   0  0  0  0  0  0  0  0  0  0  0  0
    7.4558   -3.1402    0.2688 C   0  0  0  0  0  0  0  0  0  0  0  0
    6.6608   -1.9844   -0.3244 C   0  0  0  0  0  0  0  0  0  0  0  0
    5.1543   -1.6583    0.0468 C   0  0  2  0  0  0  0  0  0  0  0  0
    5.4800   -0.7693    1.1305 O   0  0  0  0  0  0  0  0  0  0  0  0
    4.9969   -1.8842    2.0323 C   0  0  1  0  0  0  0  0  0  0  0  0
    5.3333   -3.4509    2.0366 C   0  0  1  0  0  0  0  0  0  0  0  0
    4.2983   -3.9697    3.0837 C   0  0  1  0  0  0  0  0  0  0  0  0
    4.6001   -5.2706    3.5673 O   0  0  0  0  0  0  0  0  0  0  0  0
    4.4301   -2.8813    4.1505 C   0  0  2  0  0  0  0  0  0  0  0  0
    3.6257   -2.8747    5.4431 C   0  0  0  0  0  0  0  0  0  0  0  0
    4.3103   -1.8626    6.3897 C   0  0  0  0  0  0  0  0  0  0  0  0
    5.5542   -1.3654    5.8357 O   0  0  0  0  0  0  0  0  0  0  0  0
    5.4947   -0.7262    4.5314 C   0  0  2  0  0  0  0  0  0  0  0  0
    4.8264    0.5995    4.8738 C   0  0  0  0  0  0  0  0  0  0  0  0
    3.4344    0.5334    4.3318 C   0  0  0  0  0  0  0  0  0  0  0  0
    2.4219    1.5038    4.3505 C   0  0  0  0  0  0  0  0  0  0  0  0
    1.4120    1.4169    3.3794 C   0  0  0  0  0  0  0  0  0  0  0  0
    1.5309    0.4986    2.3128 C   0  0  0  0  0  0  0  0  0  0  0  0
    0.6407    0.5673    1.2879 O   0  0  0  0  0  0  0  0  0  0  0  0
    2.5883   -0.4335    2.2438 C   0  0  0  0  0  0  0  0  0  0  0  0
    3.4152   -0.4935    3.3826 C   0  0  0  0  0  0  0  0  0  0  0  0
    4.5885   -1.4783    3.4832 C   0  0  1  0  0  0  0  0  0  0  0  0
    2.8686   -1.0502    1.0549 O   0  0  0  0  0  0  0  0  0  0  0  0
    3.9410   -1.9780    1.0269 C   0  0  1  0  0  0  0  0  0  0  0  0
    5.3835   -4.3496    0.6544 C   0  0  1  0  0  0  0  0  0  0  0  0
    4.3992   -4.2866   -0.6494 C   0  0  0  0  0  0  0  0  0  0  0  0
    4.1532   -3.0441   -1.6048 C   0  0  0  0  0  0  0  0  0  0  0  0
    3.5743   -3.2602   -2.8787 C   0  0  0  0  0  0  0  0  0  0  0  0
    3.2908   -2.1991   -3.7536 C   0  0  0  0  0  0  0  0  0  0  0  0
    3.5963   -0.8848   -3.3828 C   0  0  0  0  0  0  0  0  0  0  0  0
    3.3006    0.1517   -4.2204 O   0  0  0  0  0  0  0  0  0  0  0  0
    4.2075   -0.6443   -2.1410 C   0  0  0  0  0  0  0  0  0  0  0  0
    4.4356   -1.6956   -1.2488 C   0  0  0  0  0  0  0  0  0  0  0  0
    8.5460   -5.4990    0.3318 H   0  0  0  0  0  0  0  0  0  0  0  0
    7.0921   -6.4373    0.6164 H   0  0  0  0  0  0  0  0  0  0  0  0
    7.6657   -5.3031    1.8467 H   0  0  0  0  0  0  0  0  0  0  0  0
    7.7611   -2.9173    1.2839 H   0  0  0  0  0  0  0  0  0  0  0  0
    8.3895   -3.2249   -0.2874 H   0  0  0  0  0  0  0  0  0  0  0  0
    7.2669   -1.0912   -0.1471 H   0  0  0  0  0  0  0  0  0  0  0  0
    6.7405   -2.1297   -1.4040 H   0  0  0  0  0  0  0  0  0  0  0  0
    6.2868   -3.5892    2.5269 H   0  0  0  0  0  0  0  0  0  0  0  0
    3.2729   -3.9855    2.7194 H   0  0  0  0  0  0  0  0  0  0  0  0
    5.4847   -5.2946    3.9000 H   0  0  0  0  0  0  0  0  0  0  0  0
    5.4286   -3.1637    4.4961 H   0  0  0  0  0  0  0  0  0  0  0  0
    2.5900   -2.5993    5.2554 H   0  0  0  0  0  0  0  0  0  0  0  0
    3.6310   -3.8690    5.8934 H   0  0  0  0  0  0  0  0  0  0  0  0
    3.6256   -1.0495    6.6422 H   0  0  0  0  0  0  0  0  0  0  0  0
    4.5382   -2.3484    7.3379 H   0  0  0  0  0  0  0  0  0  0  0  0
    6.4826   -0.4929    4.1461 H   0  0  0  0  0  0  0  0  0  0  0  0
    4.8529    0.8750    5.9277 H   0  0  0  0  0  0  0  0  0  0  0  0
    5.3682    1.3567    4.3252 H   0  0  0  0  0  0  0  0  0  0  0  0
    2.4640    2.3458    5.0310 H   0  0  0  0  0  0  0  0  0  0  0  0
    0.6152    2.1408    3.3567 H   0  0  0  0  0  0  0  0  0  0  0  0
    0.7904   -0.0447    0.5580 H   0  0  0  0  0  0  0  0  0  0  0  0
    3.3833   -2.8968    0.9424 H   0  0  0  0  0  0  0  0  0  0  0  0
    5.1825   -5.3626    1.0070 H   0  0  0  0  0  0  0  0  0  0  0  0
    4.7371   -5.0808   -1.3152 H   0  0  0  0  0  0  0  0  0  0  0  0
    3.4063   -4.6176   -0.3339 H   0  0  0  0  0  0  0  0  0  0  0  0
    3.3251   -4.2545   -3.2084 H   0  0  0  0  0  0  0  0  0  0  0  0
    2.8125   -2.3870   -4.6976 H   0  0  0  0  0  0  0  0  0  0  0  0
    3.1002    0.9686   -3.7702 H   0  0  0  0  0  0  0  0  0  0  0  0
    4.4697    0.3607   -1.8871 H   0  0  0  0  0  0  0  0  0  0  0  0
  1  2  1  0
  1 36  1  0
  1 37  1  0
  1 38  1  0
  2 27  1  0
  2  3  1  0
  3  4  1  0
  3 39  1  0
  3 40  1  0
  4  5  1  0
  4 41  1  0
  4 42  1  0
  5 26  1  0
  5 35  1  0
  5  6  1  1
  7  6  1  6
  7 24  1  0
  7 26  1  0
  7  8  1  0
  8  9  1  0
  8 27  1  0
  8 43  1  1
  9 10  1  0
  9 11  1  0
  9 44  1  6
 10 45  1  0
 11 24  1  0
 11 12  1  0
 11 46  1  1
 12 13  1  0
 12 47  1  0
 12 48  1  0
 13 14  1  0
 13 49  1  0
 13 50  1  0
 14 15  1  0
 15 24  1  0
 15 16  1  0
 15 51  1  6
 16 17  1  0
 16 52  1  0
 16 53  1  0
 17 23  2  0
 17 18  1  0
 18 19  2  0
 18 54  1  0
 19 20  1  0
 19 55  1  0
 20 21  1  0
 20 22  2  0
 21 56  1  0
 22 23  1  0
 22 25  1  0
 24 23  1  6
 25 26  1  0
 26 57  1  6
 27 28  1  0
 27 58  1  1
 28 29  1  0
 28 59  1  0
 28 60  1  0
 29 35  2  0
 29 30  1  0
 30 31  2  0
 30 61  1  0
 31 32  1  0
 31 62  1  0
 32 33  1  0
 32 34  2  0
 33 63  1  0
 34 35  1  0
 34 64  1  0
M  END
>  <i_m_ct_stereo_status>  (131) 
1

>  <s_m_source_file>  (131) 
/var/tmp/pbs.5076255.sched01/tmp323fbwsu/45qgza_o8k.sdf

>  <i_m_source_file_index>  (131) 
7

>  <i_lp_mmshare_version>  (131) 
48012

>  <i_f3d_flags>  (131) 
0

>  <s_epik_input>  (131) 
W2NIXTFbY0hdYyhbT0hdKVtjSF1jMmMxW0NIMl1bQ0BASF0oTihbQ0gzXSlbQ0gyXVtDSDJdMylbQ0BASF00W0NAQEhdKFtPSF0pW0NAQEhdKFtDQF01NltDQF00KE83KVtDQEBIXThDMjM3KVtDSDJdW0NIMl1PW0NAQEhdNVtDSDJdYzljNmMoTzgpYyhbT0hdKVtjSF1bY0hdOQ==

>  <s_epik_cmdline>  (131) 
J2VwaWtfcHl0aG9uJywgJy1waHQnLCAnMi4wJywgJy1waCcsICc3LjAnLCAnLXRuJywgJzgnLCAnLW1hJywgJzIwMCcsICctaW1hZScsICc8aW5maWxlLm1hZT4nLCAnLW9tYWUnLCAnPG91dGZpbGUubWFlPic=

>  <r_lp_tautomer_probability>  (131) 
1

>  <r_epik_Ionization_Penalty>  (131) 
1.54143

>  <r_epik_Ionization_Penalty_Charging>  (131) 
0

>  <r_epik_Ionization_Penalty_Neutral>  (131) 
1.54143

>  <r_epik_State_Penalty>  (131) 
1.63446

>  <r_epik_Charging_Adjusted_Penalty>  (131) 
1.63446

>  <i_epik_Tot_Q>  (131) 
0

>  <i_epik_Tot_abs_Q>  (131) 
0

>  <s_lp_Force_Field>  (131) 
OPLS3e

>  <r_lp_Energy>  (131) 
262.791

>  <b_lp_Chiralities_Consistent>  (131) 
1

>  <s_lp_Variant>  (131) 
36:0-2

>  <s_i_glide_gridfile>  (131) 
pfpi4k_grid

>  <i_i_glide_lignum>  (131) 
7

>  <i_i_glide_rotatable_bonds>  (131) 
3

>  <r_i_docking_score>  (131) 
-3.66297

>  <r_i_glide_ligand_efficiency>  (131) 
-0.104656

>  <r_i_glide_ligand_efficiency_sa>  (131) 
-0.342338

>  <r_i_glide_ligand_efficiency_ln>  (131) 
-0.804103

>  <r_i_glide_gscore>  (131) 
-3.66297

>  <r_i_glide_lipo>  (131) 
-0.955536

>  <r_i_glide_hbond>  (131) 
-0.303782

>  <r_i_glide_metal>  (131) 
-0

>  <r_i_glide_rewards>  (131) 
-0.166821

>  <r_i_glide_evdw>  (131) 
-23.221

>  <r_i_glide_ecoul>  (131) 
-7.17189

>  <r_i_glide_erotb>  (131) 
0

>  <r_i_glide_esite>  (131) 
0

>  <r_i_glide_emodel>  (131) 
-36.6275

>  <r_i_glide_energy>  (131) 
-30.3929

>  <r_i_glide_einternal>  (131) 
0.84704

>  <r_i_glide_intrahb_reward>  (131) 
-0

>  <i_i_glide_confnum>  (131) 
2

>  <i_i_glide_posenum>  (131) 
13

>  <r_i_glide_eff_state_penalty>  (131) 
0

>  <ligand_id>  (131) 
36

>  <original_smiles>  (131) 
CN1CCC23OC45C(C(O)C6CCOC7Cc8ccc(O)c(c8C764)OC25)C1Cc1ccc(O)cc13

>  <smiles>  (131) 
[H]Oc1c([H])c([H])c2c(c1[H])C13OC45C1([H])Oc1c(O[H])c([H])c([H])c6c1C41C([H])(OC([H])([H])C([H])([H])C1([H])C([H])(O[H])C5([H])C([H])(N(C([H])([H])[H])C([H])([H])C3([H])[H])C2([H])[H])C6([H])[H]

$$$$
36:1:1
     RDKit          3D

 64 72  0  0  1  0  0  0  0  0999 V2000
    2.4779    4.1575    2.9319 C   0  0  0  0  0  0  0  0  0  0  0  0
    1.7151    3.5834    4.0404 N   0  0  0  0  0  0  0  0  0  0  0  0
    2.6127    3.3242    5.1526 C   0  0  0  0  0  0  0  0  0  0  0  0
    1.8792    2.6897    6.3359 C   0  0  0  0  0  0  0  0  0  0  0  0
    0.9951    1.3796    6.2213 C   0  0  2  0  0  0  0  0  0  0  0  0
    2.0696    0.4624    6.4775 O   0  0  0  0  0  0  0  0  0  0  0  0
    1.9753    0.1202    5.0133 C   0  0  1  0  0  0  0  0  0  0  0  0
    1.9231    1.0547    3.7123 C   0  0  1  0  0  0  0  0  0  0  0  0
    1.6028   -0.0033    2.6062 C   0  0  1  0  0  0  0  0  0  0  0  0
    1.8793    0.4671    1.2959 O   0  0  0  0  0  0  0  0  0  0  0  0
    2.5592   -1.1193    3.0409 C   0  0  2  0  0  0  0  0  0  0  0  0
    2.6957   -2.4367    2.2921 C   0  0  0  0  0  0  0  0  0  0  0  0
    3.9990   -3.0996    2.7908 C   0  0  0  0  0  0  0  0  0  0  0  0
    4.7516   -2.2188    3.6604 O   0  0  0  0  0  0  0  0  0  0  0  0
    4.0902   -1.6946    4.8448 C   0  0  2  0  0  0  0  0  0  0  0  0
    4.0439   -2.9406    5.7467 C   0  0  0  0  0  0  0  0  0  0  0  0
    2.6203   -3.4232    5.7521 C   0  0  0  0  0  0  0  0  0  0  0  0
    2.0409   -4.5121    6.4253 C   0  0  0  0  0  0  0  0  0  0  0  0
    0.6576   -4.4772    6.6854 C   0  0  0  0  0  0  0  0  0  0  0  0
   -0.0819   -3.2961    6.4308 C   0  0  0  0  0  0  0  0  0  0  0  0
   -1.3826   -3.2399    6.8448 O   0  0  0  0  0  0  0  0  0  0  0  0
    0.5105   -2.1616    5.8225 C   0  0  0  0  0  0  0  0  0  0  0  0
    1.8231   -2.3468    5.3358 C   0  0  0  0  0  0  0  0  0  0  0  0
    2.5944   -1.2440    4.5958 C   0  0  1  0  0  0  0  0  0  0  0  0
   -0.1102   -0.9393    5.9070 O   0  0  0  0  0  0  0  0  0  0  0  0
    0.5391    0.1675    5.2880 C   0  0  1  0  0  0  0  0  0  0  0  0
    0.9600    2.3953    3.6363 C   0  0  1  0  0  0  0  0  0  0  0  0
   -0.5577    2.5993    4.2034 C   0  0  0  0  0  0  0  0  0  0  0  0
   -1.0522    2.4561    5.7092 C   0  0  0  0  0  0  0  0  0  0  0  0
   -2.3023    3.0102    6.0553 C   0  0  0  0  0  0  0  0  0  0  0  0
   -2.7996    2.8987    7.3719 C   0  0  0  0  0  0  0  0  0  0  0  0
   -2.0468    2.2435    8.3653 C   0  0  0  0  0  0  0  0  0  0  0  0
   -2.5442    2.2224    9.6387 O   0  0  0  0  0  0  0  0  0  0  0  0
   -0.8053    1.6553    8.0569 C   0  0  0  0  0  0  0  0  0  0  0  0
   -0.3366    1.7573    6.7312 C   0  0  0  0  0  0  0  0  0  0  0  0
    2.9956    5.0626    3.2512 H   0  0  0  0  0  0  0  0  0  0  0  0
    1.8221    4.4379    2.1047 H   0  0  0  0  0  0  0  0  0  0  0  0
    3.2264    3.4622    2.5491 H   0  0  0  0  0  0  0  0  0  0  0  0
    3.4936    2.7489    4.8756 H   0  0  0  0  0  0  0  0  0  0  0  0
    3.0004    4.2893    5.4828 H   0  0  0  0  0  0  0  0  0  0  0  0
    2.6339    2.5416    7.1152 H   0  0  0  0  0  0  0  0  0  0  0  0
    1.2738    3.4962    6.7520 H   0  0  0  0  0  0  0  0  0  0  0  0
    2.9362    1.3732    3.4782 H   0  0  0  0  0  0  0  0  0  0  0  0
    0.5750   -0.3794    2.6351 H   0  0  0  0  0  0  0  0  0  0  0  0
    1.4403   -0.0998    0.6596 H   0  0  0  0  0  0  0  0  0  0  0  0
    3.4802   -0.5998    2.7594 H   0  0  0  0  0  0  0  0  0  0  0  0
    1.8359   -3.0765    2.4776 H   0  0  0  0  0  0  0  0  0  0  0  0
    2.7541   -2.2552    1.2159 H   0  0  0  0  0  0  0  0  0  0  0  0
    3.7852   -4.0574    3.2678 H   0  0  0  0  0  0  0  0  0  0  0  0
    4.6299   -3.3418    1.9364 H   0  0  0  0  0  0  0  0  0  0  0  0
    4.7228   -0.9101    5.2612 H   0  0  0  0  0  0  0  0  0  0  0  0
    4.7265   -3.7375    5.4465 H   0  0  0  0  0  0  0  0  0  0  0  0
    4.3117   -2.6673    6.7663 H   0  0  0  0  0  0  0  0  0  0  0  0
    2.6498   -5.3198    6.8074 H   0  0  0  0  0  0  0  0  0  0  0  0
    0.1920   -5.2996    7.1987 H   0  0  0  0  0  0  0  0  0  0  0  0
   -1.6716   -4.0541    7.2220 H   0  0  0  0  0  0  0  0  0  0  0  0
   -0.1318    0.3224    4.4588 H   0  0  0  0  0  0  0  0  0  0  0  0
    0.7949    2.5284    2.5652 H   0  0  0  0  0  0  0  0  0  0  0  0
   -0.8580    3.6028    3.8942 H   0  0  0  0  0  0  0  0  0  0  0  0
   -1.2193    1.9522    3.6213 H   0  0  0  0  0  0  0  0  0  0  0  0
   -2.8951    3.5383    5.3189 H   0  0  0  0  0  0  0  0  0  0  0  0
   -3.7523    3.3207    7.6349 H   0  0  0  0  0  0  0  0  0  0  0  0
   -1.9698    1.8947   10.3156 H   0  0  0  0  0  0  0  0  0  0  0  0
   -0.2117    1.1770    8.8192 H   0  0  0  0  0  0  0  0  0  0  0  0
  1  2  1  0
  1 36  1  0
  1 37  1  0
  1 38  1  0
  2 27  1  0
  2  3  1  0
  3  4  1  0
  3 39  1  0
  3 40  1  0
  4  5  1  0
  4 41  1  0
  4 42  1  0
  5 26  1  0
  5 35  1  0
  5  6  1  1
  7  6  1  1
  7 24  1  0
  7 26  1  0
  7  8  1  0
  8  9  1  0
  8 27  1  0
  8 43  1  6
  9 10  1  0
  9 11  1  0
  9 44  1  6
 10 45  1  0
 11 24  1  0
 11 12  1  0
 11 46  1  6
 12 13  1  0
 12 47  1  0
 12 48  1  0
 13 14  1  0
 13 49  1  0
 13 50  1  0
 14 15  1  0
 15 24  1  0
 15 16  1  0
 15 51  1  1
 16 17  1  0
 16 52  1  0
 16 53  1  0
 17 23  2  0
 17 18  1  0
 18 19  2  0
 18 54  1  0
 19 20  1  0
 19 55  1  0
 20 21  1  0
 20 22  2  0
 21 56  1  0
 22 23  1  0
 22 25  1  0
 24 23  1  6
 25 26  1  0
 26 57  1  6
 27 28  1  0
 27 58  1  6
 28 29  1  0
 28 59  1  0
 28 60  1  0
 29 35  2  0
 29 30  1  0
 30 31  2  0
 30 61  1  0
 31 32  1  0
 31 62  1  0
 32 33  1  0
 32 34  2  0
 33 63  1  0
 34 35  1  0
 34 64  1  0
M  END
>  <i_m_ct_stereo_status>  (132) 
1

>  <s_m_source_file>  (132) 
/var/tmp/pbs.5076255.sched01/tmp323fbwsu/45qgza_o8k.sdf

>  <i_m_source_file_index>  (132) 
7

>  <i_lp_mmshare_version>  (132) 
48012

>  <i_f3d_flags>  (132) 
0

>  <s_epik_input>  (132) 
W2NIXTFbY0hdYyhbT0hdKVtjSF1jMmMxW0NIMl1bQ0BASF0oTihbQ0gzXSlbQ0gyXVtDSDJdMylbQ0BASF00W0NAQEhdKFtPSF0pW0NAQEhdKFtDQF01NltDQF00KE83KVtDQEBIXThDMjM3KVtDSDJdW0NIMl1PW0NAQEhdNVtDSDJdYzljNmMoTzgpYyhbT0hdKVtjSF1bY0hdOQ==

>  <s_epik_cmdline>  (132) 
J2VwaWtfcHl0aG9uJywgJy1waHQnLCAnMi4wJywgJy1waCcsICc3LjAnLCAnLXRuJywgJzgnLCAnLW1hJywgJzIwMCcsICctaW1hZScsICc8aW5maWxlLm1hZT4nLCAnLW9tYWUnLCAnPG91dGZpbGUubWFlPic=

>  <r_lp_tautomer_probability>  (132) 
1

>  <r_epik_Ionization_Penalty>  (132) 
1.54143

>  <r_epik_Ionization_Penalty_Charging>  (132) 
0

>  <r_epik_Ionization_Penalty_Neutral>  (132) 
1.54143

>  <r_epik_State_Penalty>  (132) 
1.63446

>  <r_epik_Charging_Adjusted_Penalty>  (132) 
1.63446

>  <i_epik_Tot_Q>  (132) 
0

>  <i_epik_Tot_abs_Q>  (132) 
0

>  <s_lp_Force_Field>  (132) 
OPLS3e

>  <r_lp_Energy>  (132) 
262.791

>  <b_lp_Chiralities_Consistent>  (132) 
1

>  <s_lp_Variant>  (132) 
36:0-2

>  <s_i_glide_gridfile>  (132) 
pfpi4k_grid

>  <i_i_glide_lignum>  (132) 
7

>  <i_i_glide_rotatable_bonds>  (132) 
3

>  <r_i_docking_score>  (132) 
-2.80706

>  <r_i_glide_ligand_efficiency>  (132) 
-0.0802016

>  <r_i_glide_ligand_efficiency_sa>  (132) 
-0.262345

>  <r_i_glide_ligand_efficiency_ln>  (132) 
-0.616211

>  <r_i_glide_gscore>  (132) 
-2.80706

>  <r_i_glide_lipo>  (132) 
-0.252621

>  <r_i_glide_hbond>  (132) 
-0.16

>  <r_i_glide_metal>  (132) 
-0

>  <r_i_glide_rewards>  (132) 
-0.166821

>  <r_i_glide_evdw>  (132) 
-20.4537

>  <r_i_glide_ecoul>  (132) 
-8.03286

>  <r_i_glide_erotb>  (132) 
0

>  <r_i_glide_esite>  (132) 
0

>  <r_i_glide_emodel>  (132) 
-33.5248

>  <r_i_glide_energy>  (132) 
-28.4866

>  <r_i_glide_einternal>  (132) 
0.774553

>  <r_i_glide_intrahb_reward>  (132) 
-0

>  <i_i_glide_confnum>  (132) 
2

>  <i_i_glide_posenum>  (132) 
19

>  <r_i_glide_eff_state_penalty>  (132) 
0

>  <ligand_id>  (132) 
36

>  <original_smiles>  (132) 
CN1CCC23OC45C(C(O)C6CCOC7Cc8ccc(O)c(c8C764)OC25)C1Cc1ccc(O)cc13

>  <smiles>  (132) 
[H]Oc1c([H])c([H])c2c(c1[H])C13OC45C1([H])Oc1c(O[H])c([H])c([H])c6c1C41C([H])(OC([H])([H])C([H])([H])C1([H])C([H])(O[H])C5([H])C([H])(N(C([H])([H])[H])C([H])([H])C3([H])[H])C2([H])[H])C6([H])[H]

$$$$
36:1:2
     RDKit          3D

 64 72  0  0  1  0  0  0  0  0999 V2000
    5.1650   -6.6147    1.6593 C   0  0  0  0  0  0  0  0  0  0  0  0
    4.9122   -5.3422    0.9896 N   0  0  0  0  0  0  0  0  0  0  0  0
    6.0344   -4.4477    1.2233 C   0  0  0  0  0  0  0  0  0  0  0  0
    5.8175   -3.0792    0.5773 C   0  0  0  0  0  0  0  0  0  0  0  0
    4.5319   -2.1798    0.8203 C   0  0  2  0  0  0  0  0  0  0  0  0
    5.0754   -1.4865    1.9571 O   0  0  0  0  0  0  0  0  0  0  0  0
    4.1045   -2.3076    2.7737 C   0  0  1  0  0  0  0  0  0  0  0  0
    3.8124   -3.8825    2.7754 C   0  0  1  0  0  0  0  0  0  0  0  0
    2.5562   -3.9407    3.7007 C   0  0  1  0  0  0  0  0  0  0  0  0
    2.2706   -5.2470    4.1765 O   0  0  0  0  0  0  0  0  0  0  0  0
    2.9970   -2.9740    4.8012 C   0  0  2  0  0  0  0  0  0  0  0  0
    2.1413   -2.6377    6.0151 C   0  0  0  0  0  0  0  0  0  0  0  0
    3.0735   -1.9615    7.0443 C   0  0  0  0  0  0  0  0  0  0  0  0
    4.4564   -2.0006    6.6218 O   0  0  0  0  0  0  0  0  0  0  0  0
    4.7889   -1.4224    5.3306 C   0  0  2  0  0  0  0  0  0  0  0  0
    4.6855    0.0824    5.6269 C   0  0  0  0  0  0  0  0  0  0  0  0
    3.4204    0.5629    4.9705 C   0  0  0  0  0  0  0  0  0  0  0  0
    2.8627    1.8493    4.9275 C   0  0  0  0  0  0  0  0  0  0  0  0
    1.9881    2.1639    3.8702 C   0  0  0  0  0  0  0  0  0  0  0  0
    1.8261    1.2688    2.7910 C   0  0  0  0  0  0  0  0  0  0  0  0
    1.1186    1.6744    1.6936 O   0  0  0  0  0  0  0  0  0  0  0  0
    2.4376   -0.0118    2.7956 C   0  0  0  0  0  0  0  0  0  0  0  0
    3.0792   -0.3862    3.9994 C   0  0  0  0  0  0  0  0  0  0  0  0
    3.7540   -1.7538    4.1866 C   0  0  1  0  0  0  0  0  0  0  0  0
    2.5636   -0.7146    1.6238 O   0  0  0  0  0  0  0  0  0  0  0  0
    3.1972   -1.9852    1.6719 C   0  0  1  0  0  0  0  0  0  0  0  0
    3.6333   -4.7417    1.3784 C   0  0  1  0  0  0  0  0  0  0  0  0
    2.8827   -4.3046   -0.0068 C   0  0  0  0  0  0  0  0  0  0  0  0
    3.2303   -3.0715   -0.9442 C   0  0  0  0  0  0  0  0  0  0  0  0
    2.7212   -3.0616   -2.2644 C   0  0  0  0  0  0  0  0  0  0  0  0
    2.9871   -1.9978   -3.1419 C   0  0  0  0  0  0  0  0  0  0  0  0
    3.7302   -0.8918   -2.7077 C   0  0  0  0  0  0  0  0  0  0  0  0
    3.8951    0.1533   -3.5687 O   0  0  0  0  0  0  0  0  0  0  0  0
    4.2585   -0.8648   -1.3963 C   0  0  0  0  0  0  0  0  0  0  0  0
    3.9833   -1.9335   -0.5288 C   0  0  0  0  0  0  0  0  0  0  0  0
    6.1062   -7.0461    1.3138 H   0  0  0  0  0  0  0  0  0  0  0  0
    4.3784   -7.3397    1.4372 H   0  0  0  0  0  0  0  0  0  0  0  0
    5.2289   -6.5016    2.7435 H   0  0  0  0  0  0  0  0  0  0  0  0
    6.3002   -4.3501    2.2742 H   0  0  0  0  0  0  0  0  0  0  0  0
    6.9092   -4.9020    0.7544 H   0  0  0  0  0  0  0  0  0  0  0  0
    6.7131   -2.4919    0.8073 H   0  0  0  0  0  0  0  0  0  0  0  0
    5.9334   -3.2607   -0.4930 H   0  0  0  0  0  0  0  0  0  0  0  0
    4.5868   -4.3724    3.3630 H   0  0  0  0  0  0  0  0  0  0  0  0
    1.6466   -3.5566    3.2411 H   0  0  0  0  0  0  0  0  0  0  0  0
    3.0439   -5.6185    4.5775 H   0  0  0  0  0  0  0  0  0  0  0  0
    3.7656   -3.6225    5.2324 H   0  0  0  0  0  0  0  0  0  0  0  0
    1.3184   -1.9806    5.7412 H   0  0  0  0  0  0  0  0  0  0  0  0
    1.7148   -3.5497    6.4384 H   0  0  0  0  0  0  0  0  0  0  0  0
    2.7437   -0.9432    7.2523 H   0  0  0  0  0  0  0  0  0  0  0  0
    3.0029   -2.4857    7.9959 H   0  0  0  0  0  0  0  0  0  0  0  0
    5.8091   -1.7258    5.0880 H   0  0  0  0  0  0  0  0  0  0  0  0
    4.6945    0.3300    6.6887 H   0  0  0  0  0  0  0  0  0  0  0  0
    5.5226    0.6087    5.1713 H   0  0  0  0  0  0  0  0  0  0  0  0
    3.1607    2.6113    5.6351 H   0  0  0  0  0  0  0  0  0  0  0  0
    1.5448    3.1451    3.8102 H   0  0  0  0  0  0  0  0  0  0  0  0
    0.8568    2.5912    1.6689 H   0  0  0  0  0  0  0  0  0  0  0  0
    2.3398   -2.6202    1.5153 H   0  0  0  0  0  0  0  0  0  0  0  0
    3.0182   -5.5920    1.6802 H   0  0  0  0  0  0  0  0  0  0  0  0
    2.9385   -5.1720   -0.6605 H   0  0  0  0  0  0  0  0  0  0  0  0
    1.8149   -4.2230    0.2030 H   0  0  0  0  0  0  0  0  0  0  0  0
    2.1122   -3.8759   -2.6251 H   0  0  0  0  0  0  0  0  0  0  0  0
    2.5677   -2.0020   -4.1361 H   0  0  0  0  0  0  0  0  0  0  0  0
    3.5550    0.9717   -3.2243 H   0  0  0  0  0  0  0  0  0  0  0  0
    4.8480   -0.0386   -1.0396 H   0  0  0  0  0  0  0  0  0  0  0  0
  1  2  1  0
  1 36  1  0
  1 37  1  0
  1 38  1  0
  2 27  1  0
  2  3  1  0
  3  4  1  0
  3 39  1  0
  3 40  1  0
  4  5  1  0
  4 41  1  0
  4 42  1  0
  5 26  1  0
  5 35  1  0
  5  6  1  1
  7  6  1  6
  7 24  1  0
  7 26  1  0
  7  8  1  0
  8  9  1  0
  8 27  1  0
  8 43  1  1
  9 10  1  0
  9 11  1  0
  9 44  1  6
 10 45  1  0
 11 24  1  0
 11 12  1  0
 11 46  1  1
 12 13  1  0
 12 47  1  0
 12 48  1  0
 13 14  1  0
 13 49  1  0
 13 50  1  0
 14 15  1  0
 15 24  1  0
 15 16  1  0
 15 51  1  6
 16 17  1  0
 16 52  1  0
 16 53  1  0
 17 23  2  0
 17 18  1  0
 18 19  2  0
 18 54  1  0
 19 20  1  0
 19 55  1  0
 20 21  1  0
 20 22  2  0
 21 56  1  0
 22 23  1  0
 22 25  1  0
 24 23  1  6
 25 26  1  0
 26 57  1  6
 27 28  1  0
 27 58  1  1
 28 29  1  0
 28 59  1  0
 28 60  1  0
 29 35  2  0
 29 30  1  0
 30 31  2  0
 30 61  1  0
 31 32  1  0
 31 62  1  0
 32 33  1  0
 32 34  2  0
 33 63  1  0
 34 35  1  0
 34 64  1  0
M  END
>  <i_m_ct_stereo_status>  (133) 
1

>  <s_m_source_file>  (133) 
/var/tmp/pbs.5076255.sched01/tmp323fbwsu/45qgza_o8k.sdf

>  <i_m_source_file_index>  (133) 
7

>  <i_lp_mmshare_version>  (133) 
48012

>  <i_f3d_flags>  (133) 
0

>  <s_epik_input>  (133) 
W2NIXTFbY0hdYyhbT0hdKVtjSF1jMmMxW0NIMl1bQ0BASF0oTihbQ0gzXSlbQ0gyXVtDSDJdMylbQ0BASF00W0NAQEhdKFtPSF0pW0NAQEhdKFtDQF01NltDQF00KE83KVtDQEBIXThDMjM3KVtDSDJdW0NIMl1PW0NAQEhdNVtDSDJdYzljNmMoTzgpYyhbT0hdKVtjSF1bY0hdOQ==

>  <s_epik_cmdline>  (133) 
J2VwaWtfcHl0aG9uJywgJy1waHQnLCAnMi4wJywgJy1waCcsICc3LjAnLCAnLXRuJywgJzgnLCAnLW1hJywgJzIwMCcsICctaW1hZScsICc8aW5maWxlLm1hZT4nLCAnLW9tYWUnLCAnPG91dGZpbGUubWFlPic=

>  <r_lp_tautomer_probability>  (133) 
1

>  <r_epik_Ionization_Penalty>  (133) 
1.54143

>  <r_epik_Ionization_Penalty_Charging>  (133) 
0

>  <r_epik_Ionization_Penalty_Neutral>  (133) 
1.54143

>  <r_epik_State_Penalty>  (133) 
1.63446

>  <r_epik_Charging_Adjusted_Penalty>  (133) 
1.63446

>  <i_epik_Tot_Q>  (133) 
0

>  <i_epik_Tot_abs_Q>  (133) 
0

>  <s_lp_Force_Field>  (133) 
OPLS3e

>  <r_lp_Energy>  (133) 
262.791

>  <b_lp_Chiralities_Consistent>  (133) 
1

>  <s_lp_Variant>  (133) 
36:0-2

>  <s_i_glide_gridfile>  (133) 
pfpi4k_grid

>  <i_i_glide_lignum>  (133) 
7

>  <i_i_glide_rotatable_bonds>  (133) 
3

>  <r_i_docking_score>  (133) 
-2.74804

>  <r_i_glide_ligand_efficiency>  (133) 
-0.0785153

>  <r_i_glide_ligand_efficiency_sa>  (133) 
-0.256829

>  <r_i_glide_ligand_efficiency_ln>  (133) 
-0.603255

>  <r_i_glide_gscore>  (133) 
-2.74804

>  <r_i_glide_lipo>  (133) 
-0.300385

>  <r_i_glide_hbond>  (133) 
-0.283294

>  <r_i_glide_metal>  (133) 
-0

>  <r_i_glide_rewards>  (133) 
-0.166821

>  <r_i_glide_evdw>  (133) 
-26.3572

>  <r_i_glide_ecoul>  (133) 
-4.53119

>  <r_i_glide_erotb>  (133) 
0

>  <r_i_glide_esite>  (133) 
0

>  <r_i_glide_emodel>  (133) 
-34.0958

>  <r_i_glide_energy>  (133) 
-30.8884

>  <r_i_glide_einternal>  (133) 
2.74751

>  <r_i_glide_intrahb_reward>  (133) 
-0

>  <i_i_glide_confnum>  (133) 
2

>  <i_i_glide_posenum>  (133) 
1

>  <r_i_glide_eff_state_penalty>  (133) 
0

>  <ligand_id>  (133) 
36

>  <original_smiles>  (133) 
CN1CCC23OC45C(C(O)C6CCOC7Cc8ccc(O)c(c8C764)OC25)C1Cc1ccc(O)cc13

>  <smiles>  (133) 
[H]Oc1c([H])c([H])c2c(c1[H])C13OC45C1([H])Oc1c(O[H])c([H])c([H])c6c1C41C([H])(OC([H])([H])C([H])([H])C1([H])C([H])(O[H])C5([H])C([H])(N(C([H])([H])[H])C([H])([H])C3([H])[H])C2([H])[H])C6([H])[H]

$$$$
37:0:0
     RDKit          3D

 47 53  0  0  1  0  0  0  0  0999 V2000
    2.5861   -5.5108    0.5325 C   0  0  0  0  0  0  0  0  0  0  0  0
    3.3434   -4.4509    0.8504 C   0  0  0  0  0  0  0  0  0  0  0  0
    4.6520   -4.4621    1.5805 C   0  0  1  0  0  0  0  0  0  0  0  0
    5.7484   -3.7165    0.6219 C   0  0  2  0  0  0  0  0  0  0  0  0
    6.0429   -2.1951    0.3166 C   0  0  0  0  0  0  0  0  0  0  0  0
    4.7889   -1.5272   -0.3269 C   0  0  2  0  0  0  0  0  0  0  0  0
    5.1115   -0.6611   -1.4028 O   0  0  0  0  0  0  0  0  0  0  0  0
    3.8389   -0.8485    0.6752 C   0  0  2  0  0  0  0  0  0  0  0  0
    4.7394   -0.2696    1.6194 O   0  0  0  0  0  0  0  0  0  0  0  0
    4.3234   -1.2580    2.5359 C   0  0  2  0  0  0  0  0  0  0  0  0
    5.3468   -1.9777    3.3905 C   0  0  0  0  0  0  0  0  0  0  0  0
    4.6659   -3.1392    4.0764 C   0  0  2  0  0  0  0  0  0  0  0  0
    5.5823   -3.6156    5.0530 O   0  0  0  0  0  0  0  0  0  0  0  0
    4.2403   -4.2876    3.1190 C   0  0  1  0  0  0  0  0  0  0  0  0
    2.7848   -4.2502    3.2151 O   0  0  0  0  0  0  0  0  0  0  0  0
    2.2972   -3.0031    3.5995 C   0  0  2  0  0  0  0  0  0  0  0  0
    0.8614   -3.1823    4.1117 C   0  0  0  0  0  0  0  0  0  0  0  0
    2.1877   -2.0197    2.5324 O   0  0  0  0  0  0  0  0  0  0  0  0
    3.2717   -1.9499    1.5879 C   0  0  1  0  0  0  0  0  0  0  0  0
    3.1025   -3.0466    0.4426 C   0  0  1  0  0  0  0  0  0  0  0  0
    4.0991   -2.8128   -0.7295 C   0  0  1  0  0  0  0  0  0  0  0  0
    3.4160   -2.8494   -2.1075 C   0  0  0  0  0  0  0  0  0  0  0  0
    5.1552   -3.8107   -0.6770 O   0  0  0  0  0  0  0  0  0  0  0  0
    3.3304   -2.6668    4.7141 C   0  0  1  0  0  0  0  0  0  0  0  0
    3.0666   -3.3831    5.9185 O   0  0  0  0  0  0  0  0  0  0  0  0
    1.6879   -5.3908   -0.0541 H   0  0  0  0  0  0  0  0  0  0  0  0
    2.8712   -6.5083    0.8344 H   0  0  0  0  0  0  0  0  0  0  0  0
    4.9621   -5.5079    1.5211 H   0  0  0  0  0  0  0  0  0  0  0  0
    6.6851   -4.2785    0.6415 H   0  0  0  0  0  0  0  0  0  0  0  0
    6.5667   -1.6097    1.0672 H   0  0  0  0  0  0  0  0  0  0  0  0
    6.8129   -2.2165   -0.4549 H   0  0  0  0  0  0  0  0  0  0  0  0
    5.0402    0.2437   -1.1073 H   0  0  0  0  0  0  0  0  0  0  0  0
    3.0771   -0.1855    0.2812 H   0  0  0  0  0  0  0  0  0  0  0  0
    3.7449   -0.6415    3.2298 H   0  0  0  0  0  0  0  0  0  0  0  0
    6.2086   -2.3802    2.8777 H   0  0  0  0  0  0  0  0  0  0  0  0
    5.7485   -1.2860    4.1293 H   0  0  0  0  0  0  0  0  0  0  0  0
    5.1818   -4.3348    5.5136 H   0  0  0  0  0  0  0  0  0  0  0  0
    4.4987   -5.2319    3.5982 H   0  0  0  0  0  0  0  0  0  0  0  0
    0.2135   -3.4443    3.2800 H   0  0  0  0  0  0  0  0  0  0  0  0
    0.5006   -2.2491    4.5418 H   0  0  0  0  0  0  0  0  0  0  0  0
    0.7966   -3.9791    4.8521 H   0  0  0  0  0  0  0  0  0  0  0  0
    2.0838   -2.9786    0.0599 H   0  0  0  0  0  0  0  0  0  0  0  0
    2.6425   -2.0853   -2.1949 H   0  0  0  0  0  0  0  0  0  0  0  0
    2.9424   -3.8183   -2.2723 H   0  0  0  0  0  0  0  0  0  0  0  0
    4.1353   -2.6981   -2.9131 H   0  0  0  0  0  0  0  0  0  0  0  0
    3.2923   -1.6160    4.9971 H   0  0  0  0  0  0  0  0  0  0  0  0
    2.9980   -4.3008    5.7004 H   0  0  0  0  0  0  0  0  0  0  0  0
  1  2  2  0
  1 26  1  0
  1 27  1  0
  2 20  1  0
  2  3  1  0
  3 14  1  0
  3  4  1  0
  3 28  1  1
  4 23  1  0
  4  5  1  0
  4 29  1  6
  5  6  1  0
  5 30  1  0
  5 31  1  0
  6 21  1  0
  6  7  1  6
  6  8  1  0
  7 32  1  0
  8 19  1  0
  8  9  1  0
  8 33  1  6
  9 10  1  0
 10 19  1  0
 10 11  1  0
 10 34  1  1
 11 12  1  0
 11 35  1  0
 11 36  1  0
 12 24  1  0
 12 13  1  1
 12 14  1  0
 13 37  1  0
 14 15  1  0
 14 38  1  1
 15 16  1  0
 16 17  1  1
 16 18  1  0
 16 24  1  0
 17 39  1  0
 17 40  1  0
 17 41  1  0
 19 18  1  1
 19 20  1  0
 20 21  1  0
 20 42  1  6
 21 22  1  6
 21 23  1  0
 22 43  1  0
 22 44  1  0
 22 45  1  0
 24 25  1  0
 24 46  1  1
 25 47  1  0
M  END
>  <i_m_ct_stereo_status>  (134) 
1

>  <s_m_source_file>  (134) 
/var/tmp/pbs.5076255.sched01/tmp323fbwsu/45qgza_o8k.sdf

>  <i_m_source_file_index>  (134) 
9

>  <i_lp_mmshare_version>  (134) 
48012

>  <i_f3d_flags>  (134) 
0

>  <s_epik_input>  (134) 
W0NAXTEyM1tDQEBIXTRbQ0BdNShbT0hdKVtDQF02KFtDSDNdKVtDQEhdM0MoPVtDSDJdKVtDQEBIXShbQ0BASF0oTzYpW0NIMl01KVtDQEhdN1tDQEBdKFtPSF0pKFtDSDJdW0NASF0xTzQpW0NASF0oW09IXSlbQ0BdKE83KShPMilbQ0gzXQ==

>  <s_epik_cmdline>  (134) 
J2VwaWtfcHl0aG9uJywgJy1waHQnLCAnMi4wJywgJy1waCcsICc3LjAnLCAnLXRuJywgJzgnLCAnLW1hJywgJzIwMCcsICctaW1hZScsICc8aW5maWxlLm1hZT4nLCAnLW9tYWUnLCAnPG91dGZpbGUubWFlPic=

>  <r_lp_tautomer_probability>  (134) 
1

>  <r_epik_Ionization_Penalty>  (134) 
3.30198e-06

>  <r_epik_Ionization_Penalty_Charging>  (134) 
0

>  <r_epik_Ionization_Penalty_Neutral>  (134) 
3.30198e-06

>  <r_epik_State_Penalty>  (134) 
-0

>  <r_epik_Charging_Adjusted_Penalty>  (134) 
0

>  <i_epik_Tot_Q>  (134) 
0

>  <i_epik_Tot_abs_Q>  (134) 
0

>  <s_lp_Force_Field>  (134) 
OPLS3e

>  <r_lp_Energy>  (134) 
134.529

>  <b_lp_Chiralities_Consistent>  (134) 
1

>  <s_lp_Variant>  (134) 
37:0-1

>  <s_i_glide_gridfile>  (134) 
pfpi4k_grid

>  <i_i_glide_lignum>  (134) 
9

>  <i_i_glide_rotatable_bonds>  (134) 
3

>  <r_i_docking_score>  (134) 
-2.94029

>  <r_i_glide_ligand_efficiency>  (134) 
-0.117612

>  <r_i_glide_ligand_efficiency_sa>  (134) 
-0.343899

>  <r_i_glide_ligand_efficiency_ln>  (134) 
-0.696937

>  <r_i_glide_gscore>  (134) 
-2.94029

>  <r_i_glide_lipo>  (134) 
-0.28706

>  <r_i_glide_hbond>  (134) 
-0.0237259

>  <r_i_glide_metal>  (134) 
-0

>  <r_i_glide_rewards>  (134) 
-1.02261

>  <r_i_glide_evdw>  (134) 
-20.888

>  <r_i_glide_ecoul>  (134) 
-3.74998

>  <r_i_glide_erotb>  (134) 
0

>  <r_i_glide_esite>  (134) 
0

>  <r_i_glide_emodel>  (134) 
-28.3608

>  <r_i_glide_energy>  (134) 
-24.6379

>  <r_i_glide_einternal>  (134) 
1.00087

>  <r_i_glide_intrahb_reward>  (134) 
-0

>  <i_i_glide_confnum>  (134) 
2

>  <i_i_glide_posenum>  (134) 
32

>  <r_i_glide_eff_state_penalty>  (134) 
0

>  <ligand_id>  (134) 
37

>  <original_smiles>  (134) 
C=C1C2C3CC4(O)C5OC6CC7(O)C2OC(C)(OC65C1C4(C)O3)C7O

>  <smiles>  (134) 
[H]OC1([H])C2(C([H])([H])[H])OC3([H])C4([H])C(=C([H])[H])C5([H])C6(O2)C([H])(OC6([H])C2(O[H])C([H])([H])C4([H])OC52C([H])([H])[H])C([H])([H])C13O[H]

$$$$
37:0:1
     RDKit          3D

 47 53  0  0  1  0  0  0  0  0999 V2000
    1.9208   -5.5770    0.1425 C   0  0  0  0  0  0  0  0  0  0  0  0
    2.8776   -4.6818    0.4282 C   0  0  0  0  0  0  0  0  0  0  0  0
    4.2212   -4.9666    1.0053 C   0  0  1  0  0  0  0  0  0  0  0  0
    5.3308   -4.3280   -0.0158 C   0  0  2  0  0  0  0  0  0  0  0  0
    5.8441   -2.8535   -0.2566 C   0  0  0  0  0  0  0  0  0  0  0  0
    4.6629   -1.9424   -0.7136 C   0  0  2  0  0  0  0  0  0  0  0  0
    5.0375   -1.0697   -1.7634 O   0  0  0  0  0  0  0  0  0  0  0  0
    3.9466   -1.1881    0.4304 C   0  0  2  0  0  0  0  0  0  0  0  0
    5.0190   -0.8563    1.3141 O   0  0  0  0  0  0  0  0  0  0  0  0
    4.5225   -1.8441    2.1973 C   0  0  2  0  0  0  0  0  0  0  0  0
    5.4734   -2.8013    2.8704 C   0  0  0  0  0  0  0  0  0  0  0  0
    4.6914   -3.8921    3.5591 C   0  0  2  0  0  0  0  0  0  0  0  0
    5.5921   -4.6235    4.3769 O   0  0  0  0  0  0  0  0  0  0  0  0
    3.9835   -4.8629    2.5853 C   0  0  1  0  0  0  0  0  0  0  0  0
    2.5768   -4.5926    2.8468 O   0  0  0  0  0  0  0  0  0  0  0  0
    2.3592   -3.3176    3.3656 C   0  0  2  0  0  0  0  0  0  0  0  0
    0.9803   -3.3045    4.0345 C   0  0  0  0  0  0  0  0  0  0  0  0
    2.3083   -2.2453    2.3834 O   0  0  0  0  0  0  0  0  0  0  0  0
    3.2874   -2.2607    1.3215 C   0  0  1  0  0  0  0  0  0  0  0  0
    2.8400   -3.2291    0.1422 C   0  0  1  0  0  0  0  0  0  0  0  0
    3.7311   -3.0618   -1.1155 C   0  0  1  0  0  0  0  0  0  0  0  0
    2.9130   -2.8754   -2.4064 C   0  0  0  0  0  0  0  0  0  0  0  0
    4.6115   -4.2074   -1.2464 O   0  0  0  0  0  0  0  0  0  0  0  0
    3.5390   -3.2489    4.3758 C   0  0  1  0  0  0  0  0  0  0  0  0
    3.2675   -3.9906    5.5582 O   0  0  0  0  0  0  0  0  0  0  0  0
    1.0153   -5.2729   -0.3573 H   0  0  0  0  0  0  0  0  0  0  0  0
    2.0565   -6.6241    0.3785 H   0  0  0  0  0  0  0  0  0  0  0  0
    4.3430   -6.0390    0.8396 H   0  0  0  0  0  0  0  0  0  0  0  0
    6.1540   -5.0332   -0.1413 H   0  0  0  0  0  0  0  0  0  0  0  0
    6.5329   -2.4175    0.4611 H   0  0  0  0  0  0  0  0  0  0  0  0
    6.5145   -2.9355   -1.1140 H   0  0  0  0  0  0  0  0  0  0  0  0
    4.2655   -0.5965   -2.0401 H   0  0  0  0  0  0  0  0  0  0  0  0
    3.2923   -0.3564    0.1700 H   0  0  0  0  0  0  0  0  0  0  0  0
    4.1342   -1.2033    2.9918 H   0  0  0  0  0  0  0  0  0  0  0  0
    6.2185   -3.2749    2.2436 H   0  0  0  0  0  0  0  0  0  0  0  0
    6.0368   -2.2365    3.6072 H   0  0  0  0  0  0  0  0  0  0  0  0
    6.2262   -5.0482    3.8209 H   0  0  0  0  0  0  0  0  0  0  0  0
    4.1311   -5.8747    2.9647 H   0  0  0  0  0  0  0  0  0  0  0  0
    0.2118   -3.3831    3.2706 H   0  0  0  0  0  0  0  0  0  0  0  0
    0.8373   -2.3659    4.5695 H   0  0  0  0  0  0  0  0  0  0  0  0
    0.8630   -4.1427    4.7216 H   0  0  0  0  0  0  0  0  0  0  0  0
    1.8138   -2.9767   -0.1210 H   0  0  0  0  0  0  0  0  0  0  0  0
    2.2697   -1.9954   -2.3549 H   0  0  0  0  0  0  0  0  0  0  0  0
    2.2663   -3.7394   -2.5751 H   0  0  0  0  0  0  0  0  0  0  0  0
    3.5571   -2.7771   -3.2813 H   0  0  0  0  0  0  0  0  0  0  0  0
    3.7210   -2.2322    4.7247 H   0  0  0  0  0  0  0  0  0  0  0  0
    3.2149   -4.9015    5.3076 H   0  0  0  0  0  0  0  0  0  0  0  0
  1  2  2  0
  1 26  1  0
  1 27  1  0
  2 20  1  0
  2  3  1  0
  3 14  1  0
  3  4  1  0
  3 28  1  1
  4 23  1  0
  4  5  1  0
  4 29  1  6
  5  6  1  0
  5 30  1  0
  5 31  1  0
  6 21  1  0
  6  7  1  6
  6  8  1  0
  7 32  1  0
  8 19  1  0
  8  9  1  0
  8 33  1  6
  9 10  1  0
 10 19  1  0
 10 11  1  0
 10 34  1  1
 11 12  1  0
 11 35  1  0
 11 36  1  0
 12 24  1  0
 12 13  1  1
 12 14  1  0
 13 37  1  0
 14 15  1  0
 14 38  1  1
 15 16  1  0
 16 17  1  1
 16 18  1  0
 16 24  1  0
 17 39  1  0
 17 40  1  0
 17 41  1  0
 19 18  1  1
 19 20  1  0
 20 21  1  0
 20 42  1  6
 21 22  1  6
 21 23  1  0
 22 43  1  0
 22 44  1  0
 22 45  1  0
 24 25  1  0
 24 46  1  1
 25 47  1  0
M  END
>  <i_m_ct_stereo_status>  (135) 
1

>  <s_m_source_file>  (135) 
/var/tmp/pbs.5076255.sched01/tmp323fbwsu/45qgza_o8k.sdf

>  <i_m_source_file_index>  (135) 
9

>  <i_lp_mmshare_version>  (135) 
48012

>  <i_f3d_flags>  (135) 
0

>  <s_epik_input>  (135) 
W0NAXTEyM1tDQEBIXTRbQ0BdNShbT0hdKVtDQF02KFtDSDNdKVtDQEhdM0MoPVtDSDJdKVtDQEBIXShbQ0BASF0oTzYpW0NIMl01KVtDQEhdN1tDQEBdKFtPSF0pKFtDSDJdW0NASF0xTzQpW0NASF0oW09IXSlbQ0BdKE83KShPMilbQ0gzXQ==

>  <s_epik_cmdline>  (135) 
J2VwaWtfcHl0aG9uJywgJy1waHQnLCAnMi4wJywgJy1waCcsICc3LjAnLCAnLXRuJywgJzgnLCAnLW1hJywgJzIwMCcsICctaW1hZScsICc8aW5maWxlLm1hZT4nLCAnLW9tYWUnLCAnPG91dGZpbGUubWFlPic=

>  <r_lp_tautomer_probability>  (135) 
1

>  <r_epik_Ionization_Penalty>  (135) 
3.30198e-06

>  <r_epik_Ionization_Penalty_Charging>  (135) 
0

>  <r_epik_Ionization_Penalty_Neutral>  (135) 
3.30198e-06

>  <r_epik_State_Penalty>  (135) 
-0

>  <r_epik_Charging_Adjusted_Penalty>  (135) 
0

>  <i_epik_Tot_Q>  (135) 
0

>  <i_epik_Tot_abs_Q>  (135) 
0

>  <s_lp_Force_Field>  (135) 
OPLS3e

>  <r_lp_Energy>  (135) 
134.529

>  <b_lp_Chiralities_Consistent>  (135) 
1

>  <s_lp_Variant>  (135) 
37:0-1

>  <s_i_glide_gridfile>  (135) 
pfpi4k_grid

>  <i_i_glide_lignum>  (135) 
9

>  <i_i_glide_rotatable_bonds>  (135) 
3

>  <r_i_docking_score>  (135) 
-2.29193

>  <r_i_glide_ligand_efficiency>  (135) 
-0.0916773

>  <r_i_glide_ligand_efficiency_sa>  (135) 
-0.268066

>  <r_i_glide_ligand_efficiency_ln>  (135) 
-0.543257

>  <r_i_glide_gscore>  (135) 
-2.29193

>  <r_i_glide_lipo>  (135) 
-0.233147

>  <r_i_glide_hbond>  (135) 
0

>  <r_i_glide_metal>  (135) 
-0

>  <r_i_glide_rewards>  (135) 
-1.02411

>  <r_i_glide_evdw>  (135) 
-20.8315

>  <r_i_glide_ecoul>  (135) 
0.0459885

>  <r_i_glide_erotb>  (135) 
0

>  <r_i_glide_esite>  (135) 
0

>  <r_i_glide_emodel>  (135) 
-24.1329

>  <r_i_glide_energy>  (135) 
-20.7855

>  <r_i_glide_einternal>  (135) 
0.154376

>  <r_i_glide_intrahb_reward>  (135) 
-0

>  <i_i_glide_confnum>  (135) 
2

>  <i_i_glide_posenum>  (135) 
1

>  <r_i_glide_eff_state_penalty>  (135) 
0

>  <ligand_id>  (135) 
37

>  <original_smiles>  (135) 
C=C1C2C3CC4(O)C5OC6CC7(O)C2OC(C)(OC65C1C4(C)O3)C7O

>  <smiles>  (135) 
[H]OC1([H])C2(C([H])([H])[H])OC3([H])C4([H])C(=C([H])[H])C5([H])C6(O2)C([H])(OC6([H])C2(O[H])C([H])([H])C4([H])OC52C([H])([H])[H])C([H])([H])C13O[H]

$$$$
38:0:0
     RDKit          3D

 76 81  0  0  1  0  0  0  0  0999 V2000
    0.5921    2.5068    5.7213 C   0  0  0  0  0  0  0  0  0  0  0  0
    0.2445    1.6326    6.9342 C   0  0  2  0  0  0  0  0  0  0  0  0
    1.1606    0.4236    7.0715 C   0  0  0  0  0  0  0  0  0  0  0  0
    0.4139   -0.7115    6.3620 C   0  0  1  0  0  0  0  0  0  0  0  0
    0.6682   -2.0944    6.9959 C   0  0  2  0  0  0  0  0  0  0  0  0
    2.0585   -2.3938    6.9410 O   0  0  0  0  0  0  0  0  0  0  0  0
    2.3489   -3.0847    5.7286 C   0  0  1  0  0  0  0  0  0  0  0  0
    3.5957   -4.0021    5.7806 C   0  0  1  0  0  0  0  0  0  0  0  0
    4.2548   -3.9105    7.0326 O   0  0  0  0  0  0  0  0  0  0  0  0
    3.0763   -5.4123    5.5388 C   0  0  0  0  0  0  0  0  0  0  0  0
    3.8456   -6.3218    4.8804 C   0  0  0  0  0  0  0  0  0  0  0  0
    3.6832   -7.7711    4.3425 C   0  0  1  0  0  0  0  0  0  0  0  0
    4.0474   -8.7458    5.2962 O   0  0  0  0  0  0  0  0  0  0  0  0
    2.6616   -8.2040    3.1863 C   0  0  2  0  0  0  0  0  0  0  0  0
    3.4570   -9.2049    2.2808 C   0  0  0  0  0  0  0  0  0  0  0  0
    2.4869   -6.9185    2.3463 C   0  0  0  0  0  0  0  0  0  0  0  0
    3.1152   -6.6907    1.3122 O   0  0  0  0  0  0  0  0  0  0  0  0
    1.4855   -5.9017    2.8639 C   0  0  0  0  0  0  0  0  0  0  0  0
    0.4211   -6.5066    3.8232 C   0  0  2  0  0  0  0  0  0  0  0  0
    0.7256   -6.5651    5.3787 C   0  0  1  0  0  0  0  0  0  0  0  0
    1.0860   -7.9595    6.0125 C   0  0  1  0  0  0  0  0  0  0  0  0
    0.2184   -8.2635    7.0932 O   0  0  0  0  0  0  0  0  0  0  0  0
    1.0989   -9.1845    5.0829 C   0  0  0  0  0  0  0  0  0  0  0  0
    1.1982   -8.8430    3.5816 C   0  0  2  0  0  0  0  0  0  0  0  0
    0.9210  -10.2101    2.8817 C   0  0  0  0  0  0  0  0  0  0  0  0
   -0.0310   -7.8770    3.2710 C   0  0  0  0  0  0  0  0  0  0  0  0
   -1.3928   -8.2566    3.9230 C   0  0  0  0  0  0  0  0  0  0  0  0
   -0.4087   -7.8187    1.7592 C   0  0  0  0  0  0  0  0  0  0  0  0
    1.6062   -5.4228    5.9903 C   0  0  1  0  0  0  0  0  0  0  0  0
    1.6268   -5.5270    7.5494 C   0  0  0  0  0  0  0  0  0  0  0  0
    1.1340   -3.9935    5.5453 C   0  0  1  0  0  0  0  0  0  0  0  0
   -0.0131   -3.2361    6.2273 C   0  0  1  0  0  0  0  0  0  0  0  0
   -0.8740   -4.0057    7.0407 O   0  0  0  0  0  0  0  0  0  0  0  0
   -0.9456   -0.3271    6.4792 O   0  0  0  0  0  0  0  0  0  0  0  0
   -1.1116    0.9638    6.7651 C   0  0  0  0  0  0  0  0  0  0  0  0
   -2.1867    1.5363    6.9141 O   0  0  0  0  0  0  0  0  0  0  0  0
   -0.1388    3.3016    5.5798 H   0  0  0  0  0  0  0  0  0  0  0  0
    0.6219    1.9187    4.8045 H   0  0  0  0  0  0  0  0  0  0  0  0
    1.5681    2.9747    5.8416 H   0  0  0  0  0  0  0  0  0  0  0  0
    0.2559    2.2235    7.8497 H   0  0  0  0  0  0  0  0  0  0  0  0
    2.1520    0.5777    6.6418 H   0  0  0  0  0  0  0  0  0  0  0  0
    1.2963    0.1928    8.1300 H   0  0  0  0  0  0  0  0  0  0  0  0
    0.6657   -0.7093    5.3020 H   0  0  0  0  0  0  0  0  0  0  0  0
    0.3571   -2.0829    8.0413 H   0  0  0  0  0  0  0  0  0  0  0  0
    2.4206   -2.3673    4.9128 H   0  0  0  0  0  0  0  0  0  0  0  0
    4.3193   -3.7209    5.0118 H   0  0  0  0  0  0  0  0  0  0  0  0
    5.0125   -4.4747    7.0274 H   0  0  0  0  0  0  0  0  0  0  0  0
    4.8386   -5.9523    4.6651 H   0  0  0  0  0  0  0  0  0  0  0  0
    4.6277   -7.7734    3.8013 H   0  0  0  0  0  0  0  0  0  0  0  0
    3.2606   -9.0423    5.7262 H   0  0  0  0  0  0  0  0  0  0  0  0
    3.6906  -10.1338    2.8014 H   0  0  0  0  0  0  0  0  0  0  0  0
    4.4111   -8.8024    1.9394 H   0  0  0  0  0  0  0  0  0  0  0  0
    2.9237   -9.4524    1.3627 H   0  0  0  0  0  0  0  0  0  0  0  0
    2.0463   -5.0708    3.2736 H   0  0  0  0  0  0  0  0  0  0  0  0
    0.9810   -5.4931    1.9917 H   0  0  0  0  0  0  0  0  0  0  0  0
   -0.4357   -5.8427    3.7332 H   0  0  0  0  0  0  0  0  0  0  0  0
   -0.2632   -6.3544    5.7885 H   0  0  0  0  0  0  0  0  0  0  0  0
    2.0668   -7.8967    6.4729 H   0  0  0  0  0  0  0  0  0  0  0  0
    0.4270   -9.1354    7.3984 H   0  0  0  0  0  0  0  0  0  0  0  0
    1.8720   -9.8902    5.3776 H   0  0  0  0  0  0  0  0  0  0  0  0
    0.1962   -9.7728    5.2535 H   0  0  0  0  0  0  0  0  0  0  0  0
   -0.0479  -10.6247    3.1571 H   0  0  0  0  0  0  0  0  0  0  0  0
    1.6496  -10.9711    3.1644 H   0  0  0  0  0  0  0  0  0  0  0  0
    0.9209  -10.1444    1.7922 H   0  0  0  0  0  0  0  0  0  0  0  0
   -1.7073   -9.2622    3.6398 H   0  0  0  0  0  0  0  0  0  0  0  0
   -2.1875   -7.5804    3.6028 H   0  0  0  0  0  0  0  0  0  0  0  0
   -1.3926   -8.2285    5.0100 H   0  0  0  0  0  0  0  0  0  0  0  0
   -1.0307   -8.6698    1.4803 H   0  0  0  0  0  0  0  0  0  0  0  0
    0.4356   -7.8488    1.0749 H   0  0  0  0  0  0  0  0  0  0  0  0
   -0.9817   -6.9212    1.5276 H   0  0  0  0  0  0  0  0  0  0  0  0
    0.6656   -5.8193    7.9665 H   0  0  0  0  0  0  0  0  0  0  0  0
    1.9129   -4.5951    8.0320 H   0  0  0  0  0  0  0  0  0  0  0  0
    2.3531   -6.2622    7.8971 H   0  0  0  0  0  0  0  0  0  0  0  0
    0.8953   -3.9864    4.4905 H   0  0  0  0  0  0  0  0  0  0  0  0
   -0.6532   -2.8142    5.4532 H   0  0  0  0  0  0  0  0  0  0  0  0
   -0.3365   -4.5092    7.6350 H   0  0  0  0  0  0  0  0  0  0  0  0
  1  2  1  0
  1 37  1  0
  1 38  1  0
  1 39  1  0
  2 35  1  0
  2  3  1  0
  2 40  1  1
  3  4  1  0
  3 41  1  0
  3 42  1  0
  4  5  1  0
  4 34  1  0
  4 43  1  6
  5 32  1  0
  5  6  1  0
  5 44  1  1
  6  7  1  0
  7 31  1  0
  7  8  1  0
  7 45  1  6
  8  9  1  0
  8 10  1  0
  8 46  1  6
  9 47  1  0
 10 29  1  0
 10 11  2  3
 11 12  1  0
 11 48  1  0
 12 13  1  0
 12 14  1  0
 12 49  1  6
 13 50  1  0
 14 24  1  0
 14 15  1  6
 14 16  1  0
 15 51  1  0
 15 52  1  0
 15 53  1  0
 16 17  2  0
 16 18  1  0
 18 19  1  0
 18 54  1  0
 18 55  1  0
 19 26  1  0
 19 20  1  0
 19 56  1  1
 20 21  1  0
 20 29  1  0
 20 57  1  1
 21 22  1  0
 21 23  1  0
 21 58  1  1
 22 59  1  0
 23 24  1  0
 23 60  1  0
 23 61  1  0
 24 25  1  6
 24 26  1  0
 25 62  1  0
 25 63  1  0
 25 64  1  0
 26 27  1  0
 26 28  1  0
 27 65  1  0
 27 66  1  0
 27 67  1  0
 28 68  1  0
 28 69  1  0
 28 70  1  0
 29 30  1  1
 29 31  1  0
 30 71  1  0
 30 72  1  0
 30 73  1  0
 31 32  1  0
 31 74  1  6
 32 33  1  0
 32 75  1  6
 33 76  1  0
 34 35  1  0
 35 36  2  0
M  END
>  <i_m_ct_stereo_status>  (136) 
1

>  <s_m_source_file>  (136) 
/var/tmp/pbs.5076255.sched01/tmp323fbwsu/45qgza_o8k.sdf

>  <i_m_source_file_index>  (136) 
10

>  <i_lp_mmshare_version>  (136) 
48012

>  <i_f3d_flags>  (136) 
0

>  <s_epik_input>  (136) 
W0NIM11bQ0BASF0xW0NIMl1bQ0BIXShPQzE9TylbQ0BIXShPMilbQ0BIXShbT0hdKVtDQEhdM1tDQEBIXTJbQ0BASF0oW09IXSkvQyg9W0NIXS9bQ0BIXTRbT0hdKVtDQF0zKFtDSDNdKVtDQEBIXShbQ0BASF0oW0NIMl1DNT1PKUM2KFtDSDNdKVtDSDNdKVtDQEBIXShbT0hdKVtDSDJdW0NAXTYoW0NIM10pW0NAXTQ1W0NIM10=

>  <s_epik_cmdline>  (136) 
J2VwaWtfcHl0aG9uJywgJy1waHQnLCAnMi4wJywgJy1waCcsICc3LjAnLCAnLXRuJywgJzgnLCAnLW1hJywgJzIwMCcsICctaW1hZScsICc8aW5maWxlLm1hZT4nLCAnLW9tYWUnLCAnPG91dGZpbGUubWFlPic=

>  <r_lp_tautomer_probability>  (136) 
1

>  <r_epik_Ionization_Penalty>  (136) 
7.47584e-07

>  <r_epik_Ionization_Penalty_Charging>  (136) 
0

>  <r_epik_Ionization_Penalty_Neutral>  (136) 
7.47584e-07

>  <r_epik_State_Penalty>  (136) 
-0

>  <r_epik_Charging_Adjusted_Penalty>  (136) 
0

>  <i_epik_Tot_Q>  (136) 
0

>  <i_epik_Tot_abs_Q>  (136) 
0

>  <s_epik_Chemistry_Notes>  (136) 
This compound has an ester and may undergo hydrolysis at high or low pH.

>  <s_lp_Force_Field>  (136) 
OPLS3e

>  <r_lp_Energy>  (136) 
110.376

>  <b_lp_Chiralities_Consistent>  (136) 
1

>  <s_lp_Variant>  (136) 
38:0-1

>  <s_i_glide_gridfile>  (136) 
pfpi4k_grid

>  <i_i_glide_lignum>  (136) 
10

>  <i_i_glide_rotatable_bonds>  (136) 
5

>  <r_i_docking_score>  (136) 
-2.37342

>  <r_i_glide_ligand_efficiency>  (136) 
-0.0659285

>  <r_i_glide_ligand_efficiency_sa>  (136) 
-0.217691

>  <r_i_glide_ligand_efficiency_ln>  (136) 
-0.517817

>  <r_i_glide_gscore>  (136) 
-2.37342

>  <r_i_glide_lipo>  (136) 
-0.13025

>  <r_i_glide_hbond>  (136) 
-0.10717

>  <r_i_glide_metal>  (136) 
-0

>  <r_i_glide_rewards>  (136) 
0

>  <r_i_glide_evdw>  (136) 
-30.012

>  <r_i_glide_ecoul>  (136) 
-4.3676

>  <r_i_glide_erotb>  (136) 
0.0803029

>  <r_i_glide_esite>  (136) 
-0.0605674

>  <r_i_glide_emodel>  (136) 
-39.176

>  <r_i_glide_energy>  (136) 
-34.3796

>  <r_i_glide_einternal>  (136) 
0.919566

>  <r_i_glide_intrahb_reward>  (136) 
-0

>  <i_i_glide_confnum>  (136) 
4

>  <i_i_glide_posenum>  (136) 
25

>  <r_i_glide_eff_state_penalty>  (136) 
0

>  <ligand_id>  (136) 
38

>  <original_smiles>  (136) 
CC1CC(C2OC3C(O)C4=CC(O)C5(C)C(=O)CC6C(C(O)CC5(C)C6(C)C)C4(C)C3C2O)OC1=O

>  <smiles>  (136) 
[H]OC1([H])C2=C([H])C([H])(O[H])C3(C([H])([H])[H])C(=O)C([H])([H])C4([H])C([H])(C([H])(O[H])C([H])([H])C3(C([H])([H])[H])C4(C([H])([H])[H])C([H])([H])[H])C2(C([H])([H])[H])C2([H])C1([H])OC([H])(C1([H])OC(=O)C([H])(C([H])([H])[H])C1([H])[H])C2([H])O[H]

$$$$
38:0:1
     RDKit          3D

 76 81  0  0  1  0  0  0  0  0999 V2000
   -0.3207    2.8217    4.9130 C   0  0  0  0  0  0  0  0  0  0  0  0
   -0.2178    2.0954    6.2615 C   0  0  2  0  0  0  0  0  0  0  0  0
    0.8509    1.0101    6.2660 C   0  0  0  0  0  0  0  0  0  0  0  0
    0.1000   -0.2787    5.9166 C   0  0  1  0  0  0  0  0  0  0  0  0
    0.6921   -1.5325    6.5945 C   0  0  2  0  0  0  0  0  0  0  0  0
    2.0836   -1.6358    6.3128 O   0  0  0  0  0  0  0  0  0  0  0  0
    2.2681   -2.3877    5.1172 C   0  0  1  0  0  0  0  0  0  0  0  0
    3.6421   -3.0939    5.0048 C   0  0  1  0  0  0  0  0  0  0  0  0
    4.4909   -2.7749    6.0927 O   0  0  0  0  0  0  0  0  0  0  0  0
    3.3360   -4.5834    4.9748 C   0  0  0  0  0  0  0  0  0  0  0  0
    4.1239   -5.4293    4.2557 C   0  0  0  0  0  0  0  0  0  0  0  0
    4.1198   -6.9352    3.8761 C   0  0  1  0  0  0  0  0  0  0  0  0
    4.7909   -7.7289    4.8364 O   0  0  0  0  0  0  0  0  0  0  0  0
    3.0027   -7.6427    2.9666 C   0  0  2  0  0  0  0  0  0  0  0  0
    3.7847   -8.6007    2.0045 C   0  0  0  0  0  0  0  0  0  0  0  0
    2.4697   -6.4947    2.0804 C   0  0  0  0  0  0  0  0  0  0  0  0
    2.8571   -6.2797    0.9319 O   0  0  0  0  0  0  0  0  0  0  0  0
    1.4178   -5.5995    2.7007 C   0  0  0  0  0  0  0  0  0  0  0  0
    0.6462   -6.2469    3.8795 C   0  0  2  0  0  0  0  0  0  0  0  0
    1.2209   -6.0905    5.3469 C   0  0  1  0  0  0  0  0  0  0  0  0
    1.9145   -7.3389    6.0039 C   0  0  1  0  0  0  0  0  0  0  0  0
    1.2924   -7.6469    7.2410 O   0  0  0  0  0  0  0  0  0  0  0  0
    1.9735   -8.6396    5.1852 C   0  0  0  0  0  0  0  0  0  0  0  0
    1.7543   -8.4491    3.6692 C   0  0  2  0  0  0  0  0  0  0  0  0
    1.5903   -9.9095    3.1358 C   0  0  0  0  0  0  0  0  0  0  0  0
    0.3432   -7.7229    3.5249 C   0  0  0  0  0  0  0  0  0  0  0  0
   -0.7922   -8.2427    4.4551 C   0  0  0  0  0  0  0  0  0  0  0  0
   -0.2974   -7.8868    2.1079 C   0  0  0  0  0  0  0  0  0  0  0  0
    1.9892   -4.7684    5.6937 C   0  0  1  0  0  0  0  0  0  0  0  0
    2.2949   -4.7020    7.2239 C   0  0  0  0  0  0  0  0  0  0  0  0
    1.2106   -3.4838    5.2337 C   0  0  1  0  0  0  0  0  0  0  0  0
    0.0866   -2.8397    6.0613 C   0  0  1  0  0  0  0  0  0  0  0  0
   -0.4801   -3.6361    7.0796 O   0  0  0  0  0  0  0  0  0  0  0  0
   -1.2172   -0.0144    6.3740 O   0  0  0  0  0  0  0  0  0  0  0  0
   -1.4725    1.2849    6.5499 C   0  0  0  0  0  0  0  0  0  0  0  0
   -2.5393    1.7695    6.9166 O   0  0  0  0  0  0  0  0  0  0  0  0
   -1.1600    3.5151    4.8959 H   0  0  0  0  0  0  0  0  0  0  0  0
   -0.4564    2.1197    4.0911 H   0  0  0  0  0  0  0  0  0  0  0  0
    0.5820    3.3934    4.7057 H   0  0  0  0  0  0  0  0  0  0  0  0
   -0.0408    2.8046    7.0692 H   0  0  0  0  0  0  0  0  0  0  0  0
    1.6650    1.1995    5.5640 H   0  0  0  0  0  0  0  0  0  0  0  0
    1.2881    0.9374    7.2646 H   0  0  0  0  0  0  0  0  0  0  0  0
    0.0681   -0.3956    4.8324 H   0  0  0  0  0  0  0  0  0  0  0  0
    0.5731   -1.4508    7.6764 H   0  0  0  0  0  0  0  0  0  0  0  0
    2.0760   -1.7532    4.2537 H   0  0  0  0  0  0  0  0  0  0  0  0
    4.1648   -2.7893    4.0947 H   0  0  0  0  0  0  0  0  0  0  0  0
    4.0486   -3.0232    6.8919 H   0  0  0  0  0  0  0  0  0  0  0  0
    4.9885   -4.9343    3.8341 H   0  0  0  0  0  0  0  0  0  0  0  0
    4.9425   -6.8523    3.1661 H   0  0  0  0  0  0  0  0  0  0  0  0
    5.2099   -8.4498    4.3886 H   0  0  0  0  0  0  0  0  0  0  0  0
    4.2544   -9.4256    2.5408 H   0  0  0  0  0  0  0  0  0  0  0  0
    4.5819   -8.0959    1.4596 H   0  0  0  0  0  0  0  0  0  0  0  0
    3.1463   -9.0202    1.2261 H   0  0  0  0  0  0  0  0  0  0  0  0
    1.8829   -4.6454    2.9219 H   0  0  0  0  0  0  0  0  0  0  0  0
    0.7020   -5.4006    1.9115 H   0  0  0  0  0  0  0  0  0  0  0  0
   -0.3082   -5.7246    3.9003 H   0  0  0  0  0  0  0  0  0  0  0  0
    0.2970   -5.9877    5.9181 H   0  0  0  0  0  0  0  0  0  0  0  0
    2.9353   -7.0850    6.2734 H   0  0  0  0  0  0  0  0  0  0  0  0
    1.7176   -8.4113    7.6027 H   0  0  0  0  0  0  0  0  0  0  0  0
    2.9021   -9.1682    5.3841 H   0  0  0  0  0  0  0  0  0  0  0  0
    1.2345   -9.3404    5.5711 H   0  0  0  0  0  0  0  0  0  0  0  0
    0.7709  -10.4357    3.6232 H   0  0  0  0  0  0  0  0  0  0  0  0
    2.4745  -10.5161    3.3352 H   0  0  0  0  0  0  0  0  0  0  0  0
    1.3839   -9.9616    2.0667 H   0  0  0  0  0  0  0  0  0  0  0  0
   -0.9689   -9.3095    4.3179 H   0  0  0  0  0  0  0  0  0  0  0  0
   -1.7375   -7.7413    4.2375 H   0  0  0  0  0  0  0  0  0  0  0  0
   -0.6103   -8.0840    5.5161 H   0  0  0  0  0  0  0  0  0  0  0  0
   -0.7888   -8.8577    2.0127 H   0  0  0  0  0  0  0  0  0  0  0  0
    0.4084   -7.8504    1.2803 H   0  0  0  0  0  0  0  0  0  0  0  0
   -1.0617   -7.1320    1.9248 H   0  0  0  0  0  0  0  0  0  0  0  0
    1.4831   -5.0951    7.8321 H   0  0  0  0  0  0  0  0  0  0  0  0
    2.4870   -3.6927    7.5789 H   0  0  0  0  0  0  0  0  0  0  0  0
    3.1836   -5.2773    7.4839 H   0  0  0  0  0  0  0  0  0  0  0  0
    0.7939   -3.6253    4.2459 H   0  0  0  0  0  0  0  0  0  0  0  0
   -0.7403   -2.6014    5.3922 H   0  0  0  0  0  0  0  0  0  0  0  0
    0.2272   -3.9919    7.5990 H   0  0  0  0  0  0  0  0  0  0  0  0
  1  2  1  0
  1 37  1  0
  1 38  1  0
  1 39  1  0
  2 35  1  0
  2  3  1  0
  2 40  1  1
  3  4  1  0
  3 41  1  0
  3 42  1  0
  4  5  1  0
  4 34  1  0
  4 43  1  6
  5 32  1  0
  5  6  1  0
  5 44  1  1
  6  7  1  0
  7 31  1  0
  7  8  1  0
  7 45  1  6
  8  9  1  0
  8 10  1  0
  8 46  1  6
  9 47  1  0
 10 29  1  0
 10 11  2  3
 11 12  1  0
 11 48  1  0
 12 13  1  0
 12 14  1  0
 12 49  1  6
 13 50  1  0
 14 24  1  0
 14 15  1  6
 14 16  1  0
 15 51  1  0
 15 52  1  0
 15 53  1  0
 16 17  2  0
 16 18  1  0
 18 19  1  0
 18 54  1  0
 18 55  1  0
 19 26  1  0
 19 20  1  0
 19 56  1  1
 20 21  1  0
 20 29  1  0
 20 57  1  1
 21 22  1  0
 21 23  1  0
 21 58  1  1
 22 59  1  0
 23 24  1  0
 23 60  1  0
 23 61  1  0
 24 25  1  6
 24 26  1  0
 25 62  1  0
 25 63  1  0
 25 64  1  0
 26 27  1  0
 26 28  1  0
 27 65  1  0
 27 66  1  0
 27 67  1  0
 28 68  1  0
 28 69  1  0
 28 70  1  0
 29 30  1  1
 29 31  1  0
 30 71  1  0
 30 72  1  0
 30 73  1  0
 31 32  1  0
 31 74  1  6
 32 33  1  0
 32 75  1  6
 33 76  1  0
 34 35  1  0
 35 36  2  0
M  END
>  <i_m_ct_stereo_status>  (137) 
1

>  <s_m_source_file>  (137) 
/var/tmp/pbs.5076255.sched01/tmp323fbwsu/45qgza_o8k.sdf

>  <i_m_source_file_index>  (137) 
10

>  <i_lp_mmshare_version>  (137) 
48012

>  <i_f3d_flags>  (137) 
0

>  <s_epik_input>  (137) 
W0NIM11bQ0BASF0xW0NIMl1bQ0BIXShPQzE9TylbQ0BIXShPMilbQ0BIXShbT0hdKVtDQEhdM1tDQEBIXTJbQ0BASF0oW09IXSkvQyg9W0NIXS9bQ0BIXTRbT0hdKVtDQF0zKFtDSDNdKVtDQEBIXShbQ0BASF0oW0NIMl1DNT1PKUM2KFtDSDNdKVtDSDNdKVtDQEBIXShbT0hdKVtDSDJdW0NAXTYoW0NIM10pW0NAXTQ1W0NIM10=

>  <s_epik_cmdline>  (137) 
J2VwaWtfcHl0aG9uJywgJy1waHQnLCAnMi4wJywgJy1waCcsICc3LjAnLCAnLXRuJywgJzgnLCAnLW1hJywgJzIwMCcsICctaW1hZScsICc8aW5maWxlLm1hZT4nLCAnLW9tYWUnLCAnPG91dGZpbGUubWFlPic=

>  <r_lp_tautomer_probability>  (137) 
1

>  <r_epik_Ionization_Penalty>  (137) 
7.47584e-07

>  <r_epik_Ionization_Penalty_Charging>  (137) 
0

>  <r_epik_Ionization_Penalty_Neutral>  (137) 
7.47584e-07

>  <r_epik_State_Penalty>  (137) 
-0

>  <r_epik_Charging_Adjusted_Penalty>  (137) 
0

>  <i_epik_Tot_Q>  (137) 
0

>  <i_epik_Tot_abs_Q>  (137) 
0

>  <s_epik_Chemistry_Notes>  (137) 
This compound has an ester and may undergo hydrolysis at high or low pH.

>  <s_lp_Force_Field>  (137) 
OPLS3e

>  <r_lp_Energy>  (137) 
110.376

>  <b_lp_Chiralities_Consistent>  (137) 
1

>  <s_lp_Variant>  (137) 
38:0-1

>  <s_i_glide_gridfile>  (137) 
pfpi4k_grid

>  <i_i_glide_lignum>  (137) 
10

>  <i_i_glide_rotatable_bonds>  (137) 
5

>  <r_i_docking_score>  (137) 
-2.19358

>  <r_i_glide_ligand_efficiency>  (137) 
-0.0609327

>  <r_i_glide_ligand_efficiency_sa>  (137) 
-0.201195

>  <r_i_glide_ligand_efficiency_ln>  (137) 
-0.47858

>  <r_i_glide_gscore>  (137) 
-2.19358

>  <r_i_glide_lipo>  (137) 
-0.0583984

>  <r_i_glide_hbond>  (137) 
-0.124664

>  <r_i_glide_metal>  (137) 
-0

>  <r_i_glide_rewards>  (137) 
0

>  <r_i_glide_evdw>  (137) 
-28.6731

>  <r_i_glide_ecoul>  (137) 
-4.03374

>  <r_i_glide_erotb>  (137) 
0.0803029

>  <r_i_glide_esite>  (137) 
-0.0521046

>  <r_i_glide_emodel>  (137) 
-37.0082

>  <r_i_glide_energy>  (137) 
-32.7068

>  <r_i_glide_einternal>  (137) 
1.03773

>  <r_i_glide_intrahb_reward>  (137) 
-0

>  <i_i_glide_confnum>  (137) 
4

>  <i_i_glide_posenum>  (137) 
1

>  <r_i_glide_eff_state_penalty>  (137) 
0

>  <ligand_id>  (137) 
38

>  <original_smiles>  (137) 
CC1CC(C2OC3C(O)C4=CC(O)C5(C)C(=O)CC6C(C(O)CC5(C)C6(C)C)C4(C)C3C2O)OC1=O

>  <smiles>  (137) 
[H]OC1([H])C2=C([H])C([H])(O[H])C3(C([H])([H])[H])C(=O)C([H])([H])C4([H])C([H])(C([H])(O[H])C([H])([H])C3(C([H])([H])[H])C4(C([H])([H])[H])C([H])([H])[H])C2(C([H])([H])[H])C2([H])C1([H])OC([H])(C1([H])OC(=O)C([H])(C([H])([H])[H])C1([H])[H])C2([H])O[H]

$$$$
38:0:2
     RDKit          3D

 76 81  0  0  1  0  0  0  0  0999 V2000
   -0.2554   -9.7432    2.8812 C   0  0  0  0  0  0  0  0  0  0  0  0
   -0.1608   -8.2771    2.4405 C   0  0  2  0  0  0  0  0  0  0  0  0
    1.2745   -7.8214    2.2150 C   0  0  0  0  0  0  0  0  0  0  0  0
    1.6888   -7.1974    3.5577 C   0  0  1  0  0  0  0  0  0  0  0  0
    2.6837   -6.0223    3.4081 C   0  0  2  0  0  0  0  0  0  0  0  0
    3.2558   -5.6998    4.6740 O   0  0  0  0  0  0  0  0  0  0  0  0
    2.4751   -4.6785    5.2858 C   0  0  1  0  0  0  0  0  0  0  0  0
    3.2370   -3.7884    6.2948 C   0  0  1  0  0  0  0  0  0  0  0  0
    4.5839   -4.1984    6.4510 O   0  0  0  0  0  0  0  0  0  0  0  0
    3.1625   -2.3784    5.7247 C   0  0  0  0  0  0  0  0  0  0  0  0
    3.1035   -1.3055    6.5612 C   0  0  0  0  0  0  0  0  0  0  0  0
    2.9192    0.2295    6.4233 C   0  0  1  0  0  0  0  0  0  0  0  0
    4.1457    0.9141    6.2754 O   0  0  0  0  0  0  0  0  0  0  0  0
    1.5996    0.9381    5.8558 C   0  0  2  0  0  0  0  0  0  0  0  0
    1.3595    2.1667    6.7958 C   0  0  0  0  0  0  0  0  0  0  0  0
    0.4635   -0.0680    6.1681 C   0  0  0  0  0  0  0  0  0  0  0  0
   -0.2715    0.0127    7.1524 O   0  0  0  0  0  0  0  0  0  0  0  0
    0.2799   -1.2058    5.1790 C   0  0  0  0  0  0  0  0  0  0  0  0
    0.8634   -0.9098    3.7705 C   0  0  2  0  0  0  0  0  0  0  0  0
    2.3774   -1.2816    3.4712 C   0  0  1  0  0  0  0  0  0  0  0  0
    3.4271   -0.1137    3.3842 C   0  0  1  0  0  0  0  0  0  0  0  0
    4.1297   -0.1600    2.1527 O   0  0  0  0  0  0  0  0  0  0  0  0
    2.9176    1.3226    3.5927 C   0  0  0  0  0  0  0  0  0  0  0  0
    1.5393    1.4170    4.2838 C   0  0  2  0  0  0  0  0  0  0  0  0
    1.1429    2.9198    4.1153 C   0  0  0  0  0  0  0  0  0  0  0  0
    0.5442    0.5583    3.3869 C   0  0  0  0  0  0  0  0  0  0  0  0
    0.6985    0.7298    1.8448 C   0  0  0  0  0  0  0  0  0  0  0  0
   -0.9603    0.9270    3.6043 C   0  0  0  0  0  0  0  0  0  0  0  0
    2.9907   -2.5240    4.2039 C   0  0  1  0  0  0  0  0  0  0  0  0
    4.4087   -2.8568    3.6335 C   0  0  0  0  0  0  0  0  0  0  0  0
    2.0665   -3.7829    4.1170 C   0  0  1  0  0  0  0  0  0  0  0  0
    2.0476   -4.7149    2.9012 C   0  0  1  0  0  0  0  0  0  0  0  0
    2.6254   -4.2278    1.7096 O   0  0  0  0  0  0  0  0  0  0  0  0
    0.4529   -6.7978    4.1343 O   0  0  0  0  0  0  0  0  0  0  0  0
   -0.6088   -7.3554    3.5603 C   0  0  0  0  0  0  0  0  0  0  0  0
   -1.7855   -7.1301    3.8333 O   0  0  0  0  0  0  0  0  0  0  0  0
   -1.2816  -10.0008    3.1382 H   0  0  0  0  0  0  0  0  0  0  0  0
    0.3618   -9.9429    3.7544 H   0  0  0  0  0  0  0  0  0  0  0  0
    0.0650  -10.4215    2.0861 H   0  0  0  0  0  0  0  0  0  0  0  0
   -0.7607   -8.1079    1.5485 H   0  0  0  0  0  0  0  0  0  0  0  0
    1.9417   -8.6376    1.9299 H   0  0  0  0  0  0  0  0  0  0  0  0
    1.2992   -7.0925    1.4013 H   0  0  0  0  0  0  0  0  0  0  0  0
    2.1111   -7.9776    4.1908 H   0  0  0  0  0  0  0  0  0  0  0  0
    3.5011   -6.3327    2.7561 H   0  0  0  0  0  0  0  0  0  0  0  0
    1.6007   -5.1320    5.7498 H   0  0  0  0  0  0  0  0  0  0  0  0
    2.7637   -3.8327    7.2790 H   0  0  0  0  0  0  0  0  0  0  0  0
    4.5926   -5.1134    6.6998 H   0  0  0  0  0  0  0  0  0  0  0  0
    3.2147   -1.5868    7.5980 H   0  0  0  0  0  0  0  0  0  0  0  0
    2.8119    0.4003    7.4925 H   0  0  0  0  0  0  0  0  0  0  0  0
    4.3481    0.9459    5.3514 H   0  0  0  0  0  0  0  0  0  0  0  0
    2.1451    2.9169    6.6979 H   0  0  0  0  0  0  0  0  0  0  0  0
    1.3304    1.8951    7.8520 H   0  0  0  0  0  0  0  0  0  0  0  0
    0.3992    2.6466    6.6115 H   0  0  0  0  0  0  0  0  0  0  0  0
    0.6592   -2.1046    5.6486 H   0  0  0  0  0  0  0  0  0  0  0  0
   -0.7925   -1.3678    5.0822 H   0  0  0  0  0  0  0  0  0  0  0  0
    0.2808   -1.5487    3.1087 H   0  0  0  0  0  0  0  0  0  0  0  0
    2.2989   -1.6268    2.4404 H   0  0  0  0  0  0  0  0  0  0  0  0
    4.2021   -0.2836    4.1235 H   0  0  0  0  0  0  0  0  0  0  0  0
    3.5163    0.0072    1.4476 H   0  0  0  0  0  0  0  0  0  0  0  0
    3.6599    1.9288    4.1059 H   0  0  0  0  0  0  0  0  0  0  0  0
    2.8693    1.8260    2.6267 H   0  0  0  0  0  0  0  0  0  0  0  0
    1.1134    3.2198    3.0679 H   0  0  0  0  0  0  0  0  0  0  0  0
    1.8672    3.5868    4.5829 H   0  0  0  0  0  0  0  0  0  0  0  0
    0.1585    3.1583    4.5183 H   0  0  0  0  0  0  0  0  0  0  0  0
    0.5759    1.7660    1.5245 H   0  0  0  0  0  0  0  0  0  0  0  0
   -0.0658    0.1551    1.3198 H   0  0  0  0  0  0  0  0  0  0  0  0
    1.6433    0.3754    1.4395 H   0  0  0  0  0  0  0  0  0  0  0  0
   -1.2339    1.8182    3.0360 H   0  0  0  0  0  0  0  0  0  0  0  0
   -1.2351    1.1451    4.6341 H   0  0  0  0  0  0  0  0  0  0  0  0
   -1.6135    0.1265    3.2586 H   0  0  0  0  0  0  0  0  0  0  0  0
    4.4740   -2.7154    2.5571 H   0  0  0  0  0  0  0  0  0  0  0  0
    4.7168   -3.8802    3.8361 H   0  0  0  0  0  0  0  0  0  0  0  0
    5.1841   -2.2321    4.0783 H   0  0  0  0  0  0  0  0  0  0  0  0
    1.0340   -3.5070    4.2815 H   0  0  0  0  0  0  0  0  0  0  0  0
    1.0092   -4.8824    2.6244 H   0  0  0  0  0  0  0  0  0  0  0  0
    3.5335   -4.0230    1.8797 H   0  0  0  0  0  0  0  0  0  0  0  0
  1  2  1  0
  1 37  1  0
  1 38  1  0
  1 39  1  0
  2 35  1  0
  2  3  1  0
  2 40  1  6
  3  4  1  0
  3 41  1  0
  3 42  1  0
  4  5  1  0
  4 34  1  0
  4 43  1  1
  5 32  1  0
  5  6  1  0
  5 44  1  6
  6  7  1  0
  7 31  1  0
  7  8  1  0
  7 45  1  1
  8  9  1  0
  8 10  1  0
  8 46  1  1
  9 47  1  0
 10 29  1  0
 10 11  2  3
 11 12  1  0
 11 48  1  0
 12 13  1  0
 12 14  1  0
 12 49  1  1
 13 50  1  0
 14 24  1  0
 14 15  1  1
 14 16  1  0
 15 51  1  0
 15 52  1  0
 15 53  1  0
 16 17  2  0
 16 18  1  0
 18 19  1  0
 18 54  1  0
 18 55  1  0
 19 26  1  0
 19 20  1  0
 19 56  1  6
 20 21  1  0
 20 29  1  0
 20 57  1  6
 21 22  1  0
 21 23  1  0
 21 58  1  1
 22 59  1  0
 23 24  1  0
 23 60  1  0
 23 61  1  0
 24 25  1  1
 24 26  1  0
 25 62  1  0
 25 63  1  0
 25 64  1  0
 26 27  1  0
 26 28  1  0
 27 65  1  0
 27 66  1  0
 27 67  1  0
 28 68  1  0
 28 69  1  0
 28 70  1  0
 29 30  1  6
 29 31  1  0
 30 71  1  0
 30 72  1  0
 30 73  1  0
 31 32  1  0
 31 74  1  1
 32 33  1  0
 32 75  1  6
 33 76  1  0
 34 35  1  0
 35 36  2  0
M  END
>  <i_m_ct_stereo_status>  (138) 
1

>  <s_m_source_file>  (138) 
/var/tmp/pbs.5076255.sched01/tmp323fbwsu/45qgza_o8k.sdf

>  <i_m_source_file_index>  (138) 
10

>  <i_lp_mmshare_version>  (138) 
48012

>  <i_f3d_flags>  (138) 
0

>  <s_epik_input>  (138) 
W0NIM11bQ0BASF0xW0NIMl1bQ0BIXShPQzE9TylbQ0BIXShPMilbQ0BIXShbT0hdKVtDQEhdM1tDQEBIXTJbQ0BASF0oW09IXSkvQyg9W0NIXS9bQ0BIXTRbT0hdKVtDQF0zKFtDSDNdKVtDQEBIXShbQ0BASF0oW0NIMl1DNT1PKUM2KFtDSDNdKVtDSDNdKVtDQEBIXShbT0hdKVtDSDJdW0NAXTYoW0NIM10pW0NAXTQ1W0NIM10=

>  <s_epik_cmdline>  (138) 
J2VwaWtfcHl0aG9uJywgJy1waHQnLCAnMi4wJywgJy1waCcsICc3LjAnLCAnLXRuJywgJzgnLCAnLW1hJywgJzIwMCcsICctaW1hZScsICc8aW5maWxlLm1hZT4nLCAnLW9tYWUnLCAnPG91dGZpbGUubWFlPic=

>  <r_lp_tautomer_probability>  (138) 
1

>  <r_epik_Ionization_Penalty>  (138) 
7.47584e-07

>  <r_epik_Ionization_Penalty_Charging>  (138) 
0

>  <r_epik_Ionization_Penalty_Neutral>  (138) 
7.47584e-07

>  <r_epik_State_Penalty>  (138) 
-0

>  <r_epik_Charging_Adjusted_Penalty>  (138) 
0

>  <i_epik_Tot_Q>  (138) 
0

>  <i_epik_Tot_abs_Q>  (138) 
0

>  <s_epik_Chemistry_Notes>  (138) 
This compound has an ester and may undergo hydrolysis at high or low pH.

>  <s_lp_Force_Field>  (138) 
OPLS3e

>  <r_lp_Energy>  (138) 
110.376

>  <b_lp_Chiralities_Consistent>  (138) 
1

>  <s_lp_Variant>  (138) 
38:0-1

>  <s_i_glide_gridfile>  (138) 
pfpi4k_grid

>  <i_i_glide_lignum>  (138) 
10

>  <i_i_glide_rotatable_bonds>  (138) 
5

>  <r_i_docking_score>  (138) 
-2.11538

>  <r_i_glide_ligand_efficiency>  (138) 
-0.0587605

>  <r_i_glide_ligand_efficiency_sa>  (138) 
-0.194023

>  <r_i_glide_ligand_efficiency_ln>  (138) 
-0.461518

>  <r_i_glide_gscore>  (138) 
-2.11538

>  <r_i_glide_lipo>  (138) 
-0.0194354

>  <r_i_glide_hbond>  (138) 
-0.00502142

>  <r_i_glide_metal>  (138) 
-0

>  <r_i_glide_rewards>  (138) 
0

>  <r_i_glide_evdw>  (138) 
-30.5879

>  <r_i_glide_ecoul>  (138) 
-3.81134

>  <r_i_glide_erotb>  (138) 
0.0803029

>  <r_i_glide_esite>  (138) 
-0.0701282

>  <r_i_glide_emodel>  (138) 
-38.4177

>  <r_i_glide_energy>  (138) 
-34.3992

>  <r_i_glide_einternal>  (138) 
1.32783

>  <r_i_glide_intrahb_reward>  (138) 
-0

>  <i_i_glide_confnum>  (138) 
6

>  <i_i_glide_posenum>  (138) 
36

>  <r_i_glide_eff_state_penalty>  (138) 
0

>  <ligand_id>  (138) 
38

>  <original_smiles>  (138) 
CC1CC(C2OC3C(O)C4=CC(O)C5(C)C(=O)CC6C(C(O)CC5(C)C6(C)C)C4(C)C3C2O)OC1=O

>  <smiles>  (138) 
[H]OC1([H])C2=C([H])C([H])(O[H])C3(C([H])([H])[H])C(=O)C([H])([H])C4([H])C([H])(C([H])(O[H])C([H])([H])C3(C([H])([H])[H])C4(C([H])([H])[H])C([H])([H])[H])C2(C([H])([H])[H])C2([H])C1([H])OC([H])(C1([H])OC(=O)C([H])(C([H])([H])[H])C1([H])[H])C2([H])O[H]

$$$$
38:1:0
     RDKit          3D

 76 81  0  0  1  0  0  0  0  0999 V2000
    5.4210   -3.1053   -3.1265 C   0  0  0  0  0  0  0  0  0  0  0  0
    4.8538   -2.7056   -1.7743 C   0  0  2  0  0  0  0  0  0  0  0  0
    5.2406   -3.6545   -0.6500 C   0  0  0  0  0  0  0  0  0  0  0  0
    4.0170   -3.6643    0.2740 C   0  0  1  0  0  0  0  0  0  0  0  0
    4.1222   -2.6506    1.4430 C   0  0  2  0  0  0  0  0  0  0  0  0
    3.2899   -3.0568    2.5265 O   0  0  0  0  0  0  0  0  0  0  0  0
    2.0855   -2.2981    2.4895 C   0  0  1  0  0  0  0  0  0  0  0  0
    1.3765   -2.2017    3.8508 C   0  0  1  0  0  0  0  0  0  0  0  0
    1.4163   -3.4137    4.5710 O   0  0  0  0  0  0  0  0  0  0  0  0
    2.0846   -1.0689    4.5712 C   0  0  0  0  0  0  0  0  0  0  0  0
    1.8380   -0.5568    5.7902 C   0  0  0  0  0  0  0  0  0  0  0  0
    0.4961   -0.2627    6.4331 C   0  0  1  0  0  0  0  0  0  0  0  0
    0.6844   -0.0243    7.8140 O   0  0  0  0  0  0  0  0  0  0  0  0
   -0.3139    0.9278    5.7462 C   0  0  2  0  0  0  0  0  0  0  0  0
   -1.6179    1.0923    6.5936 C   0  0  0  0  0  0  0  0  0  0  0  0
   -0.8273    0.2873    4.4203 C   0  0  0  0  0  0  0  0  0  0  0  0
   -1.7279   -0.5518    4.4334 O   0  0  0  0  0  0  0  0  0  0  0  0
   -0.1447    0.6331    3.0958 C   0  0  0  0  0  0  0  0  0  0  0  0
    0.9500    1.7193    3.1739 C   0  0  2  0  0  0  0  0  0  0  0  0
    2.4504    1.2914    3.5928 C   0  0  1  0  0  0  0  0  0  0  0  0
    2.9807    2.0850    4.8431 C   0  0  1  0  0  0  0  0  0  0  0  0
    3.7474    3.2060    4.4683 O   0  0  0  0  0  0  0  0  0  0  0  0
    1.9241    2.4824    5.9115 C   0  0  0  0  0  0  0  0  0  0  0  0
    0.4098    2.4031    5.5110 C   0  0  2  0  0  0  0  0  0  0  0  0
   -0.2412    3.4952    6.4210 C   0  0  0  0  0  0  0  0  0  0  0  0
    0.3379    2.9019    4.0051 C   0  0  0  0  0  0  0  0  0  0  0  0
    1.1135    4.2238    3.6771 C   0  0  0  0  0  0  0  0  0  0  0  0
   -1.1253    3.2699    3.5762 C   0  0  0  0  0  0  0  0  0  0  0  0
    2.9150   -0.2484    3.5790 C   0  0  1  0  0  0  0  0  0  0  0  0
    4.4121   -0.4308    3.9763 C   0  0  0  0  0  0  0  0  0  0  0  0
    2.6123   -0.9008    2.1837 C   0  0  1  0  0  0  0  0  0  0  0  0
    3.7041   -1.1883    1.1544 C   0  0  1  0  0  0  0  0  0  0  0  0
    4.7672   -0.2600    1.0844 O   0  0  0  0  0  0  0  0  0  0  0  0
    2.9421   -3.3743   -0.6197 O   0  0  0  0  0  0  0  0  0  0  0  0
    3.3379   -2.7889   -1.7622 C   0  0  0  0  0  0  0  0  0  0  0  0
    2.6278   -2.3655   -2.6723 O   0  0  0  0  0  0  0  0  0  0  0  0
    5.0568   -2.4349   -3.9061 H   0  0  0  0  0  0  0  0  0  0  0  0
    5.1079   -4.1120   -3.4037 H   0  0  0  0  0  0  0  0  0  0  0  0
    6.5100   -3.0766   -3.1318 H   0  0  0  0  0  0  0  0  0  0  0  0
    5.1341   -1.6831   -1.5216 H   0  0  0  0  0  0  0  0  0  0  0  0
    5.4037   -4.6602   -1.0436 H   0  0  0  0  0  0  0  0  0  0  0  0
    6.1603   -3.3464   -0.1507 H   0  0  0  0  0  0  0  0  0  0  0  0
    3.9076   -4.6718    0.6776 H   0  0  0  0  0  0  0  0  0  0  0  0
    5.1335   -2.6898    1.8452 H   0  0  0  0  0  0  0  0  0  0  0  0
    1.4514   -2.6894    1.6963 H   0  0  0  0  0  0  0  0  0  0  0  0
    0.3245   -1.9901    3.6921 H   0  0  0  0  0  0  0  0  0  0  0  0
    2.3311   -3.6598    4.6779 H   0  0  0  0  0  0  0  0  0  0  0  0
    2.5838    0.0927    6.1773 H   0  0  0  0  0  0  0  0  0  0  0  0
   -0.0798   -1.1887    6.3743 H   0  0  0  0  0  0  0  0  0  0  0  0
    1.2172    0.7574    7.9133 H   0  0  0  0  0  0  0  0  0  0  0  0
   -1.4367    1.4777    7.5994 H   0  0  0  0  0  0  0  0  0  0  0  0
   -2.1247    0.1438    6.7425 H   0  0  0  0  0  0  0  0  0  0  0  0
   -2.3465    1.7377    6.1033 H   0  0  0  0  0  0  0  0  0  0  0  0
    0.1730   -0.2724    2.6082 H   0  0  0  0  0  0  0  0  0  0  0  0
   -0.9328    0.9853    2.4335 H   0  0  0  0  0  0  0  0  0  0  0  0
    1.0257    2.0749    2.1453 H   0  0  0  0  0  0  0  0  0  0  0  0
    3.0411    1.6819    2.7614 H   0  0  0  0  0  0  0  0  0  0  0  0
    3.7569    1.5366    5.3629 H   0  0  0  0  0  0  0  0  0  0  0  0
    4.2000    2.9926    3.6563 H   0  0  0  0  0  0  0  0  0  0  0  0
    2.0984    1.9548    6.8390 H   0  0  0  0  0  0  0  0  0  0  0  0
    2.1835    3.4973    6.2202 H   0  0  0  0  0  0  0  0  0  0  0  0
    0.2103    4.4782    6.2766 H   0  0  0  0  0  0  0  0  0  0  0  0
   -0.1095    3.2567    7.4781 H   0  0  0  0  0  0  0  0  0  0  0  0
   -1.3056    3.6407    6.2382 H   0  0  0  0  0  0  0  0  0  0  0  0
    0.4892    4.9781    3.1895 H   0  0  0  0  0  0  0  0  0  0  0  0
    1.9204    4.0468    2.9622 H   0  0  0  0  0  0  0  0  0  0  0  0
    1.5437    4.7218    4.5421 H   0  0  0  0  0  0  0  0  0  0  0  0
   -1.4273    4.2369    3.9819 H   0  0  0  0  0  0  0  0  0  0  0  0
   -1.8962    2.5744    3.8995 H   0  0  0  0  0  0  0  0  0  0  0  0
   -1.1956    3.3492    2.4891 H   0  0  0  0  0  0  0  0  0  0  0  0
    5.0496    0.3153    3.5008 H   0  0  0  0  0  0  0  0  0  0  0  0
    4.7985   -1.4131    3.7180 H   0  0  0  0  0  0  0  0  0  0  0  0
    4.5833   -0.3570    5.0482 H   0  0  0  0  0  0  0  0  0  0  0  0
    1.8716   -0.3213    1.6490 H   0  0  0  0  0  0  0  0  0  0  0  0
    3.2052   -1.0979    0.1895 H   0  0  0  0  0  0  0  0  0  0  0  0
    4.4256    0.5493    0.7303 H   0  0  0  0  0  0  0  0  0  0  0  0
  1  2  1  0
  1 37  1  0
  1 38  1  0
  1 39  1  0
  2 35  1  0
  2  3  1  0
  2 40  1  1
  3  4  1  0
  3 41  1  0
  3 42  1  0
  4  5  1  0
  4 34  1  0
  4 43  1  1
  5 32  1  0
  5  6  1  0
  5 44  1  1
  6  7  1  0
  7 31  1  0
  7  8  1  0
  7 45  1  6
  8  9  1  0
  8 10  1  0
  8 46  1  6
  9 47  1  0
 10 29  1  0
 10 11  2  3
 11 12  1  0
 11 48  1  0
 12 13  1  0
 12 14  1  0
 12 49  1  1
 13 50  1  0
 14 24  1  0
 14 15  1  1
 14 16  1  0
 15 51  1  0
 15 52  1  0
 15 53  1  0
 16 17  2  0
 16 18  1  0
 18 19  1  0
 18 54  1  0
 18 55  1  0
 19 26  1  0
 19 20  1  0
 19 56  1  6
 20 21  1  0
 20 29  1  0
 20 57  1  6
 21 22  1  0
 21 23  1  0
 21 58  1  1
 22 59  1  0
 23 24  1  0
 23 60  1  0
 23 61  1  0
 24 25  1  1
 24 26  1  0
 25 62  1  0
 25 63  1  0
 25 64  1  0
 26 27  1  0
 26 28  1  0
 27 65  1  0
 27 66  1  0
 27 67  1  0
 28 68  1  0
 28 69  1  0
 28 70  1  0
 29 30  1  1
 29 31  1  0
 30 71  1  0
 30 72  1  0
 30 73  1  0
 31 32  1  0
 31 74  1  6
 32 33  1  0
 32 75  1  6
 33 76  1  0
 34 35  1  0
 35 36  2  0
M  END
>  <i_m_ct_stereo_status>  (139) 
1

>  <s_m_source_file>  (139) 
/var/tmp/pbs.5076255.sched01/tmp323fbwsu/45qgza_o8k.sdf

>  <i_m_source_file_index>  (139) 
11

>  <i_lp_mmshare_version>  (139) 
48012

>  <i_f3d_flags>  (139) 
0

>  <s_epik_input>  (139) 
W0NIM11bQ0BASF0xW0NIMl1bQ0BIXShPQzE9TylbQ0BIXShPMilbQ0BIXShbT0hdKVtDQEhdM1tDQEBIXTJbQ0BASF0oW09IXSkvQyg9W0NIXS9bQ0BIXTRbT0hdKVtDQF0zKFtDSDNdKVtDQEBIXShbQ0BASF0oW0NIMl1DNT1PKUM2KFtDSDNdKVtDSDNdKVtDQEBIXShbT0hdKVtDSDJdW0NAXTYoW0NIM10pW0NAXTQ1W0NIM10=

>  <s_epik_cmdline>  (139) 
J2VwaWtfcHl0aG9uJywgJy1waHQnLCAnMi4wJywgJy1waCcsICc3LjAnLCAnLXRuJywgJzgnLCAnLW1hJywgJzIwMCcsICctaW1hZScsICc8aW5maWxlLm1hZT4nLCAnLW9tYWUnLCAnPG91dGZpbGUubWFlPic=

>  <r_lp_tautomer_probability>  (139) 
1

>  <r_epik_Ionization_Penalty>  (139) 
7.47584e-07

>  <r_epik_Ionization_Penalty_Charging>  (139) 
0

>  <r_epik_Ionization_Penalty_Neutral>  (139) 
7.47584e-07

>  <r_epik_State_Penalty>  (139) 
-0

>  <r_epik_Charging_Adjusted_Penalty>  (139) 
0

>  <i_epik_Tot_Q>  (139) 
0

>  <i_epik_Tot_abs_Q>  (139) 
0

>  <s_epik_Chemistry_Notes>  (139) 
This compound has an ester and may undergo hydrolysis at high or low pH.

>  <s_lp_Force_Field>  (139) 
OPLS3e

>  <r_lp_Energy>  (139) 
132.012

>  <b_lp_Chiralities_Consistent>  (139) 
1

>  <s_lp_Variant>  (139) 
38:0-2

>  <s_i_glide_gridfile>  (139) 
pfpi4k_grid

>  <i_i_glide_lignum>  (139) 
11

>  <i_i_glide_rotatable_bonds>  (139) 
5

>  <r_i_docking_score>  (139) 
-3.08752

>  <r_i_glide_ligand_efficiency>  (139) 
-0.0857643

>  <r_i_glide_ligand_efficiency_sa>  (139) 
-0.283188

>  <r_i_glide_ligand_efficiency_ln>  (139) 
-0.673612

>  <r_i_glide_gscore>  (139) 
-3.08752

>  <r_i_glide_lipo>  (139) 
-0.308493

>  <r_i_glide_hbond>  (139) 
-0.294361

>  <r_i_glide_metal>  (139) 
-0

>  <r_i_glide_rewards>  (139) 
0

>  <r_i_glide_evdw>  (139) 
-37.9824

>  <r_i_glide_ecoul>  (139) 
-4.13878

>  <r_i_glide_erotb>  (139) 
0.0803029

>  <r_i_glide_esite>  (139) 
-0.045028

>  <r_i_glide_emodel>  (139) 
-47.0655

>  <r_i_glide_energy>  (139) 
-42.1212

>  <r_i_glide_einternal>  (139) 
5.78889

>  <r_i_glide_intrahb_reward>  (139) 
-0

>  <i_i_glide_confnum>  (139) 
3

>  <i_i_glide_posenum>  (139) 
6

>  <r_i_glide_eff_state_penalty>  (139) 
0

>  <ligand_id>  (139) 
38

>  <original_smiles>  (139) 
CC1CC(C2OC3C(O)C4=CC(O)C5(C)C(=O)CC6C(C(O)CC5(C)C6(C)C)C4(C)C3C2O)OC1=O

>  <smiles>  (139) 
[H]OC1([H])C2=C([H])C([H])(O[H])C3(C([H])([H])[H])C(=O)C([H])([H])C4([H])C([H])(C([H])(O[H])C([H])([H])C3(C([H])([H])[H])C4(C([H])([H])[H])C([H])([H])[H])C2(C([H])([H])[H])C2([H])C1([H])OC([H])(C1([H])OC(=O)C([H])(C([H])([H])[H])C1([H])[H])C2([H])O[H]

$$$$
38:1:1
     RDKit          3D

 76 81  0  0  1  0  0  0  0  0999 V2000
    3.9850   -3.0910   -3.2975 C   0  0  0  0  0  0  0  0  0  0  0  0
    3.8502   -2.8321   -1.7981 C   0  0  2  0  0  0  0  0  0  0  0  0
    4.9854   -3.3817   -0.9284 C   0  0  0  0  0  0  0  0  0  0  0  0
    4.3125   -3.7956    0.3970 C   0  0  1  0  0  0  0  0  0  0  0  0
    4.3913   -2.7299    1.5317 C   0  0  2  0  0  0  0  0  0  0  0  0
    3.6174   -3.1308    2.6637 O   0  0  0  0  0  0  0  0  0  0  0  0
    2.3533   -2.4637    2.6181 C   0  0  1  0  0  0  0  0  0  0  0  0
    1.6647   -2.3082    3.9839 C   0  0  1  0  0  0  0  0  0  0  0  0
    1.8138   -3.4709    4.7711 O   0  0  0  0  0  0  0  0  0  0  0  0
    2.3215   -1.0979    4.6000 C   0  0  0  0  0  0  0  0  0  0  0  0
    2.0678   -0.5183    5.7872 C   0  0  0  0  0  0  0  0  0  0  0  0
    0.7258   -0.2718    6.4510 C   0  0  1  0  0  0  0  0  0  0  0  0
    0.9276    0.0761    7.8034 O   0  0  0  0  0  0  0  0  0  0  0  0
   -0.1726    0.8164    5.7039 C   0  0  2  0  0  0  0  0  0  0  0  0
   -1.4554    0.9487    6.5846 C   0  0  0  0  0  0  0  0  0  0  0  0
   -0.6743    0.0805    4.4327 C   0  0  0  0  0  0  0  0  0  0  0  0
   -1.5386   -0.7980    4.5090 O   0  0  0  0  0  0  0  0  0  0  0  0
   -0.0487    0.3724    3.0769 C   0  0  0  0  0  0  0  0  0  0  0  0
    0.9752    1.5248    3.0592 C   0  0  2  0  0  0  0  0  0  0  0  0
    2.5057    1.2158    3.4624 C   0  0  1  0  0  0  0  0  0  0  0  0
    3.0090    2.1136    4.6421 C   0  0  1  0  0  0  0  0  0  0  0  0
    3.6646    3.2597    4.1450 O   0  0  0  0  0  0  0  0  0  0  0  0
    1.9614    2.5237    5.7100 C   0  0  0  0  0  0  0  0  0  0  0  0
    0.4476    2.3152    5.3661 C   0  0  2  0  0  0  0  0  0  0  0  0
   -0.2504    3.4194    6.2225 C   0  0  0  0  0  0  0  0  0  0  0  0
    0.3090    2.7112    3.8384 C   0  0  0  0  0  0  0  0  0  0  0  0
    0.9904    4.0576    3.4169 C   0  0  0  0  0  0  0  0  0  0  0  0
   -1.1850    2.9643    3.4239 C   0  0  0  0  0  0  0  0  0  0  0  0
    3.0665   -0.2869    3.5483 C   0  0  1  0  0  0  0  0  0  0  0  0
    4.5846   -0.3472    3.8964 C   0  0  0  0  0  0  0  0  0  0  0  0
    2.7755   -1.0459    2.2105 C   0  0  1  0  0  0  0  0  0  0  0  0
    3.8528   -1.3249    1.1785 C   0  0  1  0  0  0  0  0  0  0  0  0
    4.8377   -0.3240    0.9877 O   0  0  0  0  0  0  0  0  0  0  0  0
    2.9696   -4.0384    0.0061 O   0  0  0  0  0  0  0  0  0  0  0  0
    2.6270   -3.4891   -1.1617 C   0  0  0  0  0  0  0  0  0  0  0  0
    1.5049   -3.5082   -1.6605 O   0  0  0  0  0  0  0  0  0  0  0  0
    3.1147   -2.7057   -3.8251 H   0  0  0  0  0  0  0  0  0  0  0  0
    4.0740   -4.1556   -3.5156 H   0  0  0  0  0  0  0  0  0  0  0  0
    4.8594   -2.5817   -3.6856 H   0  0  0  0  0  0  0  0  0  0  0  0
    3.7637   -1.7511   -1.6813 H   0  0  0  0  0  0  0  0  0  0  0  0
    5.4334   -4.2613   -1.3943 H   0  0  0  0  0  0  0  0  0  0  0  0
    5.7834   -2.6553   -0.7743 H   0  0  0  0  0  0  0  0  0  0  0  0
    4.7514   -4.7280    0.7464 H   0  0  0  0  0  0  0  0  0  0  0  0
    5.4321   -2.6797    1.8612 H   0  0  0  0  0  0  0  0  0  0  0  0
    1.7146   -2.9347    1.8789 H   0  0  0  0  0  0  0  0  0  0  0  0
    0.5976   -2.1749    3.8287 H   0  0  0  0  0  0  0  0  0  0  0  0
    2.7321   -3.6640    4.8178 H   0  0  0  0  0  0  0  0  0  0  0  0
    2.7824    0.1978    6.1121 H   0  0  0  0  0  0  0  0  0  0  0  0
    0.2113   -1.2344    6.4547 H   0  0  0  0  0  0  0  0  0  0  0  0
    1.3877    0.8926    7.8378 H   0  0  0  0  0  0  0  0  0  0  0  0
   -1.2774    1.4125    7.5568 H   0  0  0  0  0  0  0  0  0  0  0  0
   -1.8769   -0.0260    6.8031 H   0  0  0  0  0  0  0  0  0  0  0  0
   -2.2407    1.5122    6.0758 H   0  0  0  0  0  0  0  0  0  0  0  0
    0.3094   -0.5443    2.6398 H   0  0  0  0  0  0  0  0  0  0  0  0
   -0.8742    0.6335    2.4198 H   0  0  0  0  0  0  0  0  0  0  0  0
    1.0004    1.8196    2.0087 H   0  0  0  0  0  0  0  0  0  0  0  0
    3.0475    1.5845    2.5898 H   0  0  0  0  0  0  0  0  0  0  0  0
    3.8413    1.6658    5.1671 H   0  0  0  0  0  0  0  0  0  0  0  0
    4.2560    2.9850    3.4564 H   0  0  0  0  0  0  0  0  0  0  0  0
    2.1939    2.0611    6.6647 H   0  0  0  0  0  0  0  0  0  0  0  0
    2.1645    3.5616    5.9537 H   0  0  0  0  0  0  0  0  0  0  0  0
    0.1323    4.4199    6.0047 H   0  0  0  0  0  0  0  0  0  0  0  0
   -0.0768    3.2593    7.2884 H   0  0  0  0  0  0  0  0  0  0  0  0
   -1.3262    3.4865    6.0619 H   0  0  0  0  0  0  0  0  0  0  0  0
    0.3099    4.7394    2.9034 H   0  0  0  0  0  0  0  0  0  0  0  0
    1.7809    3.8885    2.6814 H   0  0  0  0  0  0  0  0  0  0  0  0
    1.4134    4.6378    4.2346 H   0  0  0  0  0  0  0  0  0  0  0  0
   -1.5400    3.9329    3.7761 H   0  0  0  0  0  0  0  0  0  0  0  0
   -1.9051    2.2443    3.8108 H   0  0  0  0  0  0  0  0  0  0  0  0
   -1.2871    2.9642    2.3372 H   0  0  0  0  0  0  0  0  0  0  0  0
    5.1570    0.4042    3.3509 H   0  0  0  0  0  0  0  0  0  0  0  0
    5.0282   -1.3168    3.6852 H   0  0  0  0  0  0  0  0  0  0  0  0
    4.7826   -0.1942    4.9542 H   0  0  0  0  0  0  0  0  0  0  0  0
    1.9893   -0.5475    1.6659 H   0  0  0  0  0  0  0  0  0  0  0  0
    3.2789   -1.3242    0.2732 H   0  0  0  0  0  0  0  0  0  0  0  0
    4.4334    0.4153    0.5724 H   0  0  0  0  0  0  0  0  0  0  0  0
  1  2  1  0
  1 37  1  0
  1 38  1  0
  1 39  1  0
  2 35  1  0
  2  3  1  0
  2 40  1  6
  3  4  1  0
  3 41  1  0
  3 42  1  0
  4  5  1  0
  4 34  1  0
  4 43  1  1
  5 32  1  0
  5  6  1  0
  5 44  1  1
  6  7  1  0
  7 31  1  0
  7  8  1  0
  7 45  1  6
  8  9  1  0
  8 10  1  0
  8 46  1  6
  9 47  1  0
 10 29  1  0
 10 11  2  3
 11 12  1  0
 11 48  1  0
 12 13  1  0
 12 14  1  0
 12 49  1  1
 13 50  1  0
 14 24  1  0
 14 15  1  1
 14 16  1  0
 15 51  1  0
 15 52  1  0
 15 53  1  0
 16 17  2  0
 16 18  1  0
 18 19  1  0
 18 54  1  0
 18 55  1  0
 19 26  1  0
 19 20  1  0
 19 56  1  6
 20 21  1  0
 20 29  1  0
 20 57  1  6
 21 22  1  0
 21 23  1  0
 21 58  1  1
 22 59  1  0
 23 24  1  0
 23 60  1  0
 23 61  1  0
 24 25  1  1
 24 26  1  0
 25 62  1  0
 25 63  1  0
 25 64  1  0
 26 27  1  0
 26 28  1  0
 27 65  1  0
 27 66  1  0
 27 67  1  0
 28 68  1  0
 28 69  1  0
 28 70  1  0
 29 30  1  1
 29 31  1  0
 30 71  1  0
 30 72  1  0
 30 73  1  0
 31 32  1  0
 31 74  1  6
 32 33  1  0
 32 75  1  6
 33 76  1  0
 34 35  1  0
 35 36  2  0
M  END
>  <i_m_ct_stereo_status>  (140) 
1

>  <s_m_source_file>  (140) 
/var/tmp/pbs.5076255.sched01/tmp323fbwsu/45qgza_o8k.sdf

>  <i_m_source_file_index>  (140) 
11

>  <i_lp_mmshare_version>  (140) 
48012

>  <i_f3d_flags>  (140) 
0

>  <s_epik_input>  (140) 
W0NIM11bQ0BASF0xW0NIMl1bQ0BIXShPQzE9TylbQ0BIXShPMilbQ0BIXShbT0hdKVtDQEhdM1tDQEBIXTJbQ0BASF0oW09IXSkvQyg9W0NIXS9bQ0BIXTRbT0hdKVtDQF0zKFtDSDNdKVtDQEBIXShbQ0BASF0oW0NIMl1DNT1PKUM2KFtDSDNdKVtDSDNdKVtDQEBIXShbT0hdKVtDSDJdW0NAXTYoW0NIM10pW0NAXTQ1W0NIM10=

>  <s_epik_cmdline>  (140) 
J2VwaWtfcHl0aG9uJywgJy1waHQnLCAnMi4wJywgJy1waCcsICc3LjAnLCAnLXRuJywgJzgnLCAnLW1hJywgJzIwMCcsICctaW1hZScsICc8aW5maWxlLm1hZT4nLCAnLW9tYWUnLCAnPG91dGZpbGUubWFlPic=

>  <r_lp_tautomer_probability>  (140) 
1

>  <r_epik_Ionization_Penalty>  (140) 
7.47584e-07

>  <r_epik_Ionization_Penalty_Charging>  (140) 
0

>  <r_epik_Ionization_Penalty_Neutral>  (140) 
7.47584e-07

>  <r_epik_State_Penalty>  (140) 
-0

>  <r_epik_Charging_Adjusted_Penalty>  (140) 
0

>  <i_epik_Tot_Q>  (140) 
0

>  <i_epik_Tot_abs_Q>  (140) 
0

>  <s_epik_Chemistry_Notes>  (140) 
This compound has an ester and may undergo hydrolysis at high or low pH.

>  <s_lp_Force_Field>  (140) 
OPLS3e

>  <r_lp_Energy>  (140) 
132.012

>  <b_lp_Chiralities_Consistent>  (140) 
1

>  <s_lp_Variant>  (140) 
38:0-2

>  <s_i_glide_gridfile>  (140) 
pfpi4k_grid

>  <i_i_glide_lignum>  (140) 
11

>  <i_i_glide_rotatable_bonds>  (140) 
5

>  <r_i_docking_score>  (140) 
-3.02875

>  <r_i_glide_ligand_efficiency>  (140) 
-0.084132

>  <r_i_glide_ligand_efficiency_sa>  (140) 
-0.277798

>  <r_i_glide_ligand_efficiency_ln>  (140) 
-0.660792

>  <r_i_glide_gscore>  (140) 
-3.02875

>  <r_i_glide_lipo>  (140) 
-0.296386

>  <r_i_glide_hbond>  (140) 
-0.334144

>  <r_i_glide_metal>  (140) 
-0

>  <r_i_glide_rewards>  (140) 
-0.0284114

>  <r_i_glide_evdw>  (140) 
-33.2455

>  <r_i_glide_ecoul>  (140) 
-5.11077

>  <r_i_glide_erotb>  (140) 
0.0803029

>  <r_i_glide_esite>  (140) 
-0.0212199

>  <r_i_glide_emodel>  (140) 
-43.4959

>  <r_i_glide_energy>  (140) 
-38.3563

>  <r_i_glide_einternal>  (140) 
4.87461

>  <r_i_glide_intrahb_reward>  (140) 
-0

>  <i_i_glide_confnum>  (140) 
3

>  <i_i_glide_posenum>  (140) 
13

>  <r_i_glide_eff_state_penalty>  (140) 
0

>  <ligand_id>  (140) 
38

>  <original_smiles>  (140) 
CC1CC(C2OC3C(O)C4=CC(O)C5(C)C(=O)CC6C(C(O)CC5(C)C6(C)C)C4(C)C3C2O)OC1=O

>  <smiles>  (140) 
[H]OC1([H])C2=C([H])C([H])(O[H])C3(C([H])([H])[H])C(=O)C([H])([H])C4([H])C([H])(C([H])(O[H])C([H])([H])C3(C([H])([H])[H])C4(C([H])([H])[H])C([H])([H])[H])C2(C([H])([H])[H])C2([H])C1([H])OC([H])(C1([H])OC(=O)C([H])(C([H])([H])[H])C1([H])[H])C2([H])O[H]

$$$$
38:1:2
     RDKit          3D

 76 81  0  0  1  0  0  0  0  0999 V2000
   -1.7339    2.6611    4.1935 C   0  0  0  0  0  0  0  0  0  0  0  0
   -0.9075    2.1864    5.3962 C   0  0  2  0  0  0  0  0  0  0  0  0
    0.1065    1.1113    5.0196 C   0  0  0  0  0  0  0  0  0  0  0  0
   -0.6114   -0.2118    5.3085 C   0  0  1  0  0  0  0  0  0  0  0  0
    0.3390   -1.3316    5.7751 C   0  0  2  0  0  0  0  0  0  0  0  0
    1.2351   -1.6653    4.7148 O   0  0  0  0  0  0  0  0  0  0  0  0
    0.7488   -2.8047    4.0071 C   0  0  1  0  0  0  0  0  0  0  0  0
    1.8546   -3.5945    3.2827 C   0  0  1  0  0  0  0  0  0  0  0  0
    2.8040   -2.7540    2.6584 O   0  0  0  0  0  0  0  0  0  0  0  0
    2.4686   -4.4728    4.3524 C   0  0  0  0  0  0  0  0  0  0  0  0
    3.4641   -5.3760    4.2390 C   0  0  0  0  0  0  0  0  0  0  0  0
    3.7129   -6.3826    3.1302 C   0  0  1  0  0  0  0  0  0  0  0  0
    5.0202   -6.9072    3.2731 O   0  0  0  0  0  0  0  0  0  0  0  0
    2.6278   -7.5554    3.0560 C   0  0  2  0  0  0  0  0  0  0  0  0
    3.1013   -8.4889    1.8898 C   0  0  0  0  0  0  0  0  0  0  0  0
    1.3678   -6.8492    2.4750 C   0  0  0  0  0  0  0  0  0  0  0  0
    1.2787   -6.5232    1.2869 O   0  0  0  0  0  0  0  0  0  0  0  0
    0.2131   -6.4715    3.3934 C   0  0  0  0  0  0  0  0  0  0  0  0
    0.3255   -6.9541    4.8486 C   0  0  2  0  0  0  0  0  0  0  0  0
    1.1564   -6.0591    5.9041 C   0  0  1  0  0  0  0  0  0  0  0  0
    2.3058   -6.8742    6.5983 C   0  0  1  0  0  0  0  0  0  0  0  0
    1.8813   -7.3791    7.8484 O   0  0  0  0  0  0  0  0  0  0  0  0
    2.9928   -7.9795    5.7396 C   0  0  0  0  0  0  0  0  0  0  0  0
    2.2781   -8.4439    4.4212 C   0  0  2  0  0  0  0  0  0  0  0  0
    2.7680   -9.9213    4.2674 C   0  0  0  0  0  0  0  0  0  0  0  0
    0.7284   -8.4681    4.7751 C   0  0  0  0  0  0  0  0  0  0  0  0
    0.3310   -9.1667    6.1213 C   0  0  0  0  0  0  0  0  0  0  0  0
   -0.1012   -9.2833    3.7198 C   0  0  0  0  0  0  0  0  0  0  0  0
    1.5544   -4.5311    5.5792 C   0  0  1  0  0  0  0  0  0  0  0  0
    2.3230   -3.8568    6.7559 C   0  0  0  0  0  0  0  0  0  0  0  0
    0.2852   -3.6905    5.1658 C   0  0  1  0  0  0  0  0  0  0  0  0
   -0.3773   -2.6576    6.0857 C   0  0  1  0  0  0  0  0  0  0  0  0
   -0.4331   -3.0091    7.4557 O   0  0  0  0  0  0  0  0  0  0  0  0
   -1.5393    0.1382    6.3223 O   0  0  0  0  0  0  0  0  0  0  0  0
   -1.7760    1.4468    6.4045 C   0  0  0  0  0  0  0  0  0  0  0  0
   -2.5715    1.9896    7.1666 O   0  0  0  0  0  0  0  0  0  0  0  0
   -2.5206    3.3485    4.4991 H   0  0  0  0  0  0  0  0  0  0  0  0
   -2.2055    1.8229    3.6807 H   0  0  0  0  0  0  0  0  0  0  0  0
   -1.1057    3.1753    3.4670 H   0  0  0  0  0  0  0  0  0  0  0  0
   -0.4088    3.0268    5.8779 H   0  0  0  0  0  0  0  0  0  0  0  0
    0.4387    1.1703    3.9809 H   0  0  0  0  0  0  0  0  0  0  0  0
    0.9929    1.2133    5.6500 H   0  0  0  0  0  0  0  0  0  0  0  0
   -1.1761   -0.5244    4.4291 H   0  0  0  0  0  0  0  0  0  0  0  0
    0.9224   -0.9900    6.6314 H   0  0  0  0  0  0  0  0  0  0  0  0
   -0.0624   -2.5040    3.3452 H   0  0  0  0  0  0  0  0  0  0  0  0
    1.4227   -4.1852    2.4836 H   0  0  0  0  0  0  0  0  0  0  0  0
    2.3649   -2.2159    2.0156 H   0  0  0  0  0  0  0  0  0  0  0  0
    3.8888   -5.7206    5.1494 H   0  0  0  0  0  0  0  0  0  0  0  0
    3.7225   -5.8220    2.1932 H   0  0  0  0  0  0  0  0  0  0  0  0
    5.0317   -7.5142    3.9981 H   0  0  0  0  0  0  0  0  0  0  0  0
    4.0112   -9.0412    2.1263 H   0  0  0  0  0  0  0  0  0  0  0  0
    3.3370   -7.9318    0.9809 H   0  0  0  0  0  0  0  0  0  0  0  0
    2.3352   -9.2149    1.6112 H   0  0  0  0  0  0  0  0  0  0  0  0
    0.0331   -5.4179    3.3068 H   0  0  0  0  0  0  0  0  0  0  0  0
   -0.6707   -6.9195    2.9484 H   0  0  0  0  0  0  0  0  0  0  0  0
   -0.7066   -6.9279    5.1988 H   0  0  0  0  0  0  0  0  0  0  0  0
    0.4300   -5.9117    6.7055 H   0  0  0  0  0  0  0  0  0  0  0  0
    3.1045   -6.2344    6.9540 H   0  0  0  0  0  0  0  0  0  0  0  0
    2.5969   -7.8713    8.2204 H   0  0  0  0  0  0  0  0  0  0  0  0
    4.0258   -7.7245    5.5327 H   0  0  0  0  0  0  0  0  0  0  0  0
    3.1443   -8.8314    6.4024 H   0  0  0  0  0  0  0  0  0  0  0  0
    2.5367  -10.5293    5.1435 H   0  0  0  0  0  0  0  0  0  0  0  0
    3.8518   -9.9690    4.1502 H   0  0  0  0  0  0  0  0  0  0  0  0
    2.3160  -10.4517    3.4293 H   0  0  0  0  0  0  0  0  0  0  0  0
   -0.4302   -9.9346    5.9992 H   0  0  0  0  0  0  0  0  0  0  0  0
   -0.1153   -8.4662    6.8261 H   0  0  0  0  0  0  0  0  0  0  0  0
    1.1531   -9.6687    6.6288 H   0  0  0  0  0  0  0  0  0  0  0  0
    0.0145  -10.3589    3.8668 H   0  0  0  0  0  0  0  0  0  0  0  0
    0.1705   -9.1197    2.6789 H   0  0  0  0  0  0  0  0  0  0  0  0
   -1.1680   -9.0724    3.8144 H   0  0  0  0  0  0  0  0  0  0  0  0
    1.8827   -4.0978    7.7232 H   0  0  0  0  0  0  0  0  0  0  0  0
    2.3768   -2.7758    6.6575 H   0  0  0  0  0  0  0  0  0  0  0  0
    3.3671   -4.1607    6.8043 H   0  0  0  0  0  0  0  0  0  0  0  0
   -0.5125   -4.3578    4.8653 H   0  0  0  0  0  0  0  0  0  0  0  0
   -1.4168   -2.5596    5.7695 H   0  0  0  0  0  0  0  0  0  0  0  0
    0.4479   -3.1989    7.7465 H   0  0  0  0  0  0  0  0  0  0  0  0
  1  2  1  0
  1 37  1  0
  1 38  1  0
  1 39  1  0
  2 35  1  0
  2  3  1  0
  2 40  1  1
  3  4  1  0
  3 41  1  0
  3 42  1  0
  4  5  1  0
  4 34  1  0
  4 43  1  6
  5 32  1  0
  5  6  1  0
  5 44  1  1
  6  7  1  0
  7 31  1  0
  7  8  1  0
  7 45  1  6
  8  9  1  0
  8 10  1  0
  8 46  1  6
  9 47  1  0
 10 29  1  0
 10 11  2  3
 11 12  1  0
 11 48  1  0
 12 13  1  0
 12 14  1  0
 12 49  1  6
 13 50  1  0
 14 24  1  0
 14 15  1  6
 14 16  1  0
 15 51  1  0
 15 52  1  0
 15 53  1  0
 16 17  2  0
 16 18  1  0
 18 19  1  0
 18 54  1  0
 18 55  1  0
 19 26  1  0
 19 20  1  0
 19 56  1  1
 20 21  1  0
 20 29  1  0
 20 57  1  1
 21 22  1  0
 21 23  1  0
 21 58  1  1
 22 59  1  0
 23 24  1  0
 23 60  1  0
 23 61  1  0
 24 25  1  6
 24 26  1  0
 25 62  1  0
 25 63  1  0
 25 64  1  0
 26 27  1  0
 26 28  1  0
 27 65  1  0
 27 66  1  0
 27 67  1  0
 28 68  1  0
 28 69  1  0
 28 70  1  0
 29 30  1  1
 29 31  1  0
 30 71  1  0
 30 72  1  0
 30 73  1  0
 31 32  1  0
 31 74  1  6
 32 33  1  0
 32 75  1  6
 33 76  1  0
 34 35  1  0
 35 36  2  0
M  END
>  <i_m_ct_stereo_status>  (141) 
1

>  <s_m_source_file>  (141) 
/var/tmp/pbs.5076255.sched01/tmp323fbwsu/45qgza_o8k.sdf

>  <i_m_source_file_index>  (141) 
11

>  <i_lp_mmshare_version>  (141) 
48012

>  <i_f3d_flags>  (141) 
0

>  <s_epik_input>  (141) 
W0NIM11bQ0BASF0xW0NIMl1bQ0BIXShPQzE9TylbQ0BIXShPMilbQ0BIXShbT0hdKVtDQEhdM1tDQEBIXTJbQ0BASF0oW09IXSkvQyg9W0NIXS9bQ0BIXTRbT0hdKVtDQF0zKFtDSDNdKVtDQEBIXShbQ0BASF0oW0NIMl1DNT1PKUM2KFtDSDNdKVtDSDNdKVtDQEBIXShbT0hdKVtDSDJdW0NAXTYoW0NIM10pW0NAXTQ1W0NIM10=

>  <s_epik_cmdline>  (141) 
J2VwaWtfcHl0aG9uJywgJy1waHQnLCAnMi4wJywgJy1waCcsICc3LjAnLCAnLXRuJywgJzgnLCAnLW1hJywgJzIwMCcsICctaW1hZScsICc8aW5maWxlLm1hZT4nLCAnLW9tYWUnLCAnPG91dGZpbGUubWFlPic=

>  <r_lp_tautomer_probability>  (141) 
1

>  <r_epik_Ionization_Penalty>  (141) 
7.47584e-07

>  <r_epik_Ionization_Penalty_Charging>  (141) 
0

>  <r_epik_Ionization_Penalty_Neutral>  (141) 
7.47584e-07

>  <r_epik_State_Penalty>  (141) 
-0

>  <r_epik_Charging_Adjusted_Penalty>  (141) 
0

>  <i_epik_Tot_Q>  (141) 
0

>  <i_epik_Tot_abs_Q>  (141) 
0

>  <s_epik_Chemistry_Notes>  (141) 
This compound has an ester and may undergo hydrolysis at high or low pH.

>  <s_lp_Force_Field>  (141) 
OPLS3e

>  <r_lp_Energy>  (141) 
132.012

>  <b_lp_Chiralities_Consistent>  (141) 
1

>  <s_lp_Variant>  (141) 
38:0-2

>  <s_i_glide_gridfile>  (141) 
pfpi4k_grid

>  <i_i_glide_lignum>  (141) 
11

>  <i_i_glide_rotatable_bonds>  (141) 
5

>  <r_i_docking_score>  (141) 
-2.94204

>  <r_i_glide_ligand_efficiency>  (141) 
-0.0817232

>  <r_i_glide_ligand_efficiency_sa>  (141) 
-0.269844

>  <r_i_glide_ligand_efficiency_ln>  (141) 
-0.641873

>  <r_i_glide_gscore>  (141) 
-2.94204

>  <r_i_glide_lipo>  (141) 
-0.0417135

>  <r_i_glide_hbond>  (141) 
-0.181206

>  <r_i_glide_metal>  (141) 
-0

>  <r_i_glide_rewards>  (141) 
0

>  <r_i_glide_evdw>  (141) 
-30.4138

>  <r_i_glide_ecoul>  (141) 
-8.06582

>  <r_i_glide_erotb>  (141) 
0.0803029

>  <r_i_glide_esite>  (141) 
-0.0688585

>  <r_i_glide_emodel>  (141) 
-45.9422

>  <r_i_glide_energy>  (141) 
-38.4796

>  <r_i_glide_einternal>  (141) 
0.953109

>  <r_i_glide_intrahb_reward>  (141) 
-0

>  <i_i_glide_confnum>  (141) 
5

>  <i_i_glide_posenum>  (141) 
3

>  <r_i_glide_eff_state_penalty>  (141) 
0

>  <ligand_id>  (141) 
38

>  <original_smiles>  (141) 
CC1CC(C2OC3C(O)C4=CC(O)C5(C)C(=O)CC6C(C(O)CC5(C)C6(C)C)C4(C)C3C2O)OC1=O

>  <smiles>  (141) 
[H]OC1([H])C2=C([H])C([H])(O[H])C3(C([H])([H])[H])C(=O)C([H])([H])C4([H])C([H])(C([H])(O[H])C([H])([H])C3(C([H])([H])[H])C4(C([H])([H])[H])C([H])([H])[H])C2(C([H])([H])[H])C2([H])C1([H])OC([H])(C1([H])OC(=O)C([H])(C([H])([H])[H])C1([H])[H])C2([H])O[H]

$$$$
39:0:0
     RDKit          3D

 39 42  0  0  1  0  0  0  0  0999 V2000
    7.2587   -2.5892    0.3487 C   0  0  0  0  0  0  0  0  0  0  0  0
    6.8661   -3.5757    1.2108 N   0  0  0  0  0  0  0  0  0  0  0  0
    5.9175   -4.1519    0.4803 C   0  0  0  0  0  0  0  0  0  0  0  0
    5.6731   -3.4998   -0.6695 N   0  0  0  0  0  0  0  0  0  0  0  0
    4.5893   -3.6707   -1.6458 C   0  0  0  0  0  0  0  0  0  0  0  0
    3.2720   -2.8532   -1.3716 C   0  0  2  0  0  0  0  0  0  0  0  0
    2.1225   -3.1845   -2.3490 C   0  0  0  0  0  0  0  0  0  0  0  0
    2.2742   -2.5503   -3.7033 C   0  0  2  0  0  0  0  0  0  0  0  0
    3.5645   -2.6134   -4.3199 O   0  0  0  0  0  0  0  0  0  0  0  0
    3.1410   -1.3278   -3.8210 C   0  0  2  0  0  0  0  0  0  0  0  0
    3.9215   -0.8028   -2.6139 C   0  0  0  0  0  0  0  0  0  0  0  0
    3.4233   -1.3669   -1.3127 N   0  0  2  0  0  0  0  0  0  0  0  0
    4.1161   -0.7966   -0.1160 C   0  0  0  0  0  0  0  0  0  0  0  0
    3.2206   -0.4913    1.0778 C   0  0  0  0  0  0  0  0  0  0  0  0
    3.9914   -0.1437    2.3807 C   0  0  0  0  0  0  0  0  0  0  0  0
    3.8128   -1.5941    2.8400 C   0  0  0  0  0  0  0  0  0  0  0  0
    2.6467   -1.6901    1.8720 C   0  0  0  0  0  0  0  0  0  0  0  0
    6.6196   -2.5381   -0.8220 N   0  0  0  0  0  0  0  0  0  0  0  0
    7.9317   -1.8122    0.6494 H   0  0  0  0  0  0  0  0  0  0  0  0
    5.3429   -5.0019    0.8317 H   0  0  0  0  0  0  0  0  0  0  0  0
    5.0094   -3.5011   -2.6443 H   0  0  0  0  0  0  0  0  0  0  0  0
    4.2981   -4.7172   -1.5814 H   0  0  0  0  0  0  0  0  0  0  0  0
    2.8528   -3.2427   -0.4567 H   0  0  0  0  0  0  0  0  0  0  0  0
    1.9737   -4.2555   -2.4808 H   0  0  0  0  0  0  0  0  0  0  0  0
    1.1753   -2.8523   -1.9436 H   0  0  0  0  0  0  0  0  0  0  0  0
    1.4179   -2.6454   -4.3736 H   0  0  0  0  0  0  0  0  0  0  0  0
    2.9838   -0.6141   -4.6373 H   0  0  0  0  0  0  0  0  0  0  0  0
    4.9788   -1.0328   -2.7579 H   0  0  0  0  0  0  0  0  0  0  0  0
    3.8303    0.2850   -2.6423 H   0  0  0  0  0  0  0  0  0  0  0  0
    4.8053   -1.5046    0.2972 H   0  0  0  0  0  0  0  0  0  0  0  0
    4.7293    0.0672   -0.3860 H   0  0  0  0  0  0  0  0  0  0  0  0
    2.4712    0.2950    0.8703 H   0  0  0  0  0  0  0  0  0  0  0  0
    5.0477    0.1478    2.2673 H   0  0  0  0  0  0  0  0  0  0  0  0
    3.4556    0.5503    3.0293 H   0  0  0  0  0  0  0  0  0  0  0  0
    4.6470   -2.2320    2.5533 H   0  0  0  0  0  0  0  0  0  0  0  0
    3.5440   -1.7565    3.8826 H   0  0  0  0  0  0  0  0  0  0  0  0
    1.6868   -1.4330    2.3074 H   0  0  0  0  0  0  0  0  0  0  0  0
    2.6554   -2.6816    1.4274 H   0  0  0  0  0  0  0  0  0  0  0  0
    2.4578   -1.0342   -1.2442 H   0  0  0  0  0  0  0  0  0  0  0  0
  1 18  2  0
  1  2  1  0
  1 19  1  0
  2  3  2  0
  3  4  1  0
  3 20  1  0
  4  5  1  0
  4 18  1  0
  5  6  1  0
  5 21  1  0
  5 22  1  0
  6 12  1  0
  6  7  1  0
  6 23  1  1
  7  8  1  0
  7 24  1  0
  7 25  1  0
  8 10  1  0
  8  9  1  0
  8 26  1  6
  9 10  1  0
 10 11  1  0
 10 27  1  6
 11 12  1  0
 11 28  1  0
 11 29  1  0
 12 13  1  0
 12 39  1  1
 13 14  1  0
 13 30  1  0
 13 31  1  0
 14 17  1  0
 14 15  1  0
 14 32  1  0
 15 16  1  0
 15 33  1  0
 15 34  1  0
 16 17  1  0
 16 35  1  0
 16 36  1  0
 17 37  1  0
 17 38  1  0
M  CHG  1  12   1
M  END
>  <i_m_ct_stereo_status>  (142) 
1

>  <s_m_source_file>  (142) 
/var/tmp/pbs.5076255.sched01/tmp323fbwsu/45qgza_o8k.sdf

>  <i_m_source_file_index>  (142) 
12

>  <i_lp_mmshare_version>  (142) 
48012

>  <i_f3d_flags>  (142) 
0

>  <s_epik_input>  (142) 
bjFbY0hdbltjSF1uMVtDSDJdW0NASF0oW0NIMl0yKU4oW0NIMl1bQ0BASF0oTzMpW0NASF0yMylbQ0gyXVtDSF00W0NIMl1bQ0gyXVtDSDJdNA==

>  <s_epik_cmdline>  (142) 
J2VwaWtfcHl0aG9uJywgJy1waHQnLCAnMi4wJywgJy1waCcsICc3LjAnLCAnLXRuJywgJzgnLCAnLW1hJywgJzIwMCcsICctaW1hZScsICc8aW5maWxlLm1hZT4nLCAnLW9tYWUnLCAnPG91dGZpbGUubWFlPic=

>  <r_lp_tautomer_probability>  (142) 
1

>  <r_epik_Ionization_Penalty>  (142) 
0.0935777

>  <r_epik_Ionization_Penalty_Charging>  (142) 
0.0935771

>  <r_epik_Ionization_Penalty_Neutral>  (142) 
5.99713e-07

>  <r_epik_State_Penalty>  (142) 
0.0838295

>  <r_epik_Charging_Adjusted_Penalty>  (142) 
0.177407

>  <i_epik_Tot_Q>  (142) 
1

>  <i_epik_Tot_abs_Q>  (142) 
1

>  <s_lp_Force_Field>  (142) 
OPLS3e

>  <r_lp_Energy>  (142) 
32.6472

>  <b_lp_Chiralities_Consistent>  (142) 
1

>  <s_lp_Variant>  (142) 
39:0-1

>  <s_i_glide_gridfile>  (142) 
pfpi4k_grid

>  <i_i_glide_lignum>  (142) 
12

>  <i_i_glide_rotatable_bonds>  (142) 
4

>  <r_i_docking_score>  (142) 
-4.72527

>  <r_i_glide_ligand_efficiency>  (142) 
-0.262515

>  <r_i_glide_ligand_efficiency_sa>  (142) 
-0.687984

>  <r_i_glide_ligand_efficiency_ln>  (142) 
-1.21461

>  <r_i_glide_gscore>  (142) 
-4.72527

>  <r_i_glide_lipo>  (142) 
-0.645219

>  <r_i_glide_hbond>  (142) 
-0.533201

>  <r_i_glide_metal>  (142) 
-0

>  <r_i_glide_rewards>  (142) 
-2.1112

>  <r_i_glide_evdw>  (142) 
-20.4758

>  <r_i_glide_ecoul>  (142) 
-9.58005

>  <r_i_glide_erotb>  (142) 
1.12515

>  <r_i_glide_esite>  (142) 
-0.1

>  <r_i_glide_emodel>  (142) 
-35.9343

>  <r_i_glide_energy>  (142) 
-30.0558

>  <r_i_glide_einternal>  (142) 
2.36194

>  <r_i_glide_intrahb_reward>  (142) 
-0

>  <i_i_glide_confnum>  (142) 
2

>  <i_i_glide_posenum>  (142) 
9

>  <r_i_glide_eff_state_penalty>  (142) 
0

>  <ligand_id>  (142) 
39

>  <original_smiles>  (142) 
c1ncn(CC2CC3OC3CN2CC2CCC2)n1

>  <smiles>  (142) 
[H]c1nc([H])n(C([H])([H])C2([H])C([H])([H])C3([H])OC3([H])C([H])([H])[N+]2([H])C([H])([H])C2([H])C([H])([H])C([H])([H])C2([H])[H])n1

$$$$
39:0:1
     RDKit          3D

 39 42  0  0  1  0  0  0  0  0999 V2000
    3.0014   -6.6597    1.3033 C   0  0  0  0  0  0  0  0  0  0  0  0
    4.2792   -7.1351    1.2216 N   0  0  0  0  0  0  0  0  0  0  0  0
    4.8215   -6.1850    0.4732 C   0  0  0  0  0  0  0  0  0  0  0  0
    3.9851   -5.2207    0.1068 N   0  0  0  0  0  0  0  0  0  0  0  0
    4.2478   -4.0439   -0.7294 C   0  0  0  0  0  0  0  0  0  0  0  0
    3.0366   -3.0744   -0.9010 C   0  0  2  0  0  0  0  0  0  0  0  0
    2.0633   -3.4706   -2.0224 C   0  0  0  0  0  0  0  0  0  0  0  0
    2.5650   -3.0886   -3.3967 C   0  0  2  0  0  0  0  0  0  0  0  0
    3.9267   -3.3568   -3.7116 O   0  0  0  0  0  0  0  0  0  0  0  0
    3.5836   -1.9756   -3.4976 C   0  0  2  0  0  0  0  0  0  0  0  0
    4.2030   -1.3574   -2.2601 C   0  0  0  0  0  0  0  0  0  0  0  0
    3.4206   -1.6303   -1.0238 N   0  0  2  0  0  0  0  0  0  0  0  0
    4.0302   -1.0352    0.2025 C   0  0  0  0  0  0  0  0  0  0  0  0
    3.0007   -0.4433    1.1605 C   0  0  0  0  0  0  0  0  0  0  0  0
    3.5136    0.2131    2.4636 C   0  0  0  0  0  0  0  0  0  0  0  0
    3.1658   -1.0758    3.2004 C   0  0  0  0  0  0  0  0  0  0  0  0
    2.1737   -1.3666    2.0848 C   0  0  0  0  0  0  0  0  0  0  0  0
    2.7729   -5.5051    0.6589 N   0  0  0  0  0  0  0  0  0  0  0  0
    2.2271   -7.1780    1.8432 H   0  0  0  0  0  0  0  0  0  0  0  0
    5.8600   -6.2094    0.1735 H   0  0  0  0  0  0  0  0  0  0  0  0
    5.1137   -3.5526   -0.2870 H   0  0  0  0  0  0  0  0  0  0  0  0
    4.6227   -4.4210   -1.6831 H   0  0  0  0  0  0  0  0  0  0  0  0
    2.4037   -3.1477   -0.0447 H   0  0  0  0  0  0  0  0  0  0  0  0
    1.8162   -4.5219   -1.9444 H   0  0  0  0  0  0  0  0  0  0  0  0
    1.0988   -2.9807   -1.8921 H   0  0  0  0  0  0  0  0  0  0  0  0
    1.8597   -3.2079   -4.2171 H   0  0  0  0  0  0  0  0  0  0  0  0
    3.6758   -1.4080   -4.4082 H   0  0  0  0  0  0  0  0  0  0  0  0
    5.2248   -1.7200   -2.1623 H   0  0  0  0  0  0  0  0  0  0  0  0
    4.2585   -0.2790   -2.4124 H   0  0  0  0  0  0  0  0  0  0  0  0
    4.6547   -1.7431    0.7314 H   0  0  0  0  0  0  0  0  0  0  0  0
    4.7260   -0.2541   -0.0874 H   0  0  0  0  0  0  0  0  0  0  0  0
    2.3513    0.2836    0.6598 H   0  0  0  0  0  0  0  0  0  0  0  0
    4.5785    0.4624    2.4838 H   0  0  0  0  0  0  0  0  0  0  0  0
    2.9030    1.0524    2.8148 H   0  0  0  0  0  0  0  0  0  0  0  0
    3.9830   -1.7894    3.1799 H   0  0  0  0  0  0  0  0  0  0  0  0
    2.7112   -0.9912    4.1892 H   0  0  0  0  0  0  0  0  0  0  0  0
    1.1713   -0.9601    2.2656 H   0  0  0  0  0  0  0  0  0  0  0  0
    2.1607   -2.4391    1.9087 H   0  0  0  0  0  0  0  0  0  0  0  0
    2.5122   -1.1519   -1.1263 H   0  0  0  0  0  0  0  0  0  0  0  0
  1 18  2  0
  1  2  1  0
  1 19  1  0
  2  3  2  0
  3  4  1  0
  3 20  1  0
  4  5  1  0
  4 18  1  0
  5  6  1  0
  5 21  1  0
  5 22  1  0
  6 12  1  0
  6  7  1  0
  6 23  1  1
  7  8  1  0
  7 24  1  0
  7 25  1  0
  8 10  1  0
  8  9  1  0
  8 26  1  6
  9 10  1  0
 10 11  1  0
 10 27  1  6
 11 12  1  0
 11 28  1  0
 11 29  1  0
 12 13  1  0
 12 39  1  6
 13 14  1  0
 13 30  1  0
 13 31  1  0
 14 17  1  0
 14 15  1  0
 14 32  1  0
 15 16  1  0
 15 33  1  0
 15 34  1  0
 16 17  1  0
 16 35  1  0
 16 36  1  0
 17 37  1  0
 17 38  1  0
M  CHG  1  12   1
M  END
>  <i_m_ct_stereo_status>  (143) 
1

>  <s_m_source_file>  (143) 
/var/tmp/pbs.5076255.sched01/tmp323fbwsu/45qgza_o8k.sdf

>  <i_m_source_file_index>  (143) 
12

>  <i_lp_mmshare_version>  (143) 
48012

>  <i_f3d_flags>  (143) 
0

>  <s_epik_input>  (143) 
bjFbY0hdbltjSF1uMVtDSDJdW0NASF0oW0NIMl0yKU4oW0NIMl1bQ0BASF0oTzMpW0NASF0yMylbQ0gyXVtDSF00W0NIMl1bQ0gyXVtDSDJdNA==

>  <s_epik_cmdline>  (143) 
J2VwaWtfcHl0aG9uJywgJy1waHQnLCAnMi4wJywgJy1waCcsICc3LjAnLCAnLXRuJywgJzgnLCAnLW1hJywgJzIwMCcsICctaW1hZScsICc8aW5maWxlLm1hZT4nLCAnLW9tYWUnLCAnPG91dGZpbGUubWFlPic=

>  <r_lp_tautomer_probability>  (143) 
1

>  <r_epik_Ionization_Penalty>  (143) 
0.0935777

>  <r_epik_Ionization_Penalty_Charging>  (143) 
0.0935771

>  <r_epik_Ionization_Penalty_Neutral>  (143) 
5.99713e-07

>  <r_epik_State_Penalty>  (143) 
0.0838295

>  <r_epik_Charging_Adjusted_Penalty>  (143) 
0.177407

>  <i_epik_Tot_Q>  (143) 
1

>  <i_epik_Tot_abs_Q>  (143) 
1

>  <s_lp_Force_Field>  (143) 
OPLS3e

>  <r_lp_Energy>  (143) 
32.6472

>  <b_lp_Chiralities_Consistent>  (143) 
1

>  <s_lp_Variant>  (143) 
39:0-1

>  <s_i_glide_gridfile>  (143) 
pfpi4k_grid

>  <i_i_glide_lignum>  (143) 
12

>  <i_i_glide_rotatable_bonds>  (143) 
4

>  <r_i_docking_score>  (143) 
-3.66058

>  <r_i_glide_ligand_efficiency>  (143) 
-0.203365

>  <r_i_glide_ligand_efficiency_sa>  (143) 
-0.532968

>  <r_i_glide_ligand_efficiency_ln>  (143) 
-0.940932

>  <r_i_glide_gscore>  (143) 
-3.66058

>  <r_i_glide_lipo>  (143) 
-0.588333

>  <r_i_glide_hbond>  (143) 
-0.2

>  <r_i_glide_metal>  (143) 
-0

>  <r_i_glide_rewards>  (143) 
-1.95235

>  <r_i_glide_evdw>  (143) 
-21.0249

>  <r_i_glide_ecoul>  (143) 
-5.88529

>  <r_i_glide_erotb>  (143) 
1.12515

>  <r_i_glide_esite>  (143) 
-0.110998

>  <r_i_glide_emodel>  (143) 
-32.4389

>  <r_i_glide_energy>  (143) 
-26.9102

>  <r_i_glide_einternal>  (143) 
3.79159

>  <r_i_glide_intrahb_reward>  (143) 
-0

>  <i_i_glide_confnum>  (143) 
2

>  <i_i_glide_posenum>  (143) 
1

>  <r_i_glide_eff_state_penalty>  (143) 
0

>  <ligand_id>  (143) 
39

>  <original_smiles>  (143) 
c1ncn(CC2CC3OC3CN2CC2CCC2)n1

>  <smiles>  (143) 
[H]c1nc([H])n(C([H])([H])C2([H])C([H])([H])C3([H])OC3([H])C([H])([H])[N+]2([H])C([H])([H])C2([H])C([H])([H])C([H])([H])C2([H])[H])n1

$$$$
39:0:2
     RDKit          3D

 39 42  0  0  1  0  0  0  0  0999 V2000
   -0.1777   -7.3056    1.7025 C   0  0  0  0  0  0  0  0  0  0  0  0
   -0.0135   -7.2304    3.0539 N   0  0  0  0  0  0  0  0  0  0  0  0
    1.0472   -6.4378    3.1113 C   0  0  0  0  0  0  0  0  0  0  0  0
    1.4544   -6.0020    1.9185 N   0  0  0  0  0  0  0  0  0  0  0  0
    2.5070   -5.0497    1.5784 C   0  0  0  0  0  0  0  0  0  0  0  0
    3.4632   -5.5386    0.4549 C   0  0  2  0  0  0  0  0  0  0  0  0
    4.5402   -6.5320    0.9452 C   0  0  0  0  0  0  0  0  0  0  0  0
    5.6965   -5.8503    1.6571 C   0  0  2  0  0  0  0  0  0  0  0  0
    5.3751   -4.8635    2.6366 O   0  0  0  0  0  0  0  0  0  0  0  0
    5.9430   -4.3861    1.4049 C   0  0  2  0  0  0  0  0  0  0  0  0
    4.9987   -3.5724    0.5415 C   0  0  0  0  0  0  0  0  0  0  0  0
    4.1117   -4.4245   -0.3052 N   0  0  2  0  0  0  0  0  0  0  0  0
    3.1647   -3.6445   -1.1490 C   0  0  0  0  0  0  0  0  0  0  0  0
    3.7980   -3.2035   -2.4727 C   0  0  0  0  0  0  0  0  0  0  0  0
    4.5636   -1.8682   -2.5188 C   0  0  0  0  0  0  0  0  0  0  0  0
    3.3061   -1.2063   -3.0801 C   0  0  0  0  0  0  0  0  0  0  0  0
    2.8593   -2.5938   -3.5335 C   0  0  0  0  0  0  0  0  0  0  0  0
    0.6270   -6.5203    0.9757 N   0  0  0  0  0  0  0  0  0  0  0  0
   -0.9519   -7.9057    1.2539 H   0  0  0  0  0  0  0  0  0  0  0  0
    1.5022   -6.1248    4.0434 H   0  0  0  0  0  0  0  0  0  0  0  0
    2.0221   -4.1151    1.3084 H   0  0  0  0  0  0  0  0  0  0  0  0
    3.0498   -4.8291    2.4947 H   0  0  0  0  0  0  0  0  0  0  0  0
    2.8739   -6.0773   -0.2798 H   0  0  0  0  0  0  0  0  0  0  0  0
    4.1083   -7.2918    1.5989 H   0  0  0  0  0  0  0  0  0  0  0  0
    4.9575   -7.0596    0.0835 H   0  0  0  0  0  0  0  0  0  0  0  0
    6.5512   -6.4754    1.9126 H   0  0  0  0  0  0  0  0  0  0  0  0
    6.9335   -3.9634    1.5546 H   0  0  0  0  0  0  0  0  0  0  0  0
    4.4223   -2.8973    1.1769 H   0  0  0  0  0  0  0  0  0  0  0  0
    5.6233   -2.9638   -0.1096 H   0  0  0  0  0  0  0  0  0  0  0  0
    2.2819   -4.2425   -1.3720 H   0  0  0  0  0  0  0  0  0  0  0  0
    2.7930   -2.7822   -0.5976 H   0  0  0  0  0  0  0  0  0  0  0  0
    4.3822   -4.0046   -2.9396 H   0  0  0  0  0  0  0  0  0  0  0  0
    4.8622   -1.4660   -1.5514 H   0  0  0  0  0  0  0  0  0  0  0  0
    5.3965   -1.8860   -3.2240 H   0  0  0  0  0  0  0  0  0  0  0  0
    2.6577   -0.8048   -2.3039 H   0  0  0  0  0  0  0  0  0  0  0  0
    3.4815   -0.4838   -3.8759 H   0  0  0  0  0  0  0  0  0  0  0  0
    3.1644   -2.8135   -4.5578 H   0  0  0  0  0  0  0  0  0  0  0  0
    1.7973   -2.8046   -3.3809 H   0  0  0  0  0  0  0  0  0  0  0  0
    4.7131   -4.9012   -0.9646 H   0  0  0  0  0  0  0  0  0  0  0  0
  1 18  2  0
  1  2  1  0
  1 19  1  0
  2  3  2  0
  3  4  1  0
  3 20  1  0
  4  5  1  0
  4 18  1  0
  5  6  1  0
  5 21  1  0
  5 22  1  0
  6 12  1  0
  6  7  1  0
  6 23  1  6
  7  8  1  0
  7 24  1  0
  7 25  1  0
  8 10  1  0
  8  9  1  0
  8 26  1  1
  9 10  1  0
 10 11  1  0
 10 27  1  1
 11 12  1  0
 11 28  1  0
 11 29  1  0
 12 13  1  0
 12 39  1  6
 13 14  1  0
 13 30  1  0
 13 31  1  0
 14 17  1  0
 14 15  1  0
 14 32  1  0
 15 16  1  0
 15 33  1  0
 15 34  1  0
 16 17  1  0
 16 35  1  0
 16 36  1  0
 17 37  1  0
 17 38  1  0
M  CHG  1  12   1
M  END
>  <i_m_ct_stereo_status>  (144) 
1

>  <s_m_source_file>  (144) 
/var/tmp/pbs.5076255.sched01/tmp323fbwsu/45qgza_o8k.sdf

>  <i_m_source_file_index>  (144) 
12

>  <i_lp_mmshare_version>  (144) 
48012

>  <i_f3d_flags>  (144) 
0

>  <s_epik_input>  (144) 
bjFbY0hdbltjSF1uMVtDSDJdW0NASF0oW0NIMl0yKU4oW0NIMl1bQ0BASF0oTzMpW0NASF0yMylbQ0gyXVtDSF00W0NIMl1bQ0gyXVtDSDJdNA==

>  <s_epik_cmdline>  (144) 
J2VwaWtfcHl0aG9uJywgJy1waHQnLCAnMi4wJywgJy1waCcsICc3LjAnLCAnLXRuJywgJzgnLCAnLW1hJywgJzIwMCcsICctaW1hZScsICc8aW5maWxlLm1hZT4nLCAnLW9tYWUnLCAnPG91dGZpbGUubWFlPic=

>  <r_lp_tautomer_probability>  (144) 
1

>  <r_epik_Ionization_Penalty>  (144) 
0.0935777

>  <r_epik_Ionization_Penalty_Charging>  (144) 
0.0935771

>  <r_epik_Ionization_Penalty_Neutral>  (144) 
5.99713e-07

>  <r_epik_State_Penalty>  (144) 
0.0838295

>  <r_epik_Charging_Adjusted_Penalty>  (144) 
0.177407

>  <i_epik_Tot_Q>  (144) 
1

>  <i_epik_Tot_abs_Q>  (144) 
1

>  <s_lp_Force_Field>  (144) 
OPLS3e

>  <r_lp_Energy>  (144) 
32.6472

>  <b_lp_Chiralities_Consistent>  (144) 
1

>  <s_lp_Variant>  (144) 
39:0-1

>  <s_i_glide_gridfile>  (144) 
pfpi4k_grid

>  <i_i_glide_lignum>  (144) 
12

>  <i_i_glide_rotatable_bonds>  (144) 
4

>  <r_i_docking_score>  (144) 
-3.47748

>  <r_i_glide_ligand_efficiency>  (144) 
-0.193194

>  <r_i_glide_ligand_efficiency_sa>  (144) 
-0.50631

>  <r_i_glide_ligand_efficiency_ln>  (144) 
-0.893869

>  <r_i_glide_gscore>  (144) 
-3.47748

>  <r_i_glide_lipo>  (144) 
-0.543267

>  <r_i_glide_hbond>  (144) 
-0.16

>  <r_i_glide_metal>  (144) 
-0

>  <r_i_glide_rewards>  (144) 
-1.7091

>  <r_i_glide_evdw>  (144) 
-20.145

>  <r_i_glide_ecoul>  (144) 
-6.54596

>  <r_i_glide_erotb>  (144) 
1.12515

>  <r_i_glide_esite>  (144) 
-0.201123

>  <r_i_glide_emodel>  (144) 
-32.8173

>  <r_i_glide_energy>  (144) 
-26.6909

>  <r_i_glide_einternal>  (144) 
2.14076

>  <r_i_glide_intrahb_reward>  (144) 
-0

>  <i_i_glide_confnum>  (144) 
5

>  <i_i_glide_posenum>  (144) 
3

>  <r_i_glide_eff_state_penalty>  (144) 
0

>  <ligand_id>  (144) 
39

>  <original_smiles>  (144) 
c1ncn(CC2CC3OC3CN2CC2CCC2)n1

>  <smiles>  (144) 
[H]c1nc([H])n(C([H])([H])C2([H])C([H])([H])C3([H])OC3([H])C([H])([H])[N+]2([H])C([H])([H])C2([H])C([H])([H])C([H])([H])C2([H])[H])n1

$$$$
39:1:0
     RDKit          3D

 38 41  0  0  1  0  0  0  0  0999 V2000
    3.2791   -0.0663    2.6465 C   0  0  0  0  0  0  0  0  0  0  0  0
    4.1961   -0.3107    3.6470 N   0  0  0  0  0  0  0  0  0  0  0  0
    5.2270   -0.6811    2.9134 C   0  0  0  0  0  0  0  0  0  0  0  0
    4.9953   -0.6681    1.6049 N   0  0  0  0  0  0  0  0  0  0  0  0
    5.8781   -0.9080    0.4950 C   0  0  0  0  0  0  0  0  0  0  0  0
    5.7299   -2.3077   -0.1455 C   0  0  2  0  0  0  0  0  0  0  0  0
    6.2878   -3.4671    0.7230 C   0  0  0  0  0  0  0  0  0  0  0  0
    7.7981   -3.5388    0.6564 C   0  0  2  0  0  0  0  0  0  0  0  0
    8.5006   -2.3049    0.4478 O   0  0  0  0  0  0  0  0  0  0  0  0
    8.4350   -3.2290   -0.6562 C   0  0  2  0  0  0  0  0  0  0  0  0
    7.5213   -2.9251   -1.8240 C   0  0  0  0  0  0  0  0  0  0  0  0
    6.2491   -2.2552   -1.5277 N   0  0  0  0  0  0  0  0  0  0  0  0
    5.2328   -2.4807   -2.5421 C   0  0  0  0  0  0  0  0  0  0  0  0
    4.3208   -1.2639   -2.7386 C   0  0  0  0  0  0  0  0  0  0  0  0
    2.8043   -1.4504   -2.7540 C   0  0  0  0  0  0  0  0  0  0  0  0
    2.8727   -1.4182   -4.2773 C   0  0  0  0  0  0  0  0  0  0  0  0
    4.1967   -0.6796   -4.1475 C   0  0  0  0  0  0  0  0  0  0  0  0
    3.7190   -0.2745    1.4011 N   0  0  0  0  0  0  0  0  0  0  0  0
    2.2821    0.2658    2.8481 H   0  0  0  0  0  0  0  0  0  0  0  0
    6.2075   -0.9314    3.3120 H   0  0  0  0  0  0  0  0  0  0  0  0
    5.6602   -0.1537   -0.2524 H   0  0  0  0  0  0  0  0  0  0  0  0
    6.8950   -0.6925    0.8083 H   0  0  0  0  0  0  0  0  0  0  0  0
    4.6558   -2.4998   -0.1996 H   0  0  0  0  0  0  0  0  0  0  0  0
    5.9686   -3.4053    1.7629 H   0  0  0  0  0  0  0  0  0  0  0  0
    5.9004   -4.4212    0.3504 H   0  0  0  0  0  0  0  0  0  0  0  0
    8.3077   -4.2481    1.3087 H   0  0  0  0  0  0  0  0  0  0  0  0
    9.3879   -3.6926   -0.8922 H   0  0  0  0  0  0  0  0  0  0  0  0
    8.0860   -2.2569   -2.4701 H   0  0  0  0  0  0  0  0  0  0  0  0
    7.3448   -3.8438   -2.4030 H   0  0  0  0  0  0  0  0  0  0  0  0
    5.7097   -2.7290   -3.4928 H   0  0  0  0  0  0  0  0  0  0  0  0
    4.6726   -3.3867   -2.2903 H   0  0  0  0  0  0  0  0  0  0  0  0
    4.5557   -0.4300   -2.0786 H   0  0  0  0  0  0  0  0  0  0  0  0
    2.4471   -2.3870   -2.3211 H   0  0  0  0  0  0  0  0  0  0  0  0
    2.2975   -0.5835   -2.3230 H   0  0  0  0  0  0  0  0  0  0  0  0
    2.9982   -2.4167   -4.7036 H   0  0  0  0  0  0  0  0  0  0  0  0
    2.0698   -0.8399   -4.7304 H   0  0  0  0  0  0  0  0  0  0  0  0
    4.0807    0.4067   -4.1296 H   0  0  0  0  0  0  0  0  0  0  0  0
    4.9823   -1.0052   -4.8274 H   0  0  0  0  0  0  0  0  0  0  0  0
  1 18  2  0
  1  2  1  0
  1 19  1  0
  2  3  2  0
  3  4  1  0
  3 20  1  0
  4  5  1  0
  4 18  1  0
  5  6  1  0
  5 21  1  0
  5 22  1  0
  6 12  1  0
  6  7  1  0
  6 23  1  6
  7  8  1  0
  7 24  1  0
  7 25  1  0
  8 10  1  0
  8  9  1  0
  8 26  1  1
  9 10  1  0
 10 11  1  0
 10 27  1  6
 11 12  1  0
 11 28  1  0
 11 29  1  0
 12 13  1  0
 13 14  1  0
 13 30  1  0
 13 31  1  0
 14 17  1  0
 14 15  1  0
 14 32  1  0
 15 16  1  0
 15 33  1  0
 15 34  1  0
 16 17  1  0
 16 35  1  0
 16 36  1  0
 17 37  1  0
 17 38  1  0
M  END
>  <i_m_ct_stereo_status>  (145) 
1

>  <s_m_source_file>  (145) 
/var/tmp/pbs.5076255.sched01/tmp323fbwsu/45qgza_o8k.sdf

>  <i_m_source_file_index>  (145) 
13

>  <i_lp_mmshare_version>  (145) 
48012

>  <i_f3d_flags>  (145) 
0

>  <s_epik_input>  (145) 
bjFbY0hdbltjSF1uMVtDSDJdW0NASF0oW0NIMl0yKU4oW0NIMl1bQ0BASF0oTzMpW0NASF0yMylbQ0gyXVtDSF00W0NIMl1bQ0gyXVtDSDJdNA==

>  <s_epik_cmdline>  (145) 
J2VwaWtfcHl0aG9uJywgJy1waHQnLCAnMi4wJywgJy1waCcsICc3LjAnLCAnLXRuJywgJzgnLCAnLW1hJywgJzIwMCcsICctaW1hZScsICc8aW5maWxlLm1hZT4nLCAnLW9tYWUnLCAnPG91dGZpbGUubWFlPic=

>  <r_lp_tautomer_probability>  (145) 
1

>  <r_epik_Ionization_Penalty>  (145) 
1.13971

>  <r_epik_Ionization_Penalty_Charging>  (145) 
0

>  <r_epik_Ionization_Penalty_Neutral>  (145) 
1.13971

>  <r_epik_State_Penalty>  (145) 
1.20005

>  <r_epik_Charging_Adjusted_Penalty>  (145) 
1.20005

>  <i_epik_Tot_Q>  (145) 
0

>  <i_epik_Tot_abs_Q>  (145) 
0

>  <s_lp_Force_Field>  (145) 
OPLS3e

>  <r_lp_Energy>  (145) 
28.9786

>  <b_lp_Chiralities_Consistent>  (145) 
1

>  <s_lp_Variant>  (145) 
39:0-2

>  <s_i_glide_gridfile>  (145) 
pfpi4k_grid

>  <i_i_glide_lignum>  (145) 
13

>  <i_i_glide_rotatable_bonds>  (145) 
4

>  <r_i_docking_score>  (145) 
-3.22364

>  <r_i_glide_ligand_efficiency>  (145) 
-0.179091

>  <r_i_glide_ligand_efficiency_sa>  (145) 
-0.469352

>  <r_i_glide_ligand_efficiency_ln>  (145) 
-0.828621

>  <r_i_glide_gscore>  (145) 
-3.22364

>  <r_i_glide_lipo>  (145) 
-0.686335

>  <r_i_glide_hbond>  (145) 
-0.0791753

>  <r_i_glide_metal>  (145) 
-0

>  <r_i_glide_rewards>  (145) 
-2.09338

>  <r_i_glide_evdw>  (145) 
-23.3039

>  <r_i_glide_ecoul>  (145) 
-2.21694

>  <r_i_glide_erotb>  (145) 
1.13298

>  <r_i_glide_esite>  (145) 
0

>  <r_i_glide_emodel>  (145) 
-28.347

>  <r_i_glide_energy>  (145) 
-25.5208

>  <r_i_glide_einternal>  (145) 
2.42124

>  <r_i_glide_intrahb_reward>  (145) 
-0

>  <i_i_glide_confnum>  (145) 
1

>  <i_i_glide_posenum>  (145) 
9

>  <r_i_glide_eff_state_penalty>  (145) 
0

>  <ligand_id>  (145) 
39

>  <original_smiles>  (145) 
c1ncn(CC2CC3OC3CN2CC2CCC2)n1

>  <smiles>  (145) 
[H]c1nc([H])n(C([H])([H])C2([H])N(C([H])([H])C3([H])C([H])([H])C([H])([H])C3([H])[H])C([H])([H])C3([H])OC3([H])C2([H])[H])n1

$$$$
39:1:1
     RDKit          3D

 38 41  0  0  1  0  0  0  0  0999 V2000
    3.8288   -2.3567    3.6180 C   0  0  0  0  0  0  0  0  0  0  0  0
    4.7070   -1.4483    4.1521 N   0  0  0  0  0  0  0  0  0  0  0  0
    5.3663   -1.1171    3.0513 C   0  0  0  0  0  0  0  0  0  0  0  0
    4.9648   -1.7573    1.9554 N   0  0  0  0  0  0  0  0  0  0  0  0
    5.3992   -1.6287    0.5852 C   0  0  0  0  0  0  0  0  0  0  0  0
    5.5603   -2.9611   -0.1861 C   0  0  2  0  0  0  0  0  0  0  0  0
    6.3780   -4.0622    0.5408 C   0  0  0  0  0  0  0  0  0  0  0  0
    7.8521   -3.7851    0.4706 C   0  0  2  0  0  0  0  0  0  0  0  0
    8.2496   -2.4055    0.4059 O   0  0  0  0  0  0  0  0  0  0  0  0
    8.3708   -3.2040   -0.7880 C   0  0  2  0  0  0  0  0  0  0  0  0
    7.3821   -2.9969   -1.9202 C   0  0  0  0  0  0  0  0  0  0  0  0
    6.0078   -2.6300   -1.5539 N   0  0  0  0  0  0  0  0  0  0  0  0
    5.0236   -2.9610   -2.5759 C   0  0  0  0  0  0  0  0  0  0  0  0
    3.7501   -2.1136   -2.4854 C   0  0  0  0  0  0  0  0  0  0  0  0
    2.5255   -2.5058   -3.3088 C   0  0  0  0  0  0  0  0  0  0  0  0
    2.9465   -1.4481   -4.3240 C   0  0  0  0  0  0  0  0  0  0  0  0
    3.7489   -0.7734   -3.2296 C   0  0  0  0  0  0  0  0  0  0  0  0
    3.9296   -2.5592    2.3007 N   0  0  0  0  0  0  0  0  0  0  0  0
    3.0895   -2.8872    4.2204 H   0  0  0  0  0  0  0  0  0  0  0  0
    6.1518   -0.3813    3.0340 H   0  0  0  0  0  0  0  0  0  0  0  0
    4.6800   -0.9822    0.0881 H   0  0  0  0  0  0  0  0  0  0  0  0
    6.3227   -1.0556    0.5816 H   0  0  0  0  0  0  0  0  0  0  0  0
    4.5659   -3.3950   -0.2322 H   0  0  0  0  0  0  0  0  0  0  0  0
    6.0726   -4.1991    1.5793 H   0  0  0  0  0  0  0  0  0  0  0  0
    6.1876   -5.0186    0.0502 H   0  0  0  0  0  0  0  0  0  0  0  0
    8.5129   -4.4353    1.0353 H   0  0  0  0  0  0  0  0  0  0  0  0
    9.3840   -3.4462   -1.0650 H   0  0  0  0  0  0  0  0  0  0  0  0
    7.7936   -2.1863   -2.5241 H   0  0  0  0  0  0  0  0  0  0  0  0
    7.3983   -3.8522   -2.5787 H   0  0  0  0  0  0  0  0  0  0  0  0
    5.4661   -2.7989   -3.5563 H   0  0  0  0  0  0  0  0  0  0  0  0
    4.8042   -4.0302   -2.5420 H   0  0  0  0  0  0  0  0  0  0  0  0
    3.3776   -1.9633   -1.4736 H   0  0  0  0  0  0  0  0  0  0  0  0
    2.5247   -3.5378   -3.6548 H   0  0  0  0  0  0  0  0  0  0  0  0
    1.6025   -2.2685   -2.7718 H   0  0  0  0  0  0  0  0  0  0  0  0
    3.5854   -1.8642   -5.1070 H   0  0  0  0  0  0  0  0  0  0  0  0
    2.1353   -0.8371   -4.7238 H   0  0  0  0  0  0  0  0  0  0  0  0
    3.1852    0.0018   -2.7224 H   0  0  0  0  0  0  0  0  0  0  0  0
    4.7343   -0.4239   -3.5285 H   0  0  0  0  0  0  0  0  0  0  0  0
  1 18  2  0
  1  2  1  0
  1 19  1  0
  2  3  2  0
  3  4  1  0
  3 20  1  0
  4  5  1  0
  4 18  1  0
  5  6  1  0
  5 21  1  0
  5 22  1  0
  6 12  1  0
  6  7  1  0
  6 23  1  6
  7  8  1  0
  7 24  1  0
  7 25  1  0
  8 10  1  0
  8  9  1  0
  8 26  1  1
  9 10  1  0
 10 11  1  0
 10 27  1  6
 11 12  1  0
 11 28  1  0
 11 29  1  0
 12 13  1  0
 13 14  1  0
 13 30  1  0
 13 31  1  0
 14 17  1  0
 14 15  1  0
 14 32  1  0
 15 16  1  0
 15 33  1  0
 15 34  1  0
 16 17  1  0
 16 35  1  0
 16 36  1  0
 17 37  1  0
 17 38  1  0
M  END
>  <i_m_ct_stereo_status>  (146) 
1

>  <s_m_source_file>  (146) 
/var/tmp/pbs.5076255.sched01/tmp323fbwsu/45qgza_o8k.sdf

>  <i_m_source_file_index>  (146) 
13

>  <i_lp_mmshare_version>  (146) 
48012

>  <i_f3d_flags>  (146) 
0

>  <s_epik_input>  (146) 
bjFbY0hdbltjSF1uMVtDSDJdW0NASF0oW0NIMl0yKU4oW0NIMl1bQ0BASF0oTzMpW0NASF0yMylbQ0gyXVtDSF00W0NIMl1bQ0gyXVtDSDJdNA==

>  <s_epik_cmdline>  (146) 
J2VwaWtfcHl0aG9uJywgJy1waHQnLCAnMi4wJywgJy1waCcsICc3LjAnLCAnLXRuJywgJzgnLCAnLW1hJywgJzIwMCcsICctaW1hZScsICc8aW5maWxlLm1hZT4nLCAnLW9tYWUnLCAnPG91dGZpbGUubWFlPic=

>  <r_lp_tautomer_probability>  (146) 
1

>  <r_epik_Ionization_Penalty>  (146) 
1.13971

>  <r_epik_Ionization_Penalty_Charging>  (146) 
0

>  <r_epik_Ionization_Penalty_Neutral>  (146) 
1.13971

>  <r_epik_State_Penalty>  (146) 
1.20005

>  <r_epik_Charging_Adjusted_Penalty>  (146) 
1.20005

>  <i_epik_Tot_Q>  (146) 
0

>  <i_epik_Tot_abs_Q>  (146) 
0

>  <s_lp_Force_Field>  (146) 
OPLS3e

>  <r_lp_Energy>  (146) 
28.9786

>  <b_lp_Chiralities_Consistent>  (146) 
1

>  <s_lp_Variant>  (146) 
39:0-2

>  <s_i_glide_gridfile>  (146) 
pfpi4k_grid

>  <i_i_glide_lignum>  (146) 
13

>  <i_i_glide_rotatable_bonds>  (146) 
4

>  <r_i_docking_score>  (146) 
-2.86544

>  <r_i_glide_ligand_efficiency>  (146) 
-0.159191

>  <r_i_glide_ligand_efficiency_sa>  (146) 
-0.417199

>  <r_i_glide_ligand_efficiency_ln>  (146) 
-0.736547

>  <r_i_glide_gscore>  (146) 
-2.86544

>  <r_i_glide_lipo>  (146) 
-0.858398

>  <r_i_glide_hbond>  (146) 
0

>  <r_i_glide_metal>  (146) 
-0

>  <r_i_glide_rewards>  (146) 
-1.93941

>  <r_i_glide_evdw>  (146) 
-20.7775

>  <r_i_glide_ecoul>  (146) 
-1.07826

>  <r_i_glide_erotb>  (146) 
1.13298

>  <r_i_glide_esite>  (146) 
0

>  <r_i_glide_emodel>  (146) 
-25.397

>  <r_i_glide_energy>  (146) 
-21.8558

>  <r_i_glide_einternal>  (146) 
0.424648

>  <r_i_glide_intrahb_reward>  (146) 
-0

>  <i_i_glide_confnum>  (146) 
1

>  <i_i_glide_posenum>  (146) 
13

>  <r_i_glide_eff_state_penalty>  (146) 
0

>  <ligand_id>  (146) 
39

>  <original_smiles>  (146) 
c1ncn(CC2CC3OC3CN2CC2CCC2)n1

>  <smiles>  (146) 
[H]c1nc([H])n(C([H])([H])C2([H])N(C([H])([H])C3([H])C([H])([H])C([H])([H])C3([H])[H])C([H])([H])C3([H])OC3([H])C2([H])[H])n1

$$$$
39:1:2
     RDKit          3D

 38 41  0  0  1  0  0  0  0  0999 V2000
    0.7833   -7.0208    1.7240 C   0  0  0  0  0  0  0  0  0  0  0  0
    1.1188   -6.7190    3.0108 N   0  0  0  0  0  0  0  0  0  0  0  0
    1.9998   -5.7499    2.7983 C   0  0  0  0  0  0  0  0  0  0  0  0
    2.1465   -5.4417    1.5147 N   0  0  0  0  0  0  0  0  0  0  0  0
    2.9305   -4.3922    0.8935 C   0  0  0  0  0  0  0  0  0  0  0  0
    4.1624   -4.8981    0.1026 C   0  0  2  0  0  0  0  0  0  0  0  0
    5.0263   -5.9603    0.8254 C   0  0  0  0  0  0  0  0  0  0  0  0
    5.8933   -5.3396    1.8901 C   0  0  2  0  0  0  0  0  0  0  0  0
    5.3886   -4.1577    2.5265 O   0  0  0  0  0  0  0  0  0  0  0  0
    6.4697   -4.0057    1.5910 C   0  0  2  0  0  0  0  0  0  0  0  0
    6.2026   -3.4093    0.2202 C   0  0  0  0  0  0  0  0  0  0  0  0
    4.9157   -3.7365   -0.4062 N   0  0  0  0  0  0  0  0  0  0  0  0
    4.9082   -3.5916   -1.8525 C   0  0  0  0  0  0  0  0  0  0  0  0
    3.5518   -3.1322   -2.3984 C   0  0  0  0  0  0  0  0  0  0  0  0
    3.2410   -3.3022   -3.8866 C   0  0  0  0  0  0  0  0  0  0  0  0
    3.6299   -1.8353   -4.0808 C   0  0  0  0  0  0  0  0  0  0  0  0
    3.3561   -1.6225   -2.5922 C   0  0  0  0  0  0  0  0  0  0  0  0
    1.3355   -6.2491    0.7852 N   0  0  0  0  0  0  0  0  0  0  0  0
    0.0717   -7.7915    1.4703 H   0  0  0  0  0  0  0  0  0  0  0  0
    2.5206   -5.2168    3.5816 H   0  0  0  0  0  0  0  0  0  0  0  0
    2.2679   -3.8330    0.2395 H   0  0  0  0  0  0  0  0  0  0  0  0
    3.2252   -3.6737    1.6588 H   0  0  0  0  0  0  0  0  0  0  0  0
    3.7445   -5.4518   -0.7275 H   0  0  0  0  0  0  0  0  0  0  0  0
    4.4407   -6.7758    1.2481 H   0  0  0  0  0  0  0  0  0  0  0  0
    5.6921   -6.4218    0.0949 H   0  0  0  0  0  0  0  0  0  0  0  0
    6.4719   -6.0072    2.5299 H   0  0  0  0  0  0  0  0  0  0  0  0
    7.4292   -3.7797    2.0225 H   0  0  0  0  0  0  0  0  0  0  0  0
    6.2452   -2.3245    0.3261 H   0  0  0  0  0  0  0  0  0  0  0  0
    7.0303   -3.6891   -0.4353 H   0  0  0  0  0  0  0  0  0  0  0  0
    5.6557   -2.8564   -2.1549 H   0  0  0  0  0  0  0  0  0  0  0  0
    5.2287   -4.5276   -2.3218 H   0  0  0  0  0  0  0  0  0  0  0  0
    2.7077   -3.5595   -1.8618 H   0  0  0  0  0  0  0  0  0  0  0  0
    3.8778   -4.0423   -4.3686 H   0  0  0  0  0  0  0  0  0  0  0  0
    2.1804   -3.5020   -4.0530 H   0  0  0  0  0  0  0  0  0  0  0  0
    4.6857   -1.7195   -4.3227 H   0  0  0  0  0  0  0  0  0  0  0  0
    2.9771   -1.2699   -4.7447 H   0  0  0  0  0  0  0  0  0  0  0  0
    2.3355   -1.3110   -2.3813 H   0  0  0  0  0  0  0  0  0  0  0  0
    4.0811   -0.9965   -2.0648 H   0  0  0  0  0  0  0  0  0  0  0  0
  1 18  2  0
  1  2  1  0
  1 19  1  0
  2  3  2  0
  3  4  1  0
  3 20  1  0
  4  5  1  0
  4 18  1  0
  5  6  1  0
  5 21  1  0
  5 22  1  0
  6 12  1  0
  6  7  1  0
  6 23  1  6
  7  8  1  0
  7 24  1  0
  7 25  1  0
  8 10  1  0
  8  9  1  0
  8 26  1  1
  9 10  1  0
 10 11  1  0
 10 27  1  1
 11 12  1  0
 11 28  1  0
 11 29  1  0
 12 13  1  0
 13 14  1  0
 13 30  1  0
 13 31  1  0
 14 17  1  0
 14 15  1  0
 14 32  1  0
 15 16  1  0
 15 33  1  0
 15 34  1  0
 16 17  1  0
 16 35  1  0
 16 36  1  0
 17 37  1  0
 17 38  1  0
M  END
>  <i_m_ct_stereo_status>  (147) 
1

>  <s_m_source_file>  (147) 
/var/tmp/pbs.5076255.sched01/tmp323fbwsu/45qgza_o8k.sdf

>  <i_m_source_file_index>  (147) 
13

>  <i_lp_mmshare_version>  (147) 
48012

>  <i_f3d_flags>  (147) 
0

>  <s_epik_input>  (147) 
bjFbY0hdbltjSF1uMVtDSDJdW0NASF0oW0NIMl0yKU4oW0NIMl1bQ0BASF0oTzMpW0NASF0yMylbQ0gyXVtDSF00W0NIMl1bQ0gyXVtDSDJdNA==

>  <s_epik_cmdline>  (147) 
J2VwaWtfcHl0aG9uJywgJy1waHQnLCAnMi4wJywgJy1waCcsICc3LjAnLCAnLXRuJywgJzgnLCAnLW1hJywgJzIwMCcsICctaW1hZScsICc8aW5maWxlLm1hZT4nLCAnLW9tYWUnLCAnPG91dGZpbGUubWFlPic=

>  <r_lp_tautomer_probability>  (147) 
1

>  <r_epik_Ionization_Penalty>  (147) 
1.13971

>  <r_epik_Ionization_Penalty_Charging>  (147) 
0

>  <r_epik_Ionization_Penalty_Neutral>  (147) 
1.13971

>  <r_epik_State_Penalty>  (147) 
1.20005

>  <r_epik_Charging_Adjusted_Penalty>  (147) 
1.20005

>  <i_epik_Tot_Q>  (147) 
0

>  <i_epik_Tot_abs_Q>  (147) 
0

>  <s_lp_Force_Field>  (147) 
OPLS3e

>  <r_lp_Energy>  (147) 
28.9786

>  <b_lp_Chiralities_Consistent>  (147) 
1

>  <s_lp_Variant>  (147) 
39:0-2

>  <s_i_glide_gridfile>  (147) 
pfpi4k_grid

>  <i_i_glide_lignum>  (147) 
13

>  <i_i_glide_rotatable_bonds>  (147) 
4

>  <r_i_docking_score>  (147) 
-2.62999

>  <r_i_glide_ligand_efficiency>  (147) 
-0.146111

>  <r_i_glide_ligand_efficiency_sa>  (147) 
-0.382919

>  <r_i_glide_ligand_efficiency_ln>  (147) 
-0.676026

>  <r_i_glide_gscore>  (147) 
-2.62999

>  <r_i_glide_lipo>  (147) 
-0.437649

>  <r_i_glide_hbond>  (147) 
-0.119644

>  <r_i_glide_metal>  (147) 
-0

>  <r_i_glide_rewards>  (147) 
-1.71597

>  <r_i_glide_evdw>  (147) 
-19.8159

>  <r_i_glide_ecoul>  (147) 
-2.54004

>  <r_i_glide_erotb>  (147) 
1.13298

>  <r_i_glide_esite>  (147) 
-0.117914

>  <r_i_glide_emodel>  (147) 
-25.6195

>  <r_i_glide_energy>  (147) 
-22.3559

>  <r_i_glide_einternal>  (147) 
0.314724

>  <r_i_glide_intrahb_reward>  (147) 
-0

>  <i_i_glide_confnum>  (147) 
1

>  <i_i_glide_posenum>  (147) 
2

>  <r_i_glide_eff_state_penalty>  (147) 
0

>  <ligand_id>  (147) 
39

>  <original_smiles>  (147) 
c1ncn(CC2CC3OC3CN2CC2CCC2)n1

>  <smiles>  (147) 
[H]c1nc([H])n(C([H])([H])C2([H])N(C([H])([H])C3([H])C([H])([H])C([H])([H])C3([H])[H])C([H])([H])C3([H])OC3([H])C2([H])[H])n1

$$$$
40:0:0
     RDKit          3D

 61 65  0  0  1  0  0  0  0  0999 V2000
    4.2939   -4.4346    6.4548 C   0  0  0  0  0  0  0  0  0  0  0  0
    3.9638   -5.2271    5.1708 C   0  0  2  0  0  0  0  0  0  0  0  0
    5.0223   -6.2899    4.8385 C   0  0  0  0  0  0  0  0  0  0  0  0
    6.0079   -6.4918    5.5477 O   0  0  0  0  0  0  0  0  0  0  0  0
    4.7638   -7.1098    3.5773 C   0  0  0  0  0  0  0  0  0  0  0  0
    4.4443   -6.2072    2.3679 C   0  0  0  0  0  0  0  0  0  0  0  0
    3.3289   -5.1508    2.6204 C   0  0  2  0  0  0  0  0  0  0  0  0
    2.0001   -5.9227    2.9063 C   0  0  0  0  0  0  0  0  0  0  0  0
    3.1621   -4.2545    1.3347 C   0  0  0  0  0  0  0  0  0  0  0  0
    2.3345   -4.6838    0.3310 C   0  0  0  0  0  0  0  0  0  0  0  0
    1.8496   -4.0547   -0.9900 C   0  0  0  0  0  0  0  0  0  0  0  0
    2.9448   -3.4542   -1.8607 C   0  0  1  0  0  0  0  0  0  0  0  0
    2.5734   -2.9212   -3.2483 C   0  0  0  0  0  0  0  0  0  0  0  0
    3.7317   -1.9571   -3.5529 C   0  0  0  0  0  0  0  0  0  0  0  0
    3.9915   -1.2899   -2.1985 C   0  0  2  0  0  0  0  0  0  0  0  0
    5.4098   -0.9741   -1.7553 C   0  0  0  0  0  0  0  0  0  0  0  0
    5.4201   -1.2793   -0.2434 C   0  0  0  0  0  0  0  0  0  0  0  0
    4.5853   -2.5753   -0.1033 C   0  0  2  0  0  0  0  0  0  0  0  0
    5.5397   -3.7320   -0.5545 C   0  0  0  0  0  0  0  0  0  0  0  0
    3.4953   -2.2566   -1.1421 C   0  0  2  0  0  0  0  0  0  0  0  0
    3.9449   -2.8947    1.3174 C   0  0  1  0  0  0  0  0  0  0  0  0
    2.9546   -1.7952    1.8097 C   0  0  0  0  0  0  0  0  0  0  0  0
    5.1315   -2.9191    2.3150 C   0  0  0  0  0  0  0  0  0  0  0  0
    4.7912   -3.2818    3.7560 C   0  0  0  0  0  0  0  0  0  0  0  0
    3.6689   -4.3302    3.9261 C   0  0  2  0  0  0  0  0  0  0  0  0
    4.2891   -5.0914    7.3269 H   0  0  0  0  0  0  0  0  0  0  0  0
    3.5543   -3.6542    6.6350 H   0  0  0  0  0  0  0  0  0  0  0  0
    5.2775   -3.9599    6.4241 H   0  0  0  0  0  0  0  0  0  0  0  0
    3.0686   -5.7862    5.4235 H   0  0  0  0  0  0  0  0  0  0  0  0
    5.6310   -7.7377    3.3690 H   0  0  0  0  0  0  0  0  0  0  0  0
    3.9336   -7.7848    3.7818 H   0  0  0  0  0  0  0  0  0  0  0  0
    5.3699   -5.7269    2.0528 H   0  0  0  0  0  0  0  0  0  0  0  0
    4.1573   -6.8456    1.5311 H   0  0  0  0  0  0  0  0  0  0  0  0
    1.9815   -6.4313    3.8646 H   0  0  0  0  0  0  0  0  0  0  0  0
    1.8151   -6.7220    2.1886 H   0  0  0  0  0  0  0  0  0  0  0  0
    1.1443   -5.2466    2.8998 H   0  0  0  0  0  0  0  0  0  0  0  0
    1.8682   -5.6439    0.4407 H   0  0  0  0  0  0  0  0  0  0  0  0
    1.3399   -4.8402   -1.5461 H   0  0  0  0  0  0  0  0  0  0  0  0
    1.1005   -3.2920   -0.8052 H   0  0  0  0  0  0  0  0  0  0  0  0
    3.6936   -4.2201   -2.0422 H   0  0  0  0  0  0  0  0  0  0  0  0
    2.4811   -3.7156   -3.9898 H   0  0  0  0  0  0  0  0  0  0  0  0
    1.6289   -2.3812   -3.2163 H   0  0  0  0  0  0  0  0  0  0  0  0
    4.6072   -2.5109   -3.8872 H   0  0  0  0  0  0  0  0  0  0  0  0
    3.4754   -1.2309   -4.3262 H   0  0  0  0  0  0  0  0  0  0  0  0
    3.3930   -0.3814   -2.1570 H   0  0  0  0  0  0  0  0  0  0  0  0
    6.1371   -1.5920   -2.2805 H   0  0  0  0  0  0  0  0  0  0  0  0
    5.6334    0.0676   -1.9593 H   0  0  0  0  0  0  0  0  0  0  0  0
    6.4388   -1.3879    0.1336 H   0  0  0  0  0  0  0  0  0  0  0  0
    4.9687   -0.4495    0.3010 H   0  0  0  0  0  0  0  0  0  0  0  0
    5.1156   -4.7225   -0.3851 H   0  0  0  0  0  0  0  0  0  0  0  0
    6.5006   -3.7061   -0.0419 H   0  0  0  0  0  0  0  0  0  0  0  0
    5.7787   -3.6797   -1.6193 H   0  0  0  0  0  0  0  0  0  0  0  0
    2.6799   -1.7150   -0.6827 H   0  0  0  0  0  0  0  0  0  0  0  0
    3.3672   -0.7903    1.7290 H   0  0  0  0  0  0  0  0  0  0  0  0
    2.6761   -1.9281    2.8532 H   0  0  0  0  0  0  0  0  0  0  0  0
    2.0047   -1.8076    1.2728 H   0  0  0  0  0  0  0  0  0  0  0  0
    5.8895   -3.6268    1.9915 H   0  0  0  0  0  0  0  0  0  0  0  0
    5.6284   -1.9486    2.3304 H   0  0  0  0  0  0  0  0  0  0  0  0
    5.7170   -3.6199    4.2253 H   0  0  0  0  0  0  0  0  0  0  0  0
    4.5070   -2.3820    4.3001 H   0  0  0  0  0  0  0  0  0  0  0  0
    2.7628   -3.7695    4.1684 H   0  0  0  0  0  0  0  0  0  0  0  0
  1  2  1  0
  1 26  1  0
  1 27  1  0
  1 28  1  0
  2 25  1  0
  2  3  1  0
  2 29  1  1
  3  4  2  0
  3  5  1  0
  5  6  1  0
  5 30  1  0
  5 31  1  0
  6  7  1  0
  6 32  1  0
  6 33  1  0
  7 25  1  0
  7  8  1  1
  7  9  1  0
  8 34  1  0
  8 35  1  0
  8 36  1  0
  9 21  1  0
  9 10  2  0
 10 11  1  0
 10 37  1  0
 11 12  1  0
 11 38  1  0
 11 39  1  0
 12 20  1  0
 12 13  1  0
 12 40  1  6
 13 14  1  0
 13 41  1  0
 13 42  1  0
 14 15  1  0
 14 43  1  0
 14 44  1  0
 15 20  1  0
 15 16  1  0
 15 45  1  6
 16 17  1  0
 16 46  1  0
 16 47  1  0
 17 18  1  0
 17 48  1  0
 17 49  1  0
 18 19  1  6
 18 20  1  0
 18 21  1  0
 19 50  1  0
 19 51  1  0
 19 52  1  0
 20 53  1  1
 21 22  1  1
 21 23  1  0
 22 54  1  0
 22 55  1  0
 22 56  1  0
 23 24  1  0
 23 57  1  0
 23 58  1  0
 24 25  1  0
 24 59  1  0
 24 60  1  0
 25 61  1  1
M  END
>  <i_m_ct_stereo_status>  (148) 
1

>  <s_m_source_file>  (148) 
/var/tmp/pbs.5076255.sched01/tmp323fbwsu/45qgza_o8k.sdf

>  <i_m_source_file_index>  (148) 
14

>  <i_lp_mmshare_version>  (148) 
48012

>  <i_f3d_flags>  (148) 
0

>  <s_epik_input>  (148) 
W0NIMl0xW0NIMl1DKD1PKVtDQEBIXShbQ0gzXSlbQ0BIXTJbQ0gyXVtDSDJdW0NAXShbQ0gzXSkoQz0zW0NAQF0xMltDSDNdKVtDQEBdNChbQ0gzXSlbQ0BASF01W0NAQEhdKFtDSDJdW0NIXTMpW0NIMl1bQ0gyXVtDQEBIXTVbQ0gyXVtDSDJdNA==

>  <s_epik_cmdline>  (148) 
J2VwaWtfcHl0aG9uJywgJy1waHQnLCAnMi4wJywgJy1waCcsICc3LjAnLCAnLXRuJywgJzgnLCAnLW1hJywgJzIwMCcsICctaW1hZScsICc8aW5maWxlLm1hZT4nLCAnLW9tYWUnLCAnPG91dGZpbGUubWFlPic=

>  <r_lp_tautomer_probability>  (148) 
1

>  <r_epik_Ionization_Penalty>  (148) 
9.05121e-14

>  <r_epik_Ionization_Penalty_Charging>  (148) 
0

>  <r_epik_Ionization_Penalty_Neutral>  (148) 
9.05121e-14

>  <r_epik_State_Penalty>  (148) 
-0

>  <r_epik_Charging_Adjusted_Penalty>  (148) 
0

>  <i_epik_Tot_Q>  (148) 
0

>  <i_epik_Tot_abs_Q>  (148) 
0

>  <s_lp_Force_Field>  (148) 
OPLS3e

>  <r_lp_Energy>  (148) 
58.3462

>  <b_lp_Chiralities_Consistent>  (148) 
1

>  <s_lp_Variant>  (148) 
40:0-1

>  <s_i_glide_gridfile>  (148) 
pfpi4k_grid

>  <i_i_glide_lignum>  (148) 
14

>  <i_i_glide_rotatable_bonds>  (148) 
0

>  <r_i_docking_score>  (148) 
-2.46686

>  <r_i_glide_ligand_efficiency>  (148) 
-0.0986744

>  <r_i_glide_ligand_efficiency_sa>  (148) 
-0.288526

>  <r_i_glide_ligand_efficiency_ln>  (148) 
-0.58472

>  <r_i_glide_gscore>  (148) 
-2.46686

>  <r_i_glide_lipo>  (148) 
-0.581875

>  <r_i_glide_hbond>  (148) 
0

>  <r_i_glide_metal>  (148) 
-0

>  <r_i_glide_rewards>  (148) 
-1.08721

>  <r_i_glide_evdw>  (148) 
-17.2079

>  <r_i_glide_ecoul>  (148) 
0.417492

>  <r_i_glide_erotb>  (148) 
0

>  <r_i_glide_esite>  (148) 
0

>  <r_i_glide_emodel>  (148) 
-18.7485

>  <r_i_glide_energy>  (148) 
-16.7904

>  <r_i_glide_einternal>  (148) 
0

>  <r_i_glide_intrahb_reward>  (148) 
-0

>  <i_i_glide_confnum>  (148) 
1

>  <i_i_glide_posenum>  (148) 
4

>  <r_i_glide_eff_state_penalty>  (148) 
0

>  <ligand_id>  (148) 
40

>  <original_smiles>  (148) 
CC1C(=O)CCC2(C)C3=CCC4CCC5CCC(C)(C45)C3(C)CCC12

>  <smiles>  (148) 
[H]C1=C2C3(C([H])([H])[H])C([H])([H])C([H])([H])C(=O)C([H])(C([H])([H])[H])C3([H])C([H])([H])C([H])([H])C2(C([H])([H])[H])C2(C([H])([H])[H])C([H])([H])C([H])([H])C3([H])C([H])([H])C([H])([H])C([H])(C1([H])[H])C32[H]

$$$$
40:0:1
     RDKit          3D

 61 65  0  0  1  0  0  0  0  0999 V2000
    7.0422   -6.3550    4.2412 C   0  0  0  0  0  0  0  0  0  0  0  0
    5.9138   -5.3243    4.0258 C   0  0  2  0  0  0  0  0  0  0  0  0
    4.5099   -5.9191    4.3149 C   0  0  0  0  0  0  0  0  0  0  0  0
    4.3316   -7.0615    4.6722 O   0  0  0  0  0  0  0  0  0  0  0  0
    3.3492   -4.9354    4.1309 C   0  0  0  0  0  0  0  0  0  0  0  0
    3.4089   -4.1918    2.7786 C   0  0  0  0  0  0  0  0  0  0  0  0
    4.7903   -3.5259    2.4848 C   0  0  2  0  0  0  0  0  0  0  0  0
    5.0148   -2.4235    3.5756 C   0  0  0  0  0  0  0  0  0  0  0  0
    4.7900   -2.8700    1.0789 C   0  0  0  0  0  0  0  0  0  0  0  0
    4.3065   -1.5954    0.9349 C   0  0  0  0  0  0  0  0  0  0  0  0
    4.2240   -0.6321   -0.2426 C   0  0  0  0  0  0  0  0  0  0  0  0
    3.6519   -1.1577   -1.5512 C   0  0  1  0  0  0  0  0  0  0  0  0
    3.4202   -0.2638   -2.7961 C   0  0  0  0  0  0  0  0  0  0  0  0
    3.3822   -1.2563   -3.9591 C   0  0  0  0  0  0  0  0  0  0  0  0
    4.4714   -2.2257   -3.5698 C   0  0  2  0  0  0  0  0  0  0  0  0
    4.3375   -3.6946   -3.9018 C   0  0  0  0  0  0  0  0  0  0  0  0
    5.0235   -4.2760   -2.6592 C   0  0  0  0  0  0  0  0  0  0  0  0
    4.5004   -3.5180   -1.4189 C   0  0  2  0  0  0  0  0  0  0  0  0
    2.9952   -3.8935   -1.1041 C   0  0  0  0  0  0  0  0  0  0  0  0
    4.6273   -2.1460   -2.0594 C   0  0  2  0  0  0  0  0  0  0  0  0
    5.3708   -3.6981   -0.1129 C   0  0  1  0  0  0  0  0  0  0  0  0
    6.8603   -3.2614   -0.3097 C   0  0  0  0  0  0  0  0  0  0  0  0
    5.3663   -5.2232    0.2192 C   0  0  0  0  0  0  0  0  0  0  0  0
    6.0481   -5.6429    1.5027 C   0  0  0  0  0  0  0  0  0  0  0  0
    5.9353   -4.6010    2.6309 C   0  0  2  0  0  0  0  0  0  0  0  0
    7.0913   -6.6860    5.2810 H   0  0  0  0  0  0  0  0  0  0  0  0
    8.0133   -5.9172    4.0020 H   0  0  0  0  0  0  0  0  0  0  0  0
    6.9186   -7.2488    3.6296 H   0  0  0  0  0  0  0  0  0  0  0  0
    6.0692   -4.5953    4.8181 H   0  0  0  0  0  0  0  0  0  0  0  0
    2.4033   -5.4827    4.2130 H   0  0  0  0  0  0  0  0  0  0  0  0
    3.3761   -4.2264    4.9572 H   0  0  0  0  0  0  0  0  0  0  0  0
    3.1614   -4.8913    1.9850 H   0  0  0  0  0  0  0  0  0  0  0  0
    2.6318   -3.4263    2.7544 H   0  0  0  0  0  0  0  0  0  0  0  0
    5.2339   -2.8009    4.5701 H   0  0  0  0  0  0  0  0  0  0  0  0
    4.1507   -1.7801    3.7244 H   0  0  0  0  0  0  0  0  0  0  0  0
    5.8517   -1.7748    3.3038 H   0  0  0  0  0  0  0  0  0  0  0  0
    3.9282   -1.0927    1.8094 H   0  0  0  0  0  0  0  0  0  0  0  0
    3.5736    0.1468    0.1191 H   0  0  0  0  0  0  0  0  0  0  0  0
    5.2042   -0.1831   -0.3910 H   0  0  0  0  0  0  0  0  0  0  0  0
    2.6683   -1.5546   -1.3388 H   0  0  0  0  0  0  0  0  0  0  0  0
    2.4179    0.1381   -2.7786 H   0  0  0  0  0  0  0  0  0  0  0  0
    4.2077    0.4845   -2.9007 H   0  0  0  0  0  0  0  0  0  0  0  0
    2.4124   -1.7506   -3.9966 H   0  0  0  0  0  0  0  0  0  0  0  0
    3.5515   -0.7592   -4.9131 H   0  0  0  0  0  0  0  0  0  0  0  0
    5.4129   -1.8536   -3.9457 H   0  0  0  0  0  0  0  0  0  0  0  0
    3.2918   -4.0015   -4.0011 H   0  0  0  0  0  0  0  0  0  0  0  0
    4.8541   -3.9924   -4.8185 H   0  0  0  0  0  0  0  0  0  0  0  0
    4.8296   -5.3371   -2.5714 H   0  0  0  0  0  0  0  0  0  0  0  0
    6.0894   -4.1585   -2.7851 H   0  0  0  0  0  0  0  0  0  0  0  0
    2.5962   -3.4562   -0.1945 H   0  0  0  0  0  0  0  0  0  0  0  0
    2.8756   -4.9425   -0.9568 H   0  0  0  0  0  0  0  0  0  0  0  0
    2.3239   -3.6276   -1.9380 H   0  0  0  0  0  0  0  0  0  0  0  0
    5.6393   -1.7657   -1.9411 H   0  0  0  0  0  0  0  0  0  0  0  0
    7.3281   -3.7213   -1.1749 H   0  0  0  0  0  0  0  0  0  0  0  0
    7.4915   -3.5316    0.5319 H   0  0  0  0  0  0  0  0  0  0  0  0
    6.9708   -2.1816   -0.4007 H   0  0  0  0  0  0  0  0  0  0  0  0
    4.3494   -5.5935    0.3143 H   0  0  0  0  0  0  0  0  0  0  0  0
    5.8118   -5.7951   -0.5910 H   0  0  0  0  0  0  0  0  0  0  0  0
    5.6821   -6.6295    1.7937 H   0  0  0  0  0  0  0  0  0  0  0  0
    7.1207   -5.7742    1.3200 H   0  0  0  0  0  0  0  0  0  0  0  0
    6.8385   -4.0343    2.4882 H   0  0  0  0  0  0  0  0  0  0  0  0
  1  2  1  0
  1 26  1  0
  1 27  1  0
  1 28  1  0
  2 25  1  0
  2  3  1  0
  2 29  1  1
  3  4  2  0
  3  5  1  0
  5  6  1  0
  5 30  1  0
  5 31  1  0
  6  7  1  0
  6 32  1  0
  6 33  1  0
  7 25  1  0
  7  8  1  1
  7  9  1  0
  8 34  1  0
  8 35  1  0
  8 36  1  0
  9 21  1  0
  9 10  2  0
 10 11  1  0
 10 37  1  0
 11 12  1  0
 11 38  1  0
 11 39  1  0
 12 20  1  0
 12 13  1  0
 12 40  1  1
 13 14  1  0
 13 41  1  0
 13 42  1  0
 14 15  1  0
 14 43  1  0
 14 44  1  0
 15 20  1  0
 15 16  1  0
 15 45  1  6
 16 17  1  0
 16 46  1  0
 16 47  1  0
 17 18  1  0
 17 48  1  0
 17 49  1  0
 18 19  1  1
 18 20  1  0
 18 21  1  0
 19 50  1  0
 19 51  1  0
 19 52  1  0
 20 53  1  6
 21 22  1  6
 21 23  1  0
 22 54  1  0
 22 55  1  0
 22 56  1  0
 23 24  1  0
 23 57  1  0
 23 58  1  0
 24 25  1  0
 24 59  1  0
 24 60  1  0
 25 61  1  1
M  END
>  <i_m_ct_stereo_status>  (149) 
1

>  <s_m_source_file>  (149) 
/var/tmp/pbs.5076255.sched01/tmp323fbwsu/45qgza_o8k.sdf

>  <i_m_source_file_index>  (149) 
14

>  <i_lp_mmshare_version>  (149) 
48012

>  <i_f3d_flags>  (149) 
0

>  <s_epik_input>  (149) 
W0NIMl0xW0NIMl1DKD1PKVtDQEBIXShbQ0gzXSlbQ0BIXTJbQ0gyXVtDSDJdW0NAXShbQ0gzXSkoQz0zW0NAQF0xMltDSDNdKVtDQEBdNChbQ0gzXSlbQ0BASF01W0NAQEhdKFtDSDJdW0NIXTMpW0NIMl1bQ0gyXVtDQEBIXTVbQ0gyXVtDSDJdNA==

>  <s_epik_cmdline>  (149) 
J2VwaWtfcHl0aG9uJywgJy1waHQnLCAnMi4wJywgJy1waCcsICc3LjAnLCAnLXRuJywgJzgnLCAnLW1hJywgJzIwMCcsICctaW1hZScsICc8aW5maWxlLm1hZT4nLCAnLW9tYWUnLCAnPG91dGZpbGUubWFlPic=

>  <r_lp_tautomer_probability>  (149) 
1

>  <r_epik_Ionization_Penalty>  (149) 
9.05121e-14

>  <r_epik_Ionization_Penalty_Charging>  (149) 
0

>  <r_epik_Ionization_Penalty_Neutral>  (149) 
9.05121e-14

>  <r_epik_State_Penalty>  (149) 
-0

>  <r_epik_Charging_Adjusted_Penalty>  (149) 
0

>  <i_epik_Tot_Q>  (149) 
0

>  <i_epik_Tot_abs_Q>  (149) 
0

>  <s_lp_Force_Field>  (149) 
OPLS3e

>  <r_lp_Energy>  (149) 
58.3462

>  <b_lp_Chiralities_Consistent>  (149) 
1

>  <s_lp_Variant>  (149) 
40:0-1

>  <s_i_glide_gridfile>  (149) 
pfpi4k_grid

>  <i_i_glide_lignum>  (149) 
14

>  <i_i_glide_rotatable_bonds>  (149) 
0

>  <r_i_docking_score>  (149) 
-2.12887

>  <r_i_glide_ligand_efficiency>  (149) 
-0.0851546

>  <r_i_glide_ligand_efficiency_sa>  (149) 
-0.248994

>  <r_i_glide_ligand_efficiency_ln>  (149) 
-0.504605

>  <r_i_glide_gscore>  (149) 
-2.12887

>  <r_i_glide_lipo>  (149) 
-0.676369

>  <r_i_glide_hbond>  (149) 
0

>  <r_i_glide_metal>  (149) 
-0

>  <r_i_glide_rewards>  (149) 
-1.08721

>  <r_i_glide_evdw>  (149) 
-6.24978

>  <r_i_glide_ecoul>  (149) 
-0.351967

>  <r_i_glide_erotb>  (149) 
0

>  <r_i_glide_esite>  (149) 
0

>  <r_i_glide_emodel>  (149) 
-7.07047

>  <r_i_glide_energy>  (149) 
-6.60174

>  <r_i_glide_einternal>  (149) 
0

>  <r_i_glide_intrahb_reward>  (149) 
-0

>  <i_i_glide_confnum>  (149) 
1

>  <i_i_glide_posenum>  (149) 
32

>  <r_i_glide_eff_state_penalty>  (149) 
0

>  <ligand_id>  (149) 
40

>  <original_smiles>  (149) 
CC1C(=O)CCC2(C)C3=CCC4CCC5CCC(C)(C45)C3(C)CCC12

>  <smiles>  (149) 
[H]C1=C2C3(C([H])([H])[H])C([H])([H])C([H])([H])C(=O)C([H])(C([H])([H])[H])C3([H])C([H])([H])C([H])([H])C2(C([H])([H])[H])C2(C([H])([H])[H])C([H])([H])C([H])([H])C3([H])C([H])([H])C([H])([H])C([H])(C1([H])[H])C32[H]

$$$$
41:0:0
     RDKit          3D

 63 67  0  0  1  0  0  0  0  0999 V2000
    0.6901   -4.5499    4.7883 C   0  0  0  0  0  0  0  0  0  0  0  0
    1.1573   -5.3077    3.5577 C   0  0  0  0  0  0  0  0  0  0  0  0
    0.2157   -6.4703    3.2617 C   0  0  0  0  0  0  0  0  0  0  0  0
    2.2849   -5.0223    2.8352 C   0  0  0  0  0  0  0  0  0  0  0  0
    3.2409   -3.8053    3.0340 C   0  0  1  0  0  0  0  0  0  0  0  0
    4.5310   -4.2204    2.2340 C   0  0  1  0  0  0  0  0  0  0  0  0
    5.7934   -4.5009    3.0858 C   0  0  0  0  0  0  0  0  0  0  0  0
    5.2255   -5.8605    3.4853 C   0  0  0  0  0  0  0  0  0  0  0  0
    4.4628   -5.7435    2.1780 C   0  0  1  0  0  0  0  0  0  0  0  0
    3.0158   -6.0578    1.9394 C   0  0  1  0  0  0  0  0  0  0  0  0
    2.7996   -7.5572    2.2512 C   0  0  0  0  0  0  0  0  0  0  0  0
    2.8136   -5.7661    0.4361 C   0  0  1  0  0  0  0  0  0  0  0  0
    1.4489   -5.6729    0.0686 O   0  0  0  0  0  0  0  0  0  0  0  0
    3.5983   -4.5665   -0.1839 C   0  0  0  0  0  0  0  0  0  0  0  0
    4.6365   -3.7894    0.7188 C   0  0  1  0  0  0  0  0  0  0  0  0
    4.9286   -2.3015    0.2152 C   0  0  1  0  0  0  0  0  0  0  0  0
    5.8681   -2.4302   -1.0377 C   0  0  0  0  0  0  0  0  0  0  0  0
    3.6640   -1.5722   -0.3300 C   0  0  0  0  0  0  0  0  0  0  0  0
    3.4999   -1.3681   -1.5325 O   0  0  0  0  0  0  0  0  0  0  0  0
    2.7335   -1.1181    0.6737 C   0  0  0  0  0  0  0  0  0  0  0  0
    2.2581   -2.0945    1.4549 C   0  0  0  0  0  0  0  0  0  0  0  0
    2.7170   -2.3042    2.8730 C   0  0  1  0  0  0  0  0  0  0  0  0
    1.5728   -2.0879    3.6665 O   0  0  0  0  0  0  0  0  0  0  0  0
    3.7711   -1.2255    3.3874 C   0  0  1  0  0  0  0  0  0  0  0  0
    3.2443    0.2359    3.5429 C   0  0  0  0  0  0  0  0  0  0  0  0
    3.9899   -1.5603    4.7481 O   0  0  0  0  0  0  0  0  0  0  0  0
    5.2172   -1.2374    2.7772 C   0  0  0  0  0  0  0  0  0  0  0  0
    5.5938   -1.3104    1.2542 C   0  0  1  0  0  0  0  0  0  0  0  0
    6.9930   -1.5064    1.2349 O   0  0  0  0  0  0  0  0  0  0  0  0
    0.3436   -5.2561    5.5453 H   0  0  0  0  0  0  0  0  0  0  0  0
   -0.1458   -3.8894    4.5432 H   0  0  0  0  0  0  0  0  0  0  0  0
    1.4907   -3.9758    5.2589 H   0  0  0  0  0  0  0  0  0  0  0  0
   -0.8111   -6.1997    3.5079 H   0  0  0  0  0  0  0  0  0  0  0  0
    0.4547   -7.3449    3.8672 H   0  0  0  0  0  0  0  0  0  0  0  0
    0.2082   -6.7325    2.2037 H   0  0  0  0  0  0  0  0  0  0  0  0
    3.4785   -3.8979    4.0908 H   0  0  0  0  0  0  0  0  0  0  0  0
    6.7078   -4.5736    2.4890 H   0  0  0  0  0  0  0  0  0  0  0  0
    5.9093   -3.8901    3.9804 H   0  0  0  0  0  0  0  0  0  0  0  0
    5.9773   -6.6509    3.5123 H   0  0  0  0  0  0  0  0  0  0  0  0
    4.6094   -5.8368    4.3864 H   0  0  0  0  0  0  0  0  0  0  0  0
    5.1157   -6.1828    1.4130 H   0  0  0  0  0  0  0  0  0  0  0  0
    3.6031   -8.1566    1.8261 H   0  0  0  0  0  0  0  0  0  0  0  0
    1.8899   -7.9657    1.8195 H   0  0  0  0  0  0  0  0  0  0  0  0
    2.7997   -7.7529    3.3199 H   0  0  0  0  0  0  0  0  0  0  0  0
    3.2093   -6.6356   -0.0764 H   0  0  0  0  0  0  0  0  0  0  0  0
    1.4312   -5.4642   -0.8528 H   0  0  0  0  0  0  0  0  0  0  0  0
    4.1689   -4.9587   -1.0280 H   0  0  0  0  0  0  0  0  0  0  0  0
    2.8812   -3.9230   -0.6904 H   0  0  0  0  0  0  0  0  0  0  0  0
    5.5679   -4.2797    0.4314 H   0  0  0  0  0  0  0  0  0  0  0  0
    6.8157   -2.9303   -0.8183 H   0  0  0  0  0  0  0  0  0  0  0  0
    6.1116   -1.4487   -1.4482 H   0  0  0  0  0  0  0  0  0  0  0  0
    5.4022   -3.0090   -1.8407 H   0  0  0  0  0  0  0  0  0  0  0  0
    3.0437   -0.1830    1.0710 H   0  0  0  0  0  0  0  0  0  0  0  0
    2.0052   -3.0262    0.9919 H   0  0  0  0  0  0  0  0  0  0  0  0
    1.2180   -1.2406    3.4433 H   0  0  0  0  0  0  0  0  0  0  0  0
    3.4533    0.8784    2.6925 H   0  0  0  0  0  0  0  0  0  0  0  0
    3.7461    0.7433    4.3686 H   0  0  0  0  0  0  0  0  0  0  0  0
    2.1744    0.3039    3.7499 H   0  0  0  0  0  0  0  0  0  0  0  0
    3.1409   -1.5794    5.1674 H   0  0  0  0  0  0  0  0  0  0  0  0
    5.6812   -0.3157    3.1325 H   0  0  0  0  0  0  0  0  0  0  0  0
    5.8034   -1.9797    3.2954 H   0  0  0  0  0  0  0  0  0  0  0  0
    5.4758   -0.2990    0.8612 H   0  0  0  0  0  0  0  0  0  0  0  0
    7.1665   -2.3528    1.6232 H   0  0  0  0  0  0  0  0  0  0  0  0
  1  2  1  0
  1 30  1  0
  1 31  1  0
  1 32  1  0
  2  3  1  0
  2  4  2  3
  3 33  1  0
  3 34  1  0
  3 35  1  0
  4 10  1  0
  4  5  1  0
  5 22  1  0
  5  6  1  0
  5 36  1  1
  6  9  1  0
  6 15  1  0
  6  7  1  1
  7  8  1  0
  7 37  1  0
  7 38  1  0
  8  9  1  0
  8 39  1  0
  8 40  1  0
  9 10  1  0
  9 41  1  6
 10 11  1  6
 10 12  1  0
 11 42  1  0
 11 43  1  0
 11 44  1  0
 12 13  1  0
 12 14  1  0
 12 45  1  6
 13 46  1  0
 14 15  1  0
 14 47  1  0
 14 48  1  0
 15 16  1  0
 15 49  1  6
 16 28  1  0
 16 17  1  6
 16 18  1  0
 17 50  1  0
 17 51  1  0
 17 52  1  0
 18 19  2  0
 18 20  1  0
 20 21  2  3
 20 53  1  0
 21 22  1  0
 21 54  1  0
 22 23  1  1
 22 24  1  0
 23 55  1  0
 24 25  1  0
 24 26  1  1
 24 27  1  0
 25 56  1  0
 25 57  1  0
 25 58  1  0
 26 59  1  0
 27 28  1  0
 27 60  1  0
 27 61  1  0
 28 29  1  0
 28 62  1  6
 29 63  1  0
M  END
>  <i_m_ct_stereo_status>  (150) 
1

>  <s_m_source_file>  (150) 
/var/tmp/pbs.5076255.sched01/tmp323fbwsu/45qgza_o8k.sdf

>  <i_m_source_file_index>  (150) 
15

>  <i_lp_mmshare_version>  (150) 
48012

>  <i_f3d_flags>  (150) 
0

>  <s_epik_input>  (150) 
W0NIM11DKFtDSDNdKT1DMVtDQF0oW0NIM10pKFtDQEBIXTJbQ0gyXVtDSDJdMylbQ0BASF0oW09IXSlbQ0gyXVtDQEhdNFtDQF0oW0NIM10pKFtDQEhdKFtPSF0pW0NIMl1bQ0BdNShbQ0gzXSlbT0hdKUMoPU8pL1tDSF09W0NIXVxbQ0BdNShbQ0BASF0xW0NAXTIzNClbT0hd

>  <s_epik_cmdline>  (150) 
J2VwaWtfcHl0aG9uJywgJy1waHQnLCAnMi4wJywgJy1waCcsICc3LjAnLCAnLXRuJywgJzgnLCAnLW1hJywgJzIwMCcsICctaW1hZScsICc8aW5maWxlLm1hZT4nLCAnLW9tYWUnLCAnPG91dGZpbGUubWFlPic=

>  <r_lp_tautomer_probability>  (150) 
1

>  <r_epik_Ionization_Penalty>  (150) 
4.48045e-07

>  <r_epik_Ionization_Penalty_Charging>  (150) 
0

>  <r_epik_Ionization_Penalty_Neutral>  (150) 
4.48045e-07

>  <r_epik_State_Penalty>  (150) 
-0

>  <r_epik_Charging_Adjusted_Penalty>  (150) 
0

>  <i_epik_Tot_Q>  (150) 
0

>  <i_epik_Tot_abs_Q>  (150) 
0

>  <s_lp_Force_Field>  (150) 
OPLS3e

>  <r_lp_Energy>  (150) 
147.82

>  <b_lp_Chiralities_Consistent>  (150) 
1

>  <s_lp_Variant>  (150) 
41:0-1

>  <s_i_glide_gridfile>  (150) 
pfpi4k_grid

>  <i_i_glide_lignum>  (150) 
15

>  <i_i_glide_rotatable_bonds>  (150) 
4

>  <r_i_docking_score>  (150) 
-2.73945

>  <r_i_glide_ligand_efficiency>  (150) 
-0.0944639

>  <r_i_glide_ligand_efficiency_sa>  (150) 
-0.290223

>  <r_i_glide_ligand_efficiency_ln>  (150) 
-0.627266

>  <r_i_glide_gscore>  (150) 
-2.73945

>  <r_i_glide_lipo>  (150) 
-0.323726

>  <r_i_glide_hbond>  (150) 
-0.182849

>  <r_i_glide_metal>  (150) 
-0

>  <r_i_glide_rewards>  (150) 
-0.664611

>  <r_i_glide_evdw>  (150) 
-20.66

>  <r_i_glide_ecoul>  (150) 
-3.05599

>  <r_i_glide_erotb>  (150) 
0

>  <r_i_glide_esite>  (150) 
-0.0768719

>  <r_i_glide_emodel>  (150) 
-28.5419

>  <r_i_glide_energy>  (150) 
-23.716

>  <r_i_glide_einternal>  (150) 
0.453959

>  <r_i_glide_intrahb_reward>  (150) 
-0

>  <i_i_glide_confnum>  (150) 
1

>  <i_i_glide_posenum>  (150) 
3

>  <r_i_glide_eff_state_penalty>  (150) 
0

>  <ligand_id>  (150) 
41

>  <original_smiles>  (150) 
CC(C)=C1C2C34CCC3C1(C)C(O)CC4C1(C)C(=O)C=CC2(O)C(C)(O)CC1O

>  <smiles>  (150) 
[H]OC1([H])C([H])([H])C2([H])C3(C([H])([H])[H])C(=O)C([H])=C([H])C(O[H])(C4([H])C(=C(C([H])([H])[H])C([H])([H])[H])C1(C([H])([H])[H])C1([H])C([H])([H])C([H])([H])C412)C(O[H])(C([H])([H])[H])C([H])([H])C3([H])O[H]

$$$$
41:0:1
     RDKit          3D

 63 67  0  0  1  0  0  0  0  0999 V2000
    2.1586   -2.2421    5.3135 C   0  0  0  0  0  0  0  0  0  0  0  0
    2.9627   -1.1662    6.0284 C   0  0  0  0  0  0  0  0  0  0  0  0
    4.2576   -1.7601    6.5682 C   0  0  0  0  0  0  0  0  0  0  0  0
    2.5727    0.1359    6.1977 C   0  0  0  0  0  0  0  0  0  0  0  0
    1.3148    0.8184    5.5765 C   0  0  1  0  0  0  0  0  0  0  0  0
    1.1493    2.1365    6.4204 C   0  0  1  0  0  0  0  0  0  0  0  0
   -0.1092    2.2039    7.3392 C   0  0  0  0  0  0  0  0  0  0  0  0
    0.5897    1.2772    8.3387 C   0  0  0  0  0  0  0  0  0  0  0  0
    1.8713    1.8306    7.7282 C   0  0  1  0  0  0  0  0  0  0  0  0
    3.1065    1.0636    7.3269 C   0  0  1  0  0  0  0  0  0  0  0  0
    3.6722    0.3777    8.5937 C   0  0  0  0  0  0  0  0  0  0  0  0
    4.0894    2.1457    6.7939 C   0  0  1  0  0  0  0  0  0  0  0  0
    5.1409    1.5738    6.0423 O   0  0  0  0  0  0  0  0  0  0  0  0
    3.4573    3.3386    6.0056 C   0  0  0  0  0  0  0  0  0  0  0  0
    1.8752    3.4387    5.8893 C   0  0  1  0  0  0  0  0  0  0  0  0
    1.3758    4.2935    4.6289 C   0  0  1  0  0  0  0  0  0  0  0  0
    1.6064    5.8001    5.0034 C   0  0  0  0  0  0  0  0  0  0  0  0
    2.2429    4.0789    3.3385 C   0  0  0  0  0  0  0  0  0  0  0  0
    3.0211    4.9330    2.9202 O   0  0  0  0  0  0  0  0  0  0  0  0
    2.0399    2.8323    2.6462 C   0  0  0  0  0  0  0  0  0  0  0  0
    2.2439    1.7594    3.4166 C   0  0  0  0  0  0  0  0  0  0  0  0
    1.1301    0.9202    3.9918 C   0  0  1  0  0  0  0  0  0  0  0  0
    1.3086   -0.3405    3.3903 O   0  0  0  0  0  0  0  0  0  0  0  0
   -0.3451    1.3780    3.5873 C   0  0  1  0  0  0  0  0  0  0  0  0
   -0.7178    1.2350    2.0812 C   0  0  0  0  0  0  0  0  0  0  0  0
   -1.2224    0.4159    4.1679 O   0  0  0  0  0  0  0  0  0  0  0  0
   -0.8946    2.7332    4.1594 C   0  0  0  0  0  0  0  0  0  0  0  0
   -0.1425    4.1098    4.2032 C   0  0  1  0  0  0  0  0  0  0  0  0
   -0.9769    4.9133    5.0242 O   0  0  0  0  0  0  0  0  0  0  0  0
    2.2019   -3.1756    5.8771 H   0  0  0  0  0  0  0  0  0  0  0  0
    2.5778   -2.4417    4.3253 H   0  0  0  0  0  0  0  0  0  0  0  0
    1.1005   -1.9941    5.2221 H   0  0  0  0  0  0  0  0  0  0  0  0
    4.6501   -2.4926    5.8612 H   0  0  0  0  0  0  0  0  0  0  0  0
    4.0958   -2.2735    7.5174 H   0  0  0  0  0  0  0  0  0  0  0  0
    5.0409   -1.0121    6.6790 H   0  0  0  0  0  0  0  0  0  0  0  0
    0.5300    0.1361    5.8949 H   0  0  0  0  0  0  0  0  0  0  0  0
   -0.3082    3.1996    7.7446 H   0  0  0  0  0  0  0  0  0  0  0  0
   -1.0196    1.7283    6.9767 H   0  0  0  0  0  0  0  0  0  0  0  0
    0.4271    1.5537    9.3820 H   0  0  0  0  0  0  0  0  0  0  0  0
    0.4203    0.2136    8.1614 H   0  0  0  0  0  0  0  0  0  0  0  0
    2.1162    2.7235    8.3152 H   0  0  0  0  0  0  0  0  0  0  0  0
    3.6761    1.0705    9.4336 H   0  0  0  0  0  0  0  0  0  0  0  0
    4.7054    0.0603    8.4865 H   0  0  0  0  0  0  0  0  0  0  0  0
    3.0746   -0.4786    8.9005 H   0  0  0  0  0  0  0  0  0  0  0  0
    4.5731    2.5889    7.6649 H   0  0  0  0  0  0  0  0  0  0  0  0
    4.7733    1.1752    5.2675 H   0  0  0  0  0  0  0  0  0  0  0  0
    3.8043    4.2569    6.4830 H   0  0  0  0  0  0  0  0  0  0  0  0
    3.9626    3.3945    5.0452 H   0  0  0  0  0  0  0  0  0  0  0  0
    1.6532    4.1336    6.7010 H   0  0  0  0  0  0  0  0  0  0  0  0
    1.0637    6.1078    5.9000 H   0  0  0  0  0  0  0  0  0  0  0  0
    1.2915    6.4675    4.1975 H   0  0  0  0  0  0  0  0  0  0  0  0
    2.6599    6.0119    5.2039 H   0  0  0  0  0  0  0  0  0  0  0  0
    1.1748    2.9058    2.0350 H   0  0  0  0  0  0  0  0  0  0  0  0
    3.1065    1.7559    4.0525 H   0  0  0  0  0  0  0  0  0  0  0  0
    1.2744   -0.2303    2.4524 H   0  0  0  0  0  0  0  0  0  0  0  0
   -0.5714    2.1426    1.5062 H   0  0  0  0  0  0  0  0  0  0  0  0
   -1.7804    1.0206    1.9483 H   0  0  0  0  0  0  0  0  0  0  0  0
   -0.1792    0.4368    1.5693 H   0  0  0  0  0  0  0  0  0  0  0  0
   -2.0902    0.5579    3.8182 H   0  0  0  0  0  0  0  0  0  0  0  0
   -1.8059    2.9400    3.5936 H   0  0  0  0  0  0  0  0  0  0  0  0
   -1.3050    2.5557    5.1430 H   0  0  0  0  0  0  0  0  0  0  0  0
   -0.2488    4.5485    3.2101 H   0  0  0  0  0  0  0  0  0  0  0  0
   -0.8823    4.6069    5.9151 H   0  0  0  0  0  0  0  0  0  0  0  0
  1  2  1  0
  1 30  1  0
  1 31  1  0
  1 32  1  0
  2  3  1  0
  2  4  2  3
  3 33  1  0
  3 34  1  0
  3 35  1  0
  4 10  1  0
  4  5  1  0
  5 22  1  0
  5  6  1  0
  5 36  1  1
  6  9  1  0
  6 15  1  0
  6  7  1  1
  7  8  1  0
  7 37  1  0
  7 38  1  0
  8  9  1  0
  8 39  1  0
  8 40  1  0
  9 10  1  0
  9 41  1  1
 10 11  1  1
 10 12  1  0
 11 42  1  0
 11 43  1  0
 11 44  1  0
 12 13  1  0
 12 14  1  0
 12 45  1  1
 13 46  1  0
 14 15  1  0
 14 47  1  0
 14 48  1  0
 15 16  1  0
 15 49  1  1
 16 28  1  0
 16 17  1  1
 16 18  1  0
 17 50  1  0
 17 51  1  0
 17 52  1  0
 18 19  2  0
 18 20  1  0
 20 21  2  3
 20 53  1  0
 21 22  1  0
 21 54  1  0
 22 23  1  6
 22 24  1  0
 23 55  1  0
 24 25  1  0
 24 26  1  1
 24 27  1  0
 25 56  1  0
 25 57  1  0
 25 58  1  0
 26 59  1  0
 27 28  1  0
 27 60  1  0
 27 61  1  0
 28 29  1  0
 28 62  1  6
 29 63  1  0
M  END
>  <i_m_ct_stereo_status>  (151) 
1

>  <s_m_source_file>  (151) 
/var/tmp/pbs.5076255.sched01/tmp323fbwsu/45qgza_o8k.sdf

>  <i_m_source_file_index>  (151) 
15

>  <i_lp_mmshare_version>  (151) 
48012

>  <i_f3d_flags>  (151) 
0

>  <s_epik_input>  (151) 
W0NIM11DKFtDSDNdKT1DMVtDQF0oW0NIM10pKFtDQEBIXTJbQ0gyXVtDSDJdMylbQ0BASF0oW09IXSlbQ0gyXVtDQEhdNFtDQF0oW0NIM10pKFtDQEhdKFtPSF0pW0NIMl1bQ0BdNShbQ0gzXSlbT0hdKUMoPU8pL1tDSF09W0NIXVxbQ0BdNShbQ0BASF0xW0NAXTIzNClbT0hd

>  <s_epik_cmdline>  (151) 
J2VwaWtfcHl0aG9uJywgJy1waHQnLCAnMi4wJywgJy1waCcsICc3LjAnLCAnLXRuJywgJzgnLCAnLW1hJywgJzIwMCcsICctaW1hZScsICc8aW5maWxlLm1hZT4nLCAnLW9tYWUnLCAnPG91dGZpbGUubWFlPic=

>  <r_lp_tautomer_probability>  (151) 
1

>  <r_epik_Ionization_Penalty>  (151) 
4.48045e-07

>  <r_epik_Ionization_Penalty_Charging>  (151) 
0

>  <r_epik_Ionization_Penalty_Neutral>  (151) 
4.48045e-07

>  <r_epik_State_Penalty>  (151) 
-0

>  <r_epik_Charging_Adjusted_Penalty>  (151) 
0

>  <i_epik_Tot_Q>  (151) 
0

>  <i_epik_Tot_abs_Q>  (151) 
0

>  <s_lp_Force_Field>  (151) 
OPLS3e

>  <r_lp_Energy>  (151) 
147.82

>  <b_lp_Chiralities_Consistent>  (151) 
1

>  <s_lp_Variant>  (151) 
41:0-1

>  <s_i_glide_gridfile>  (151) 
pfpi4k_grid

>  <i_i_glide_lignum>  (151) 
15

>  <i_i_glide_rotatable_bonds>  (151) 
4

>  <r_i_docking_score>  (151) 
-2.51942

>  <r_i_glide_ligand_efficiency>  (151) 
-0.0868765

>  <r_i_glide_ligand_efficiency_sa>  (151) 
-0.266912

>  <r_i_glide_ligand_efficiency_ln>  (151) 
-0.576883

>  <r_i_glide_gscore>  (151) 
-2.51942

>  <r_i_glide_lipo>  (151) 
0

>  <r_i_glide_hbond>  (151) 
-0.0137033

>  <r_i_glide_metal>  (151) 
-0

>  <r_i_glide_rewards>  (151) 
-0.664611

>  <r_i_glide_evdw>  (151) 
-21.1406

>  <r_i_glide_ecoul>  (151) 
-4.95129

>  <r_i_glide_erotb>  (151) 
0

>  <r_i_glide_esite>  (151) 
-0.0413797

>  <r_i_glide_emodel>  (151) 
-30.7575

>  <r_i_glide_energy>  (151) 
-26.0919

>  <r_i_glide_einternal>  (151) 
0.111656

>  <r_i_glide_intrahb_reward>  (151) 
-0

>  <i_i_glide_confnum>  (151) 
1

>  <i_i_glide_posenum>  (151) 
25

>  <r_i_glide_eff_state_penalty>  (151) 
0

>  <ligand_id>  (151) 
41

>  <original_smiles>  (151) 
CC(C)=C1C2C34CCC3C1(C)C(O)CC4C1(C)C(=O)C=CC2(O)C(C)(O)CC1O

>  <smiles>  (151) 
[H]OC1([H])C([H])([H])C2([H])C3(C([H])([H])[H])C(=O)C([H])=C([H])C(O[H])(C4([H])C(=C(C([H])([H])[H])C([H])([H])[H])C1(C([H])([H])[H])C1([H])C([H])([H])C([H])([H])C412)C(O[H])(C([H])([H])[H])C([H])([H])C3([H])O[H]

$$$$
41:0:2
     RDKit          3D

 63 67  0  0  1  0  0  0  0  0999 V2000
    2.0638   -2.7205    4.3408 C   0  0  0  0  0  0  0  0  0  0  0  0
    3.0229   -1.8076    5.0916 C   0  0  0  0  0  0  0  0  0  0  0  0
    4.3378   -2.5342    5.3454 C   0  0  0  0  0  0  0  0  0  0  0  0
    2.7428   -0.5348    5.5123 C   0  0  0  0  0  0  0  0  0  0  0  0
    1.4589    0.2889    5.1874 C   0  0  1  0  0  0  0  0  0  0  0  0
    1.4913    1.4608    6.2375 C   0  0  1  0  0  0  0  0  0  0  0  0
    0.3727    1.4326    7.3242 C   0  0  0  0  0  0  0  0  0  0  0  0
    1.1382    0.3300    8.0615 C   0  0  0  0  0  0  0  0  0  0  0  0
    2.3604    0.9191    7.3679 C   0  0  1  0  0  0  0  0  0  0  0  0
    3.4799    0.1761    6.6839 C   0  0  1  0  0  0  0  0  0  0  0  0
    4.1647   -0.7268    7.7370 C   0  0  0  0  0  0  0  0  0  0  0  0
    4.4492    1.2880    6.1896 C   0  0  1  0  0  0  0  0  0  0  0  0
    5.3535    0.8003    5.2194 O   0  0  0  0  0  0  0  0  0  0  0  0
    3.7943    2.6172    5.6900 C   0  0  0  0  0  0  0  0  0  0  0  0
    2.2203    2.8000    5.8162 C   0  0  1  0  0  0  0  0  0  0  0  0
    1.6129    3.8657    4.7862 C   0  0  1  0  0  0  0  0  0  0  0  0
    1.9856    5.2830    5.3501 C   0  0  0  0  0  0  0  0  0  0  0  0
    2.2842    3.8262    3.3695 C   0  0  0  0  0  0  0  0  0  0  0  0
    3.0344    4.7155    2.9737 O   0  0  0  0  0  0  0  0  0  0  0  0
    1.9168    2.7146    2.5329 C   0  0  0  0  0  0  0  0  0  0  0  0
    2.1534    1.5242    3.0914 C   0  0  0  0  0  0  0  0  0  0  0  0
    1.0737    0.6507    3.6801 C   0  0  1  0  0  0  0  0  0  0  0  0
    1.0909   -0.5034    2.8719 O   0  0  0  0  0  0  0  0  0  0  0  0
   -0.4094    1.2307    3.5635 C   0  0  1  0  0  0  0  0  0  0  0  0
   -0.9822    1.3467    2.1215 C   0  0  0  0  0  0  0  0  0  0  0  0
   -1.2646    0.2272    4.1050 O   0  0  0  0  0  0  0  0  0  0  0  0
   -0.7940    2.5001    4.4079 C   0  0  0  0  0  0  0  0  0  0  0  0
    0.0434    3.8180    4.5543 C   0  0  1  0  0  0  0  0  0  0  0  0
   -0.6174    4.5256    5.5951 O   0  0  0  0  0  0  0  0  0  0  0  0
    2.1217   -3.7333    4.7428 H   0  0  0  0  0  0  0  0  0  0  0  0
    2.3338   -2.7763    3.2844 H   0  0  0  0  0  0  0  0  0  0  0  0
    1.0206   -2.4171    4.4387 H   0  0  0  0  0  0  0  0  0  0  0  0
    4.5856   -3.1592    4.4863 H   0  0  0  0  0  0  0  0  0  0  0  0
    4.2715   -3.1858    6.2181 H   0  0  0  0  0  0  0  0  0  0  0  0
    5.1745   -1.8468    5.4575 H   0  0  0  0  0  0  0  0  0  0  0  0
    0.6809   -0.4013    5.5053 H   0  0  0  0  0  0  0  0  0  0  0  0
    0.2919    2.3606    7.8966 H   0  0  0  0  0  0  0  0  0  0  0  0
   -0.6053    1.0605    7.0235 H   0  0  0  0  0  0  0  0  0  0  0  0
    1.1336    0.4421    9.1473 H   0  0  0  0  0  0  0  0  0  0  0  0
    0.8798   -0.6836    7.7494 H   0  0  0  0  0  0  0  0  0  0  0  0
    2.7360    1.6962    8.0440 H   0  0  0  0  0  0  0  0  0  0  0  0
    4.3234   -0.1779    8.6637 H   0  0  0  0  0  0  0  0  0  0  0  0
    5.1522   -1.0653    7.4372 H   0  0  0  0  0  0  0  0  0  0  0  0
    3.5597   -1.5952    7.9902 H   0  0  0  0  0  0  0  0  0  0  0  0
    5.0716    1.5657    7.0409 H   0  0  0  0  0  0  0  0  0  0  0  0
    4.8629    0.5571    4.4482 H   0  0  0  0  0  0  0  0  0  0  0  0
    4.2591    3.4320    6.2483 H   0  0  0  0  0  0  0  0  0  0  0  0
    4.1702    2.8057    4.6880 H   0  0  0  0  0  0  0  0  0  0  0  0
    2.1501    3.3643    6.7474 H   0  0  0  0  0  0  0  0  0  0  0  0
    1.5980    5.4641    6.3550 H   0  0  0  0  0  0  0  0  0  0  0  0
    1.6135    6.0853    4.7084 H   0  0  0  0  0  0  0  0  0  0  0  0
    3.0684    5.4134    5.4260 H   0  0  0  0  0  0  0  0  0  0  0  0
    0.9827    2.9237    2.0784 H   0  0  0  0  0  0  0  0  0  0  0  0
    3.0923    1.3807    3.5873 H   0  0  0  0  0  0  0  0  0  0  0  0
    1.0049   -0.2410    1.9666 H   0  0  0  0  0  0  0  0  0  0  0  0
   -0.8508    2.3286    1.6817 H   0  0  0  0  0  0  0  0  0  0  0  0
   -2.0643    1.2175    2.1002 H   0  0  0  0  0  0  0  0  0  0  0  0
   -0.5665    0.6204    1.4242 H   0  0  0  0  0  0  0  0  0  0  0  0
   -2.1546    0.4472    3.8694 H   0  0  0  0  0  0  0  0  0  0  0  0
   -1.7583    2.8311    4.0161 H   0  0  0  0  0  0  0  0  0  0  0  0
   -1.0773    2.1897    5.4022 H   0  0  0  0  0  0  0  0  0  0  0  0
   -0.1612    4.4121    3.6607 H   0  0  0  0  0  0  0  0  0  0  0  0
   -0.0905    5.2815    5.8098 H   0  0  0  0  0  0  0  0  0  0  0  0
  1  2  1  0
  1 30  1  0
  1 31  1  0
  1 32  1  0
  2  3  1  0
  2  4  2  3
  3 33  1  0
  3 34  1  0
  3 35  1  0
  4 10  1  0
  4  5  1  0
  5 22  1  0
  5  6  1  0
  5 36  1  1
  6  9  1  0
  6 15  1  0
  6  7  1  1
  7  8  1  0
  7 37  1  0
  7 38  1  0
  8  9  1  0
  8 39  1  0
  8 40  1  0
  9 10  1  0
  9 41  1  1
 10 11  1  1
 10 12  1  0
 11 42  1  0
 11 43  1  0
 11 44  1  0
 12 13  1  0
 12 14  1  0
 12 45  1  1
 13 46  1  0
 14 15  1  0
 14 47  1  0
 14 48  1  0
 15 16  1  0
 15 49  1  1
 16 28  1  0
 16 17  1  1
 16 18  1  0
 17 50  1  0
 17 51  1  0
 17 52  1  0
 18 19  2  0
 18 20  1  0
 20 21  2  3
 20 53  1  0
 21 22  1  0
 21 54  1  0
 22 23  1  6
 22 24  1  0
 23 55  1  0
 24 25  1  0
 24 26  1  1
 24 27  1  0
 25 56  1  0
 25 57  1  0
 25 58  1  0
 26 59  1  0
 27 28  1  0
 27 60  1  0
 27 61  1  0
 28 29  1  0
 28 62  1  6
 29 63  1  0
M  END
>  <i_m_ct_stereo_status>  (152) 
1

>  <s_m_source_file>  (152) 
/var/tmp/pbs.5076255.sched01/tmp323fbwsu/45qgza_o8k.sdf

>  <i_m_source_file_index>  (152) 
15

>  <i_lp_mmshare_version>  (152) 
48012

>  <i_f3d_flags>  (152) 
0

>  <s_epik_input>  (152) 
W0NIM11DKFtDSDNdKT1DMVtDQF0oW0NIM10pKFtDQEBIXTJbQ0gyXVtDSDJdMylbQ0BASF0oW09IXSlbQ0gyXVtDQEhdNFtDQF0oW0NIM10pKFtDQEhdKFtPSF0pW0NIMl1bQ0BdNShbQ0gzXSlbT0hdKUMoPU8pL1tDSF09W0NIXVxbQ0BdNShbQ0BASF0xW0NAXTIzNClbT0hd

>  <s_epik_cmdline>  (152) 
J2VwaWtfcHl0aG9uJywgJy1waHQnLCAnMi4wJywgJy1waCcsICc3LjAnLCAnLXRuJywgJzgnLCAnLW1hJywgJzIwMCcsICctaW1hZScsICc8aW5maWxlLm1hZT4nLCAnLW9tYWUnLCAnPG91dGZpbGUubWFlPic=

>  <r_lp_tautomer_probability>  (152) 
1

>  <r_epik_Ionization_Penalty>  (152) 
4.48045e-07

>  <r_epik_Ionization_Penalty_Charging>  (152) 
0

>  <r_epik_Ionization_Penalty_Neutral>  (152) 
4.48045e-07

>  <r_epik_State_Penalty>  (152) 
-0

>  <r_epik_Charging_Adjusted_Penalty>  (152) 
0

>  <i_epik_Tot_Q>  (152) 
0

>  <i_epik_Tot_abs_Q>  (152) 
0

>  <s_lp_Force_Field>  (152) 
OPLS3e

>  <r_lp_Energy>  (152) 
147.82

>  <b_lp_Chiralities_Consistent>  (152) 
1

>  <s_lp_Variant>  (152) 
41:0-1

>  <s_i_glide_gridfile>  (152) 
pfpi4k_grid

>  <i_i_glide_lignum>  (152) 
15

>  <i_i_glide_rotatable_bonds>  (152) 
4

>  <r_i_docking_score>  (152) 
-2.32031

>  <r_i_glide_ligand_efficiency>  (152) 
-0.0800107

>  <r_i_glide_ligand_efficiency_sa>  (152) 
-0.245818

>  <r_i_glide_ligand_efficiency_ln>  (152) 
-0.531292

>  <r_i_glide_gscore>  (152) 
-2.32031

>  <r_i_glide_lipo>  (152) 
-0.00933834

>  <r_i_glide_hbond>  (152) 
0

>  <r_i_glide_metal>  (152) 
-0

>  <r_i_glide_rewards>  (152) 
-0.664611

>  <r_i_glide_evdw>  (152) 
-21.8495

>  <r_i_glide_ecoul>  (152) 
-3.4388

>  <r_i_glide_erotb>  (152) 
0

>  <r_i_glide_esite>  (152) 
-0.0380655

>  <r_i_glide_emodel>  (152) 
-29.2371

>  <r_i_glide_energy>  (152) 
-25.2883

>  <r_i_glide_einternal>  (152) 
0.737875

>  <r_i_glide_intrahb_reward>  (152) 
-0

>  <i_i_glide_confnum>  (152) 
1

>  <i_i_glide_posenum>  (152) 
1

>  <r_i_glide_eff_state_penalty>  (152) 
0

>  <ligand_id>  (152) 
41

>  <original_smiles>  (152) 
CC(C)=C1C2C34CCC3C1(C)C(O)CC4C1(C)C(=O)C=CC2(O)C(C)(O)CC1O

>  <smiles>  (152) 
[H]OC1([H])C([H])([H])C2([H])C3(C([H])([H])[H])C(=O)C([H])=C([H])C(O[H])(C4([H])C(=C(C([H])([H])[H])C([H])([H])[H])C1(C([H])([H])[H])C1([H])C([H])([H])C([H])([H])C412)C(O[H])(C([H])([H])[H])C([H])([H])C3([H])O[H]

$$$$
42:0:0
     RDKit          3D

 87 94  0  0  1  0  0  0  0  0999 V2000
    1.8981   -3.3100    4.0661 C   0  0  0  0  0  0  0  0  0  0  0  0
    1.8299   -4.1499    2.9139 O   0  0  0  0  0  0  0  0  0  0  0  0
    2.7439   -5.2429    2.8517 C   0  0  1  0  0  0  0  0  0  0  0  0
    2.3746   -6.1869    1.6696 C   0  0  1  0  0  0  0  0  0  0  0  0
    2.6003   -5.7730    0.2022 C   0  0  0  0  0  0  0  0  0  0  0  0
    2.8336   -4.2952   -0.1075 C   0  0  0  0  0  0  0  0  0  0  0  0
    4.3051   -3.8086    0.0459 C   0  0  1  0  0  0  0  0  0  0  0  0
    5.3118   -4.7192   -0.7097 C   0  0  0  0  0  0  0  0  0  0  0  0
    4.4749   -2.3596   -0.5326 C   0  0  1  0  0  0  0  0  0  0  0  0
    3.9092   -2.0378   -1.9160 C   0  0  0  0  0  0  0  0  0  0  0  0
    3.8738   -0.7567   -2.5551 C   0  0  0  0  0  0  0  0  0  0  0  0
    3.2800   -0.9141   -3.7660 C   0  0  0  0  0  0  0  0  0  0  0  0
    3.0111   -2.2181   -3.9937 O   0  0  0  0  0  0  0  0  0  0  0  0
    3.4265   -2.8823   -2.8939 C   0  0  0  0  0  0  0  0  0  0  0  0
    4.1710   -1.3778    0.6277 C   0  0  1  0  0  0  0  0  0  0  0  0
    3.0186   -0.5616    0.5109 O   0  0  0  0  0  0  0  0  0  0  0  0
    4.0024   -2.2657    1.8637 C   0  0  0  0  0  0  0  0  0  0  0  0
    4.6531   -3.6400    1.5687 C   0  0  2  0  0  0  0  0  0  0  0  0
    6.1631   -3.3395    1.7772 C   0  0  0  0  0  0  0  0  0  0  0  0
    4.2516   -4.7985    2.6148 C   0  0  2  0  0  0  0  0  0  0  0  0
    5.1526   -6.0909    2.5991 C   0  0  0  0  0  0  0  0  0  0  0  0
    4.5673   -7.3571    1.9166 C   0  0  0  0  0  0  0  0  0  0  0  0
    3.0349   -7.5029    2.0903 C   0  0  1  0  0  0  0  0  0  0  0  0
    2.6574   -7.5941    3.5663 C   0  0  2  0  0  0  0  0  0  0  0  0
    1.2494   -7.8978    3.7859 O   0  0  0  0  0  0  0  0  0  0  0  0
    1.0683   -6.6676    4.5424 C   0  0  1  0  0  0  0  0  0  0  0  0
   -0.1884   -6.0172    3.9646 C   0  0  0  0  0  0  0  0  0  0  0  0
    0.7840   -7.0161    6.0439 C   0  0  2  0  0  0  0  0  0  0  0  0
    0.2554   -5.8126    6.8880 C   0  0  0  0  0  0  0  0  0  0  0  0
   -0.0071   -6.1670    8.3615 C   0  0  0  0  0  0  0  0  0  0  0  0
    1.2239   -6.7838    9.0325 C   0  0  1  0  0  0  0  0  0  0  0  0
    0.8593   -7.1490   10.3483 O   0  0  0  0  0  0  0  0  0  0  0  0
    1.7887   -7.9968    8.2467 C   0  0  0  0  0  0  0  0  0  0  0  0
    3.1054   -8.4671    8.9128 C   0  0  0  0  0  0  0  0  0  0  0  0
    0.8062   -9.1990    8.2975 C   0  0  0  0  0  0  0  0  0  0  0  0
    2.0346   -7.5913    6.7495 C   0  0  2  0  0  0  0  0  0  0  0  0
    3.1896   -6.6192    6.5154 C   0  0  0  0  0  0  0  0  0  0  0  0
    3.3851   -5.9787    5.3489 C   0  0  0  0  0  0  0  0  0  0  0  0
    2.5003   -6.1825    4.1129 C   0  0  2  0  0  0  0  0  0  0  0  0
    1.2410   -2.4552    3.9097 H   0  0  0  0  0  0  0  0  0  0  0  0
    2.9001   -2.9241    4.2361 H   0  0  0  0  0  0  0  0  0  0  0  0
    1.5807   -3.8114    4.9756 H   0  0  0  0  0  0  0  0  0  0  0  0
    1.3171   -6.4031    1.6897 H   0  0  0  0  0  0  0  0  0  0  0  0
    3.3506   -6.3767   -0.2991 H   0  0  0  0  0  0  0  0  0  0  0  0
    1.6828   -6.0466   -0.3119 H   0  0  0  0  0  0  0  0  0  0  0  0
    2.5053   -4.2212   -1.1247 H   0  0  0  0  0  0  0  0  0  0  0  0
    2.1499   -3.6717    0.4733 H   0  0  0  0  0  0  0  0  0  0  0  0
    6.2941   -4.2592   -0.8117 H   0  0  0  0  0  0  0  0  0  0  0  0
    4.9701   -4.9272   -1.7232 H   0  0  0  0  0  0  0  0  0  0  0  0
    5.4860   -5.6715   -0.2192 H   0  0  0  0  0  0  0  0  0  0  0  0
    5.5388   -2.2130   -0.7011 H   0  0  0  0  0  0  0  0  0  0  0  0
    4.2241    0.1734   -2.1406 H   0  0  0  0  0  0  0  0  0  0  0  0
    3.0005   -0.2528   -4.5803 H   0  0  0  0  0  0  0  0  0  0  0  0
    3.2932   -3.9518   -2.9706 H   0  0  0  0  0  0  0  0  0  0  0  0
    5.0139   -0.7017    0.7740 H   0  0  0  0  0  0  0  0  0  0  0  0
    2.3373   -1.0100    0.0220 H   0  0  0  0  0  0  0  0  0  0  0  0
    4.3855   -1.7781    2.7624 H   0  0  0  0  0  0  0  0  0  0  0  0
    2.9361   -2.3552    1.9973 H   0  0  0  0  0  0  0  0  0  0  0  0
    6.2722   -3.2519    2.8534 H   0  0  0  0  0  0  0  0  0  0  0  0
    6.5141   -2.3901    1.3615 H   0  0  0  0  0  0  0  0  0  0  0  0
    6.8503   -4.1001    1.3980 H   0  0  0  0  0  0  0  0  0  0  0  0
    4.5394   -4.3045    3.5385 H   0  0  0  0  0  0  0  0  0  0  0  0
    6.1410   -5.9171    2.1884 H   0  0  0  0  0  0  0  0  0  0  0  0
    5.3666   -6.3707    3.6322 H   0  0  0  0  0  0  0  0  0  0  0  0
    4.8352   -7.3801    0.8629 H   0  0  0  0  0  0  0  0  0  0  0  0
    5.0664   -8.2359    2.3273 H   0  0  0  0  0  0  0  0  0  0  0  0
    2.6644   -8.3539    1.5089 H   0  0  0  0  0  0  0  0  0  0  0  0
    3.2975   -8.2513    4.1507 H   0  0  0  0  0  0  0  0  0  0  0  0
   -0.3200   -5.0156    4.3617 H   0  0  0  0  0  0  0  0  0  0  0  0
   -1.0813   -6.6004    4.1952 H   0  0  0  0  0  0  0  0  0  0  0  0
   -0.1698   -5.9146    2.8896 H   0  0  0  0  0  0  0  0  0  0  0  0
   -0.0004   -7.7725    6.0484 H   0  0  0  0  0  0  0  0  0  0  0  0
    0.9747   -4.9936    6.8540 H   0  0  0  0  0  0  0  0  0  0  0  0
   -0.6778   -5.4196    6.4822 H   0  0  0  0  0  0  0  0  0  0  0  0
   -0.3065   -5.2680    8.9046 H   0  0  0  0  0  0  0  0  0  0  0  0
   -0.8541   -6.8457    8.4271 H   0  0  0  0  0  0  0  0  0  0  0  0
    1.9915   -6.0130    9.1090 H   0  0  0  0  0  0  0  0  0  0  0  0
    1.6318   -7.4599   10.7934 H   0  0  0  0  0  0  0  0  0  0  0  0
    3.6197   -9.2025    8.2927 H   0  0  0  0  0  0  0  0  0  0  0  0
    2.9250   -8.9358    9.8814 H   0  0  0  0  0  0  0  0  0  0  0  0
    3.7954   -7.6435    9.0968 H   0  0  0  0  0  0  0  0  0  0  0  0
    1.1764  -10.0229    7.6884 H   0  0  0  0  0  0  0  0  0  0  0  0
   -0.1901   -8.9569    7.9313 H   0  0  0  0  0  0  0  0  0  0  0  0
    0.6829   -9.5874    9.3098 H   0  0  0  0  0  0  0  0  0  0  0  0
    2.3154   -8.5070    6.2308 H   0  0  0  0  0  0  0  0  0  0  0  0
    3.8576   -6.4238    7.3339 H   0  0  0  0  0  0  0  0  0  0  0  0
    4.2214   -5.3021    5.2883 H   0  0  0  0  0  0  0  0  0  0  0  0
  1  2  1  0
  1 40  1  0
  1 41  1  0
  1 42  1  0
  3  2  1  1
  3 20  1  0
  3 39  1  0
  3  4  1  0
  4 23  1  0
  4  5  1  0
  4 43  1  6
  5  6  1  0
  5 44  1  0
  5 45  1  0
  6  7  1  0
  6 46  1  0
  6 47  1  0
  7 18  1  0
  7  8  1  6
  7  9  1  0
  8 48  1  0
  8 49  1  0
  8 50  1  0
  9 10  1  0
  9 15  1  0
  9 51  1  6
 10 14  2  0
 10 11  1  0
 11 12  2  0
 11 52  1  0
 12 13  1  0
 12 53  1  0
 13 14  1  0
 14 54  1  0
 15 16  1  0
 15 17  1  0
 15 55  1  1
 16 56  1  0
 17 18  1  0
 17 57  1  0
 17 58  1  0
 18 19  1  6
 18 20  1  0
 19 59  1  0
 19 60  1  0
 19 61  1  0
 20 21  1  0
 20 62  1  1
 21 22  1  0
 21 63  1  0
 21 64  1  0
 22 23  1  0
 22 65  1  0
 22 66  1  0
 23 24  1  0
 23 67  1  6
 24 39  1  0
 24 25  1  0
 24 68  1  1
 25 26  1  0
 26 39  1  0
 26 27  1  6
 26 28  1  0
 27 69  1  0
 27 70  1  0
 27 71  1  0
 28 36  1  0
 28 29  1  0
 28 72  1  6
 29 30  1  0
 29 73  1  0
 29 74  1  0
 30 31  1  0
 30 75  1  0
 30 76  1  0
 31 32  1  0
 31 33  1  0
 31 77  1  1
 32 78  1  0
 33 34  1  0
 33 35  1  0
 33 36  1  0
 34 79  1  0
 34 80  1  0
 34 81  1  0
 35 82  1  0
 35 83  1  0
 35 84  1  0
 36 37  1  0
 36 85  1  6
 37 38  2  0
 37 86  1  0
 39 38  1  1
 38 87  1  0
M  END
>  <i_m_ct_stereo_status>  (153) 
1

>  <s_m_source_file>  (153) 
/var/tmp/pbs.5076255.sched01/tmp323fbwsu/45qgza_o8k.sdf

>  <i_m_source_file_index>  (153) 
16

>  <i_lp_mmshare_version>  (153) 
48012

>  <i_f3d_flags>  (153) 
0

>  <s_epik_input>  (153) 
W0NIMl0xW0NIMl1bQ0BASF0oW09IXSlDKFtDSDNdKShbQ0gzXSlbQ0BIXShbQ0hdPVtDSF0yKVtDQEBIXTFbQ0BdMyhbQ0gzXSlPW0NASF00W0NAQEhdKFtDQEhdNVtDQF02KFtDQEBdMjM0KU9bQ0gzXSlbQ0gyXVtDSDJdW0NASF02W0NAQF03KFtDSDNdKVtDQEBdKFtDSDNdKShbQ0gyXVtDSDJdNSlbQ0BIXShbQ0BASF0oW09IXSlbQ0gyXTcpYzhbY0hdW2NIXW9bY0hdOA==

>  <s_epik_cmdline>  (153) 
J2VwaWtfcHl0aG9uJywgJy1waHQnLCAnMi4wJywgJy1waCcsICc3LjAnLCAnLXRuJywgJzgnLCAnLW1hJywgJzIwMCcsICctaW1hZScsICc8aW5maWxlLm1hZT4nLCAnLW9tYWUnLCAnPG91dGZpbGUubWFlPic=

>  <r_lp_tautomer_probability>  (153) 
1

>  <r_epik_Ionization_Penalty>  (153) 
1.51915e-06

>  <r_epik_Ionization_Penalty_Charging>  (153) 
0

>  <r_epik_Ionization_Penalty_Neutral>  (153) 
1.51915e-06

>  <r_epik_State_Penalty>  (153) 
-0

>  <r_epik_Charging_Adjusted_Penalty>  (153) 
0

>  <i_epik_Tot_Q>  (153) 
0

>  <i_epik_Tot_abs_Q>  (153) 
0

>  <s_lp_Force_Field>  (153) 
OPLS3e

>  <r_lp_Energy>  (153) 
112.116

>  <b_lp_Chiralities_Consistent>  (153) 
1

>  <s_lp_Variant>  (153) 
42:0-1

>  <s_i_glide_gridfile>  (153) 
pfpi4k_grid

>  <i_i_glide_lignum>  (153) 
16

>  <i_i_glide_rotatable_bonds>  (153) 
4

>  <r_i_docking_score>  (153) 
-2.34742

>  <r_i_glide_ligand_efficiency>  (153) 
-0.0601902

>  <r_i_glide_ligand_efficiency_sa>  (153) 
-0.204118

>  <r_i_glide_ligand_efficiency_ln>  (153) 
-0.503353

>  <r_i_glide_gscore>  (153) 
-2.34742

>  <r_i_glide_lipo>  (153) 
-0.377504

>  <r_i_glide_hbond>  (153) 
-0.158978

>  <r_i_glide_metal>  (153) 
-0

>  <r_i_glide_rewards>  (153) 
0

>  <r_i_glide_evdw>  (153) 
-26.0672

>  <r_i_glide_ecoul>  (153) 
-3.86174

>  <r_i_glide_erotb>  (153) 
0.0716865

>  <r_i_glide_esite>  (153) 
0

>  <r_i_glide_emodel>  (153) 
-30.512

>  <r_i_glide_energy>  (153) 
-29.9289

>  <r_i_glide_einternal>  (153) 
4.22326

>  <r_i_glide_intrahb_reward>  (153) 
-0

>  <i_i_glide_confnum>  (153) 
2

>  <i_i_glide_posenum>  (153) 
9

>  <r_i_glide_eff_state_penalty>  (153) 
0

>  <ligand_id>  (153) 
42

>  <original_smiles>  (153) 
COC12C3CCC4(C)C(c5ccoc5)C(O)CC4(C)C1CCC3C1OC3(C)C4CCC(O)C(C)(C)C4C=CC132

>  <smiles>  (153) 
[H]OC1([H])C([H])([H])C2(C([H])([H])[H])C3([H])C([H])([H])C([H])([H])C4([H])C5([H])OC6(C([H])([H])[H])C7([H])C([H])([H])C([H])([H])C([H])(O[H])C(C([H])([H])[H])(C([H])([H])[H])C7([H])C([H])=C([H])C56C3(OC([H])([H])[H])C4([H])C([H])([H])C([H])([H])C2(C([H])([H])[H])C1([H])c1c([H])oc([H])c1[H]

$$$$
43:0:0
     RDKit          3D

 59 63  0  0  1  0  0  0  0  0999 V2000
    3.4229   -2.3286   -0.2966 C   0  0  0  0  0  0  0  0  0  0  0  0
    4.5288   -2.5356   -1.3628 C   0  0  0  0  0  0  0  0  0  0  0  0
    3.9678   -2.1910   -2.7560 C   0  0  0  0  0  0  0  0  0  0  0  0
    5.7425   -1.6307   -1.0965 C   0  0  0  0  0  0  0  0  0  0  0  0
    6.4998   -1.9914    0.1785 C   0  0  0  0  0  0  0  0  0  0  0  0
    7.0223   -1.1036    0.8429 O   0  0  0  0  0  0  0  0  0  0  0  0
    6.6512   -3.4647    0.5909 C   0  0  2  0  0  0  0  0  0  0  0  0
    8.0910   -3.9969    0.4357 C   0  0  0  0  0  0  0  0  0  0  0  0
    8.2311   -5.4864    0.8219 C   0  0  0  0  0  0  0  0  0  0  0  0
    7.3006   -5.9090    1.9455 C   0  0  0  0  0  0  0  0  0  0  0  0
    5.9459   -5.9499    1.8625 C   0  0  0  0  0  0  0  0  0  0  0  0
    5.2728   -5.5672    0.6194 C   0  0  0  0  0  0  0  0  0  0  0  0
    5.6110   -4.4148   -0.0182 C   0  0  0  0  0  0  0  0  0  0  0  0
    5.0276   -3.9914   -1.3646 C   0  0  0  0  0  0  0  0  0  0  0  0
    4.2026   -6.5265    0.1023 C   0  0  0  0  0  0  0  0  0  0  0  0
    3.6450   -7.4939    1.1660 C   0  0  2  0  0  0  0  0  0  0  0  0
    2.4824   -7.0643    2.0813 C   0  0  2  0  0  0  0  0  0  0  0  0
    2.5673   -5.6035    2.5582 C   0  0  0  0  0  0  0  0  0  0  0  0
    3.9360   -5.2877    3.2314 C   0  0  0  0  0  0  0  0  0  0  0  0
    5.0302   -6.3934    3.0108 C   0  0  2  0  0  0  0  0  0  0  0  0
    5.7991   -6.6214    4.3369 C   0  0  0  0  0  0  0  0  0  0  0  0
    4.3702   -7.7032    2.5111 C   0  0  1  0  0  0  0  0  0  0  0  0
    2.9827   -8.1570    3.0685 C   0  0  0  0  0  0  0  0  0  0  0  0
    2.6771   -7.9689    4.5636 C   0  0  0  0  0  0  0  0  0  0  0  0
    2.5529   -9.6223    2.8034 C   0  0  0  0  0  0  0  0  0  0  0  0
    3.0499   -1.3013   -0.2993 H   0  0  0  0  0  0  0  0  0  0  0  0
    3.7763   -2.5351    0.7155 H   0  0  0  0  0  0  0  0  0  0  0  0
    2.5726   -2.9879   -0.4780 H   0  0  0  0  0  0  0  0  0  0  0  0
    4.7263   -2.3361   -3.5264 H   0  0  0  0  0  0  0  0  0  0  0  0
    3.6390   -1.1509   -2.8080 H   0  0  0  0  0  0  0  0  0  0  0  0
    3.1146   -2.8225   -3.0083 H   0  0  0  0  0  0  0  0  0  0  0  0
    6.4378   -1.7007   -1.9312 H   0  0  0  0  0  0  0  0  0  0  0  0
    5.4181   -0.5907   -1.0376 H   0  0  0  0  0  0  0  0  0  0  0  0
    6.4416   -3.4430    1.6607 H   0  0  0  0  0  0  0  0  0  0  0  0
    8.4464   -3.8517   -0.5849 H   0  0  0  0  0  0  0  0  0  0  0  0
    8.7546   -3.4072    1.0683 H   0  0  0  0  0  0  0  0  0  0  0  0
    8.0168   -6.1238   -0.0344 H   0  0  0  0  0  0  0  0  0  0  0  0
    9.2592   -5.7145    1.1052 H   0  0  0  0  0  0  0  0  0  0  0  0
    7.8116   -6.2017    2.8506 H   0  0  0  0  0  0  0  0  0  0  0  0
    4.2217   -4.6429   -1.6857 H   0  0  0  0  0  0  0  0  0  0  0  0
    5.8141   -4.1022   -2.1121 H   0  0  0  0  0  0  0  0  0  0  0  0
    3.3675   -5.9514   -0.2967 H   0  0  0  0  0  0  0  0  0  0  0  0
    4.6107   -7.0790   -0.7424 H   0  0  0  0  0  0  0  0  0  0  0  0
    3.4280   -8.4376    0.6739 H   0  0  0  0  0  0  0  0  0  0  0  0
    1.5146   -7.3248    1.6464 H   0  0  0  0  0  0  0  0  0  0  0  0
    2.4223   -4.9356    1.7066 H   0  0  0  0  0  0  0  0  0  0  0  0
    1.7499   -5.3862    3.2463 H   0  0  0  0  0  0  0  0  0  0  0  0
    4.2921   -4.3107    2.8983 H   0  0  0  0  0  0  0  0  0  0  0  0
    3.7640   -5.1470    4.2981 H   0  0  0  0  0  0  0  0  0  0  0  0
    5.1331   -6.8798    5.1578 H   0  0  0  0  0  0  0  0  0  0  0  0
    6.3284   -5.7151    4.6347 H   0  0  0  0  0  0  0  0  0  0  0  0
    6.5256   -7.4298    4.2558 H   0  0  0  0  0  0  0  0  0  0  0  0
    5.0708   -8.5395    2.4449 H   0  0  0  0  0  0  0  0  0  0  0  0
    3.3153   -8.6024    5.1826 H   0  0  0  0  0  0  0  0  0  0  0  0
    1.6401   -8.2186    4.7959 H   0  0  0  0  0  0  0  0  0  0  0  0
    2.8162   -6.9500    4.9134 H   0  0  0  0  0  0  0  0  0  0  0  0
    3.0880  -10.3139    3.4564 H   0  0  0  0  0  0  0  0  0  0  0  0
    2.7245   -9.9861    1.7919 H   0  0  0  0  0  0  0  0  0  0  0  0
    1.4873   -9.7621    2.9941 H   0  0  0  0  0  0  0  0  0  0  0  0
  1  2  1  0
  1 26  1  0
  1 27  1  0
  1 28  1  0
  2 14  1  0
  2  3  1  0
  2  4  1  0
  3 29  1  0
  3 30  1  0
  3 31  1  0
  4  5  1  0
  4 32  1  0
  4 33  1  0
  5  6  2  0
  5  7  1  0
  7 13  1  0
  7  8  1  0
  7 34  1  1
  8  9  1  0
  8 35  1  0
  8 36  1  0
  9 10  1  0
  9 37  1  0
  9 38  1  0
 10 11  2  0
 10 39  1  0
 11 20  1  0
 11 12  1  0
 12 13  2  0
 12 15  1  0
 13 14  1  0
 14 40  1  0
 14 41  1  0
 15 16  1  0
 15 42  1  0
 15 43  1  0
 16 22  1  0
 16 17  1  0
 16 44  1  6
 17 23  1  0
 17 18  1  0
 17 45  1  6
 18 19  1  0
 18 46  1  0
 18 47  1  0
 19 20  1  0
 19 48  1  0
 19 49  1  0
 20 21  1  1
 20 22  1  0
 21 50  1  0
 21 51  1  0
 21 52  1  0
 22 23  1  0
 22 53  1  6
 23 24  1  0
 23 25  1  0
 24 54  1  0
 24 55  1  0
 24 56  1  0
 25 57  1  0
 25 58  1  0
 25 59  1  0
M  END
>  <i_m_ct_stereo_status>  (154) 
1

>  <s_m_source_file>  (154) 
/var/tmp/pbs.5076255.sched01/tmp323fbwsu/45qgza_o8k.sdf

>  <i_m_source_file_index>  (154) 
17

>  <i_lp_mmshare_version>  (154) 
48012

>  <i_f3d_flags>  (154) 
0

>  <s_epik_input>  (154) 
W0NIM11DKFtDSDNdKShbQ0gyXTEpW0NIMl1DKD1PKVtDQEhdKFtDSDJdW0NIMl1bQ0hdPTIpQzE9QyhDMltDQEBdMzRbQ0gzXSlbQ0gyXVtDQEBIXTVbQ0BIXShbQ0gyXVtDSDJdMylDKFtDQEhdNDUpKFtDSDNdKVtDSDNd

>  <s_epik_cmdline>  (154) 
J2VwaWtfcHl0aG9uJywgJy1waHQnLCAnMi4wJywgJy1waCcsICc3LjAnLCAnLXRuJywgJzgnLCAnLW1hJywgJzIwMCcsICctaW1hZScsICc8aW5maWxlLm1hZT4nLCAnLW9tYWUnLCAnPG91dGZpbGUubWFlPic=

>  <r_lp_tautomer_probability>  (154) 
1

>  <r_epik_Ionization_Penalty>  (154) 
1.57738e-13

>  <r_epik_Ionization_Penalty_Charging>  (154) 
0

>  <r_epik_Ionization_Penalty_Neutral>  (154) 
1.57738e-13

>  <r_epik_State_Penalty>  (154) 
-0

>  <r_epik_Charging_Adjusted_Penalty>  (154) 
0

>  <i_epik_Tot_Q>  (154) 
0

>  <i_epik_Tot_abs_Q>  (154) 
0

>  <s_lp_Force_Field>  (154) 
OPLS3e

>  <r_lp_Energy>  (154) 
75.9816

>  <b_lp_Chiralities_Consistent>  (154) 
1

>  <s_lp_Variant>  (154) 
43:0-1

>  <s_i_glide_gridfile>  (154) 
pfpi4k_grid

>  <i_i_glide_lignum>  (154) 
17

>  <i_i_glide_rotatable_bonds>  (154) 
0

>  <r_i_docking_score>  (154) 
-3.01091

>  <r_i_glide_ligand_efficiency>  (154) 
-0.120436

>  <r_i_glide_ligand_efficiency_sa>  (154) 
-0.352158

>  <r_i_glide_ligand_efficiency_ln>  (154) 
-0.713675

>  <r_i_glide_gscore>  (154) 
-3.01091

>  <r_i_glide_lipo>  (154) 
-0.828663

>  <r_i_glide_hbond>  (154) 
0

>  <r_i_glide_metal>  (154) 
-0

>  <r_i_glide_rewards>  (154) 
-1.1087

>  <r_i_glide_evdw>  (154) 
-22.1178

>  <r_i_glide_ecoul>  (154) 
0.215627

>  <r_i_glide_erotb>  (154) 
0

>  <r_i_glide_esite>  (154) 
0

>  <r_i_glide_emodel>  (154) 
-25.9002

>  <r_i_glide_energy>  (154) 
-21.9022

>  <r_i_glide_einternal>  (154) 
0

>  <r_i_glide_intrahb_reward>  (154) 
-0

>  <i_i_glide_confnum>  (154) 
1

>  <i_i_glide_posenum>  (154) 
24

>  <r_i_glide_eff_state_penalty>  (154) 
0

>  <ligand_id>  (154) 
43

>  <original_smiles>  (154) 
CC1(C)CC(=O)C2CCC=C3C(=C2C1)CC1C2CCC3(C)C1C2(C)C

>  <smiles>  (154) 
[H]C1=C2C(=C3C([H])([H])C(C([H])([H])[H])(C([H])([H])[H])C([H])([H])C(=O)C3([H])C([H])([H])C1([H])[H])C([H])([H])C1([H])C3([H])C([H])([H])C([H])([H])C2(C([H])([H])[H])C1([H])C3(C([H])([H])[H])C([H])([H])[H]

$$$$
43:0:1
     RDKit          3D

 59 63  0  0  1  0  0  0  0  0999 V2000
    4.4211   -1.4024   -1.0117 C   0  0  0  0  0  0  0  0  0  0  0  0
    4.8696   -2.7264   -1.6881 C   0  0  0  0  0  0  0  0  0  0  0  0
    4.2874   -2.7922   -3.1136 C   0  0  0  0  0  0  0  0  0  0  0  0
    6.4033   -2.8189   -1.7898 C   0  0  0  0  0  0  0  0  0  0  0  0
    7.0939   -2.9347   -0.4311 C   0  0  0  0  0  0  0  0  0  0  0  0
    8.1743   -2.3773   -0.2461 O   0  0  0  0  0  0  0  0  0  0  0  0
    6.4351   -3.7567    0.6899 C   0  0  2  0  0  0  0  0  0  0  0  0
    7.1768   -5.0721    0.9991 C   0  0  0  0  0  0  0  0  0  0  0  0
    6.4897   -5.9112    2.0978 C   0  0  0  0  0  0  0  0  0  0  0  0
    5.8125   -5.0678    3.1703 C   0  0  0  0  0  0  0  0  0  0  0  0
    4.7401   -4.2664    2.9668 C   0  0  0  0  0  0  0  0  0  0  0  0
    4.1392   -4.1681    1.6357 C   0  0  0  0  0  0  0  0  0  0  0  0
    4.9184   -3.9650    0.5422 C   0  0  0  0  0  0  0  0  0  0  0  0
    4.3789   -3.9462   -0.8884 C   0  0  0  0  0  0  0  0  0  0  0  0
    2.6188   -4.3217    1.5633 C   0  0  0  0  0  0  0  0  0  0  0  0
    1.8889   -4.0750    2.9011 C   0  0  2  0  0  0  0  0  0  0  0  0
    1.4975   -2.6484    3.3340 C   0  0  2  0  0  0  0  0  0  0  0  0
    2.5512   -1.5794    2.9993 C   0  0  0  0  0  0  0  0  0  0  0  0
    3.9550   -1.9469    3.5666 C   0  0  0  0  0  0  0  0  0  0  0  0
    4.0738   -3.4309    4.0702 C   0  0  2  0  0  0  0  0  0  0  0  0
    4.8648   -3.4541    5.4030 C   0  0  0  0  0  0  0  0  0  0  0  0
    2.6629   -4.0522    4.2389 C   0  0  1  0  0  0  0  0  0  0  0  0
    1.4819   -3.1943    4.7893 C   0  0  0  0  0  0  0  0  0  0  0  0
    1.7460   -2.1958    5.9317 C   0  0  0  0  0  0  0  0  0  0  0  0
    0.2178   -3.9471    5.2698 C   0  0  0  0  0  0  0  0  0  0  0  0
    4.7454   -0.5280   -1.5794 H   0  0  0  0  0  0  0  0  0  0  0  0
    4.8255   -1.2927   -0.0023 H   0  0  0  0  0  0  0  0  0  0  0  0
    3.3336   -1.3523   -0.9197 H   0  0  0  0  0  0  0  0  0  0  0  0
    4.5799   -3.7206   -3.6064 H   0  0  0  0  0  0  0  0  0  0  0  0
    4.6408   -1.9645   -3.7289 H   0  0  0  0  0  0  0  0  0  0  0  0
    3.1970   -2.7586   -3.1008 H   0  0  0  0  0  0  0  0  0  0  0  0
    6.6873   -3.6812   -2.3938 H   0  0  0  0  0  0  0  0  0  0  0  0
    6.7897   -1.9457   -2.3093 H   0  0  0  0  0  0  0  0  0  0  0  0
    6.5596   -3.1195    1.5661 H   0  0  0  0  0  0  0  0  0  0  0  0
    7.2702   -5.6811    0.1006 H   0  0  0  0  0  0  0  0  0  0  0  0
    8.1946   -4.8389    1.3125 H   0  0  0  0  0  0  0  0  0  0  0  0
    5.7298   -6.5558    1.6536 H   0  0  0  0  0  0  0  0  0  0  0  0
    7.2116   -6.5788    2.5691 H   0  0  0  0  0  0  0  0  0  0  0  0
    6.2616   -5.1600    4.1486 H   0  0  0  0  0  0  0  0  0  0  0  0
    3.2936   -3.9916   -0.9310 H   0  0  0  0  0  0  0  0  0  0  0  0
    4.7234   -4.8612   -1.3746 H   0  0  0  0  0  0  0  0  0  0  0  0
    2.2236   -3.6135    0.8348 H   0  0  0  0  0  0  0  0  0  0  0  0
    2.4038   -5.3197    1.1769 H   0  0  0  0  0  0  0  0  0  0  0  0
    1.0258   -4.7347    2.9282 H   0  0  0  0  0  0  0  0  0  0  0  0
    0.4966   -2.3849    2.9895 H   0  0  0  0  0  0  0  0  0  0  0  0
    2.6154   -1.4630    1.9155 H   0  0  0  0  0  0  0  0  0  0  0  0
    2.2317   -0.6092    3.3796 H   0  0  0  0  0  0  0  0  0  0  0  0
    4.7207   -1.7217    2.8228 H   0  0  0  0  0  0  0  0  0  0  0  0
    4.1795   -1.2614    4.3823 H   0  0  0  0  0  0  0  0  0  0  0  0
    4.4157   -2.8124    6.1591 H   0  0  0  0  0  0  0  0  0  0  0  0
    5.8815   -3.0922    5.2522 H   0  0  0  0  0  0  0  0  0  0  0  0
    4.9198   -4.4542    5.8323 H   0  0  0  0  0  0  0  0  0  0  0  0
    2.6841   -5.0457    4.6916 H   0  0  0  0  0  0  0  0  0  0  0  0
    2.0170   -2.7097    6.8567 H   0  0  0  0  0  0  0  0  0  0  0  0
    0.8685   -1.5794    6.1382 H   0  0  0  0  0  0  0  0  0  0  0  0
    2.5468   -1.4937    5.7209 H   0  0  0  0  0  0  0  0  0  0  0  0
    0.3839   -4.4180    6.2393 H   0  0  0  0  0  0  0  0  0  0  0  0
   -0.1248   -4.7429    4.6126 H   0  0  0  0  0  0  0  0  0  0  0  0
   -0.6233   -3.2631    5.3823 H   0  0  0  0  0  0  0  0  0  0  0  0
  1  2  1  0
  1 26  1  0
  1 27  1  0
  1 28  1  0
  2 14  1  0
  2  3  1  0
  2  4  1  0
  3 29  1  0
  3 30  1  0
  3 31  1  0
  4  5  1  0
  4 32  1  0
  4 33  1  0
  5  6  2  0
  5  7  1  0
  7 13  1  0
  7  8  1  0
  7 34  1  1
  8  9  1  0
  8 35  1  0
  8 36  1  0
  9 10  1  0
  9 37  1  0
  9 38  1  0
 10 11  2  0
 10 39  1  0
 11 20  1  0
 11 12  1  0
 12 13  2  0
 12 15  1  0
 13 14  1  0
 14 40  1  0
 14 41  1  0
 15 16  1  0
 15 42  1  0
 15 43  1  0
 16 22  1  0
 16 17  1  0
 16 44  1  1
 17 23  1  0
 17 18  1  0
 17 45  1  6
 18 19  1  0
 18 46  1  0
 18 47  1  0
 19 20  1  0
 19 48  1  0
 19 49  1  0
 20 21  1  1
 20 22  1  0
 21 50  1  0
 21 51  1  0
 21 52  1  0
 22 23  1  0
 22 53  1  1
 23 24  1  0
 23 25  1  0
 24 54  1  0
 24 55  1  0
 24 56  1  0
 25 57  1  0
 25 58  1  0
 25 59  1  0
M  END
>  <i_m_ct_stereo_status>  (155) 
1

>  <s_m_source_file>  (155) 
/var/tmp/pbs.5076255.sched01/tmp323fbwsu/45qgza_o8k.sdf

>  <i_m_source_file_index>  (155) 
17

>  <i_lp_mmshare_version>  (155) 
48012

>  <i_f3d_flags>  (155) 
0

>  <s_epik_input>  (155) 
W0NIM11DKFtDSDNdKShbQ0gyXTEpW0NIMl1DKD1PKVtDQEhdKFtDSDJdW0NIMl1bQ0hdPTIpQzE9QyhDMltDQEBdMzRbQ0gzXSlbQ0gyXVtDQEBIXTVbQ0BIXShbQ0gyXVtDSDJdMylDKFtDQEhdNDUpKFtDSDNdKVtDSDNd

>  <s_epik_cmdline>  (155) 
J2VwaWtfcHl0aG9uJywgJy1waHQnLCAnMi4wJywgJy1waCcsICc3LjAnLCAnLXRuJywgJzgnLCAnLW1hJywgJzIwMCcsICctaW1hZScsICc8aW5maWxlLm1hZT4nLCAnLW9tYWUnLCAnPG91dGZpbGUubWFlPic=

>  <r_lp_tautomer_probability>  (155) 
1

>  <r_epik_Ionization_Penalty>  (155) 
1.57738e-13

>  <r_epik_Ionization_Penalty_Charging>  (155) 
0

>  <r_epik_Ionization_Penalty_Neutral>  (155) 
1.57738e-13

>  <r_epik_State_Penalty>  (155) 
-0

>  <r_epik_Charging_Adjusted_Penalty>  (155) 
0

>  <i_epik_Tot_Q>  (155) 
0

>  <i_epik_Tot_abs_Q>  (155) 
0

>  <s_lp_Force_Field>  (155) 
OPLS3e

>  <r_lp_Energy>  (155) 
75.9816

>  <b_lp_Chiralities_Consistent>  (155) 
1

>  <s_lp_Variant>  (155) 
43:0-1

>  <s_i_glide_gridfile>  (155) 
pfpi4k_grid

>  <i_i_glide_lignum>  (155) 
17

>  <i_i_glide_rotatable_bonds>  (155) 
0

>  <r_i_docking_score>  (155) 
-2.81744

>  <r_i_glide_ligand_efficiency>  (155) 
-0.112698

>  <r_i_glide_ligand_efficiency_sa>  (155) 
-0.32953

>  <r_i_glide_ligand_efficiency_ln>  (155) 
-0.667818

>  <r_i_glide_gscore>  (155) 
-2.81744

>  <r_i_glide_lipo>  (155) 
-0.494854

>  <r_i_glide_hbond>  (155) 
-0.0480785

>  <r_i_glide_metal>  (155) 
-0

>  <r_i_glide_rewards>  (155) 
-1.16932

>  <r_i_glide_evdw>  (155) 
-21.4959

>  <r_i_glide_ecoul>  (155) 
-0.202621

>  <r_i_glide_erotb>  (155) 
0

>  <r_i_glide_esite>  (155) 
0

>  <r_i_glide_emodel>  (155) 
-25.4451

>  <r_i_glide_energy>  (155) 
-21.6985

>  <r_i_glide_einternal>  (155) 
0

>  <r_i_glide_intrahb_reward>  (155) 
-0

>  <i_i_glide_confnum>  (155) 
1

>  <i_i_glide_posenum>  (155) 
5

>  <r_i_glide_eff_state_penalty>  (155) 
0

>  <ligand_id>  (155) 
43

>  <original_smiles>  (155) 
CC1(C)CC(=O)C2CCC=C3C(=C2C1)CC1C2CCC3(C)C1C2(C)C

>  <smiles>  (155) 
[H]C1=C2C(=C3C([H])([H])C(C([H])([H])[H])(C([H])([H])[H])C([H])([H])C(=O)C3([H])C([H])([H])C1([H])[H])C([H])([H])C1([H])C3([H])C([H])([H])C([H])([H])C2(C([H])([H])[H])C1([H])C3(C([H])([H])[H])C([H])([H])[H]

$$$$
43:0:2
     RDKit          3D

 59 63  0  0  1  0  0  0  0  0999 V2000
    4.1589   -1.8836   -0.6219 C   0  0  0  0  0  0  0  0  0  0  0  0
    4.9493   -2.8579   -1.5359 C   0  0  0  0  0  0  0  0  0  0  0  0
    4.3781   -2.7871   -2.9654 C   0  0  0  0  0  0  0  0  0  0  0  0
    6.4445   -2.4967   -1.5951 C   0  0  0  0  0  0  0  0  0  0  0  0
    7.1663   -2.6869   -0.2617 C   0  0  0  0  0  0  0  0  0  0  0  0
    8.0499   -1.9009    0.0735 O   0  0  0  0  0  0  0  0  0  0  0  0
    6.7941   -3.8774    0.6413 C   0  0  2  0  0  0  0  0  0  0  0  0
    7.8909   -4.9604    0.7039 C   0  0  0  0  0  0  0  0  0  0  0  0
    7.4886   -6.1724    1.5721 C   0  0  0  0  0  0  0  0  0  0  0  0
    6.6259   -5.7984    2.7675 C   0  0  0  0  0  0  0  0  0  0  0  0
    5.3625   -5.3070    2.6937 C   0  0  0  0  0  0  0  0  0  0  0  0
    4.7273   -5.1076    1.3907 C   0  0  0  0  0  0  0  0  0  0  0  0
    5.3956   -4.4675    0.3923 C   0  0  0  0  0  0  0  0  0  0  0  0
    4.8377   -4.3028   -1.0185 C   0  0  0  0  0  0  0  0  0  0  0  0
    3.3124   -5.6631    1.2288 C   0  0  0  0  0  0  0  0  0  0  0  0
    2.5711   -5.9131    2.5588 C   0  0  2  0  0  0  0  0  0  0  0  0
    1.8013   -4.7757    3.2587 C   0  0  2  0  0  0  0  0  0  0  0  0
    2.5039   -3.4086    3.1937 C   0  0  0  0  0  0  0  0  0  0  0  0
    3.9666   -3.4774    3.7254 C   0  0  0  0  0  0  0  0  0  0  0  0
    4.5111   -4.9391    3.9166 C   0  0  2  0  0  0  0  0  0  0  0  0
    5.3048   -5.0158    5.2462 C   0  0  0  0  0  0  0  0  0  0  0  0
    3.3368   -5.9517    3.9004 C   0  0  1  0  0  0  0  0  0  0  0  0
    1.9719   -5.5943    4.5703 C   0  0  0  0  0  0  0  0  0  0  0  0
    1.9669   -4.8264    5.9022 C   0  0  0  0  0  0  0  0  0  0  0  0
    0.9835   -6.7568    4.8351 C   0  0  0  0  0  0  0  0  0  0  0  0
    4.2124   -0.8550   -0.9865 H   0  0  0  0  0  0  0  0  0  0  0  0
    4.5358   -1.8764    0.4032 H   0  0  0  0  0  0  0  0  0  0  0  0
    3.1026   -2.1572   -0.5669 H   0  0  0  0  0  0  0  0  0  0  0  0
    4.9104   -3.4699   -3.6286 H   0  0  0  0  0  0  0  0  0  0  0  0
    4.4699   -1.7826   -3.3819 H   0  0  0  0  0  0  0  0  0  0  0  0
    3.3224   -3.0628   -2.9883 H   0  0  0  0  0  0  0  0  0  0  0  0
    6.9481   -3.1051   -2.3486 H   0  0  0  0  0  0  0  0  0  0  0  0
    6.5403   -1.4594   -1.9099 H   0  0  0  0  0  0  0  0  0  0  0  0
    6.7504   -3.4274    1.6339 H   0  0  0  0  0  0  0  0  0  0  0  0
    8.1601   -5.3063   -0.2935 H   0  0  0  0  0  0  0  0  0  0  0  0
    8.8006   -4.5164    1.1096 H   0  0  0  0  0  0  0  0  0  0  0  0
    6.9330   -6.8947    0.9728 H   0  0  0  0  0  0  0  0  0  0  0  0
    8.3798   -6.6952    1.9218 H   0  0  0  0  0  0  0  0  0  0  0  0
    7.1049   -5.9569    3.7226 H   0  0  0  0  0  0  0  0  0  0  0  0
    3.8076   -4.6369   -1.1091 H   0  0  0  0  0  0  0  0  0  0  0  0
    5.4096   -4.9623   -1.6698 H   0  0  0  0  0  0  0  0  0  0  0  0
    2.7150   -4.9643    0.6429 H   0  0  0  0  0  0  0  0  0  0  0  0
    3.3792   -6.5788    0.6382 H   0  0  0  0  0  0  0  0  0  0  0  0
    1.9326   -6.7802    2.4168 H   0  0  0  0  0  0  0  0  0  0  0  0
    0.7579   -4.7421    2.9387 H   0  0  0  0  0  0  0  0  0  0  0  0
    2.5101   -3.0547    2.1605 H   0  0  0  0  0  0  0  0  0  0  0  0
    1.9320   -2.6681    3.7538 H   0  0  0  0  0  0  0  0  0  0  0  0
    4.6212   -2.8949    3.0748 H   0  0  0  0  0  0  0  0  0  0  0  0
    4.0068   -2.9417    4.6730 H   0  0  0  0  0  0  0  0  0  0  0  0
    4.7078   -4.7001    6.0991 H   0  0  0  0  0  0  0  0  0  0  0  0
    6.1753   -4.3596    5.2131 H   0  0  0  0  0  0  0  0  0  0  0  0
    5.6483   -6.0271    5.4604 H   0  0  0  0  0  0  0  0  0  0  0  0
    3.6482   -6.9723    4.1387 H   0  0  0  0  0  0  0  0  0  0  0  0
    2.3914   -5.4262    6.7100 H   0  0  0  0  0  0  0  0  0  0  0  0
    0.9554   -4.5424    6.1981 H   0  0  0  0  0  0  0  0  0  0  0  0
    2.5317   -3.8990    5.8733 H   0  0  0  0  0  0  0  0  0  0  0  0
    1.2979   -7.3528    5.6943 H   0  0  0  0  0  0  0  0  0  0  0  0
    0.8675   -7.4654    4.0172 H   0  0  0  0  0  0  0  0  0  0  0  0
   -0.0179   -6.3820    5.0540 H   0  0  0  0  0  0  0  0  0  0  0  0
  1  2  1  0
  1 26  1  0
  1 27  1  0
  1 28  1  0
  2 14  1  0
  2  3  1  0
  2  4  1  0
  3 29  1  0
  3 30  1  0
  3 31  1  0
  4  5  1  0
  4 32  1  0
  4 33  1  0
  5  6  2  0
  5  7  1  0
  7 13  1  0
  7  8  1  0
  7 34  1  1
  8  9  1  0
  8 35  1  0
  8 36  1  0
  9 10  1  0
  9 37  1  0
  9 38  1  0
 10 11  2  0
 10 39  1  0
 11 20  1  0
 11 12  1  0
 12 13  2  0
 12 15  1  0
 13 14  1  0
 14 40  1  0
 14 41  1  0
 15 16  1  0
 15 42  1  0
 15 43  1  0
 16 22  1  0
 16 17  1  0
 16 44  1  6
 17 23  1  0
 17 18  1  0
 17 45  1  6
 18 19  1  0
 18 46  1  0
 18 47  1  0
 19 20  1  0
 19 48  1  0
 19 49  1  0
 20 21  1  1
 20 22  1  0
 21 50  1  0
 21 51  1  0
 21 52  1  0
 22 23  1  0
 22 53  1  1
 23 24  1  0
 23 25  1  0
 24 54  1  0
 24 55  1  0
 24 56  1  0
 25 57  1  0
 25 58  1  0
 25 59  1  0
M  END
>  <i_m_ct_stereo_status>  (156) 
1

>  <s_m_source_file>  (156) 
/var/tmp/pbs.5076255.sched01/tmp323fbwsu/45qgza_o8k.sdf

>  <i_m_source_file_index>  (156) 
17

>  <i_lp_mmshare_version>  (156) 
48012

>  <i_f3d_flags>  (156) 
0

>  <s_epik_input>  (156) 
W0NIM11DKFtDSDNdKShbQ0gyXTEpW0NIMl1DKD1PKVtDQEhdKFtDSDJdW0NIMl1bQ0hdPTIpQzE9QyhDMltDQEBdMzRbQ0gzXSlbQ0gyXVtDQEBIXTVbQ0BIXShbQ0gyXVtDSDJdMylDKFtDQEhdNDUpKFtDSDNdKVtDSDNd

>  <s_epik_cmdline>  (156) 
J2VwaWtfcHl0aG9uJywgJy1waHQnLCAnMi4wJywgJy1waCcsICc3LjAnLCAnLXRuJywgJzgnLCAnLW1hJywgJzIwMCcsICctaW1hZScsICc8aW5maWxlLm1hZT4nLCAnLW9tYWUnLCAnPG91dGZpbGUubWFlPic=

>  <r_lp_tautomer_probability>  (156) 
1

>  <r_epik_Ionization_Penalty>  (156) 
1.57738e-13

>  <r_epik_Ionization_Penalty_Charging>  (156) 
0

>  <r_epik_Ionization_Penalty_Neutral>  (156) 
1.57738e-13

>  <r_epik_State_Penalty>  (156) 
-0

>  <r_epik_Charging_Adjusted_Penalty>  (156) 
0

>  <i_epik_Tot_Q>  (156) 
0

>  <i_epik_Tot_abs_Q>  (156) 
0

>  <s_lp_Force_Field>  (156) 
OPLS3e

>  <r_lp_Energy>  (156) 
75.9816

>  <b_lp_Chiralities_Consistent>  (156) 
1

>  <s_lp_Variant>  (156) 
43:0-1

>  <s_i_glide_gridfile>  (156) 
pfpi4k_grid

>  <i_i_glide_lignum>  (156) 
17

>  <i_i_glide_rotatable_bonds>  (156) 
0

>  <r_i_docking_score>  (156) 
-2.80874

>  <r_i_glide_ligand_efficiency>  (156) 
-0.112349

>  <r_i_glide_ligand_efficiency_sa>  (156) 
-0.328512

>  <r_i_glide_ligand_efficiency_ln>  (156) 
-0.665755

>  <r_i_glide_gscore>  (156) 
-2.80874

>  <r_i_glide_lipo>  (156) 
-0.517298

>  <r_i_glide_hbond>  (156) 
-0.0701221

>  <r_i_glide_metal>  (156) 
-0

>  <r_i_glide_rewards>  (156) 
-1.12235

>  <r_i_glide_evdw>  (156) 
-20.3492

>  <r_i_glide_ecoul>  (156) 
-0.543421

>  <r_i_glide_erotb>  (156) 
0

>  <r_i_glide_esite>  (156) 
0

>  <r_i_glide_emodel>  (156) 
-24.6284

>  <r_i_glide_energy>  (156) 
-20.8926

>  <r_i_glide_einternal>  (156) 
0

>  <r_i_glide_intrahb_reward>  (156) 
-0

>  <i_i_glide_confnum>  (156) 
1

>  <i_i_glide_posenum>  (156) 
37

>  <r_i_glide_eff_state_penalty>  (156) 
0

>  <ligand_id>  (156) 
43

>  <original_smiles>  (156) 
CC1(C)CC(=O)C2CCC=C3C(=C2C1)CC1C2CCC3(C)C1C2(C)C

>  <smiles>  (156) 
[H]C1=C2C(=C3C([H])([H])C(C([H])([H])[H])(C([H])([H])[H])C([H])([H])C(=O)C3([H])C([H])([H])C1([H])[H])C([H])([H])C1([H])C3([H])C([H])([H])C([H])([H])C2(C([H])([H])[H])C1([H])C3(C([H])([H])[H])C([H])([H])[H]

$$$$
44:0:0
     RDKit          3D

 54 59  0  0  1  0  0  0  0  0999 V2000
    4.0223   -6.1492    5.2410 C   0  0  0  0  0  0  0  0  0  0  0  0
    3.2113   -6.6689    4.0233 C   0  0  1  0  0  0  0  0  0  0  0  0
    3.8027   -7.9695    3.5059 C   0  0  0  0  0  0  0  0  0  0  0  0
    3.2725   -8.5264    2.4250 C   0  0  0  0  0  0  0  0  0  0  0  0
    1.8101   -8.8163    2.0681 C   0  0  0  0  0  0  0  0  0  0  0  0
    0.6649   -8.4694    3.0860 C   0  0  2  0  0  0  0  0  0  0  0  0
   -0.5203   -9.4492    2.8811 C   0  0  0  0  0  0  0  0  0  0  0  0
    0.2117   -7.0390    2.8119 C   0  0  0  0  0  0  0  0  0  0  0  0
   -0.5731   -6.6932    1.9251 O   0  0  0  0  0  0  0  0  0  0  0  0
    0.7897   -6.2290    3.6940 O   0  0  0  0  0  0  0  0  0  0  0  0
    1.7262   -6.8855    4.5469 C   0  0  1  0  0  0  0  0  0  0  0  0
    1.0813   -8.3114    4.5858 C   0  0  0  0  0  0  0  0  0  0  0  0
   -0.1448   -8.2167    5.5471 C   0  0  0  0  0  0  0  0  0  0  0  0
    1.9305   -9.4600    5.2017 C   0  0  0  0  0  0  0  0  0  0  0  0
    4.3534   -8.4910    1.3936 C   0  0  1  0  0  0  0  0  0  0  0  0
    4.3690   -7.0597    0.7522 C   0  0  0  0  0  0  0  0  0  0  0  0
    4.4598   -5.7904    1.7037 C   0  0  1  0  0  0  0  0  0  0  0  0
    4.5142   -4.5403    0.8720 C   0  0  0  0  0  0  0  0  0  0  0  0
    5.3699   -4.4657   -0.1840 O   0  0  0  0  0  0  0  0  0  0  0  0
    5.1948   -3.2216   -0.7205 C   0  0  0  0  0  0  0  0  0  0  0  0
    4.2718   -2.5071   -0.0060 C   0  0  0  0  0  0  0  0  0  0  0  0
    3.8364   -3.3695    1.0378 C   0  0  0  0  0  0  0  0  0  0  0  0
    2.8638   -3.1443    2.1511 C   0  0  0  0  0  0  0  0  0  0  0  0
    3.1365   -4.1466    3.2878 C   0  0  0  0  0  0  0  0  0  0  0  0
    3.3065   -5.6258    2.7976 C   0  0  2  0  0  0  0  0  0  0  0  0
    5.5292   -8.5818    2.1746 O   0  0  0  0  0  0  0  0  0  0  0  0
    5.2667   -8.1922    3.4302 C   0  0  0  0  0  0  0  0  0  0  0  0
    6.0977   -8.0654    4.3267 O   0  0  0  0  0  0  0  0  0  0  0  0
    3.5274   -5.3070    5.7301 H   0  0  0  0  0  0  0  0  0  0  0  0
    5.0198   -5.8054    4.9603 H   0  0  0  0  0  0  0  0  0  0  0  0
    4.1331   -6.9297    5.9981 H   0  0  0  0  0  0  0  0  0  0  0  0
    1.5905   -8.3737    1.0963 H   0  0  0  0  0  0  0  0  0  0  0  0
    1.7885   -9.8911    1.8861 H   0  0  0  0  0  0  0  0  0  0  0  0
   -0.3110  -10.4213    3.3312 H   0  0  0  0  0  0  0  0  0  0  0  0
   -0.7354   -9.6159    1.8240 H   0  0  0  0  0  0  0  0  0  0  0  0
   -1.4504   -9.0844    3.3256 H   0  0  0  0  0  0  0  0  0  0  0  0
    1.6293   -6.4256    5.5325 H   0  0  0  0  0  0  0  0  0  0  0  0
    0.1787   -7.9754    6.5609 H   0  0  0  0  0  0  0  0  0  0  0  0
   -0.6863   -9.1623    5.6107 H   0  0  0  0  0  0  0  0  0  0  0  0
   -0.8739   -7.4576    5.2607 H   0  0  0  0  0  0  0  0  0  0  0  0
    2.5491   -9.0843    6.0185 H   0  0  0  0  0  0  0  0  0  0  0  0
    2.5829   -9.9707    4.4965 H   0  0  0  0  0  0  0  0  0  0  0  0
    1.3073  -10.2539    5.6182 H   0  0  0  0  0  0  0  0  0  0  0  0
    4.2642   -9.3108    0.6767 H   0  0  0  0  0  0  0  0  0  0  0  0
    5.2246   -7.0356    0.0793 H   0  0  0  0  0  0  0  0  0  0  0  0
    3.4903   -6.9491    0.1216 H   0  0  0  0  0  0  0  0  0  0  0  0
    5.4157   -5.8105    2.2274 H   0  0  0  0  0  0  0  0  0  0  0  0
    5.7937   -3.0012   -1.5884 H   0  0  0  0  0  0  0  0  0  0  0  0
    3.9585   -1.4932   -0.2092 H   0  0  0  0  0  0  0  0  0  0  0  0
    2.9366   -2.1153    2.5025 H   0  0  0  0  0  0  0  0  0  0  0  0
    1.8578   -3.2928    1.7615 H   0  0  0  0  0  0  0  0  0  0  0  0
    4.0569   -3.8347    3.7805 H   0  0  0  0  0  0  0  0  0  0  0  0
    2.3443   -4.0631    4.0322 H   0  0  0  0  0  0  0  0  0  0  0  0
    2.4542   -5.7814    2.1459 H   0  0  0  0  0  0  0  0  0  0  0  0
  2  1  1  1
  1 29  1  0
  1 30  1  0
  1 31  1  0
  2 11  1  0
  2 25  1  0
  2  3  1  0
  3 27  1  0
  3  4  2  0
  4  5  1  0
  4 15  1  0
  5  6  1  0
  5 32  1  0
  5 33  1  0
  6 12  1  0
  6  7  1  1
  6  8  1  0
  7 34  1  0
  7 35  1  0
  7 36  1  0
  8  9  2  0
  8 10  1  0
 10 11  1  0
 11 12  1  0
 11 37  1  1
 12 13  1  0
 12 14  1  0
 13 38  1  0
 13 39  1  0
 13 40  1  0
 14 41  1  0
 14 42  1  0
 14 43  1  0
 15 16  1  0
 15 26  1  0
 15 44  1  6
 16 17  1  0
 16 45  1  0
 16 46  1  0
 17 25  1  0
 17 18  1  0
 17 47  1  1
 18 22  2  0
 18 19  1  0
 19 20  1  0
 20 21  2  0
 20 48  1  0
 21 22  1  0
 21 49  1  0
 22 23  1  0
 23 24  1  0
 23 50  1  0
 23 51  1  0
 24 25  1  0
 24 52  1  0
 24 53  1  0
 25 54  1  6
 26 27  1  0
 27 28  2  0
M  END
>  <i_m_ct_stereo_status>  (157) 
1

>  <s_m_source_file>  (157) 
/var/tmp/pbs.5076255.sched01/tmp323fbwsu/45qgza_o8k.sdf

>  <i_m_source_file_index>  (157) 
18

>  <i_lp_mmshare_version>  (157) 
48012

>  <i_f3d_flags>  (157) 
0

>  <s_epik_input>  (157) 
W0NIM11DMShbQ0gzXSlbQ0BASF0yT0MoPU8pW0NAQF0xKFtDSDNdKVtDSDJdQyg9QzNbQ0BdMjRbQ0gzXSlbQ0BIXShPQzM9TylbQ0gyXVtDQEhdNWM2YyhbY0hdW2NIXW82KVtDSDJdW0NIMl1bQ0BIXTQ1

>  <s_epik_cmdline>  (157) 
J2VwaWtfcHl0aG9uJywgJy1waHQnLCAnMi4wJywgJy1waCcsICc3LjAnLCAnLXRuJywgJzgnLCAnLW1hJywgJzIwMCcsICctaW1hZScsICc8aW5maWxlLm1hZT4nLCAnLW9tYWUnLCAnPG91dGZpbGUubWFlPic=

>  <r_lp_tautomer_probability>  (157) 
1

>  <r_epik_Ionization_Penalty>  (157) 
0

>  <r_epik_Ionization_Penalty_Charging>  (157) 
0

>  <r_epik_Ionization_Penalty_Neutral>  (157) 
0

>  <r_epik_State_Penalty>  (157) 
-0

>  <r_epik_Charging_Adjusted_Penalty>  (157) 
0

>  <i_epik_Tot_Q>  (157) 
0

>  <i_epik_Tot_abs_Q>  (157) 
0

>  <s_epik_Chemistry_Notes>  (157) 
This compound has an ester and may undergo hydrolysis at high or low pH.

>  <s_lp_Force_Field>  (157) 
OPLS3e

>  <r_lp_Energy>  (157) 
84.6132

>  <b_lp_Chiralities_Consistent>  (157) 
1

>  <s_lp_Variant>  (157) 
44:0-1

>  <s_i_glide_gridfile>  (157) 
pfpi4k_grid

>  <i_i_glide_lignum>  (157) 
18

>  <i_i_glide_rotatable_bonds>  (157) 
0

>  <r_i_docking_score>  (157) 
-3.08303

>  <r_i_glide_ligand_efficiency>  (157) 
-0.110108

>  <r_i_glide_ligand_efficiency_sa>  (157) 
-0.334353

>  <r_i_glide_ligand_efficiency_ln>  (157) 
-0.711653

>  <r_i_glide_gscore>  (157) 
-3.08303

>  <r_i_glide_lipo>  (157) 
-0.245132

>  <r_i_glide_hbond>  (157) 
-0.169694

>  <r_i_glide_metal>  (157) 
-0

>  <r_i_glide_rewards>  (157) 
-0.80148

>  <r_i_glide_evdw>  (157) 
-25.9112

>  <r_i_glide_ecoul>  (157) 
-3.39288

>  <r_i_glide_erotb>  (157) 
0

>  <r_i_glide_esite>  (157) 
-0.0622299

>  <r_i_glide_emodel>  (157) 
-35.3466

>  <r_i_glide_energy>  (157) 
-29.304

>  <r_i_glide_einternal>  (157) 
0

>  <r_i_glide_intrahb_reward>  (157) 
-0

>  <i_i_glide_confnum>  (157) 
1

>  <i_i_glide_posenum>  (157) 
1

>  <r_i_glide_eff_state_penalty>  (157) 
0

>  <ligand_id>  (157) 
44

>  <original_smiles>  (157) 
CC12C3=C(CC4(C)C(=O)OC1C4(C)C)C(CC1c4occc4CCC12)OC3=O

>  <smiles>  (157) 
[H]c1oc2c(c1[H])C([H])([H])C([H])([H])C1([H])C2([H])C([H])([H])C2([H])OC(=O)C3=C2C([H])([H])C2(C([H])([H])[H])C(=O)OC([H])(C31C([H])([H])[H])C2(C([H])([H])[H])C([H])([H])[H]

$$$$
44:0:1
     RDKit          3D

 54 59  0  0  1  0  0  0  0  0999 V2000
    3.3535   -2.5636    2.5777 C   0  0  0  0  0  0  0  0  0  0  0  0
    4.1667   -3.6341    1.7961 C   0  0  1  0  0  0  0  0  0  0  0  0
    5.6452   -3.3341    1.8854 C   0  0  0  0  0  0  0  0  0  0  0  0
    6.4395   -4.1077    1.1615 C   0  0  0  0  0  0  0  0  0  0  0  0
    6.5627   -5.6461    1.1445 C   0  0  0  0  0  0  0  0  0  0  0  0
    5.5889   -6.5336    2.0022 C   0  0  2  0  0  0  0  0  0  0  0  0
    6.3042   -7.8681    2.3440 C   0  0  0  0  0  0  0  0  0  0  0  0
    4.3620   -6.8207    1.1718 C   0  0  0  0  0  0  0  0  0  0  0  0
    4.3423   -7.7006    0.3236 O   0  0  0  0  0  0  0  0  0  0  0  0
    3.3952   -5.9667    1.5129 O   0  0  0  0  0  0  0  0  0  0  0  0
    3.8011   -5.0174    2.4973 C   0  0  1  0  0  0  0  0  0  0  0  0
    4.8894   -5.8622    3.2231 C   0  0  0  0  0  0  0  0  0  0  0  0
    4.1544   -6.8846    4.1341 C   0  0  0  0  0  0  0  0  0  0  0  0
    5.7832   -5.1166    4.2277 C   0  0  0  0  0  0  0  0  0  0  0  0
    7.1049   -3.2337    0.1466 C   0  0  1  0  0  0  0  0  0  0  0  0
    6.1310   -3.1222   -1.0582 C   0  0  0  0  0  0  0  0  0  0  0  0
    4.6364   -2.6805   -0.7795 C   0  0  1  0  0  0  0  0  0  0  0  0
    3.8929   -2.5953   -2.0721 C   0  0  0  0  0  0  0  0  0  0  0  0
    4.4399   -1.9028   -3.1065 O   0  0  0  0  0  0  0  0  0  0  0  0
    3.5087   -1.9664   -4.1003 C   0  0  0  0  0  0  0  0  0  0  0  0
    2.4113   -2.6801   -3.7191 C   0  0  0  0  0  0  0  0  0  0  0  0
    2.6676   -3.0477   -2.3668 C   0  0  0  0  0  0  0  0  0  0  0  0
    1.7940   -3.7331   -1.3772 C   0  0  0  0  0  0  0  0  0  0  0  0
    2.2727   -3.4763    0.0391 C   0  0  0  0  0  0  0  0  0  0  0  0
    3.8067   -3.5941    0.2211 C   0  0  2  0  0  0  0  0  0  0  0  0
    7.0449   -1.9485    0.7429 O   0  0  0  0  0  0  0  0  0  0  0  0
    6.1130   -1.9307    1.7133 C   0  0  0  0  0  0  0  0  0  0  0  0
    5.8217   -0.9653    2.4084 O   0  0  0  0  0  0  0  0  0  0  0  0
    2.3007   -2.8306    2.6837 H   0  0  0  0  0  0  0  0  0  0  0  0
    3.3689   -1.5829    2.0933 H   0  0  0  0  0  0  0  0  0  0  0  0
    3.7449   -2.4432    3.5899 H   0  0  0  0  0  0  0  0  0  0  0  0
    6.5341   -5.9597    0.1029 H   0  0  0  0  0  0  0  0  0  0  0  0
    7.5906   -5.8646    1.4542 H   0  0  0  0  0  0  0  0  0  0  0  0
    7.0205   -7.7434    3.1605 H   0  0  0  0  0  0  0  0  0  0  0  0
    6.8530   -8.2749    1.4879 H   0  0  0  0  0  0  0  0  0  0  0  0
    5.5997   -8.6479    2.6469 H   0  0  0  0  0  0  0  0  0  0  0  0
    2.9573   -4.8749    3.1746 H   0  0  0  0  0  0  0  0  0  0  0  0
    3.5902   -6.3626    4.9056 H   0  0  0  0  0  0  0  0  0  0  0  0
    4.8557   -7.5354    4.6609 H   0  0  0  0  0  0  0  0  0  0  0  0
    3.4522   -7.5324    3.6088 H   0  0  0  0  0  0  0  0  0  0  0  0
    5.2477   -4.3070    4.7312 H   0  0  0  0  0  0  0  0  0  0  0  0
    6.6093   -4.6873    3.7118 H   0  0  0  0  0  0  0  0  0  0  0  0
    6.2221   -5.7667    4.9867 H   0  0  0  0  0  0  0  0  0  0  0  0
    8.1235   -3.5751   -0.0960 H   0  0  0  0  0  0  0  0  0  0  0  0
    6.5713   -2.3987   -1.7391 H   0  0  0  0  0  0  0  0  0  0  0  0
    6.1107   -4.0721   -1.5832 H   0  0  0  0  0  0  0  0  0  0  0  0
    4.6071   -1.6615   -0.3982 H   0  0  0  0  0  0  0  0  0  0  0  0
    3.7650   -1.4409   -5.0084 H   0  0  0  0  0  0  0  0  0  0  0  0
    1.5244   -2.8448   -4.3130 H   0  0  0  0  0  0  0  0  0  0  0  0
    0.7635   -3.4321   -1.5535 H   0  0  0  0  0  0  0  0  0  0  0  0
    1.8075   -4.7967   -1.4624 H   0  0  0  0  0  0  0  0  0  0  0  0
    2.0048   -2.4649    0.2969 H   0  0  0  0  0  0  0  0  0  0  0  0
    1.8380   -4.1725    0.7443 H   0  0  0  0  0  0  0  0  0  0  0  0
    4.0283   -4.5558   -0.2152 H   0  0  0  0  0  0  0  0  0  0  0  0
  2  1  1  1
  1 29  1  0
  1 30  1  0
  1 31  1  0
  2 11  1  0
  2 25  1  0
  2  3  1  0
  3 27  1  0
  3  4  2  0
  4  5  1  0
  4 15  1  0
  5  6  1  0
  5 32  1  0
  5 33  1  0
  6 12  1  0
  6  7  1  1
  6  8  1  0
  7 34  1  0
  7 35  1  0
  7 36  1  0
  8  9  2  0
  8 10  1  0
 10 11  1  0
 11 12  1  0
 11 37  1  1
 12 13  1  0
 12 14  1  0
 13 38  1  0
 13 39  1  0
 13 40  1  0
 14 41  1  0
 14 42  1  0
 14 43  1  0
 15 16  1  0
 15 26  1  0
 15 44  1  6
 16 17  1  0
 16 45  1  0
 16 46  1  0
 17 25  1  0
 17 18  1  0
 17 47  1  1
 18 22  2  0
 18 19  1  0
 19 20  1  0
 20 21  2  0
 20 48  1  0
 21 22  1  0
 21 49  1  0
 22 23  1  0
 23 24  1  0
 23 50  1  0
 23 51  1  0
 24 25  1  0
 24 52  1  0
 24 53  1  0
 25 54  1  6
 26 27  1  0
 27 28  2  0
M  END
>  <i_m_ct_stereo_status>  (158) 
1

>  <s_m_source_file>  (158) 
/var/tmp/pbs.5076255.sched01/tmp323fbwsu/45qgza_o8k.sdf

>  <i_m_source_file_index>  (158) 
18

>  <i_lp_mmshare_version>  (158) 
48012

>  <i_f3d_flags>  (158) 
0

>  <s_epik_input>  (158) 
W0NIM11DMShbQ0gzXSlbQ0BASF0yT0MoPU8pW0NAQF0xKFtDSDNdKVtDSDJdQyg9QzNbQ0BdMjRbQ0gzXSlbQ0BIXShPQzM9TylbQ0gyXVtDQEhdNWM2YyhbY0hdW2NIXW82KVtDSDJdW0NIMl1bQ0BIXTQ1

>  <s_epik_cmdline>  (158) 
J2VwaWtfcHl0aG9uJywgJy1waHQnLCAnMi4wJywgJy1waCcsICc3LjAnLCAnLXRuJywgJzgnLCAnLW1hJywgJzIwMCcsICctaW1hZScsICc8aW5maWxlLm1hZT4nLCAnLW9tYWUnLCAnPG91dGZpbGUubWFlPic=

>  <r_lp_tautomer_probability>  (158) 
1

>  <r_epik_Ionization_Penalty>  (158) 
0

>  <r_epik_Ionization_Penalty_Charging>  (158) 
0

>  <r_epik_Ionization_Penalty_Neutral>  (158) 
0

>  <r_epik_State_Penalty>  (158) 
-0

>  <r_epik_Charging_Adjusted_Penalty>  (158) 
0

>  <i_epik_Tot_Q>  (158) 
0

>  <i_epik_Tot_abs_Q>  (158) 
0

>  <s_epik_Chemistry_Notes>  (158) 
This compound has an ester and may undergo hydrolysis at high or low pH.

>  <s_lp_Force_Field>  (158) 
OPLS3e

>  <r_lp_Energy>  (158) 
84.6132

>  <b_lp_Chiralities_Consistent>  (158) 
1

>  <s_lp_Variant>  (158) 
44:0-1

>  <s_i_glide_gridfile>  (158) 
pfpi4k_grid

>  <i_i_glide_lignum>  (158) 
18

>  <i_i_glide_rotatable_bonds>  (158) 
0

>  <r_i_docking_score>  (158) 
-3.00151

>  <r_i_glide_ligand_efficiency>  (158) 
-0.107197

>  <r_i_glide_ligand_efficiency_sa>  (158) 
-0.325513

>  <r_i_glide_ligand_efficiency_ln>  (158) 
-0.692838

>  <r_i_glide_gscore>  (158) 
-3.00151

>  <r_i_glide_lipo>  (158) 
-0.767832

>  <r_i_glide_hbond>  (158) 
0

>  <r_i_glide_metal>  (158) 
-0

>  <r_i_glide_rewards>  (158) 
-1.10948

>  <r_i_glide_evdw>  (158) 
-24.0431

>  <r_i_glide_ecoul>  (158) 
0.519694

>  <r_i_glide_erotb>  (158) 
0

>  <r_i_glide_esite>  (158) 
0

>  <r_i_glide_emodel>  (158) 
-28.897

>  <r_i_glide_energy>  (158) 
-23.5234

>  <r_i_glide_einternal>  (158) 
0

>  <r_i_glide_intrahb_reward>  (158) 
-0

>  <i_i_glide_confnum>  (158) 
2

>  <i_i_glide_posenum>  (158) 
40

>  <r_i_glide_eff_state_penalty>  (158) 
0

>  <ligand_id>  (158) 
44

>  <original_smiles>  (158) 
CC12C3=C(CC4(C)C(=O)OC1C4(C)C)C(CC1c4occc4CCC12)OC3=O

>  <smiles>  (158) 
[H]c1oc2c(c1[H])C([H])([H])C([H])([H])C1([H])C2([H])C([H])([H])C2([H])OC(=O)C3=C2C([H])([H])C2(C([H])([H])[H])C(=O)OC([H])(C31C([H])([H])[H])C2(C([H])([H])[H])C([H])([H])[H]

$$$$
44:0:2
     RDKit          3D

 54 59  0  0  1  0  0  0  0  0999 V2000
    4.0749   -4.9549    4.8792 C   0  0  0  0  0  0  0  0  0  0  0  0
    3.4290   -5.7970    3.7451 C   0  0  1  0  0  0  0  0  0  0  0  0
    4.2032   -7.0891    3.5431 C   0  0  0  0  0  0  0  0  0  0  0  0
    3.8304   -7.8772    2.5418 C   0  0  0  0  0  0  0  0  0  0  0  0
    2.4425   -8.4349    2.1791 C   0  0  0  0  0  0  0  0  0  0  0  0
    1.1871   -8.0423    3.0415 C   0  0  2  0  0  0  0  0  0  0  0  0
    0.1488   -9.1962    2.9809 C   0  0  0  0  0  0  0  0  0  0  0  0
    0.5965   -6.7597    2.4705 C   0  0  0  0  0  0  0  0  0  0  0  0
   -0.1502   -6.7013    1.4947 O   0  0  0  0  0  0  0  0  0  0  0  0
    1.0167   -5.7394    3.2034 O   0  0  0  0  0  0  0  0  0  0  0  0
    1.9459   -6.0972    4.2223 C   0  0  1  0  0  0  0  0  0  0  0  0
    1.4690   -7.5595    4.5013 C   0  0  0  0  0  0  0  0  0  0  0  0
    0.1666   -7.4429    5.3557 C   0  0  0  0  0  0  0  0  0  0  0  0
    2.3930   -8.4536    5.3792 C   0  0  0  0  0  0  0  0  0  0  0  0
    4.9808   -7.9185    1.5942 C   0  0  1  0  0  0  0  0  0  0  0  0
    4.8728   -6.6449    0.6889 C   0  0  0  0  0  0  0  0  0  0  0  0
    4.7445   -5.2152    1.3705 C   0  0  1  0  0  0  0  0  0  0  0  0
    4.7193   -4.1452    0.3162 C   0  0  0  0  0  0  0  0  0  0  0  0
    5.6450   -4.1594   -0.6789 O   0  0  0  0  0  0  0  0  0  0  0  0
    5.3703   -3.0714   -1.4614 C   0  0  0  0  0  0  0  0  0  0  0  0
    4.3187   -2.3611   -0.9575 C   0  0  0  0  0  0  0  0  0  0  0  0
    3.9139   -3.0643    0.2175 C   0  0  0  0  0  0  0  0  0  0  0  0
    2.8358   -2.7574    1.2028 C   0  0  0  0  0  0  0  0  0  0  0  0
    3.1163   -3.4883    2.5289 C   0  0  0  0  0  0  0  0  0  0  0  0
    3.5024   -4.9948    2.3467 C   0  0  2  0  0  0  0  0  0  0  0  0
    6.0928   -7.6982    2.4428 O   0  0  0  0  0  0  0  0  0  0  0  0
    5.6878   -7.1133    3.5784 C   0  0  0  0  0  0  0  0  0  0  0  0
    6.4230   -6.7231    4.4849 O   0  0  0  0  0  0  0  0  0  0  0  0
    3.4504   -4.1050    5.1667 H   0  0  0  0  0  0  0  0  0  0  0  0
    5.0469   -4.5413    4.5955 H   0  0  0  0  0  0  0  0  0  0  0  0
    4.2153   -5.5571    5.7824 H   0  0  0  0  0  0  0  0  0  0  0  0
    2.2525   -8.2218    1.1292 H   0  0  0  0  0  0  0  0  0  0  0  0
    2.5622   -9.5214    2.2127 H   0  0  0  0  0  0  0  0  0  0  0  0
    0.4301  -10.0340    3.6247 H   0  0  0  0  0  0  0  0  0  0  0  0
    0.0503   -9.5953    1.9732 H   0  0  0  0  0  0  0  0  0  0  0  0
   -0.8512   -8.8775    3.2814 H   0  0  0  0  0  0  0  0  0  0  0  0
    1.7154   -5.4738    5.0894 H   0  0  0  0  0  0  0  0  0  0  0  0
    0.3748   -6.9755    6.3195 H   0  0  0  0  0  0  0  0  0  0  0  0
   -0.2658   -8.4214    5.5781 H   0  0  0  0  0  0  0  0  0  0  0  0
   -0.6247   -6.8526    4.8893 H   0  0  0  0  0  0  0  0  0  0  0  0
    2.8952   -7.8498    6.1361 H   0  0  0  0  0  0  0  0  0  0  0  0
    3.1538   -8.9961    4.8258 H   0  0  0  0  0  0  0  0  0  0  0  0
    1.8336   -9.2252    5.9089 H   0  0  0  0  0  0  0  0  0  0  0  0
    5.0431   -8.8673    1.0497 H   0  0  0  0  0  0  0  0  0  0  0  0
    5.7765   -6.6292    0.0806 H   0  0  0  0  0  0  0  0  0  0  0  0
    4.0473   -6.7850   -0.0084 H   0  0  0  0  0  0  0  0  0  0  0  0
    5.6517   -5.0133    1.9371 H   0  0  0  0  0  0  0  0  0  0  0  0
    6.0102   -2.9461   -2.3224 H   0  0  0  0  0  0  0  0  0  0  0  0
    3.9060   -1.4516   -1.3730 H   0  0  0  0  0  0  0  0  0  0  0  0
    2.7534   -1.6798    1.3406 H   0  0  0  0  0  0  0  0  0  0  0  0
    1.8946   -3.1059    0.7854 H   0  0  0  0  0  0  0  0  0  0  0  0
    3.9558   -2.9726    2.9903 H   0  0  0  0  0  0  0  0  0  0  0  0
    2.2638   -3.3655    3.1968 H   0  0  0  0  0  0  0  0  0  0  0  0
    2.7312   -5.3780    1.6936 H   0  0  0  0  0  0  0  0  0  0  0  0
  2  1  1  1
  1 29  1  0
  1 30  1  0
  1 31  1  0
  2 11  1  0
  2 25  1  0
  2  3  1  0
  3 27  1  0
  3  4  2  0
  4  5  1  0
  4 15  1  0
  5  6  1  0
  5 32  1  0
  5 33  1  0
  6 12  1  0
  6  7  1  1
  6  8  1  0
  7 34  1  0
  7 35  1  0
  7 36  1  0
  8  9  2  0
  8 10  1  0
 10 11  1  0
 11 12  1  0
 11 37  1  1
 12 13  1  0
 12 14  1  0
 13 38  1  0
 13 39  1  0
 13 40  1  0
 14 41  1  0
 14 42  1  0
 14 43  1  0
 15 16  1  0
 15 26  1  0
 15 44  1  6
 16 17  1  0
 16 45  1  0
 16 46  1  0
 17 25  1  0
 17 18  1  0
 17 47  1  1
 18 22  2  0
 18 19  1  0
 19 20  1  0
 20 21  2  0
 20 48  1  0
 21 22  1  0
 21 49  1  0
 22 23  1  0
 23 24  1  0
 23 50  1  0
 23 51  1  0
 24 25  1  0
 24 52  1  0
 24 53  1  0
 25 54  1  6
 26 27  1  0
 27 28  2  0
M  END
>  <i_m_ct_stereo_status>  (159) 
1

>  <s_m_source_file>  (159) 
/var/tmp/pbs.5076255.sched01/tmp323fbwsu/45qgza_o8k.sdf

>  <i_m_source_file_index>  (159) 
18

>  <i_lp_mmshare_version>  (159) 
48012

>  <i_f3d_flags>  (159) 
0

>  <s_epik_input>  (159) 
W0NIM11DMShbQ0gzXSlbQ0BASF0yT0MoPU8pW0NAQF0xKFtDSDNdKVtDSDJdQyg9QzNbQ0BdMjRbQ0gzXSlbQ0BIXShPQzM9TylbQ0gyXVtDQEhdNWM2YyhbY0hdW2NIXW82KVtDSDJdW0NIMl1bQ0BIXTQ1

>  <s_epik_cmdline>  (159) 
J2VwaWtfcHl0aG9uJywgJy1waHQnLCAnMi4wJywgJy1waCcsICc3LjAnLCAnLXRuJywgJzgnLCAnLW1hJywgJzIwMCcsICctaW1hZScsICc8aW5maWxlLm1hZT4nLCAnLW9tYWUnLCAnPG91dGZpbGUubWFlPic=

>  <r_lp_tautomer_probability>  (159) 
1

>  <r_epik_Ionization_Penalty>  (159) 
0

>  <r_epik_Ionization_Penalty_Charging>  (159) 
0

>  <r_epik_Ionization_Penalty_Neutral>  (159) 
0

>  <r_epik_State_Penalty>  (159) 
-0

>  <r_epik_Charging_Adjusted_Penalty>  (159) 
0

>  <i_epik_Tot_Q>  (159) 
0

>  <i_epik_Tot_abs_Q>  (159) 
0

>  <s_epik_Chemistry_Notes>  (159) 
This compound has an ester and may undergo hydrolysis at high or low pH.

>  <s_lp_Force_Field>  (159) 
OPLS3e

>  <r_lp_Energy>  (159) 
84.6132

>  <b_lp_Chiralities_Consistent>  (159) 
1

>  <s_lp_Variant>  (159) 
44:0-1

>  <s_i_glide_gridfile>  (159) 
pfpi4k_grid

>  <i_i_glide_lignum>  (159) 
18

>  <i_i_glide_rotatable_bonds>  (159) 
0

>  <r_i_docking_score>  (159) 
-2.96974

>  <r_i_glide_ligand_efficiency>  (159) 
-0.106062

>  <r_i_glide_ligand_efficiency_sa>  (159) 
-0.322067

>  <r_i_glide_ligand_efficiency_ln>  (159) 
-0.685503

>  <r_i_glide_gscore>  (159) 
-2.96974

>  <r_i_glide_lipo>  (159) 
-0.297977

>  <r_i_glide_hbond>  (159) 
-0.196365

>  <r_i_glide_metal>  (159) 
-0

>  <r_i_glide_rewards>  (159) 
-0.80148

>  <r_i_glide_evdw>  (159) 
-26.0205

>  <r_i_glide_ecoul>  (159) 
-2.0474

>  <r_i_glide_erotb>  (159) 
0

>  <r_i_glide_esite>  (159) 
-0.0657805

>  <r_i_glide_emodel>  (159) 
-33.8273

>  <r_i_glide_energy>  (159) 
-28.0679

>  <r_i_glide_einternal>  (159) 
0

>  <r_i_glide_intrahb_reward>  (159) 
-0

>  <i_i_glide_confnum>  (159) 
2

>  <i_i_glide_posenum>  (159) 
39

>  <r_i_glide_eff_state_penalty>  (159) 
0

>  <ligand_id>  (159) 
44

>  <original_smiles>  (159) 
CC12C3=C(CC4(C)C(=O)OC1C4(C)C)C(CC1c4occc4CCC12)OC3=O

>  <smiles>  (159) 
[H]c1oc2c(c1[H])C([H])([H])C([H])([H])C1([H])C2([H])C([H])([H])C2([H])OC(=O)C3=C2C([H])([H])C2(C([H])([H])[H])C(=O)OC([H])(C31C([H])([H])[H])C2(C([H])([H])[H])C([H])([H])[H]

$$$$
45:0:0
     RDKit          3D

 24 25  0  0  1  0  0  0  0  0999 V2000
    7.2958   -1.9281    0.5396 C   0  0  0  0  0  0  0  0  0  0  0  0
    6.0847   -1.8394   -0.3401 C   0  0  0  0  0  0  0  0  0  0  0  0
    6.1584   -2.3845   -1.6319 N   0  0  0  0  0  0  0  0  0  0  0  0
    5.0676   -2.2617   -2.3328 N   0  0  0  0  0  0  0  0  0  0  0  0
    3.8780   -1.4594   -1.4759 S   0  0  0  0  0  0  0  0  0  0  0  0
    4.8665   -1.2693   -0.0644 C   0  0  0  0  0  0  0  0  0  0  0  0
    4.3085   -0.5664    1.1196 C   0  0  0  0  0  0  0  0  0  0  0  0
    5.0296   -0.2865    2.0808 O   0  0  0  0  0  0  0  0  0  0  0  0
    3.0012   -0.2587    1.0839 N   0  0  0  0  0  0  0  0  0  0  0  0
    2.3704    0.3841    2.0843 N   0  0  0  0  0  0  0  0  0  0  0  0
    1.1598    0.7378    1.8523 C   0  0  0  0  0  0  0  0  0  0  0  0
    0.3309    1.3970    2.8238 C   0  0  0  0  0  0  0  0  0  0  0  0
   -0.9880    1.7407    2.6953 C   0  0  0  0  0  0  0  0  0  0  0  0
   -1.5046    2.3962    3.8545 C   0  0  0  0  0  0  0  0  0  0  0  0
   -0.5683    2.5356    4.8474 C   0  0  0  0  0  0  0  0  0  0  0  0
    0.9697    1.8661    4.3788 S   0  0  0  0  0  0  0  0  0  0  0  0
    7.1354   -1.4601    1.5105 H   0  0  0  0  0  0  0  0  0  0  0  0
    8.1503   -1.4306    0.0803 H   0  0  0  0  0  0  0  0  0  0  0  0
    7.5672   -2.9697    0.7174 H   0  0  0  0  0  0  0  0  0  0  0  0
    2.4163   -0.4752    0.2812 H   0  0  0  0  0  0  0  0  0  0  0  0
    0.6947    0.5494    0.8826 H   0  0  0  0  0  0  0  0  0  0  0  0
   -1.5936    1.5517    1.8174 H   0  0  0  0  0  0  0  0  0  0  0  0
   -2.5286    2.7376    3.9076 H   0  0  0  0  0  0  0  0  0  0  0  0
   -0.6741    2.9936    5.8201 H   0  0  0  0  0  0  0  0  0  0  0  0
  1  2  1  0
  1 17  1  0
  1 18  1  0
  1 19  1  0
  2  6  2  0
  2  3  1  0
  3  4  2  0
  4  5  1  0
  5  6  1  0
  6  7  1  0
  7  8  2  0
  7  9  1  0
  9 10  1  0
  9 20  1  0
 10 11  2  3
 11 12  1  0
 11 21  1  0
 12 16  1  0
 12 13  2  0
 13 14  1  0
 13 22  1  0
 14 15  2  0
 14 23  1  0
 15 16  1  0
 15 24  1  0
M  END
>  <i_m_ct_stereo_status>  (160) 
1

>  <s_m_source_file>  (160) 
/var/tmp/pbs.5076255.sched01/tmp323fbwsu/45qgza_o8k.sdf

>  <i_m_source_file_index>  (160) 
19

>  <i_lp_mmshare_version>  (160) 
48012

>  <i_f3d_flags>  (160) 
0

>  <s_epik_input>  (160) 
W0NIM11jMW5uc2MxQyg9TylbTkhdL049W0NIXS9jMltjSF1bY0hdW2NIXXMy

>  <s_epik_cmdline>  (160) 
J2VwaWtfcHl0aG9uJywgJy1waHQnLCAnMi4wJywgJy1waCcsICc3LjAnLCAnLXRuJywgJzgnLCAnLW1hJywgJzIwMCcsICctaW1hZScsICc8aW5maWxlLm1hZT4nLCAnLW9tYWUnLCAnPG91dGZpbGUubWFlPic=

>  <r_lp_tautomer_probability>  (160) 
1

>  <r_epik_Ionization_Penalty>  (160) 
0.0905953

>  <r_epik_Ionization_Penalty_Charging>  (160) 
0

>  <r_epik_Ionization_Penalty_Neutral>  (160) 
0.0905953

>  <r_epik_State_Penalty>  (160) 
0.0809598

>  <r_epik_Charging_Adjusted_Penalty>  (160) 
0.0809598

>  <i_epik_Tot_Q>  (160) 
0

>  <i_epik_Tot_abs_Q>  (160) 
0

>  <s_epik_Chemistry_Notes>  (160) 
This compound has an imine and may undergo hydrolysis.

>  <s_lp_Force_Field>  (160) 
OPLS3e

>  <r_lp_Energy>  (160) 
18.8952

>  <b_lp_Chiralities_Consistent>  (160) 
1

>  <s_lp_Variant>  (160) 
45:0-1

>  <s_i_glide_gridfile>  (160) 
pfpi4k_grid

>  <i_i_glide_lignum>  (160) 
19

>  <i_i_glide_rotatable_bonds>  (160) 
4

>  <r_i_docking_score>  (160) 
-3.24251

>  <r_i_glide_ligand_efficiency>  (160) 
-0.202657

>  <r_i_glide_ligand_efficiency_sa>  (160) 
-0.510663

>  <r_i_glide_ligand_efficiency_ln>  (160) 
-0.859491

>  <r_i_glide_gscore>  (160) 
-3.24251

>  <r_i_glide_lipo>  (160) 
-0.0107375

>  <r_i_glide_hbond>  (160) 
-0.232914

>  <r_i_glide_metal>  (160) 
-0

>  <r_i_glide_rewards>  (160) 
-1.82594

>  <r_i_glide_evdw>  (160) 
-26.0937

>  <r_i_glide_ecoul>  (160) 
-3.6015

>  <r_i_glide_erotb>  (160) 
0.826807

>  <r_i_glide_esite>  (160) 
-0.154812

>  <r_i_glide_emodel>  (160) 
-35.0815

>  <r_i_glide_energy>  (160) 
-29.6952

>  <r_i_glide_einternal>  (160) 
2.59709

>  <r_i_glide_intrahb_reward>  (160) 
-0

>  <i_i_glide_confnum>  (160) 
6

>  <i_i_glide_posenum>  (160) 
3

>  <r_i_glide_eff_state_penalty>  (160) 
0

>  <ligand_id>  (160) 
45

>  <original_smiles>  (160) 
Cc1nnsc1C(=O)NN=Cc1cccs1

>  <smiles>  (160) 
[H]C(=NN([H])C(=O)c1snnc1C([H])([H])[H])c1sc([H])c([H])c1[H]

$$$$
45:0:1
     RDKit          3D

 24 25  0  0  1  0  0  0  0  0999 V2000
    3.6412   -9.1314    1.8795 C   0  0  0  0  0  0  0  0  0  0  0  0
    2.2157   -9.3149    2.3149 C   0  0  0  0  0  0  0  0  0  0  0  0
    1.8513  -10.5187    2.9431 N   0  0  0  0  0  0  0  0  0  0  0  0
    0.6004  -10.6030    3.2780 N   0  0  0  0  0  0  0  0  0  0  0  0
   -0.2235   -9.2133    2.8868 S   0  0  0  0  0  0  0  0  0  0  0  0
    1.1492   -8.4384    2.1956 C   0  0  0  0  0  0  0  0  0  0  0  0
    0.9400   -7.0981    1.6058 C   0  0  0  0  0  0  0  0  0  0  0  0
   -0.1866   -6.6009    1.4537 O   0  0  0  0  0  0  0  0  0  0  0  0
    2.0663   -6.4651    1.2803 N   0  0  0  0  0  0  0  0  0  0  0  0
    2.2070   -5.3050    0.6209 N   0  0  0  0  0  0  0  0  0  0  0  0
    3.4159   -4.9037    0.4706 C   0  0  0  0  0  0  0  0  0  0  0  0
    3.7370   -3.6958   -0.2235 C   0  0  0  0  0  0  0  0  0  0  0  0
    3.0305   -3.0628   -1.2142 C   0  0  0  0  0  0  0  0  0  0  0  0
    3.6382   -1.8431   -1.6258 C   0  0  0  0  0  0  0  0  0  0  0  0
    4.7824   -1.5508   -0.9262 C   0  0  0  0  0  0  0  0  0  0  0  0
    5.1447   -2.7859    0.2449 S   0  0  0  0  0  0  0  0  0  0  0  0
    3.8610   -8.1854    1.3830 H   0  0  0  0  0  0  0  0  0  0  0  0
    3.9285   -9.8986    1.1607 H   0  0  0  0  0  0  0  0  0  0  0  0
    4.3056   -9.1814    2.7431 H   0  0  0  0  0  0  0  0  0  0  0  0
    2.9260   -6.9474    1.4769 H   0  0  0  0  0  0  0  0  0  0  0  0
    4.2527   -5.4877    0.8514 H   0  0  0  0  0  0  0  0  0  0  0  0
    2.1069   -3.4243   -1.6478 H   0  0  0  0  0  0  0  0  0  0  0  0
    3.1945   -1.2210   -2.3898 H   0  0  0  0  0  0  0  0  0  0  0  0
    5.4131   -0.6776   -1.0085 H   0  0  0  0  0  0  0  0  0  0  0  0
  1  2  1  0
  1 17  1  0
  1 18  1  0
  1 19  1  0
  2  6  2  0
  2  3  1  0
  3  4  2  0
  4  5  1  0
  5  6  1  0
  6  7  1  0
  7  8  2  0
  7  9  1  0
  9 10  1  0
  9 20  1  0
 10 11  2  3
 11 12  1  0
 11 21  1  0
 12 16  1  0
 12 13  2  0
 13 14  1  0
 13 22  1  0
 14 15  2  0
 14 23  1  0
 15 16  1  0
 15 24  1  0
M  END
>  <i_m_ct_stereo_status>  (161) 
1

>  <s_m_source_file>  (161) 
/var/tmp/pbs.5076255.sched01/tmp323fbwsu/45qgza_o8k.sdf

>  <i_m_source_file_index>  (161) 
19

>  <i_lp_mmshare_version>  (161) 
48012

>  <i_f3d_flags>  (161) 
0

>  <s_epik_input>  (161) 
W0NIM11jMW5uc2MxQyg9TylbTkhdL049W0NIXS9jMltjSF1bY0hdW2NIXXMy

>  <s_epik_cmdline>  (161) 
J2VwaWtfcHl0aG9uJywgJy1waHQnLCAnMi4wJywgJy1waCcsICc3LjAnLCAnLXRuJywgJzgnLCAnLW1hJywgJzIwMCcsICctaW1hZScsICc8aW5maWxlLm1hZT4nLCAnLW9tYWUnLCAnPG91dGZpbGUubWFlPic=

>  <r_lp_tautomer_probability>  (161) 
1

>  <r_epik_Ionization_Penalty>  (161) 
0.0905953

>  <r_epik_Ionization_Penalty_Charging>  (161) 
0

>  <r_epik_Ionization_Penalty_Neutral>  (161) 
0.0905953

>  <r_epik_State_Penalty>  (161) 
0.0809598

>  <r_epik_Charging_Adjusted_Penalty>  (161) 
0.0809598

>  <i_epik_Tot_Q>  (161) 
0

>  <i_epik_Tot_abs_Q>  (161) 
0

>  <s_epik_Chemistry_Notes>  (161) 
This compound has an imine and may undergo hydrolysis.

>  <s_lp_Force_Field>  (161) 
OPLS3e

>  <r_lp_Energy>  (161) 
18.8952

>  <b_lp_Chiralities_Consistent>  (161) 
1

>  <s_lp_Variant>  (161) 
45:0-1

>  <s_i_glide_gridfile>  (161) 
pfpi4k_grid

>  <i_i_glide_lignum>  (161) 
19

>  <i_i_glide_rotatable_bonds>  (161) 
4

>  <r_i_docking_score>  (161) 
-3.17935

>  <r_i_glide_ligand_efficiency>  (161) 
-0.198709

>  <r_i_glide_ligand_efficiency_sa>  (161) 
-0.500716

>  <r_i_glide_ligand_efficiency_ln>  (161) 
-0.84275

>  <r_i_glide_gscore>  (161) 
-3.17935

>  <r_i_glide_lipo>  (161) 
-0.076857

>  <r_i_glide_hbond>  (161) 
-0.282324

>  <r_i_glide_metal>  (161) 
-0

>  <r_i_glide_rewards>  (161) 
-1.68874

>  <r_i_glide_evdw>  (161) 
-27.1005

>  <r_i_glide_ecoul>  (161) 
-3.35813

>  <r_i_glide_erotb>  (161) 
0.826807

>  <r_i_glide_esite>  (161) 
-0.0994888

>  <r_i_glide_emodel>  (161) 
-36.3035

>  <r_i_glide_energy>  (161) 
-30.4587

>  <r_i_glide_einternal>  (161) 
0.961586

>  <r_i_glide_intrahb_reward>  (161) 
-0

>  <i_i_glide_confnum>  (161) 
2

>  <i_i_glide_posenum>  (161) 
28

>  <r_i_glide_eff_state_penalty>  (161) 
0

>  <ligand_id>  (161) 
45

>  <original_smiles>  (161) 
Cc1nnsc1C(=O)NN=Cc1cccs1

>  <smiles>  (161) 
[H]C(=NN([H])C(=O)c1snnc1C([H])([H])[H])c1sc([H])c([H])c1[H]

$$$$
45:0:2
     RDKit          3D

 24 25  0  0  1  0  0  0  0  0999 V2000
   -1.3864   -9.0548    3.0302 C   0  0  0  0  0  0  0  0  0  0  0  0
    0.0783   -9.3091    2.8844 C   0  0  0  0  0  0  0  0  0  0  0  0
    0.6331  -10.5098    3.3686 N   0  0  0  0  0  0  0  0  0  0  0  0
    1.9112  -10.6324    3.1829 N   0  0  0  0  0  0  0  0  0  0  0  0
    2.5209   -9.3170    2.3686 S   0  0  0  0  0  0  0  0  0  0  0  0
    1.0139   -8.4839    2.2970 C   0  0  0  0  0  0  0  0  0  0  0  0
    0.9532   -7.1674    1.6103 C   0  0  0  0  0  0  0  0  0  0  0  0
   -0.1188   -6.6149    1.3690 O   0  0  0  0  0  0  0  0  0  0  0  0
    2.1324   -6.5950    1.2843 N   0  0  0  0  0  0  0  0  0  0  0  0
    2.2433   -5.4302    0.6169 N   0  0  0  0  0  0  0  0  0  0  0  0
    3.4289   -4.9719    0.4746 C   0  0  0  0  0  0  0  0  0  0  0  0
    3.7207   -3.7614   -0.2415 C   0  0  0  0  0  0  0  0  0  0  0  0
    3.0073   -3.1532   -1.2431 C   0  0  0  0  0  0  0  0  0  0  0  0
    3.6044   -1.9355   -1.6835 C   0  0  0  0  0  0  0  0  0  0  0  0
    4.7500   -1.6243   -0.9991 C   0  0  0  0  0  0  0  0  0  0  0  0
    5.1269   -2.8320    0.1966 S   0  0  0  0  0  0  0  0  0  0  0  0
   -1.7105   -8.0983    2.6088 H   0  0  0  0  0  0  0  0  0  0  0  0
   -1.6643   -9.0563    4.0835 H   0  0  0  0  0  0  0  0  0  0  0  0
   -1.9579   -9.8376    2.5312 H   0  0  0  0  0  0  0  0  0  0  0  0
    3.0023   -7.0385    1.5230 H   0  0  0  0  0  0  0  0  0  0  0  0
    4.2817   -5.5165    0.8742 H   0  0  0  0  0  0  0  0  0  0  0  0
    2.0886   -3.5331   -1.6700 H   0  0  0  0  0  0  0  0  0  0  0  0
    3.1552   -1.3318   -2.4589 H   0  0  0  0  0  0  0  0  0  0  0  0
    5.3764   -0.7522   -1.1049 H   0  0  0  0  0  0  0  0  0  0  0  0
  1  2  1  0
  1 17  1  0
  1 18  1  0
  1 19  1  0
  2  6  2  0
  2  3  1  0
  3  4  2  0
  4  5  1  0
  5  6  1  0
  6  7  1  0
  7  8  2  0
  7  9  1  0
  9 10  1  0
  9 20  1  0
 10 11  2  3
 11 12  1  0
 11 21  1  0
 12 16  1  0
 12 13  2  0
 13 14  1  0
 13 22  1  0
 14 15  2  0
 14 23  1  0
 15 16  1  0
 15 24  1  0
M  END
>  <i_m_ct_stereo_status>  (162) 
1

>  <s_m_source_file>  (162) 
/var/tmp/pbs.5076255.sched01/tmp323fbwsu/45qgza_o8k.sdf

>  <i_m_source_file_index>  (162) 
19

>  <i_lp_mmshare_version>  (162) 
48012

>  <i_f3d_flags>  (162) 
0

>  <s_epik_input>  (162) 
W0NIM11jMW5uc2MxQyg9TylbTkhdL049W0NIXS9jMltjSF1bY0hdW2NIXXMy

>  <s_epik_cmdline>  (162) 
J2VwaWtfcHl0aG9uJywgJy1waHQnLCAnMi4wJywgJy1waCcsICc3LjAnLCAnLXRuJywgJzgnLCAnLW1hJywgJzIwMCcsICctaW1hZScsICc8aW5maWxlLm1hZT4nLCAnLW9tYWUnLCAnPG91dGZpbGUubWFlPic=

>  <r_lp_tautomer_probability>  (162) 
1

>  <r_epik_Ionization_Penalty>  (162) 
0.0905953

>  <r_epik_Ionization_Penalty_Charging>  (162) 
0

>  <r_epik_Ionization_Penalty_Neutral>  (162) 
0.0905953

>  <r_epik_State_Penalty>  (162) 
0.0809598

>  <r_epik_Charging_Adjusted_Penalty>  (162) 
0.0809598

>  <i_epik_Tot_Q>  (162) 
0

>  <i_epik_Tot_abs_Q>  (162) 
0

>  <s_epik_Chemistry_Notes>  (162) 
This compound has an imine and may undergo hydrolysis.

>  <s_lp_Force_Field>  (162) 
OPLS3e

>  <r_lp_Energy>  (162) 
18.8952

>  <b_lp_Chiralities_Consistent>  (162) 
1

>  <s_lp_Variant>  (162) 
45:0-1

>  <s_i_glide_gridfile>  (162) 
pfpi4k_grid

>  <i_i_glide_lignum>  (162) 
19

>  <i_i_glide_rotatable_bonds>  (162) 
4

>  <r_i_docking_score>  (162) 
-3.13432

>  <r_i_glide_ligand_efficiency>  (162) 
-0.195895

>  <r_i_glide_ligand_efficiency_sa>  (162) 
-0.493624

>  <r_i_glide_ligand_efficiency_ln>  (162) 
-0.830813

>  <r_i_glide_gscore>  (162) 
-3.13432

>  <r_i_glide_lipo>  (162) 
-0.0583649

>  <r_i_glide_hbond>  (162) 
-0.239961

>  <r_i_glide_metal>  (162) 
-0

>  <r_i_glide_rewards>  (162) 
-1.68874

>  <r_i_glide_evdw>  (162) 
-28.0045

>  <r_i_glide_ecoul>  (162) 
-3.21026

>  <r_i_glide_erotb>  (162) 
0.826807

>  <r_i_glide_esite>  (162) 
-0.0922935

>  <r_i_glide_emodel>  (162) 
-36.0047

>  <r_i_glide_energy>  (162) 
-31.2147

>  <r_i_glide_einternal>  (162) 
3.2709

>  <r_i_glide_intrahb_reward>  (162) 
-0

>  <i_i_glide_confnum>  (162) 
2

>  <i_i_glide_posenum>  (162) 
2

>  <r_i_glide_eff_state_penalty>  (162) 
0

>  <ligand_id>  (162) 
45

>  <original_smiles>  (162) 
Cc1nnsc1C(=O)NN=Cc1cccs1

>  <smiles>  (162) 
[H]C(=NN([H])C(=O)c1snnc1C([H])([H])[H])c1sc([H])c([H])c1[H]

$$$$
45:1:0
     RDKit          3D

 24 25  0  0  1  0  0  0  0  0999 V2000
    5.5637   -6.5589    1.5840 C   0  0  0  0  0  0  0  0  0  0  0  0
    4.3367   -7.3780    1.8223 C   0  0  0  0  0  0  0  0  0  0  0  0
    4.4918   -8.6492    2.4023 N   0  0  0  0  0  0  0  0  0  0  0  0
    3.3864   -9.2943    2.5800 N   0  0  0  0  0  0  0  0  0  0  0  0
    2.0835   -8.4071    2.0667 S   0  0  0  0  0  0  0  0  0  0  0  0
    3.0402   -7.0696    1.5476 C   0  0  0  0  0  0  0  0  0  0  0  0
    2.2728   -5.9213    0.9477 C   0  0  0  0  0  0  0  0  0  0  0  0
    1.0441   -5.9099    0.9027 O   0  0  0  0  0  0  0  0  0  0  0  0
    3.0387   -4.9380    0.4401 N   0  0  0  0  0  0  0  0  0  0  0  0
    2.6032   -3.8205   -0.2074 N   0  0  0  0  0  0  0  0  0  0  0  0
    3.4443   -3.0092   -0.7698 C   0  0  0  0  0  0  0  0  0  0  0  0
    4.8889   -3.0907   -0.7731 C   0  0  0  0  0  0  0  0  0  0  0  0
    5.7813   -3.2760    0.2528 C   0  0  0  0  0  0  0  0  0  0  0  0
    7.1455   -3.3163   -0.1806 C   0  0  0  0  0  0  0  0  0  0  0  0
    7.2861   -3.0550   -1.5161 C   0  0  0  0  0  0  0  0  0  0  0  0
    5.7209   -2.8768   -2.2844 S   0  0  0  0  0  0  0  0  0  0  0  0
    5.2915   -5.6411    1.0968 H   0  0  0  0  0  0  0  0  0  0  0  0
    6.2610   -7.0515    0.9090 H   0  0  0  0  0  0  0  0  0  0  0  0
    6.0590   -6.2826    2.5158 H   0  0  0  0  0  0  0  0  0  0  0  0
    4.0296   -5.0431    0.4463 H   0  0  0  0  0  0  0  0  0  0  0  0
    3.0251   -2.1378   -1.2863 H   0  0  0  0  0  0  0  0  0  0  0  0
    5.5330   -3.3988    1.2951 H   0  0  0  0  0  0  0  0  0  0  0  0
    7.9734   -3.4957    0.4950 H   0  0  0  0  0  0  0  0  0  0  0  0
    8.1992   -2.9974   -2.1100 H   0  0  0  0  0  0  0  0  0  0  0  0
  1  2  1  0
  1 17  1  0
  1 18  1  0
  1 19  1  0
  2  6  2  0
  2  3  1  0
  3  4  2  0
  4  5  1  0
  5  6  1  0
  6  7  1  0
  7  8  2  0
  7  9  1  0
  9 10  1  0
  9 20  1  0
 10 11  2  3
 11 12  1  0
 11 21  1  0
 12 16  1  0
 12 13  2  0
 13 14  1  0
 13 22  1  0
 14 15  2  0
 14 23  1  0
 15 16  1  0
 15 24  1  0
M  END
>  <i_m_ct_stereo_status>  (163) 
1

>  <s_m_source_file>  (163) 
/var/tmp/pbs.5076255.sched01/tmp323fbwsu/45qgza_o8k.sdf

>  <i_m_source_file_index>  (163) 
20

>  <i_lp_mmshare_version>  (163) 
48012

>  <i_f3d_flags>  (163) 
0

>  <s_epik_input>  (163) 
W0NIM11jMW5uc2MxQyg9TylbTkhdL049W0NIXS9jMltjSF1bY0hdW2NIXXMy

>  <s_epik_cmdline>  (163) 
J2VwaWtfcHl0aG9uJywgJy1waHQnLCAnMi4wJywgJy1waCcsICc3LjAnLCAnLXRuJywgJzgnLCAnLW1hJywgJzIwMCcsICctaW1hZScsICc8aW5maWxlLm1hZT4nLCAnLW9tYWUnLCAnPG91dGZpbGUubWFlPic=

>  <r_lp_tautomer_probability>  (163) 
1

>  <r_epik_Ionization_Penalty>  (163) 
0.0905953

>  <r_epik_Ionization_Penalty_Charging>  (163) 
0

>  <r_epik_Ionization_Penalty_Neutral>  (163) 
0.0905953

>  <r_epik_State_Penalty>  (163) 
0.0809598

>  <r_epik_Charging_Adjusted_Penalty>  (163) 
0.0809598

>  <i_epik_Tot_Q>  (163) 
0

>  <i_epik_Tot_abs_Q>  (163) 
0

>  <s_epik_Chemistry_Notes>  (163) 
This compound has an imine and may undergo hydrolysis.

>  <s_lp_Force_Field>  (163) 
OPLS3e

>  <r_lp_Energy>  (163) 
23.1256

>  <b_lp_Chiralities_Consistent>  (163) 
1

>  <s_lp_Variant>  (163) 
45:0-2

>  <s_i_glide_gridfile>  (163) 
pfpi4k_grid

>  <i_i_glide_lignum>  (163) 
20

>  <i_i_glide_rotatable_bonds>  (163) 
4

>  <r_i_docking_score>  (163) 
-3.5523

>  <r_i_glide_ligand_efficiency>  (163) 
-0.222019

>  <r_i_glide_ligand_efficiency_sa>  (163) 
-0.559452

>  <r_i_glide_ligand_efficiency_ln>  (163) 
-0.941608

>  <r_i_glide_gscore>  (163) 
-3.5523

>  <r_i_glide_lipo>  (163) 
-0.520247

>  <r_i_glide_hbond>  (163) 
-0.16

>  <r_i_glide_metal>  (163) 
-0

>  <r_i_glide_rewards>  (163) 
-1.68874

>  <r_i_glide_evdw>  (163) 
-22.7301

>  <r_i_glide_ecoul>  (163) 
-5.17899

>  <r_i_glide_erotb>  (163) 
0.826807

>  <r_i_glide_esite>  (163) 
-0.096764

>  <r_i_glide_emodel>  (163) 
-33.334

>  <r_i_glide_energy>  (163) 
-27.9091

>  <r_i_glide_einternal>  (163) 
1.84391

>  <r_i_glide_intrahb_reward>  (163) 
-0

>  <i_i_glide_confnum>  (163) 
6

>  <i_i_glide_posenum>  (163) 
14

>  <r_i_glide_eff_state_penalty>  (163) 
0

>  <ligand_id>  (163) 
45

>  <original_smiles>  (163) 
Cc1nnsc1C(=O)NN=Cc1cccs1

>  <smiles>  (163) 
[H]C(=NN([H])C(=O)c1snnc1C([H])([H])[H])c1sc([H])c([H])c1[H]

$$$$
45:1:1
     RDKit          3D

 24 25  0  0  1  0  0  0  0  0999 V2000
    0.9607   -8.6378    2.5480 C   0  0  0  0  0  0  0  0  0  0  0  0
    2.3736   -8.3615    2.1113 C   0  0  0  0  0  0  0  0  0  0  0  0
    3.3531   -9.3350    2.3559 N   0  0  0  0  0  0  0  0  0  0  0  0
    4.5468   -9.0218    1.9367 N   0  0  0  0  0  0  0  0  0  0  0  0
    4.5589   -7.5171    1.2129 S   0  0  0  0  0  0  0  0  0  0  0  0
    2.8731   -7.2441    1.4798 C   0  0  0  0  0  0  0  0  0  0  0  0
    2.2639   -5.9822    0.9770 C   0  0  0  0  0  0  0  0  0  0  0  0
    1.0361   -5.8585    1.0086 O   0  0  0  0  0  0  0  0  0  0  0  0
    3.0840   -5.0376    0.4793 N   0  0  0  0  0  0  0  0  0  0  0  0
    2.6325   -3.8660   -0.0523 N   0  0  0  0  0  0  0  0  0  0  0  0
    3.4454   -3.0279   -0.6066 C   0  0  0  0  0  0  0  0  0  0  0  0
    4.8882   -3.1358   -0.7023 C   0  0  0  0  0  0  0  0  0  0  0  0
    5.8022   -3.5289    0.2466 C   0  0  0  0  0  0  0  0  0  0  0  0
    7.1515   -3.4610   -0.2141 C   0  0  0  0  0  0  0  0  0  0  0  0
    7.2537   -3.0417   -1.5156 C   0  0  0  0  0  0  0  0  0  0  0  0
    5.6846   -2.7167   -2.2018 S   0  0  0  0  0  0  0  0  0  0  0  0
    0.2675   -7.8318    2.3038 H   0  0  0  0  0  0  0  0  0  0  0  0
    0.9181   -8.7820    3.6275 H   0  0  0  0  0  0  0  0  0  0  0  0
    0.5762   -9.5451    2.0801 H   0  0  0  0  0  0  0  0  0  0  0  0
    4.0825   -5.1861    0.4143 H   0  0  0  0  0  0  0  0  0  0  0  0
    3.0229   -2.1151   -1.0370 H   0  0  0  0  0  0  0  0  0  0  0  0
    5.5575   -3.8254    1.2562 H   0  0  0  0  0  0  0  0  0  0  0  0
    7.9906   -3.7249    0.4154 H   0  0  0  0  0  0  0  0  0  0  0  0
    8.1490   -2.9262   -2.1149 H   0  0  0  0  0  0  0  0  0  0  0  0
  1  2  1  0
  1 17  1  0
  1 18  1  0
  1 19  1  0
  2  6  2  0
  2  3  1  0
  3  4  2  0
  4  5  1  0
  5  6  1  0
  6  7  1  0
  7  8  2  0
  7  9  1  0
  9 10  1  0
  9 20  1  0
 10 11  2  3
 11 12  1  0
 11 21  1  0
 12 16  1  0
 12 13  2  0
 13 14  1  0
 13 22  1  0
 14 15  2  0
 14 23  1  0
 15 16  1  0
 15 24  1  0
M  END
>  <i_m_ct_stereo_status>  (164) 
1

>  <s_m_source_file>  (164) 
/var/tmp/pbs.5076255.sched01/tmp323fbwsu/45qgza_o8k.sdf

>  <i_m_source_file_index>  (164) 
20

>  <i_lp_mmshare_version>  (164) 
48012

>  <i_f3d_flags>  (164) 
0

>  <s_epik_input>  (164) 
W0NIM11jMW5uc2MxQyg9TylbTkhdL049W0NIXS9jMltjSF1bY0hdW2NIXXMy

>  <s_epik_cmdline>  (164) 
J2VwaWtfcHl0aG9uJywgJy1waHQnLCAnMi4wJywgJy1waCcsICc3LjAnLCAnLXRuJywgJzgnLCAnLW1hJywgJzIwMCcsICctaW1hZScsICc8aW5maWxlLm1hZT4nLCAnLW9tYWUnLCAnPG91dGZpbGUubWFlPic=

>  <r_lp_tautomer_probability>  (164) 
1

>  <r_epik_Ionization_Penalty>  (164) 
0.0905953

>  <r_epik_Ionization_Penalty_Charging>  (164) 
0

>  <r_epik_Ionization_Penalty_Neutral>  (164) 
0.0905953

>  <r_epik_State_Penalty>  (164) 
0.0809598

>  <r_epik_Charging_Adjusted_Penalty>  (164) 
0.0809598

>  <i_epik_Tot_Q>  (164) 
0

>  <i_epik_Tot_abs_Q>  (164) 
0

>  <s_epik_Chemistry_Notes>  (164) 
This compound has an imine and may undergo hydrolysis.

>  <s_lp_Force_Field>  (164) 
OPLS3e

>  <r_lp_Energy>  (164) 
23.1256

>  <b_lp_Chiralities_Consistent>  (164) 
1

>  <s_lp_Variant>  (164) 
45:0-2

>  <s_i_glide_gridfile>  (164) 
pfpi4k_grid

>  <i_i_glide_lignum>  (164) 
20

>  <i_i_glide_rotatable_bonds>  (164) 
4

>  <r_i_docking_score>  (164) 
-3.52149

>  <r_i_glide_ligand_efficiency>  (164) 
-0.220093

>  <r_i_glide_ligand_efficiency_sa>  (164) 
-0.554599

>  <r_i_glide_ligand_efficiency_ln>  (164) 
-0.93344

>  <r_i_glide_gscore>  (164) 
-3.52149

>  <r_i_glide_lipo>  (164) 
-0.416595

>  <r_i_glide_hbond>  (164) 
-0.16

>  <r_i_glide_metal>  (164) 
-0

>  <r_i_glide_rewards>  (164) 
-1.68874

>  <r_i_glide_evdw>  (164) 
-23.2679

>  <r_i_glide_ecoul>  (164) 
-5.33868

>  <r_i_glide_erotb>  (164) 
0.826807

>  <r_i_glide_esite>  (164) 
-0.118761

>  <r_i_glide_emodel>  (164) 
-33.1534

>  <r_i_glide_energy>  (164) 
-28.6066

>  <r_i_glide_einternal>  (164) 
4.11012

>  <r_i_glide_intrahb_reward>  (164) 
-0

>  <i_i_glide_confnum>  (164) 
6

>  <i_i_glide_posenum>  (164) 
38

>  <r_i_glide_eff_state_penalty>  (164) 
0

>  <ligand_id>  (164) 
45

>  <original_smiles>  (164) 
Cc1nnsc1C(=O)NN=Cc1cccs1

>  <smiles>  (164) 
[H]C(=NN([H])C(=O)c1snnc1C([H])([H])[H])c1sc([H])c([H])c1[H]

$$$$
45:1:2
     RDKit          3D

 24 25  0  0  1  0  0  0  0  0999 V2000
    5.1629   -1.5349   -0.4019 C   0  0  0  0  0  0  0  0  0  0  0  0
    4.3471   -1.7891   -1.6324 C   0  0  0  0  0  0  0  0  0  0  0  0
    4.6017   -1.0278   -2.7742 N   0  0  0  0  0  0  0  0  0  0  0  0
    3.8312   -1.2899   -3.7900 N   0  0  0  0  0  0  0  0  0  0  0  0
    2.7350   -2.4968   -3.4180 S   0  0  0  0  0  0  0  0  0  0  0  0
    3.3356   -2.6928   -1.8128 C   0  0  0  0  0  0  0  0  0  0  0  0
    2.6668   -3.6937   -0.9555 C   0  0  0  0  0  0  0  0  0  0  0  0
    1.4961   -4.0304   -1.1450 O   0  0  0  0  0  0  0  0  0  0  0  0
    3.4442   -4.2670   -0.0292 N   0  0  0  0  0  0  0  0  0  0  0  0
    3.0467   -5.2142    0.8564 N   0  0  0  0  0  0  0  0  0  0  0  0
    3.9332   -5.9230    1.4852 C   0  0  0  0  0  0  0  0  0  0  0  0
    5.3820   -5.8902    1.3531 C   0  0  0  0  0  0  0  0  0  0  0  0
    6.2306   -4.8702    0.9802 C   0  0  0  0  0  0  0  0  0  0  0  0
    7.6027   -5.2453    0.9515 C   0  0  0  0  0  0  0  0  0  0  0  0
    7.8032   -6.5496    1.3066 C   0  0  0  0  0  0  0  0  0  0  0  0
    6.2960   -7.3470    1.6811 S   0  0  0  0  0  0  0  0  0  0  0  0
    4.8139   -2.1291    0.4376 H   0  0  0  0  0  0  0  0  0  0  0  0
    5.0734   -0.4979   -0.0728 H   0  0  0  0  0  0  0  0  0  0  0  0
    6.2189   -1.7661   -0.5785 H   0  0  0  0  0  0  0  0  0  0  0  0
    4.4218   -4.0274   -0.0133 H   0  0  0  0  0  0  0  0  0  0  0  0
    3.5640   -6.6342    2.2255 H   0  0  0  0  0  0  0  0  0  0  0  0
    5.9597   -3.8594    0.7384 H   0  0  0  0  0  0  0  0  0  0  0  0
    8.3858   -4.5446    0.6912 H   0  0  0  0  0  0  0  0  0  0  0  0
    8.7375   -7.0932    1.3857 H   0  0  0  0  0  0  0  0  0  0  0  0
  1  2  1  0
  1 17  1  0
  1 18  1  0
  1 19  1  0
  2  6  2  0
  2  3  1  0
  3  4  2  0
  4  5  1  0
  5  6  1  0
  6  7  1  0
  7  8  2  0
  7  9  1  0
  9 10  1  0
  9 20  1  0
 10 11  2  3
 11 12  1  0
 11 21  1  0
 12 16  1  0
 12 13  2  0
 13 14  1  0
 13 22  1  0
 14 15  2  0
 14 23  1  0
 15 16  1  0
 15 24  1  0
M  END
>  <i_m_ct_stereo_status>  (165) 
1

>  <s_m_source_file>  (165) 
/var/tmp/pbs.5076255.sched01/tmp323fbwsu/45qgza_o8k.sdf

>  <i_m_source_file_index>  (165) 
20

>  <i_lp_mmshare_version>  (165) 
48012

>  <i_f3d_flags>  (165) 
0

>  <s_epik_input>  (165) 
W0NIM11jMW5uc2MxQyg9TylbTkhdL049W0NIXS9jMltjSF1bY0hdW2NIXXMy

>  <s_epik_cmdline>  (165) 
J2VwaWtfcHl0aG9uJywgJy1waHQnLCAnMi4wJywgJy1waCcsICc3LjAnLCAnLXRuJywgJzgnLCAnLW1hJywgJzIwMCcsICctaW1hZScsICc8aW5maWxlLm1hZT4nLCAnLW9tYWUnLCAnPG91dGZpbGUubWFlPic=

>  <r_lp_tautomer_probability>  (165) 
1

>  <r_epik_Ionization_Penalty>  (165) 
0.0905953

>  <r_epik_Ionization_Penalty_Charging>  (165) 
0

>  <r_epik_Ionization_Penalty_Neutral>  (165) 
0.0905953

>  <r_epik_State_Penalty>  (165) 
0.0809598

>  <r_epik_Charging_Adjusted_Penalty>  (165) 
0.0809598

>  <i_epik_Tot_Q>  (165) 
0

>  <i_epik_Tot_abs_Q>  (165) 
0

>  <s_epik_Chemistry_Notes>  (165) 
This compound has an imine and may undergo hydrolysis.

>  <s_lp_Force_Field>  (165) 
OPLS3e

>  <r_lp_Energy>  (165) 
23.1256

>  <b_lp_Chiralities_Consistent>  (165) 
1

>  <s_lp_Variant>  (165) 
45:0-2

>  <s_i_glide_gridfile>  (165) 
pfpi4k_grid

>  <i_i_glide_lignum>  (165) 
20

>  <i_i_glide_rotatable_bonds>  (165) 
4

>  <r_i_docking_score>  (165) 
-3.17891

>  <r_i_glide_ligand_efficiency>  (165) 
-0.198682

>  <r_i_glide_ligand_efficiency_sa>  (165) 
-0.500647

>  <r_i_glide_ligand_efficiency_ln>  (165) 
-0.842634

>  <r_i_glide_gscore>  (165) 
-3.17891

>  <r_i_glide_lipo>  (165) 
-0.559813

>  <r_i_glide_hbond>  (165) 
-0.0131992

>  <r_i_glide_metal>  (165) 
-0

>  <r_i_glide_rewards>  (165) 
-1.74422

>  <r_i_glide_evdw>  (165) 
-25.4354

>  <r_i_glide_ecoul>  (165) 
-2.44525

>  <r_i_glide_erotb>  (165) 
0.826807

>  <r_i_glide_esite>  (165) 
-0.0499332

>  <r_i_glide_emodel>  (165) 
-32.2893

>  <r_i_glide_energy>  (165) 
-27.8806

>  <r_i_glide_einternal>  (165) 
2.80582

>  <r_i_glide_intrahb_reward>  (165) 
-0

>  <i_i_glide_confnum>  (165) 
1

>  <i_i_glide_posenum>  (165) 
15

>  <r_i_glide_eff_state_penalty>  (165) 
0

>  <ligand_id>  (165) 
45

>  <original_smiles>  (165) 
Cc1nnsc1C(=O)NN=Cc1cccs1

>  <smiles>  (165) 
[H]C(=NN([H])C(=O)c1snnc1C([H])([H])[H])c1sc([H])c([H])c1[H]

$$$$
45:2:0
     RDKit          3D

 23 24  0  0  1  0  0  0  0  0999 V2000
    3.5053   -8.9896    1.5200 C   0  0  0  0  0  0  0  0  0  0  0  0
    2.1238   -8.9484    2.1222 C   0  0  0  0  0  0  0  0  0  0  0  0
    1.6960  -10.0429    2.8966 N   0  0  0  0  0  0  0  0  0  0  0  0
    0.4758   -9.9475    3.3416 N   0  0  0  0  0  0  0  0  0  0  0  0
   -0.2411   -8.5176    2.8552 S   0  0  0  0  0  0  0  0  0  0  0  0
    1.1519   -7.9808    1.9884 C   0  0  0  0  0  0  0  0  0  0  0  0
    1.0191   -6.7055    1.2643 C   0  0  0  0  0  0  0  0  0  0  0  0
   -0.0811   -6.3290    0.8564 O   0  0  0  0  0  0  0  0  0  0  0  0
    2.1889   -6.0430    1.1750 N   0  0  0  0  0  0  0  0  0  0  0  0
    2.2062   -5.0351    0.1683 N   0  0  0  0  0  0  0  0  0  0  0  0
    3.2642   -4.3482    0.0817 C   0  0  0  0  0  0  0  0  0  0  0  0
    3.4269   -3.3058   -0.9019 C   0  0  0  0  0  0  0  0  0  0  0  0
    2.6372   -3.0566   -1.9977 C   0  0  0  0  0  0  0  0  0  0  0  0
    3.0722   -1.9228   -2.7488 C   0  0  0  0  0  0  0  0  0  0  0  0
    4.1815   -1.3223   -2.2094 C   0  0  0  0  0  0  0  0  0  0  0  0
    4.7217   -2.1453   -0.7686 S   0  0  0  0  0  0  0  0  0  0  0  0
    3.7471   -8.1121    0.9172 H   0  0  0  0  0  0  0  0  0  0  0  0
    3.6246   -9.8575    0.8701 H   0  0  0  0  0  0  0  0  0  0  0  0
    4.2557   -9.0506    2.3098 H   0  0  0  0  0  0  0  0  0  0  0  0
    4.1115   -4.5118    0.7545 H   0  0  0  0  0  0  0  0  0  0  0  0
    1.7696   -3.6343   -2.2735 H   0  0  0  0  0  0  0  0  0  0  0  0
    2.5446   -1.5918   -3.6335 H   0  0  0  0  0  0  0  0  0  0  0  0
    4.6975   -0.4365   -2.5471 H   0  0  0  0  0  0  0  0  0  0  0  0
  1  2  1  0
  1 17  1  0
  1 18  1  0
  1 19  1  0
  2  6  2  0
  2  3  1  0
  3  4  2  0
  4  5  1  0
  5  6  1  0
  6  7  1  0
  7  8  2  0
  7  9  1  0
  9 10  1  0
 10 11  2  3
 11 12  1  0
 11 20  1  0
 12 16  1  0
 12 13  2  0
 13 14  1  0
 13 21  1  0
 14 15  2  0
 14 22  1  0
 15 16  1  0
 15 23  1  0
M  CHG  1   9  -1
M  END
>  <i_m_ct_stereo_status>  (166) 
1

>  <s_m_source_file>  (166) 
/var/tmp/pbs.5076255.sched01/tmp323fbwsu/45qgza_o8k.sdf

>  <i_m_source_file_index>  (166) 
21

>  <i_lp_mmshare_version>  (166) 
48012

>  <i_f3d_flags>  (166) 
0

>  <s_epik_input>  (166) 
W0NIM11jMW5uc2MxQyg9TylbTkhdL049W0NIXS9jMltjSF1bY0hdW2NIXXMy

>  <s_epik_cmdline>  (166) 
J2VwaWtfcHl0aG9uJywgJy1waHQnLCAnMi4wJywgJy1waCcsICc3LjAnLCAnLXRuJywgJzgnLCAnLW1hJywgJzIwMCcsICctaW1hZScsICc8aW5maWxlLm1hZT4nLCAnLW9tYWUnLCAnPG91dGZpbGUubWFlPic=

>  <r_epik_Ionization_Penalty>  (166) 
1.15736

>  <r_epik_Ionization_Penalty_Charging>  (166) 
1.15736

>  <r_epik_Ionization_Penalty_Neutral>  (166) 
3.7623e-11

>  <r_epik_State_Penalty>  (166) 
1.21929

>  <r_epik_Charging_Adjusted_Penalty>  (166) 
2.37665

>  <i_epik_Tot_Q>  (166) 
-1

>  <i_epik_Tot_abs_Q>  (166) 
1

>  <s_epik_Chemistry_Notes>  (166) 
This compound has an imine and may undergo hydrolysis.

>  <s_lp_Force_Field>  (166) 
OPLS3e

>  <r_lp_Energy>  (166) 
14.5469

>  <b_lp_Chiralities_Consistent>  (166) 
1

>  <s_lp_Variant>  (166) 
45:0-3

>  <s_i_glide_gridfile>  (166) 
pfpi4k_grid

>  <i_i_glide_lignum>  (166) 
21

>  <i_i_glide_rotatable_bonds>  (166) 
4

>  <r_i_docking_score>  (166) 
-3.11892

>  <r_i_glide_ligand_efficiency>  (166) 
-0.194932

>  <r_i_glide_ligand_efficiency_sa>  (166) 
-0.491199

>  <r_i_glide_ligand_efficiency_ln>  (166) 
-0.826732

>  <r_i_glide_gscore>  (166) 
-3.11892

>  <r_i_glide_lipo>  (166) 
-0.0968112

>  <r_i_glide_hbond>  (166) 
-0.185049

>  <r_i_glide_metal>  (166) 
-0

>  <r_i_glide_rewards>  (166) 
-1.69561

>  <r_i_glide_evdw>  (166) 
-26.1259

>  <r_i_glide_ecoul>  (166) 
-3.04883

>  <r_i_glide_erotb>  (166) 
0.832505

>  <r_i_glide_esite>  (166) 
-0.210329

>  <r_i_glide_emodel>  (166) 
-34.3009

>  <r_i_glide_energy>  (166) 
-29.1748

>  <r_i_glide_einternal>  (166) 
2.94315

>  <r_i_glide_intrahb_reward>  (166) 
-0

>  <i_i_glide_confnum>  (166) 
6

>  <i_i_glide_posenum>  (166) 
39

>  <r_i_glide_eff_state_penalty>  (166) 
0

>  <ligand_id>  (166) 
45

>  <original_smiles>  (166) 
Cc1nnsc1C(=O)NN=Cc1cccs1

>  <smiles>  (166) 
[H]C(=N[N-]C(=O)c1snnc1C([H])([H])[H])c1sc([H])c([H])c1[H]

$$$$
45:2:1
     RDKit          3D

 23 24  0  0  1  0  0  0  0  0999 V2000
   -1.4493   -8.4860    2.5501 C   0  0  0  0  0  0  0  0  0  0  0  0
    0.0293   -8.7704    2.5414 C   0  0  0  0  0  0  0  0  0  0  0  0
    0.4978   -9.9837    3.0805 N   0  0  0  0  0  0  0  0  0  0  0  0
    1.7876  -10.1540    2.9950 N   0  0  0  0  0  0  0  0  0  0  0  0
    2.5165   -8.8566    2.2347 S   0  0  0  0  0  0  0  0  0  0  0  0
    1.0285   -7.9928    2.0146 C   0  0  0  0  0  0  0  0  0  0  0  0
    1.0152   -6.7073    1.2826 C   0  0  0  0  0  0  0  0  0  0  0  0
   -0.0511   -6.3137    0.8123 O   0  0  0  0  0  0  0  0  0  0  0  0
    2.2218   -6.1006    1.1768 N   0  0  0  0  0  0  0  0  0  0  0  0
    2.2291   -5.0529    0.2073 N   0  0  0  0  0  0  0  0  0  0  0  0
    3.2927   -4.3760    0.0884 C   0  0  0  0  0  0  0  0  0  0  0  0
    3.4422   -3.3318   -0.9032 C   0  0  0  0  0  0  0  0  0  0  0  0
    2.6364   -3.0651   -1.9819 C   0  0  0  0  0  0  0  0  0  0  0  0
    3.0786   -1.9485   -2.7486 C   0  0  0  0  0  0  0  0  0  0  0  0
    4.2111   -1.3704   -2.2344 C   0  0  0  0  0  0  0  0  0  0  0  0
    4.7650   -2.2003   -0.8039 S   0  0  0  0  0  0  0  0  0  0  0  0
   -1.7198   -7.5323    2.0949 H   0  0  0  0  0  0  0  0  0  0  0  0
   -1.8147   -8.4602    3.5741 H   0  0  0  0  0  0  0  0  0  0  0  0
   -1.9913   -9.2621    2.0077 H   0  0  0  0  0  0  0  0  0  0  0  0
    4.1557   -4.5535    0.7329 H   0  0  0  0  0  0  0  0  0  0  0  0
    1.7515   -3.6327   -2.2417 H   0  0  0  0  0  0  0  0  0  0  0  0
    2.5401   -1.6097   -3.6233 H   0  0  0  0  0  0  0  0  0  0  0  0
    4.7396   -0.4981   -2.5864 H   0  0  0  0  0  0  0  0  0  0  0  0
  1  2  1  0
  1 17  1  0
  1 18  1  0
  1 19  1  0
  2  6  2  0
  2  3  1  0
  3  4  2  0
  4  5  1  0
  5  6  1  0
  6  7  1  0
  7  8  2  0
  7  9  1  0
  9 10  1  0
 10 11  2  3
 11 12  1  0
 11 20  1  0
 12 16  1  0
 12 13  2  0
 13 14  1  0
 13 21  1  0
 14 15  2  0
 14 22  1  0
 15 16  1  0
 15 23  1  0
M  CHG  1   9  -1
M  END
>  <i_m_ct_stereo_status>  (167) 
1

>  <s_m_source_file>  (167) 
/var/tmp/pbs.5076255.sched01/tmp323fbwsu/45qgza_o8k.sdf

>  <i_m_source_file_index>  (167) 
21

>  <i_lp_mmshare_version>  (167) 
48012

>  <i_f3d_flags>  (167) 
0

>  <s_epik_input>  (167) 
W0NIM11jMW5uc2MxQyg9TylbTkhdL049W0NIXS9jMltjSF1bY0hdW2NIXXMy

>  <s_epik_cmdline>  (167) 
J2VwaWtfcHl0aG9uJywgJy1waHQnLCAnMi4wJywgJy1waCcsICc3LjAnLCAnLXRuJywgJzgnLCAnLW1hJywgJzIwMCcsICctaW1hZScsICc8aW5maWxlLm1hZT4nLCAnLW9tYWUnLCAnPG91dGZpbGUubWFlPic=

>  <r_epik_Ionization_Penalty>  (167) 
1.15736

>  <r_epik_Ionization_Penalty_Charging>  (167) 
1.15736

>  <r_epik_Ionization_Penalty_Neutral>  (167) 
3.7623e-11

>  <r_epik_State_Penalty>  (167) 
1.21929

>  <r_epik_Charging_Adjusted_Penalty>  (167) 
2.37665

>  <i_epik_Tot_Q>  (167) 
-1

>  <i_epik_Tot_abs_Q>  (167) 
1

>  <s_epik_Chemistry_Notes>  (167) 
This compound has an imine and may undergo hydrolysis.

>  <s_lp_Force_Field>  (167) 
OPLS3e

>  <r_lp_Energy>  (167) 
14.5469

>  <b_lp_Chiralities_Consistent>  (167) 
1

>  <s_lp_Variant>  (167) 
45:0-3

>  <s_i_glide_gridfile>  (167) 
pfpi4k_grid

>  <i_i_glide_lignum>  (167) 
21

>  <i_i_glide_rotatable_bonds>  (167) 
4

>  <r_i_docking_score>  (167) 
-3.08544

>  <r_i_glide_ligand_efficiency>  (167) 
-0.19284

>  <r_i_glide_ligand_efficiency_sa>  (167) 
-0.485926

>  <r_i_glide_ligand_efficiency_ln>  (167) 
-0.817857

>  <r_i_glide_gscore>  (167) 
-3.08544

>  <r_i_glide_lipo>  (167) 
-0.110158

>  <r_i_glide_hbond>  (167) 
-0.173324

>  <r_i_glide_metal>  (167) 
-0

>  <r_i_glide_rewards>  (167) 
-1.69561

>  <r_i_glide_evdw>  (167) 
-26.4524

>  <r_i_glide_ecoul>  (167) 
-2.83471

>  <r_i_glide_erotb>  (167) 
0.832505

>  <r_i_glide_esite>  (167) 
-0.191021

>  <r_i_glide_emodel>  (167) 
-35.1753

>  <r_i_glide_energy>  (167) 
-29.2871

>  <r_i_glide_einternal>  (167) 
1.19181

>  <r_i_glide_intrahb_reward>  (167) 
-0

>  <i_i_glide_confnum>  (167) 
6

>  <i_i_glide_posenum>  (167) 
1

>  <r_i_glide_eff_state_penalty>  (167) 
0

>  <ligand_id>  (167) 
45

>  <original_smiles>  (167) 
Cc1nnsc1C(=O)NN=Cc1cccs1

>  <smiles>  (167) 
[H]C(=N[N-]C(=O)c1snnc1C([H])([H])[H])c1sc([H])c([H])c1[H]

$$$$
45:2:2
     RDKit          3D

 23 24  0  0  1  0  0  0  0  0999 V2000
   -1.6545   -8.8397    2.6558 C   0  0  0  0  0  0  0  0  0  0  0  0
   -0.1826   -9.1029    2.7284 C   0  0  0  0  0  0  0  0  0  0  0  0
    0.2799  -10.3111    3.2834 N   0  0  0  0  0  0  0  0  0  0  0  0
    1.5703  -10.4539    3.2795 N   0  0  0  0  0  0  0  0  0  0  0  0
    2.3175   -9.1354    2.5832 S   0  0  0  0  0  0  0  0  0  0  0  0
    0.8321   -8.2942    2.2859 C   0  0  0  0  0  0  0  0  0  0  0  0
    0.8548   -6.9904    1.5911 C   0  0  0  0  0  0  0  0  0  0  0  0
   -0.1864   -6.5530    1.0801 O   0  0  0  0  0  0  0  0  0  0  0  0
    2.0666   -6.3870    1.5815 N   0  0  0  0  0  0  0  0  0  0  0  0
    2.1667   -5.3484    0.6170 N   0  0  0  0  0  0  0  0  0  0  0  0
    3.3000   -4.8307    0.4174 C   0  0  0  0  0  0  0  0  0  0  0  0
    3.5153   -3.8299   -0.6060 C   0  0  0  0  0  0  0  0  0  0  0  0
    4.6434   -3.0920   -0.8518 C   0  0  0  0  0  0  0  0  0  0  0  0
    4.4822   -2.1857   -1.9421 C   0  0  0  0  0  0  0  0  0  0  0  0
    3.2377   -2.2573   -2.5202 C   0  0  0  0  0  0  0  0  0  0  0  0
    2.2424   -3.4448   -1.7440 S   0  0  0  0  0  0  0  0  0  0  0  0
   -1.9098   -7.8829    2.1941 H   0  0  0  0  0  0  0  0  0  0  0  0
   -2.0793   -8.8375    3.6578 H   0  0  0  0  0  0  0  0  0  0  0  0
   -2.1491   -9.6173    2.0758 H   0  0  0  0  0  0  0  0  0  0  0  0
    4.1707   -5.1243    1.0093 H   0  0  0  0  0  0  0  0  0  0  0  0
    5.5550   -3.1718   -0.2777 H   0  0  0  0  0  0  0  0  0  0  0  0
    5.2731   -1.5157   -2.2504 H   0  0  0  0  0  0  0  0  0  0  0  0
    2.8278   -1.6790   -3.3394 H   0  0  0  0  0  0  0  0  0  0  0  0
  1  2  1  0
  1 17  1  0
  1 18  1  0
  1 19  1  0
  2  6  2  0
  2  3  1  0
  3  4  2  0
  4  5  1  0
  5  6  1  0
  6  7  1  0
  7  8  2  0
  7  9  1  0
  9 10  1  0
 10 11  2  3
 11 12  1  0
 11 20  1  0
 12 16  1  0
 12 13  2  0
 13 14  1  0
 13 21  1  0
 14 15  2  0
 14 22  1  0
 15 16  1  0
 15 23  1  0
M  CHG  1   9  -1
M  END
>  <i_m_ct_stereo_status>  (168) 
1

>  <s_m_source_file>  (168) 
/var/tmp/pbs.5076255.sched01/tmp323fbwsu/45qgza_o8k.sdf

>  <i_m_source_file_index>  (168) 
21

>  <i_lp_mmshare_version>  (168) 
48012

>  <i_f3d_flags>  (168) 
0

>  <s_epik_input>  (168) 
W0NIM11jMW5uc2MxQyg9TylbTkhdL049W0NIXS9jMltjSF1bY0hdW2NIXXMy

>  <s_epik_cmdline>  (168) 
J2VwaWtfcHl0aG9uJywgJy1waHQnLCAnMi4wJywgJy1waCcsICc3LjAnLCAnLXRuJywgJzgnLCAnLW1hJywgJzIwMCcsICctaW1hZScsICc8aW5maWxlLm1hZT4nLCAnLW9tYWUnLCAnPG91dGZpbGUubWFlPic=

>  <r_epik_Ionization_Penalty>  (168) 
1.15736

>  <r_epik_Ionization_Penalty_Charging>  (168) 
1.15736

>  <r_epik_Ionization_Penalty_Neutral>  (168) 
3.7623e-11

>  <r_epik_State_Penalty>  (168) 
1.21929

>  <r_epik_Charging_Adjusted_Penalty>  (168) 
2.37665

>  <i_epik_Tot_Q>  (168) 
-1

>  <i_epik_Tot_abs_Q>  (168) 
1

>  <s_epik_Chemistry_Notes>  (168) 
This compound has an imine and may undergo hydrolysis.

>  <s_lp_Force_Field>  (168) 
OPLS3e

>  <r_lp_Energy>  (168) 
14.5469

>  <b_lp_Chiralities_Consistent>  (168) 
1

>  <s_lp_Variant>  (168) 
45:0-3

>  <s_i_glide_gridfile>  (168) 
pfpi4k_grid

>  <i_i_glide_lignum>  (168) 
21

>  <i_i_glide_rotatable_bonds>  (168) 
4

>  <r_i_docking_score>  (168) 
-3.02715

>  <r_i_glide_ligand_efficiency>  (168) 
-0.189197

>  <r_i_glide_ligand_efficiency_sa>  (168) 
-0.476747

>  <r_i_glide_ligand_efficiency_ln>  (168) 
-0.802408

>  <r_i_glide_gscore>  (168) 
-3.02715

>  <r_i_glide_lipo>  (168) 
-0.257364

>  <r_i_glide_hbond>  (168) 
-0.21589

>  <r_i_glide_metal>  (168) 
-0

>  <r_i_glide_rewards>  (168) 
-1.69561

>  <r_i_glide_evdw>  (168) 
-25.5745

>  <r_i_glide_ecoul>  (168) 
-1.50726

>  <r_i_glide_erotb>  (168) 
0.832505

>  <r_i_glide_esite>  (168) 
-0.185978

>  <r_i_glide_emodel>  (168) 
-32.4617

>  <r_i_glide_energy>  (168) 
-27.0818

>  <r_i_glide_einternal>  (168) 
1.91238

>  <r_i_glide_intrahb_reward>  (168) 
-0

>  <i_i_glide_confnum>  (168) 
6

>  <i_i_glide_posenum>  (168) 
8

>  <r_i_glide_eff_state_penalty>  (168) 
0

>  <ligand_id>  (168) 
45

>  <original_smiles>  (168) 
Cc1nnsc1C(=O)NN=Cc1cccs1

>  <smiles>  (168) 
[H]C(=N[N-]C(=O)c1snnc1C([H])([H])[H])c1sc([H])c([H])c1[H]

$$$$
45:3:0
     RDKit          3D

 23 24  0  0  1  0  0  0  0  0999 V2000
   -1.6192   -9.0452    2.8917 C   0  0  0  0  0  0  0  0  0  0  0  0
   -0.1357   -9.2682    2.8320 C   0  0  0  0  0  0  0  0  0  0  0  0
    0.3804  -10.4806    3.3226 N   0  0  0  0  0  0  0  0  0  0  0  0
    1.6703  -10.6069    3.2219 N   0  0  0  0  0  0  0  0  0  0  0  0
    2.3483   -9.2680    2.4835 S   0  0  0  0  0  0  0  0  0  0  0  0
    0.8310   -8.4370    2.3234 C   0  0  0  0  0  0  0  0  0  0  0  0
    0.7650   -7.1006    1.6689 C   0  0  0  0  0  0  0  0  0  0  0  0
   -0.3350   -6.5660    1.5118 O   0  0  0  0  0  0  0  0  0  0  0  0
    1.9587   -6.5976    1.2816 N   0  0  0  0  0  0  0  0  0  0  0  0
    1.8544   -5.4430    0.4562 N   0  0  0  0  0  0  0  0  0  0  0  0
    2.8691   -4.7317    0.1594 C   0  0  0  0  0  0  0  0  0  0  0  0
    4.3016   -4.8570    0.4339 C   0  0  0  0  0  0  0  0  0  0  0  0
    5.2350   -3.8891    0.1527 C   0  0  0  0  0  0  0  0  0  0  0  0
    6.5684   -4.2699    0.4867 C   0  0  0  0  0  0  0  0  0  0  0  0
    6.6468   -5.5291    1.0197 C   0  0  0  0  0  0  0  0  0  0  0  0
    5.0740   -6.2754    1.1120 S   0  0  0  0  0  0  0  0  0  0  0  0
   -1.9327   -8.0888    2.4688 H   0  0  0  0  0  0  0  0  0  0  0  0
   -1.9673   -9.0552    3.9258 H   0  0  0  0  0  0  0  0  0  0  0  0
   -2.1520   -9.8180    2.3345 H   0  0  0  0  0  0  0  0  0  0  0  0
    2.6515   -3.8320   -0.4246 H   0  0  0  0  0  0  0  0  0  0  0  0
    4.9915   -2.9324   -0.2840 H   0  0  0  0  0  0  0  0  0  0  0  0
    7.4057   -3.6085    0.3165 H   0  0  0  0  0  0  0  0  0  0  0  0
    7.5217   -6.0669    1.3593 H   0  0  0  0  0  0  0  0  0  0  0  0
  1  2  1  0
  1 17  1  0
  1 18  1  0
  1 19  1  0
  2  6  2  0
  2  3  1  0
  3  4  2  0
  4  5  1  0
  5  6  1  0
  6  7  1  0
  7  8  2  0
  7  9  1  0
  9 10  1  0
 10 11  2  3
 11 12  1  0
 11 20  1  0
 12 16  1  0
 12 13  2  0
 13 14  1  0
 13 21  1  0
 14 15  2  0
 14 22  1  0
 15 16  1  0
 15 23  1  0
M  CHG  1   9  -1
M  END
>  <i_m_ct_stereo_status>  (169) 
1

>  <s_m_source_file>  (169) 
/var/tmp/pbs.5076255.sched01/tmp323fbwsu/45qgza_o8k.sdf

>  <i_m_source_file_index>  (169) 
22

>  <i_lp_mmshare_version>  (169) 
48012

>  <i_f3d_flags>  (169) 
0

>  <s_epik_input>  (169) 
W0NIM11jMW5uc2MxQyg9TylbTkhdL049W0NIXS9jMltjSF1bY0hdW2NIXXMy

>  <s_epik_cmdline>  (169) 
J2VwaWtfcHl0aG9uJywgJy1waHQnLCAnMi4wJywgJy1waCcsICc3LjAnLCAnLXRuJywgJzgnLCAnLW1hJywgJzIwMCcsICctaW1hZScsICc8aW5maWxlLm1hZT4nLCAnLW9tYWUnLCAnPG91dGZpbGUubWFlPic=

>  <r_epik_Ionization_Penalty>  (169) 
1.15736

>  <r_epik_Ionization_Penalty_Charging>  (169) 
1.15736

>  <r_epik_Ionization_Penalty_Neutral>  (169) 
3.7623e-11

>  <r_epik_State_Penalty>  (169) 
1.21929

>  <r_epik_Charging_Adjusted_Penalty>  (169) 
2.37665

>  <i_epik_Tot_Q>  (169) 
-1

>  <i_epik_Tot_abs_Q>  (169) 
1

>  <s_epik_Chemistry_Notes>  (169) 
This compound has an imine and may undergo hydrolysis.

>  <s_lp_Force_Field>  (169) 
OPLS3e

>  <r_lp_Energy>  (169) 
21.0065

>  <b_lp_Chiralities_Consistent>  (169) 
1

>  <s_lp_Variant>  (169) 
45:0-4

>  <s_i_glide_gridfile>  (169) 
pfpi4k_grid

>  <i_i_glide_lignum>  (169) 
22

>  <i_i_glide_rotatable_bonds>  (169) 
4

>  <r_i_docking_score>  (169) 
-3.58247

>  <r_i_glide_ligand_efficiency>  (169) 
-0.223904

>  <r_i_glide_ligand_efficiency_sa>  (169) 
-0.564203

>  <r_i_glide_ligand_efficiency_ln>  (169) 
-0.949604

>  <r_i_glide_gscore>  (169) 
-3.58247

>  <r_i_glide_lipo>  (169) 
-0.424991

>  <r_i_glide_hbond>  (169) 
-0.29101

>  <r_i_glide_metal>  (169) 
-0

>  <r_i_glide_rewards>  (169) 
-1.69561

>  <r_i_glide_evdw>  (169) 
-23.351

>  <r_i_glide_ecoul>  (169) 
-3.97023

>  <r_i_glide_erotb>  (169) 
0.832505

>  <r_i_glide_esite>  (169) 
-0.240273

>  <r_i_glide_emodel>  (169) 
-35.0618

>  <r_i_glide_energy>  (169) 
-27.3212

>  <r_i_glide_einternal>  (169) 
0.289562

>  <r_i_glide_intrahb_reward>  (169) 
-0

>  <i_i_glide_confnum>  (169) 
6

>  <i_i_glide_posenum>  (169) 
33

>  <r_i_glide_eff_state_penalty>  (169) 
0

>  <ligand_id>  (169) 
45

>  <original_smiles>  (169) 
Cc1nnsc1C(=O)NN=Cc1cccs1

>  <smiles>  (169) 
[H]C(=N[N-]C(=O)c1snnc1C([H])([H])[H])c1sc([H])c([H])c1[H]

$$$$
45:3:1
     RDKit          3D

 23 24  0  0  1  0  0  0  0  0999 V2000
   -1.5689   -9.0511    2.9028 C   0  0  0  0  0  0  0  0  0  0  0  0
   -0.0836   -9.2529    2.8491 C   0  0  0  0  0  0  0  0  0  0  0  0
    0.4509  -10.4515    3.3542 N   0  0  0  0  0  0  0  0  0  0  0  0
    1.7418  -10.5594    3.2559 N   0  0  0  0  0  0  0  0  0  0  0  0
    2.3974   -9.2159    2.5043 S   0  0  0  0  0  0  0  0  0  0  0  0
    0.8692   -8.4078    2.3314 C   0  0  0  0  0  0  0  0  0  0  0  0
    0.7828   -7.0781    1.6611 C   0  0  0  0  0  0  0  0  0  0  0  0
   -0.3260   -6.5663    1.4924 O   0  0  0  0  0  0  0  0  0  0  0  0
    1.9635   -6.5430    1.2716 N   0  0  0  0  0  0  0  0  0  0  0  0
    1.8435   -5.3986    0.4182 N   0  0  0  0  0  0  0  0  0  0  0  0
    2.8666   -4.6975    0.1109 C   0  0  0  0  0  0  0  0  0  0  0  0
    4.2808   -4.8945    0.4301 C   0  0  0  0  0  0  0  0  0  0  0  0
    4.9330   -6.0337    0.8304 C   0  0  0  0  0  0  0  0  0  0  0  0
    6.3248   -5.8413    1.0514 C   0  0  0  0  0  0  0  0  0  0  0  0
    6.7249   -4.5528    0.8145 C   0  0  0  0  0  0  0  0  0  0  0  0
    5.3912   -3.5502    0.3096 S   0  0  0  0  0  0  0  0  0  0  0  0
   -1.8978   -8.1044    2.4686 H   0  0  0  0  0  0  0  0  0  0  0  0
   -1.9194   -9.0556    3.9351 H   0  0  0  0  0  0  0  0  0  0  0  0
   -2.0900   -9.8382    2.3555 H   0  0  0  0  0  0  0  0  0  0  0  0
    2.6794   -3.8058   -0.4994 H   0  0  0  0  0  0  0  0  0  0  0  0
    4.4763   -7.0046    0.9645 H   0  0  0  0  0  0  0  0  0  0  0  0
    6.9714   -6.6492    1.3643 H   0  0  0  0  0  0  0  0  0  0  0  0
    7.7143   -4.1312    0.8991 H   0  0  0  0  0  0  0  0  0  0  0  0
  1  2  1  0
  1 17  1  0
  1 18  1  0
  1 19  1  0
  2  6  2  0
  2  3  1  0
  3  4  2  0
  4  5  1  0
  5  6  1  0
  6  7  1  0
  7  8  2  0
  7  9  1  0
  9 10  1  0
 10 11  2  3
 11 12  1  0
 11 20  1  0
 12 16  1  0
 12 13  2  0
 13 14  1  0
 13 21  1  0
 14 15  2  0
 14 22  1  0
 15 16  1  0
 15 23  1  0
M  CHG  1   9  -1
M  END
>  <i_m_ct_stereo_status>  (170) 
1

>  <s_m_source_file>  (170) 
/var/tmp/pbs.5076255.sched01/tmp323fbwsu/45qgza_o8k.sdf

>  <i_m_source_file_index>  (170) 
22

>  <i_lp_mmshare_version>  (170) 
48012

>  <i_f3d_flags>  (170) 
0

>  <s_epik_input>  (170) 
W0NIM11jMW5uc2MxQyg9TylbTkhdL049W0NIXS9jMltjSF1bY0hdW2NIXXMy

>  <s_epik_cmdline>  (170) 
J2VwaWtfcHl0aG9uJywgJy1waHQnLCAnMi4wJywgJy1waCcsICc3LjAnLCAnLXRuJywgJzgnLCAnLW1hJywgJzIwMCcsICctaW1hZScsICc8aW5maWxlLm1hZT4nLCAnLW9tYWUnLCAnPG91dGZpbGUubWFlPic=

>  <r_epik_Ionization_Penalty>  (170) 
1.15736

>  <r_epik_Ionization_Penalty_Charging>  (170) 
1.15736

>  <r_epik_Ionization_Penalty_Neutral>  (170) 
3.7623e-11

>  <r_epik_State_Penalty>  (170) 
1.21929

>  <r_epik_Charging_Adjusted_Penalty>  (170) 
2.37665

>  <i_epik_Tot_Q>  (170) 
-1

>  <i_epik_Tot_abs_Q>  (170) 
1

>  <s_epik_Chemistry_Notes>  (170) 
This compound has an imine and may undergo hydrolysis.

>  <s_lp_Force_Field>  (170) 
OPLS3e

>  <r_lp_Energy>  (170) 
21.0065

>  <b_lp_Chiralities_Consistent>  (170) 
1

>  <s_lp_Variant>  (170) 
45:0-4

>  <s_i_glide_gridfile>  (170) 
pfpi4k_grid

>  <i_i_glide_lignum>  (170) 
22

>  <i_i_glide_rotatable_bonds>  (170) 
4

>  <r_i_docking_score>  (170) 
-3.51841

>  <r_i_glide_ligand_efficiency>  (170) 
-0.219901

>  <r_i_glide_ligand_efficiency_sa>  (170) 
-0.554115

>  <r_i_glide_ligand_efficiency_ln>  (170) 
-0.932625

>  <r_i_glide_gscore>  (170) 
-3.51841

>  <r_i_glide_lipo>  (170) 
-0.407757

>  <r_i_glide_hbond>  (170) 
-0.295284

>  <r_i_glide_metal>  (170) 
-0

>  <r_i_glide_rewards>  (170) 
-1.69561

>  <r_i_glide_evdw>  (170) 
-23.0308

>  <r_i_glide_ecoul>  (170) 
-3.70792

>  <r_i_glide_erotb>  (170) 
0.832505

>  <r_i_glide_esite>  (170) 
-0.24453

>  <r_i_glide_emodel>  (170) 
-33.924

>  <r_i_glide_energy>  (170) 
-26.7388

>  <r_i_glide_einternal>  (170) 
1.09838

>  <r_i_glide_intrahb_reward>  (170) 
-0

>  <i_i_glide_confnum>  (170) 
6

>  <i_i_glide_posenum>  (170) 
36

>  <r_i_glide_eff_state_penalty>  (170) 
0

>  <ligand_id>  (170) 
45

>  <original_smiles>  (170) 
Cc1nnsc1C(=O)NN=Cc1cccs1

>  <smiles>  (170) 
[H]C(=N[N-]C(=O)c1snnc1C([H])([H])[H])c1sc([H])c([H])c1[H]

$$$$
45:3:2
     RDKit          3D

 23 24  0  0  1  0  0  0  0  0999 V2000
    3.6277   -9.1886    2.0017 C   0  0  0  0  0  0  0  0  0  0  0  0
    2.1971   -9.3660    2.3944 C   0  0  0  0  0  0  0  0  0  0  0  0
    1.8493  -10.5867    2.9846 N   0  0  0  0  0  0  0  0  0  0  0  0
    0.6004  -10.7046    3.2932 N   0  0  0  0  0  0  0  0  0  0  0  0
   -0.2459   -9.3311    2.9048 S   0  0  0  0  0  0  0  0  0  0  0  0
    1.1175   -8.5028    2.2671 C   0  0  0  0  0  0  0  0  0  0  0  0
    0.8561   -7.1434    1.7058 C   0  0  0  0  0  0  0  0  0  0  0  0
   -0.2984   -6.6807    1.6601 O   0  0  0  0  0  0  0  0  0  0  0  0
    1.9805   -6.5250    1.2919 N   0  0  0  0  0  0  0  0  0  0  0  0
    1.8296   -5.3926    0.4417 N   0  0  0  0  0  0  0  0  0  0  0  0
    2.8275   -4.6621    0.1045 C   0  0  0  0  0  0  0  0  0  0  0  0
    4.2731   -4.7364    0.3469 C   0  0  0  0  0  0  0  0  0  0  0  0
    5.1717   -3.7516    0.0046 C   0  0  0  0  0  0  0  0  0  0  0  0
    6.5328   -4.0736    0.3095 C   0  0  0  0  0  0  0  0  0  0  0  0
    6.6759   -5.3098    0.8794 C   0  0  0  0  0  0  0  0  0  0  0  0
    5.1310   -6.0847    1.0551 S   0  0  0  0  0  0  0  0  0  0  0  0
    3.7757   -8.2476    1.5095 H   0  0  0  0  0  0  0  0  0  0  0  0
    3.9572   -9.9307    1.2752 H   0  0  0  0  0  0  0  0  0  0  0  0
    4.2883   -9.2068    2.8713 H   0  0  0  0  0  0  0  0  0  0  0  0
    2.5590   -3.7864   -0.4919 H   0  0  0  0  0  0  0  0  0  0  0  0
    4.8779   -2.8204   -0.4584 H   0  0  0  0  0  0  0  0  0  0  0  0
    7.3456   -3.3902    0.0919 H   0  0  0  0  0  0  0  0  0  0  0  0
    7.5751   -5.8202    1.2070 H   0  0  0  0  0  0  0  0  0  0  0  0
  1  2  1  0
  1 17  1  0
  1 18  1  0
  1 19  1  0
  2  6  2  0
  2  3  1  0
  3  4  2  0
  4  5  1  0
  5  6  1  0
  6  7  1  0
  7  8  2  0
  7  9  1  0
  9 10  1  0
 10 11  2  3
 11 12  1  0
 11 20  1  0
 12 16  1  0
 12 13  2  0
 13 14  1  0
 13 21  1  0
 14 15  2  0
 14 22  1  0
 15 16  1  0
 15 23  1  0
M  CHG  1   9  -1
M  END
>  <i_m_ct_stereo_status>  (171) 
1

>  <s_m_source_file>  (171) 
/var/tmp/pbs.5076255.sched01/tmp323fbwsu/45qgza_o8k.sdf

>  <i_m_source_file_index>  (171) 
22

>  <i_lp_mmshare_version>  (171) 
48012

>  <i_f3d_flags>  (171) 
0

>  <s_epik_input>  (171) 
W0NIM11jMW5uc2MxQyg9TylbTkhdL049W0NIXS9jMltjSF1bY0hdW2NIXXMy

>  <s_epik_cmdline>  (171) 
J2VwaWtfcHl0aG9uJywgJy1waHQnLCAnMi4wJywgJy1waCcsICc3LjAnLCAnLXRuJywgJzgnLCAnLW1hJywgJzIwMCcsICctaW1hZScsICc8aW5maWxlLm1hZT4nLCAnLW9tYWUnLCAnPG91dGZpbGUubWFlPic=

>  <r_epik_Ionization_Penalty>  (171) 
1.15736

>  <r_epik_Ionization_Penalty_Charging>  (171) 
1.15736

>  <r_epik_Ionization_Penalty_Neutral>  (171) 
3.7623e-11

>  <r_epik_State_Penalty>  (171) 
1.21929

>  <r_epik_Charging_Adjusted_Penalty>  (171) 
2.37665

>  <i_epik_Tot_Q>  (171) 
-1

>  <i_epik_Tot_abs_Q>  (171) 
1

>  <s_epik_Chemistry_Notes>  (171) 
This compound has an imine and may undergo hydrolysis.

>  <s_lp_Force_Field>  (171) 
OPLS3e

>  <r_lp_Energy>  (171) 
21.0065

>  <b_lp_Chiralities_Consistent>  (171) 
1

>  <s_lp_Variant>  (171) 
45:0-4

>  <s_i_glide_gridfile>  (171) 
pfpi4k_grid

>  <i_i_glide_lignum>  (171) 
22

>  <i_i_glide_rotatable_bonds>  (171) 
4

>  <r_i_docking_score>  (171) 
-3.47201

>  <r_i_glide_ligand_efficiency>  (171) 
-0.217

>  <r_i_glide_ligand_efficiency_sa>  (171) 
-0.546807

>  <r_i_glide_ligand_efficiency_ln>  (171) 
-0.920325

>  <r_i_glide_gscore>  (171) 
-3.47201

>  <r_i_glide_lipo>  (171) 
-0.447568

>  <r_i_glide_hbond>  (171) 
-0.231901

>  <r_i_glide_metal>  (171) 
-0

>  <r_i_glide_rewards>  (171) 
-1.69561

>  <r_i_glide_evdw>  (171) 
-23.1057

>  <r_i_glide_ecoul>  (171) 
-3.61756

>  <r_i_glide_erotb>  (171) 
0.832505

>  <r_i_glide_esite>  (171) 
-0.231509

>  <r_i_glide_emodel>  (171) 
-32.6928

>  <r_i_glide_energy>  (171) 
-26.7233

>  <r_i_glide_einternal>  (171) 
2.38406

>  <r_i_glide_intrahb_reward>  (171) 
-0

>  <i_i_glide_confnum>  (171) 
2

>  <i_i_glide_posenum>  (171) 
34

>  <r_i_glide_eff_state_penalty>  (171) 
0

>  <ligand_id>  (171) 
45

>  <original_smiles>  (171) 
Cc1nnsc1C(=O)NN=Cc1cccs1

>  <smiles>  (171) 
[H]C(=N[N-]C(=O)c1snnc1C([H])([H])[H])c1sc([H])c([H])c1[H]

$$$$
46:0:0
     RDKit          3D

 43 48  0  0  1  0  0  0  0  0999 V2000
   -2.5751    2.9632    2.9342 C   0  0  0  0  0  0  0  0  0  0  0  0
   -1.6126    2.8295    4.1383 C   0  0  2  0  0  0  0  0  0  0  0  0
   -0.1924    3.2998    4.0411 C   0  0  2  0  0  0  0  0  0  0  0  0
    0.2758    2.3109    2.8986 C   0  0  0  0  0  0  0  0  0  0  0  0
    0.3979    1.1481    3.8713 C   0  0  2  0  0  0  0  0  0  0  0  0
    1.9994    1.1592    4.5107 C   0  0  0  0  0  0  0  0  0  0  0  0
    2.7283    2.1689    4.3113 C   0  0  2  0  0  0  0  0  0  0  0  0
    2.8097    1.0320    2.9787 C   0  0  0  0  0  0  0  0  0  0  0  0
    1.6774   -0.2951    2.7860 C   0  0  0  0  0  0  0  0  0  0  0  0
    0.4457   -0.2447    3.9784 C   0  0  1  0  0  0  0  0  0  0  0  0
    0.2293    0.1813    5.7364 C   0  0  1  0  0  0  0  0  0  0  0  0
    1.2776    1.0123    6.7126 C   0  0  0  0  0  0  0  0  0  0  0  0
    1.7572    2.3476    5.7595 C   0  0  2  0  0  0  0  0  0  0  0  0
    0.2776    2.9080    5.5626 C   0  0  1  0  0  0  0  0  0  0  0  0
    0.0381    4.1084    6.5140 C   0  0  0  0  0  0  0  0  0  0  0  0
   -0.5847    1.5306    5.8175 C   0  0  2  0  0  0  0  0  0  0  0  0
   -1.7275    1.4998    6.8866 C   0  0  0  0  0  0  0  0  0  0  0  0
   -1.7838    2.3635    7.7838 O   0  0  0  0  0  0  0  0  0  0  0  0
   -2.5290    0.5508    6.8435 O   0  0  0  0  0  0  0  0  0  0  0  0
   -1.0653    1.4346    4.4817 C   0  0  1  0  0  0  0  0  0  0  0  0
   -2.4609    2.1914    2.1731 H   0  0  0  0  0  0  0  0  0  0  0  0
   -2.4693    3.9366    2.4557 H   0  0  0  0  0  0  0  0  0  0  0  0
   -3.6064    2.8778    3.2748 H   0  0  0  0  0  0  0  0  0  0  0  0
   -2.1271    3.3132    4.9678 H   0  0  0  0  0  0  0  0  0  0  0  0
   -0.0889    4.3547    3.7805 H   0  0  0  0  0  0  0  0  0  0  0  0
   -0.4134    2.0967    2.0897 H   0  0  0  0  0  0  0  0  0  0  0  0
    1.1314    2.7019    2.3628 H   0  0  0  0  0  0  0  0  0  0  0  0
    2.8006    0.6339    5.1157 H   0  0  0  0  0  0  0  0  0  0  0  0
    2.3511    0.1169    4.8260 H   0  0  0  0  0  0  0  0  0  0  0  0
    2.4754    3.1019    3.8210 H   0  0  0  0  0  0  0  0  0  0  0  0
    2.8551    1.5801    2.0398 H   0  0  0  0  0  0  0  0  0  0  0  0
    3.8092    0.5870    2.9806 H   0  0  0  0  0  0  0  0  0  0  0  0
    1.2420   -0.2603    1.7847 H   0  0  0  0  0  0  0  0  0  0  0  0
    2.2113   -1.2456    2.8456 H   0  0  0  0  0  0  0  0  0  0  0  0
   -0.4271   -0.7632    3.5847 H   0  0  0  0  0  0  0  0  0  0  0  0
   -0.2379   -0.6419    6.2783 H   0  0  0  0  0  0  0  0  0  0  0  0
    0.8415    1.3392    7.6526 H   0  0  0  0  0  0  0  0  0  0  0  0
    2.1108    0.3863    7.0414 H   0  0  0  0  0  0  0  0  0  0  0  0
    2.3100    3.0301    6.4029 H   0  0  0  0  0  0  0  0  0  0  0  0
    0.3050    3.8698    7.5450 H   0  0  0  0  0  0  0  0  0  0  0  0
   -1.0018    4.4359    6.5235 H   0  0  0  0  0  0  0  0  0  0  0  0
    0.6331    4.9737    6.2173 H   0  0  0  0  0  0  0  0  0  0  0  0
   -1.8263    0.6647    4.3199 H   0  0  0  0  0  0  0  0  0  0  0  0
  1  2  1  0
  1 21  1  0
  1 22  1  0
  1 23  1  0
  2 20  1  0
  2  3  1  0
  2 24  1  1
  3 14  1  0
  3  4  1  0
  3 25  1  6
  5  4  1  6
  4 26  1  0
  4 27  1  0
  5 10  1  0
  5 20  1  0
  5  6  1  0
  6  7  1  0
  6 28  1  0
  6 29  1  0
  7 13  1  0
  7  8  1  0
  7 30  1  1
  8  9  1  0
  8 31  1  0
  8 32  1  0
  9 10  1  0
  9 33  1  0
  9 34  1  0
 10 11  1  0
 10 35  1  6
 11 16  1  0
 11 12  1  0
 11 36  1  1
 12 13  1  0
 12 37  1  0
 12 38  1  0
 13 14  1  0
 13 39  1  1
 14 15  1  1
 14 16  1  0
 15 40  1  0
 15 41  1  0
 15 42  1  0
 16 17  1  1
 16 20  1  0
 17 18  2  0
 17 19  1  0
 20 43  1  1
M  CHG  1  19  -1
M  END
>  <i_m_ct_stereo_status>  (172) 
1

>  <s_m_source_file>  (172) 
/var/tmp/pbs.5076255.sched01/tmp323fbwsu/45qgza_o8k.sdf

>  <i_m_source_file_index>  (172) 
23

>  <i_lp_mmshare_version>  (172) 
48012

>  <i_f3d_flags>  (172) 
0

>  <s_epik_input>  (172) 
W0NIMl0xW0NIMl1bQ0BASF0oW0NIMl0yKVtDQEhdKFtDSDJdMylbQ0BAXShbQ0gzXSkoW0NAQEhdKFtDSDJdNClbQ0BASF0oW0NIM10pW0NAQEhdNTYpW0NAQF02KFtDQEhdM1tDQEhdMVtDQEBdMjQ1KUMoPU8pW09IXQ==

>  <s_epik_cmdline>  (172) 
J2VwaWtfcHl0aG9uJywgJy1waHQnLCAnMi4wJywgJy1waCcsICc3LjAnLCAnLXRuJywgJzgnLCAnLW1hJywgJzIwMCcsICctaW1hZScsICc8aW5maWxlLm1hZT4nLCAnLW9tYWUnLCAnPG91dGZpbGUubWFlPic=

>  <r_epik_Ionization_Penalty>  (172) 
0.0123406

>  <r_epik_Ionization_Penalty_Charging>  (172) 
0.0123406

>  <r_epik_Ionization_Penalty_Neutral>  (172) 
0

>  <r_epik_State_Penalty>  (172) 
0.00954729

>  <r_epik_Charging_Adjusted_Penalty>  (172) 
0.0218878

>  <i_epik_Tot_Q>  (172) 
-1

>  <i_epik_Tot_abs_Q>  (172) 
1

>  <s_lp_Force_Field>  (172) 
OPLS3e

>  <r_lp_Energy>  (172) 
655.648

>  <b_lp_Chiralities_Consistent>  (172) 
1

>  <s_lp_Variant>  (172) 
46:0-1

>  <s_i_glide_gridfile>  (172) 
pfpi4k_grid

>  <i_i_glide_lignum>  (172) 
23

>  <i_i_glide_rotatable_bonds>  (172) 
1

>  <r_i_docking_score>  (172) 
-3.44

>  <r_i_glide_ligand_efficiency>  (172) 
-0.172

>  <r_i_glide_ligand_efficiency_sa>  (172) 
-0.46688

>  <r_i_glide_ligand_efficiency_ln>  (172) 
-0.860919

>  <r_i_glide_gscore>  (172) 
-3.44

>  <r_i_glide_lipo>  (172) 
0

>  <r_i_glide_hbond>  (172) 
-0.192383

>  <r_i_glide_metal>  (172) 
-0

>  <r_i_glide_rewards>  (172) 
-1.55881

>  <r_i_glide_evdw>  (172) 
-17.2091

>  <r_i_glide_ecoul>  (172) 
-5.21136

>  <r_i_glide_erotb>  (172) 
0

>  <r_i_glide_esite>  (172) 
-0.0466454

>  <r_i_glide_emodel>  (172) 
-30.4036

>  <r_i_glide_energy>  (172) 
-22.4204

>  <r_i_glide_einternal>  (172) 
0.0133309

>  <r_i_glide_intrahb_reward>  (172) 
-0

>  <i_i_glide_confnum>  (172) 
1

>  <i_i_glide_posenum>  (172) 
19

>  <r_i_glide_eff_state_penalty>  (172) 
0

>  <ligand_id>  (172) 
46

>  <original_smiles>  (172) 
CC1C2CC34CC5CCC3C3CC5C2(C)C3(C(=O)O)C14

>  <smiles>  (172) 
[H]C([H])([H])C1([H])C2([H])C3(C(=O)[O-])C4([H])C([H])([H])C5([H])C6([H])C([H])([H])C([H])([H])C4([H])C2(C6([H])[H])C([H])([H])C1([H])C53C([H])([H])[H]

$$$$
46:0:1
     RDKit          3D

 43 48  0  0  1  0  0  0  0  0999 V2000
   -2.9308    3.3348    2.9866 C   0  0  0  0  0  0  0  0  0  0  0  0
   -2.1767    2.8069    4.2306 C   0  0  2  0  0  0  0  0  0  0  0  0
   -1.2845    3.6971    5.0370 C   0  0  2  0  0  0  0  0  0  0  0  0
   -0.2433    4.0268    3.8987 C   0  0  0  0  0  0  0  0  0  0  0  0
    0.4432    2.6750    4.0567 C   0  0  2  0  0  0  0  0  0  0  0  0
    1.6846    2.8524    5.2439 C   0  0  0  0  0  0  0  0  0  0  0  0
    1.7186    3.9023    5.9403 C   0  0  2  0  0  0  0  0  0  0  0  0
    2.5504    4.1089    4.4091 C   0  0  0  0  0  0  0  0  0  0  0  0
    2.4028    2.9705    3.0826 C   0  0  0  0  0  0  0  0  0  0  0  0
    1.2713    1.7361    3.4365 C   0  0  1  0  0  0  0  0  0  0  0  0
    0.7037    0.7316    4.8505 C   0  0  1  0  0  0  0  0  0  0  0  0
    0.9959    0.9975    6.4602 C   0  0  0  0  0  0  0  0  0  0  0  0
    0.7007    2.6694    6.6643 C   0  0  2  0  0  0  0  0  0  0  0  0
   -0.8079    2.6026    6.1560 C   0  0  1  0  0  0  0  0  0  0  0  0
   -1.7654    2.6494    7.3747 C   0  0  0  0  0  0  0  0  0  0  0  0
   -0.7422    1.2287    5.2454 C   0  0  2  0  0  0  0  0  0  0  0  0
   -1.7574    0.0673    5.4892 C   0  0  0  0  0  0  0  0  0  0  0  0
   -1.7030   -0.9269    4.7307 O   0  0  0  0  0  0  0  0  0  0  0  0
   -2.5650    0.1426    6.4471 O   0  0  0  0  0  0  0  0  0  0  0  0
   -0.9629    1.8895    4.0047 C   0  0  1  0  0  0  0  0  0  0  0  0
   -2.3281    3.3923    2.0830 H   0  0  0  0  0  0  0  0  0  0  0  0
   -3.3637    4.3136    3.1677 H   0  0  0  0  0  0  0  0  0  0  0  0
   -3.7523    2.6610    2.7486 H   0  0  0  0  0  0  0  0  0  0  0  0
   -2.9462    2.3785    4.8670 H   0  0  0  0  0  0  0  0  0  0  0  0
   -1.7901    4.5606    5.4484 H   0  0  0  0  0  0  0  0  0  0  0  0
   -0.6126    4.1672    2.8932 H   0  0  0  0  0  0  0  0  0  0  0  0
    0.2801    4.9575    4.0820 H   0  0  0  0  0  0  0  0  0  0  0  0
    2.5896    2.4091    5.7623 H   0  0  0  0  0  0  0  0  0  0  0  0
    2.5421    2.1087    5.0895 H   0  0  0  0  0  0  0  0  0  0  0  0
    1.0180    4.7270    5.9518 H   0  0  0  0  0  0  0  0  0  0  0  0
    2.3532    5.1037    4.0212 H   0  0  0  0  0  0  0  0  0  0  0  0
    3.6203    4.1914    4.6229 H   0  0  0  0  0  0  0  0  0  0  0  0
    2.1141    3.4997    2.1747 H   0  0  0  0  0  0  0  0  0  0  0  0
    3.3748    2.5177    2.8874 H   0  0  0  0  0  0  0  0  0  0  0  0
    0.8922    1.3425    2.4933 H   0  0  0  0  0  0  0  0  0  0  0  0
    0.7614   -0.3295    4.6153 H   0  0  0  0  0  0  0  0  0  0  0  0
    0.3663    0.4119    7.1216 H   0  0  0  0  0  0  0  0  0  0  0  0
    2.0056    0.6965    6.7488 H   0  0  0  0  0  0  0  0  0  0  0  0
    0.7052    2.8809    7.7299 H   0  0  0  0  0  0  0  0  0  0  0  0
   -1.5090    1.8923    8.1186 H   0  0  0  0  0  0  0  0  0  0  0  0
   -2.8081    2.4921    7.0975 H   0  0  0  0  0  0  0  0  0  0  0  0
   -1.7405    3.6190    7.8689 H   0  0  0  0  0  0  0  0  0  0  0  0
   -1.1262    1.2177    3.1562 H   0  0  0  0  0  0  0  0  0  0  0  0
  1  2  1  0
  1 21  1  0
  1 22  1  0
  1 23  1  0
  2 20  1  0
  2  3  1  0
  2 24  1  1
  3 14  1  0
  3  4  1  0
  3 25  1  1
  5  4  1  6
  4 26  1  0
  4 27  1  0
  5 10  1  0
  5 20  1  0
  5  6  1  0
  6  7  1  0
  6 28  1  0
  6 29  1  0
  7 13  1  0
  7  8  1  0
  7 30  1  1
  8  9  1  0
  8 31  1  0
  8 32  1  0
  9 10  1  0
  9 33  1  0
  9 34  1  0
 10 11  1  0
 10 35  1  6
 11 16  1  0
 11 12  1  0
 11 36  1  6
 12 13  1  0
 12 37  1  0
 12 38  1  0
 13 14  1  0
 13 39  1  1
 14 15  1  1
 14 16  1  0
 15 40  1  0
 15 41  1  0
 15 42  1  0
 16 17  1  1
 16 20  1  0
 17 18  2  0
 17 19  1  0
 20 43  1  6
M  CHG  1  19  -1
M  END
>  <i_m_ct_stereo_status>  (173) 
1

>  <s_m_source_file>  (173) 
/var/tmp/pbs.5076255.sched01/tmp323fbwsu/45qgza_o8k.sdf

>  <i_m_source_file_index>  (173) 
23

>  <i_lp_mmshare_version>  (173) 
48012

>  <i_f3d_flags>  (173) 
0

>  <s_epik_input>  (173) 
W0NIMl0xW0NIMl1bQ0BASF0oW0NIMl0yKVtDQEhdKFtDSDJdMylbQ0BAXShbQ0gzXSkoW0NAQEhdKFtDSDJdNClbQ0BASF0oW0NIM10pW0NAQEhdNTYpW0NAQF02KFtDQEhdM1tDQEhdMVtDQEBdMjQ1KUMoPU8pW09IXQ==

>  <s_epik_cmdline>  (173) 
J2VwaWtfcHl0aG9uJywgJy1waHQnLCAnMi4wJywgJy1waCcsICc3LjAnLCAnLXRuJywgJzgnLCAnLW1hJywgJzIwMCcsICctaW1hZScsICc8aW5maWxlLm1hZT4nLCAnLW9tYWUnLCAnPG91dGZpbGUubWFlPic=

>  <r_epik_Ionization_Penalty>  (173) 
0.0123406

>  <r_epik_Ionization_Penalty_Charging>  (173) 
0.0123406

>  <r_epik_Ionization_Penalty_Neutral>  (173) 
0

>  <r_epik_State_Penalty>  (173) 
0.00954729

>  <r_epik_Charging_Adjusted_Penalty>  (173) 
0.0218878

>  <i_epik_Tot_Q>  (173) 
-1

>  <i_epik_Tot_abs_Q>  (173) 
1

>  <s_lp_Force_Field>  (173) 
OPLS3e

>  <r_lp_Energy>  (173) 
655.648

>  <b_lp_Chiralities_Consistent>  (173) 
1

>  <s_lp_Variant>  (173) 
46:0-1

>  <s_i_glide_gridfile>  (173) 
pfpi4k_grid

>  <i_i_glide_lignum>  (173) 
23

>  <i_i_glide_rotatable_bonds>  (173) 
1

>  <r_i_docking_score>  (173) 
-3.39948

>  <r_i_glide_ligand_efficiency>  (173) 
-0.169974

>  <r_i_glide_ligand_efficiency_sa>  (173) 
-0.46138

>  <r_i_glide_ligand_efficiency_ln>  (173) 
-0.850777

>  <r_i_glide_gscore>  (173) 
-3.39948

>  <r_i_glide_lipo>  (173) 
-0.0299342

>  <r_i_glide_hbond>  (173) 
-0.2

>  <r_i_glide_metal>  (173) 
-0

>  <r_i_glide_rewards>  (173) 
-1.55881

>  <r_i_glide_evdw>  (173) 
-17.0754

>  <r_i_glide_ecoul>  (173) 
-4.6524

>  <r_i_glide_erotb>  (173) 
0

>  <r_i_glide_esite>  (173) 
-0.0590977

>  <r_i_glide_emodel>  (173) 
-29.4848

>  <r_i_glide_energy>  (173) 
-21.7278

>  <r_i_glide_einternal>  (173) 
0.195776

>  <r_i_glide_intrahb_reward>  (173) 
-0

>  <i_i_glide_confnum>  (173) 
1

>  <i_i_glide_posenum>  (173) 
37

>  <r_i_glide_eff_state_penalty>  (173) 
0

>  <ligand_id>  (173) 
46

>  <original_smiles>  (173) 
CC1C2CC34CC5CCC3C3CC5C2(C)C3(C(=O)O)C14

>  <smiles>  (173) 
[H]C([H])([H])C1([H])C2([H])C3(C(=O)[O-])C4([H])C([H])([H])C5([H])C6([H])C([H])([H])C([H])([H])C4([H])C2(C6([H])[H])C([H])([H])C1([H])C53C([H])([H])[H]

$$$$
46:0:2
     RDKit          3D

 43 48  0  0  1  0  0  0  0  0999 V2000
   -2.0610    3.0681    3.1602 C   0  0  0  0  0  0  0  0  0  0  0  0
   -1.2290    2.2877    4.2023 C   0  0  2  0  0  0  0  0  0  0  0  0
    0.2060    2.6285    4.4682 C   0  0  2  0  0  0  0  0  0  0  0  0
    0.7611    2.2977    3.0245 C   0  0  0  0  0  0  0  0  0  0  0  0
    0.7531    0.8028    3.2937 C   0  0  2  0  0  0  0  0  0  0  0  0
    2.2751    0.3628    3.9788 C   0  0  0  0  0  0  0  0  0  0  0  0
    3.0484    1.2776    4.3690 C   0  0  2  0  0  0  0  0  0  0  0  0
    3.2315    0.9393    2.6552 C   0  0  0  0  0  0  0  0  0  0  0  0
    2.0938   -0.0224    1.7373 C   0  0  0  0  0  0  0  0  0  0  0  0
    0.7500   -0.4561    2.6930 C   0  0  1  0  0  0  0  0  0  0  0  0
    0.3504   -0.9501    4.4026 C   0  0  1  0  0  0  0  0  0  0  0  0
    1.3097   -0.7956    5.7461 C   0  0  0  0  0  0  0  0  0  0  0  0
    1.9288    0.7922    5.6300 C   0  0  2  0  0  0  0  0  0  0  0  0
    0.4946    1.4980    5.6237 C   0  0  1  0  0  0  0  0  0  0  0  0
    0.2034    2.0802    7.0304 C   0  0  0  0  0  0  0  0  0  0  0  0
   -0.4316    0.2481    5.0807 C   0  0  2  0  0  0  0  0  0  0  0  0
   -1.6990   -0.2007    5.8779 C   0  0  0  0  0  0  0  0  0  0  0  0
   -2.1777   -1.3260    5.6498 O   0  0  0  0  0  0  0  0  0  0  0  0
   -2.1832    0.5413    6.7572 O   0  0  0  0  0  0  0  0  0  0  0  0
   -0.7648    0.8635    3.8455 C   0  0  1  0  0  0  0  0  0  0  0  0
   -1.8885    2.7619    2.1300 H   0  0  0  0  0  0  0  0  0  0  0  0
   -1.8760    4.1389    3.2361 H   0  0  0  0  0  0  0  0  0  0  0  0
   -3.1237    2.9020    3.3380 H   0  0  0  0  0  0  0  0  0  0  0  0
   -1.8143    2.3576    5.1174 H   0  0  0  0  0  0  0  0  0  0  0  0
    0.3631    3.6594    4.7826 H   0  0  0  0  0  0  0  0  0  0  0  0
    0.1478    2.5385    2.1632 H   0  0  0  0  0  0  0  0  0  0  0  0
    1.6773    2.8334    2.8155 H   0  0  0  0  0  0  0  0  0  0  0  0
    2.9857   -0.4609    4.2988 H   0  0  0  0  0  0  0  0  0  0  0  0
    2.5577   -0.7231    3.7680 H   0  0  0  0  0  0  0  0  0  0  0  0
    2.8704    2.3466    4.3826 H   0  0  0  0  0  0  0  0  0  0  0  0
    3.3768    1.8744    2.1141 H   0  0  0  0  0  0  0  0  0  0  0  0
    4.2092    0.4686    2.5103 H   0  0  0  0  0  0  0  0  0  0  0  0
    1.7556    0.5507    0.8699 H   0  0  0  0  0  0  0  0  0  0  0  0
    2.5791   -0.9213    1.3473 H   0  0  0  0  0  0  0  0  0  0  0  0
   -0.0834   -0.6144    2.0174 H   0  0  0  0  0  0  0  0  0  0  0  0
   -0.1665   -1.9090    4.4035 H   0  0  0  0  0  0  0  0  0  0  0  0
    0.7771   -0.9438    6.6896 H   0  0  0  0  0  0  0  0  0  0  0  0
    2.0867   -1.5665    5.7830 H   0  0  0  0  0  0  0  0  0  0  0  0
    2.4328    1.0247    6.5665 H   0  0  0  0  0  0  0  0  0  0  0  0
    0.3317    1.3314    7.8146 H   0  0  0  0  0  0  0  0  0  0  0  0
   -0.8037    2.4849    7.1221 H   0  0  0  0  0  0  0  0  0  0  0  0
    0.8651    2.9170    7.2487 H   0  0  0  0  0  0  0  0  0  0  0  0
   -1.5282    0.3268    3.2744 H   0  0  0  0  0  0  0  0  0  0  0  0
  1  2  1  0
  1 21  1  0
  1 22  1  0
  1 23  1  0
  2 20  1  0
  2  3  1  0
  2 24  1  1
  3 14  1  0
  3  4  1  0
  3 25  1  1
  5  4  1  6
  4 26  1  0
  4 27  1  0
  5 10  1  0
  5 20  1  0
  5  6  1  0
  6  7  1  0
  6 28  1  0
  6 29  1  0
  7 13  1  0
  7  8  1  0
  7 30  1  1
  8  9  1  0
  8 31  1  0
  8 32  1  0
  9 10  1  0
  9 33  1  0
  9 34  1  0
 10 11  1  0
 10 35  1  6
 11 16  1  0
 11 12  1  0
 11 36  1  6
 12 13  1  0
 12 37  1  0
 12 38  1  0
 13 14  1  0
 13 39  1  1
 14 15  1  1
 14 16  1  0
 15 40  1  0
 15 41  1  0
 15 42  1  0
 16 17  1  1
 16 20  1  0
 17 18  2  0
 17 19  1  0
 20 43  1  6
M  CHG  1  19  -1
M  END
>  <i_m_ct_stereo_status>  (174) 
1

>  <s_m_source_file>  (174) 
/var/tmp/pbs.5076255.sched01/tmp323fbwsu/45qgza_o8k.sdf

>  <i_m_source_file_index>  (174) 
23

>  <i_lp_mmshare_version>  (174) 
48012

>  <i_f3d_flags>  (174) 
0

>  <s_epik_input>  (174) 
W0NIMl0xW0NIMl1bQ0BASF0oW0NIMl0yKVtDQEhdKFtDSDJdMylbQ0BAXShbQ0gzXSkoW0NAQEhdKFtDSDJdNClbQ0BASF0oW0NIM10pW0NAQEhdNTYpW0NAQF02KFtDQEhdM1tDQEhdMVtDQEBdMjQ1KUMoPU8pW09IXQ==

>  <s_epik_cmdline>  (174) 
J2VwaWtfcHl0aG9uJywgJy1waHQnLCAnMi4wJywgJy1waCcsICc3LjAnLCAnLXRuJywgJzgnLCAnLW1hJywgJzIwMCcsICctaW1hZScsICc8aW5maWxlLm1hZT4nLCAnLW9tYWUnLCAnPG91dGZpbGUubWFlPic=

>  <r_epik_Ionization_Penalty>  (174) 
0.0123406

>  <r_epik_Ionization_Penalty_Charging>  (174) 
0.0123406

>  <r_epik_Ionization_Penalty_Neutral>  (174) 
0

>  <r_epik_State_Penalty>  (174) 
0.00954729

>  <r_epik_Charging_Adjusted_Penalty>  (174) 
0.0218878

>  <i_epik_Tot_Q>  (174) 
-1

>  <i_epik_Tot_abs_Q>  (174) 
1

>  <s_lp_Force_Field>  (174) 
OPLS3e

>  <r_lp_Energy>  (174) 
655.648

>  <b_lp_Chiralities_Consistent>  (174) 
1

>  <s_lp_Variant>  (174) 
46:0-1

>  <s_i_glide_gridfile>  (174) 
pfpi4k_grid

>  <i_i_glide_lignum>  (174) 
23

>  <i_i_glide_rotatable_bonds>  (174) 
1

>  <r_i_docking_score>  (174) 
-3.37999

>  <r_i_glide_ligand_efficiency>  (174) 
-0.169

>  <r_i_glide_ligand_efficiency_sa>  (174) 
-0.458735

>  <r_i_glide_ligand_efficiency_ln>  (174) 
-0.8459

>  <r_i_glide_gscore>  (174) 
-3.37999

>  <r_i_glide_lipo>  (174) 
-0.0203203

>  <r_i_glide_hbond>  (174) 
-0.224987

>  <r_i_glide_metal>  (174) 
-0

>  <r_i_glide_rewards>  (174) 
-1.55881

>  <r_i_glide_evdw>  (174) 
-14.2778

>  <r_i_glide_ecoul>  (174) 
-5.13381

>  <r_i_glide_erotb>  (174) 
0

>  <r_i_glide_esite>  (174) 
-0.0919103

>  <r_i_glide_emodel>  (174) 
-26.9873

>  <r_i_glide_energy>  (174) 
-19.4116

>  <r_i_glide_einternal>  (174) 
0.361181

>  <r_i_glide_intrahb_reward>  (174) 
-0

>  <i_i_glide_confnum>  (174) 
1

>  <i_i_glide_posenum>  (174) 
33

>  <r_i_glide_eff_state_penalty>  (174) 
0

>  <ligand_id>  (174) 
46

>  <original_smiles>  (174) 
CC1C2CC34CC5CCC3C3CC5C2(C)C3(C(=O)O)C14

>  <smiles>  (174) 
[H]C([H])([H])C1([H])C2([H])C3(C(=O)[O-])C4([H])C([H])([H])C5([H])C6([H])C([H])([H])C([H])([H])C4([H])C2(C6([H])[H])C([H])([H])C1([H])C53C([H])([H])[H]

$$$$
46:1:0
     RDKit          3D

 44 49  0  0  1  0  0  0  0  0999 V2000
    1.8520   -3.8547   -1.2075 C   0  0  0  0  0  0  0  0  0  0  0  0
    3.2511   -3.5267   -0.6481 C   0  0  2  0  0  0  0  0  0  0  0  0
    3.7631   -4.1709    0.6048 C   0  0  2  0  0  0  0  0  0  0  0  0
    2.6965   -3.5796    1.6019 C   0  0  0  0  0  0  0  0  0  0  0  0
    3.3597   -2.2144    1.6479 C   0  0  2  0  0  0  0  0  0  0  0  0
    4.5140   -2.2482    2.9249 C   0  0  0  0  0  0  0  0  0  0  0  0
    4.7896   -3.3530    3.4639 C   0  0  2  0  0  0  0  0  0  0  0  0
    3.3669   -2.6100    4.1801 C   0  0  0  0  0  0  0  0  0  0  0  0
    2.5337   -1.2425    3.4533 C   0  0  0  0  0  0  0  0  0  0  0  0
    3.1893   -0.8491    1.9244 C   0  0  1  0  0  0  0  0  0  0  0  0
    4.8049   -0.7753    1.0817 C   0  0  1  0  0  0  0  0  0  0  0  0
    6.2306   -1.4539    1.5821 C   0  0  0  0  0  0  0  0  0  0  0  0
    5.7979   -3.0331    2.0602 C   0  0  2  0  0  0  0  0  0  0  0  0
    5.2173   -3.4303    0.6367 C   0  0  1  0  0  0  0  0  0  0  0  0
    6.2554   -4.2744   -0.1288 C   0  0  0  0  0  0  0  0  0  0  0  0
    4.8494   -1.9475    0.0288 C   0  0  2  0  0  0  0  0  0  0  0  0
    5.4133   -1.5337   -1.3549 C   0  0  0  0  0  0  0  0  0  0  0  0
    6.5246   -1.8851   -1.7453 O   0  0  0  0  0  0  0  0  0  0  0  0
    4.6069   -0.6756   -2.0411 O   0  0  0  0  0  0  0  0  0  0  0  0
    3.4500   -2.1650    0.0423 C   0  0  1  0  0  0  0  0  0  0  0  0
    1.0644   -3.2710   -0.7532 H   0  0  0  0  0  0  0  0  0  0  0  0
    1.6205   -4.9165   -1.1112 H   0  0  0  0  0  0  0  0  0  0  0  0
    1.7982   -3.5945   -2.2653 H   0  0  0  0  0  0  0  0  0  0  0  0
    3.9231   -3.7138   -1.4855 H   0  0  0  0  0  0  0  0  0  0  0  0
    3.7837   -5.2616    0.5621 H   0  0  0  0  0  0  0  0  0  0  0  0
    1.7062   -3.4785    1.2320 H   0  0  0  0  0  0  0  0  0  0  0  0
    2.5613   -4.1917    2.4838 H   0  0  0  0  0  0  0  0  0  0  0  0
    5.2387   -1.6851    3.5919 H   0  0  0  0  0  0  0  0  0  0  0  0
    4.7246   -1.2086    3.3474 H   0  0  0  0  0  0  0  0  0  0  0  0
    4.4444   -4.3493    3.1921 H   0  0  0  0  0  0  0  0  0  0  0  0
    2.6248   -3.3795    4.3983 H   0  0  0  0  0  0  0  0  0  0  0  0
    3.6375   -2.3016    5.1950 H   0  0  0  0  0  0  0  0  0  0  0  0
    1.4706   -1.4674    3.3535 H   0  0  0  0  0  0  0  0  0  0  0  0
    2.6098   -0.3738    4.1108 H   0  0  0  0  0  0  0  0  0  0  0  0
    2.4189   -0.3435    1.3353 H   0  0  0  0  0  0  0  0  0  0  0  0
    4.9780    0.2071    0.6418 H   0  0  0  0  0  0  0  0  0  0  0  0
    7.0165   -1.4711    0.8242 H   0  0  0  0  0  0  0  0  0  0  0  0
    6.6911   -0.8695    2.3811 H   0  0  0  0  0  0  0  0  0  0  0  0
    6.6957   -3.6313    2.1980 H   0  0  0  0  0  0  0  0  0  0  0  0
    7.2381   -3.8008   -0.1586 H   0  0  0  0  0  0  0  0  0  0  0  0
    5.9345   -4.4528   -1.1521 H   0  0  0  0  0  0  0  0  0  0  0  0
    6.3814   -5.2521    0.3385 H   0  0  0  0  0  0  0  0  0  0  0  0
    3.7828   -0.5186   -1.6014 H   0  0  0  0  0  0  0  0  0  0  0  0
    2.8688   -1.3861   -0.4461 H   0  0  0  0  0  0  0  0  0  0  0  0
  1  2  1  0
  1 21  1  0
  1 22  1  0
  1 23  1  0
  2 20  1  0
  2  3  1  0
  2 24  1  6
  3 14  1  0
  3  4  1  0
  3 25  1  6
  5  4  1  6
  4 26  1  0
  4 27  1  0
  5 10  1  0
  5 20  1  0
  5  6  1  0
  6  7  1  0
  6 28  1  0
  6 29  1  0
  7 13  1  0
  7  8  1  0
  7 30  1  1
  8  9  1  0
  8 31  1  0
  8 32  1  0
  9 10  1  0
  9 33  1  0
  9 34  1  0
 10 11  1  0
 10 35  1  6
 11 16  1  0
 11 12  1  0
 11 36  1  6
 12 13  1  0
 12 37  1  0
 12 38  1  0
 13 14  1  0
 13 39  1  1
 14 15  1  6
 14 16  1  0
 15 40  1  0
 15 41  1  0
 15 42  1  0
 16 17  1  6
 16 20  1  0
 17 18  2  0
 17 19  1  0
 19 43  1  0
 20 44  1  6
M  END
>  <i_m_ct_stereo_status>  (175) 
1

>  <s_m_source_file>  (175) 
/var/tmp/pbs.5076255.sched01/tmp323fbwsu/45qgza_o8k.sdf

>  <i_m_source_file_index>  (175) 
24

>  <i_lp_mmshare_version>  (175) 
48012

>  <i_f3d_flags>  (175) 
0

>  <s_epik_input>  (175) 
W0NIMl0xW0NIMl1bQ0BASF0oW0NIMl0yKVtDQEhdKFtDSDJdMylbQ0BAXShbQ0gzXSkoW0NAQEhdKFtDSDJdNClbQ0BASF0oW0NIM10pW0NAQEhdNTYpW0NAQF02KFtDQEhdM1tDQEhdMVtDQEBdMjQ1KUMoPU8pW09IXQ==

>  <s_epik_cmdline>  (175) 
J2VwaWtfcHl0aG9uJywgJy1waHQnLCAnMi4wJywgJy1waCcsICc3LjAnLCAnLXRuJywgJzgnLCAnLW1hJywgJzIwMCcsICctaW1hZScsICc8aW5maWxlLm1hZT4nLCAnLW9tYWUnLCAnPG91dGZpbGUubWFlPic=

>  <r_epik_Ionization_Penalty>  (175) 
2.29993

>  <r_epik_Ionization_Penalty_Charging>  (175) 
0

>  <r_epik_Ionization_Penalty_Neutral>  (175) 
2.29993

>  <r_epik_State_Penalty>  (175) 
2.45059

>  <r_epik_Charging_Adjusted_Penalty>  (175) 
2.45059

>  <i_epik_Tot_Q>  (175) 
0

>  <i_epik_Tot_abs_Q>  (175) 
0

>  <s_lp_Force_Field>  (175) 
OPLS3e

>  <r_lp_Energy>  (175) 
666.709

>  <b_lp_Chiralities_Consistent>  (175) 
1

>  <s_lp_Variant>  (175) 
46:0-2

>  <s_i_glide_gridfile>  (175) 
pfpi4k_grid

>  <i_i_glide_lignum>  (175) 
24

>  <i_i_glide_rotatable_bonds>  (175) 
2

>  <r_i_docking_score>  (175) 
-3.24632

>  <r_i_glide_ligand_efficiency>  (175) 
-0.162316

>  <r_i_glide_ligand_efficiency_sa>  (175) 
-0.440593

>  <r_i_glide_ligand_efficiency_ln>  (175) 
-0.812446

>  <r_i_glide_gscore>  (175) 
-3.24632

>  <r_i_glide_lipo>  (175) 
-0.521884

>  <r_i_glide_hbond>  (175) 
-0.157161

>  <r_i_glide_metal>  (175) 
-0

>  <r_i_glide_rewards>  (175) 
-1.55194

>  <r_i_glide_evdw>  (175) 
-14.1117

>  <r_i_glide_ecoul>  (175) 
-3.31156

>  <r_i_glide_erotb>  (175) 
0.241546

>  <r_i_glide_esite>  (175) 
-0.054559

>  <r_i_glide_emodel>  (175) 
-21.5466

>  <r_i_glide_energy>  (175) 
-17.4232

>  <r_i_glide_einternal>  (175) 
1.73174

>  <r_i_glide_intrahb_reward>  (175) 
-0

>  <i_i_glide_confnum>  (175) 
1

>  <i_i_glide_posenum>  (175) 
12

>  <r_i_glide_eff_state_penalty>  (175) 
0

>  <ligand_id>  (175) 
46

>  <original_smiles>  (175) 
CC1C2CC34CC5CCC3C3CC5C2(C)C3(C(=O)O)C14

>  <smiles>  (175) 
[H]OC(=O)C12C3([H])C([H])([H])C4([H])C5([H])C([H])([H])C([H])([H])C3([H])C3(C5([H])[H])C([H])([H])C([H])(C([H])(C([H])([H])[H])C13[H])C42C([H])([H])[H]

$$$$
46:1:1
     RDKit          3D

 44 49  0  0  1  0  0  0  0  0999 V2000
    2.2329    0.5430    3.2216 C   0  0  0  0  0  0  0  0  0  0  0  0
    2.1022    1.8574    4.0290 C   0  0  2  0  0  0  0  0  0  0  0  0
    1.5445    1.8560    5.4186 C   0  0  2  0  0  0  0  0  0  0  0  0
    0.0961    1.3281    5.0556 C   0  0  0  0  0  0  0  0  0  0  0  0
   -0.3379    2.7006    4.5580 C   0  0  2  0  0  0  0  0  0  0  0  0
   -0.9787    3.5749    5.8925 C   0  0  0  0  0  0  0  0  0  0  0  0
   -0.8135    3.1247    7.0588 C   0  0  2  0  0  0  0  0  0  0  0  0
   -2.2251    2.4339    6.2697 C   0  0  0  0  0  0  0  0  0  0  0  0
   -2.5446    2.6180    4.5496 C   0  0  0  0  0  0  0  0  0  0  0  0
   -1.2572    3.3980    3.7549 C   0  0  1  0  0  0  0  0  0  0  0  0
   -0.0643    4.7410    4.0413 C   0  0  1  0  0  0  0  0  0  0  0  0
    0.3141    5.4639    5.4834 C   0  0  0  0  0  0  0  0  0  0  0  0
    0.5177    4.1545    6.5604 C   0  0  2  0  0  0  0  0  0  0  0  0
    1.6767    3.4672    5.7075 C   0  0  1  0  0  0  0  0  0  0  0  0
    3.0556    3.7887    6.3383 C   0  0  0  0  0  0  0  0  0  0  0  0
    1.3604    4.0900    4.2138 C   0  0  2  0  0  0  0  0  0  0  0  0
    2.4805    4.8284    3.4178 C   0  0  0  0  0  0  0  0  0  0  0  0
    3.4778    5.3185    3.9425 O   0  0  0  0  0  0  0  0  0  0  0  0
    2.2153    4.8899    2.0778 O   0  0  0  0  0  0  0  0  0  0  0  0
    0.9826    2.8387    3.6479 C   0  0  1  0  0  0  0  0  0  0  0  0
    1.3132    0.2071    2.7432 H   0  0  0  0  0  0  0  0  0  0  0  0
    2.6191   -0.2635    3.8437 H   0  0  0  0  0  0  0  0  0  0  0  0
    2.9439    0.6816    2.4081 H   0  0  0  0  0  0  0  0  0  0  0  0
    3.0985    2.2995    4.0079 H   0  0  0  0  0  0  0  0  0  0  0  0
    2.0908    1.2172    6.1109 H   0  0  0  0  0  0  0  0  0  0  0  0
    0.0010    0.5728    4.2832 H   0  0  0  0  0  0  0  0  0  0  0  0
   -0.3828    0.8576    5.9046 H   0  0  0  0  0  0  0  0  0  0  0  0
   -1.5440    4.4843    6.2713 H   0  0  0  0  0  0  0  0  0  0  0  0
   -1.7348    4.3675    5.5803 H   0  0  0  0  0  0  0  0  0  0  0  0
   -0.2491    2.2531    7.3676 H   0  0  0  0  0  0  0  0  0  0  0  0
   -2.2962    1.3766    6.5212 H   0  0  0  0  0  0  0  0  0  0  0  0
   -3.1101    2.8130    6.7912 H   0  0  0  0  0  0  0  0  0  0  0  0
   -2.7001    1.6383    4.0830 H   0  0  0  0  0  0  0  0  0  0  0  0
   -3.4722    3.1752    4.4038 H   0  0  0  0  0  0  0  0  0  0  0  0
   -1.2768    3.1009    2.7052 H   0  0  0  0  0  0  0  0  0  0  0  0
   -0.1162    5.4786    3.2365 H   0  0  0  0  0  0  0  0  0  0  0  0
    1.2114    6.0820    5.4427 H   0  0  0  0  0  0  0  0  0  0  0  0
   -0.4528    6.1763    5.8031 H   0  0  0  0  0  0  0  0  0  0  0  0
    0.9418    4.5454    7.4826 H   0  0  0  0  0  0  0  0  0  0  0  0
    3.1878    4.8588    6.5028 H   0  0  0  0  0  0  0  0  0  0  0  0
    3.8894    3.4530    5.7218 H   0  0  0  0  0  0  0  0  0  0  0  0
    3.1701    3.2997    7.3056 H   0  0  0  0  0  0  0  0  0  0  0  0
    1.3583    4.5722    1.7724 H   0  0  0  0  0  0  0  0  0  0  0  0
    0.8246    2.8458    2.5654 H   0  0  0  0  0  0  0  0  0  0  0  0
  1  2  1  0
  1 21  1  0
  1 22  1  0
  1 23  1  0
  2 20  1  0
  2  3  1  0
  2 24  1  1
  3 14  1  0
  3  4  1  0
  3 25  1  1
  5  4  1  1
  4 26  1  0
  4 27  1  0
  5 10  1  0
  5 20  1  0
  5  6  1  0
  6  7  1  0
  6 28  1  0
  6 29  1  0
  7 13  1  0
  7  8  1  0
  7 30  1  1
  8  9  1  0
  8 31  1  0
  8 32  1  0
  9 10  1  0
  9 33  1  0
  9 34  1  0
 10 11  1  0
 10 35  1  6
 11 16  1  0
 11 12  1  0
 11 36  1  6
 12 13  1  0
 12 37  1  0
 12 38  1  0
 13 14  1  0
 13 39  1  1
 14 15  1  1
 14 16  1  0
 15 40  1  0
 15 41  1  0
 15 42  1  0
 16 17  1  6
 16 20  1  0
 17 18  2  0
 17 19  1  0
 19 43  1  0
 20 44  1  6
M  END
>  <i_m_ct_stereo_status>  (176) 
1

>  <s_m_source_file>  (176) 
/var/tmp/pbs.5076255.sched01/tmp323fbwsu/45qgza_o8k.sdf

>  <i_m_source_file_index>  (176) 
24

>  <i_lp_mmshare_version>  (176) 
48012

>  <i_f3d_flags>  (176) 
0

>  <s_epik_input>  (176) 
W0NIMl0xW0NIMl1bQ0BASF0oW0NIMl0yKVtDQEhdKFtDSDJdMylbQ0BAXShbQ0gzXSkoW0NAQEhdKFtDSDJdNClbQ0BASF0oW0NIM10pW0NAQEhdNTYpW0NAQF02KFtDQEhdM1tDQEhdMVtDQEBdMjQ1KUMoPU8pW09IXQ==

>  <s_epik_cmdline>  (176) 
J2VwaWtfcHl0aG9uJywgJy1waHQnLCAnMi4wJywgJy1waCcsICc3LjAnLCAnLXRuJywgJzgnLCAnLW1hJywgJzIwMCcsICctaW1hZScsICc8aW5maWxlLm1hZT4nLCAnLW9tYWUnLCAnPG91dGZpbGUubWFlPic=

>  <r_epik_Ionization_Penalty>  (176) 
2.29993

>  <r_epik_Ionization_Penalty_Charging>  (176) 
0

>  <r_epik_Ionization_Penalty_Neutral>  (176) 
2.29993

>  <r_epik_State_Penalty>  (176) 
2.45059

>  <r_epik_Charging_Adjusted_Penalty>  (176) 
2.45059

>  <i_epik_Tot_Q>  (176) 
0

>  <i_epik_Tot_abs_Q>  (176) 
0

>  <s_lp_Force_Field>  (176) 
OPLS3e

>  <r_lp_Energy>  (176) 
666.709

>  <b_lp_Chiralities_Consistent>  (176) 
1

>  <s_lp_Variant>  (176) 
46:0-2

>  <s_i_glide_gridfile>  (176) 
pfpi4k_grid

>  <i_i_glide_lignum>  (176) 
24

>  <i_i_glide_rotatable_bonds>  (176) 
2

>  <r_i_docking_score>  (176) 
-3.13289

>  <r_i_glide_ligand_efficiency>  (176) 
-0.156644

>  <r_i_glide_ligand_efficiency_sa>  (176) 
-0.425198

>  <r_i_glide_ligand_efficiency_ln>  (176) 
-0.784058

>  <r_i_glide_gscore>  (176) 
-3.13289

>  <r_i_glide_lipo>  (176) 
-0.0753508

>  <r_i_glide_hbond>  (176) 
0

>  <r_i_glide_metal>  (176) 
-0

>  <r_i_glide_rewards>  (176) 
-1.55194

>  <r_i_glide_evdw>  (176) 
-16.0863

>  <r_i_glide_ecoul>  (176) 
-6.17507

>  <r_i_glide_erotb>  (176) 
0.241546

>  <r_i_glide_esite>  (176) 
-0.0165665

>  <r_i_glide_emodel>  (176) 
-26.5891

>  <r_i_glide_energy>  (176) 
-22.2614

>  <r_i_glide_einternal>  (176) 
1.208

>  <r_i_glide_intrahb_reward>  (176) 
-0

>  <i_i_glide_confnum>  (176) 
4

>  <i_i_glide_posenum>  (176) 
8

>  <r_i_glide_eff_state_penalty>  (176) 
0

>  <ligand_id>  (176) 
46

>  <original_smiles>  (176) 
CC1C2CC34CC5CCC3C3CC5C2(C)C3(C(=O)O)C14

>  <smiles>  (176) 
[H]OC(=O)C12C3([H])C([H])([H])C4([H])C5([H])C([H])([H])C([H])([H])C3([H])C3(C5([H])[H])C([H])([H])C([H])(C([H])(C([H])([H])[H])C13[H])C42C([H])([H])[H]

$$$$
46:1:2
     RDKit          3D

 44 49  0  0  1  0  0  0  0  0999 V2000
    2.5318   -3.0548   -2.1087 C   0  0  0  0  0  0  0  0  0  0  0  0
    3.6316   -2.9383   -1.0256 C   0  0  2  0  0  0  0  0  0  0  0  0
    4.3697   -4.1485   -0.5415 C   0  0  2  0  0  0  0  0  0  0  0  0
    3.1260   -4.9078    0.0790 C   0  0  0  0  0  0  0  0  0  0  0  0
    3.1338   -4.0328    1.3235 C   0  0  2  0  0  0  0  0  0  0  0  0
    4.1788   -4.7644    2.4827 C   0  0  0  0  0  0  0  0  0  0  0  0
    4.9215   -5.7161    2.1230 C   0  0  2  0  0  0  0  0  0  0  0  0
    3.3137   -6.2706    2.5728 C   0  0  0  0  0  0  0  0  0  0  0  0
    1.9607   -5.1782    2.8142 C   0  0  0  0  0  0  0  0  0  0  0  0
    2.3782   -3.5680    2.4101 C   0  0  1  0  0  0  0  0  0  0  0  0
    3.7914   -2.4230    2.5377 C   0  0  1  0  0  0  0  0  0  0  0  0
    5.3661   -2.8049    2.8777 C   0  0  0  0  0  0  0  0  0  0  0  0
    5.6921   -4.1536    1.8829 C   0  0  2  0  0  0  0  0  0  0  0  0
    5.3566   -3.3856    0.5252 C   0  0  1  0  0  0  0  0  0  0  0  0
    6.6721   -2.9526   -0.1725 C   0  0  0  0  0  0  0  0  0  0  0  0
    4.3647   -2.1933    1.0868 C   0  0  2  0  0  0  0  0  0  0  0  0
    4.6879   -0.6996    0.7740 C   0  0  0  0  0  0  0  0  0  0  0  0
    5.8116   -0.2854    0.5129 O   0  0  0  0  0  0  0  0  0  0  0  0
    3.5926    0.1049    0.8874 O   0  0  0  0  0  0  0  0  0  0  0  0
    3.2031   -2.6940    0.4321 C   0  0  1  0  0  0  0  0  0  0  0  0
    1.5612   -3.3766   -1.7333 H   0  0  0  0  0  0  0  0  0  0  0  0
    2.8288   -3.7338   -2.9086 H   0  0  0  0  0  0  0  0  0  0  0  0
    2.3505   -2.0802   -2.5605 H   0  0  0  0  0  0  0  0  0  0  0  0
    4.3229   -2.1902   -1.4136 H   0  0  0  0  0  0  0  0  0  0  0  0
    4.8773   -4.7011   -1.3334 H   0  0  0  0  0  0  0  0  0  0  0  0
    2.1801   -4.8541   -0.4458 H   0  0  0  0  0  0  0  0  0  0  0  0
    3.2978   -5.9748    0.1338 H   0  0  0  0  0  0  0  0  0  0  0  0
    4.5655   -4.7969    3.5501 H   0  0  0  0  0  0  0  0  0  0  0  0
    3.9028   -4.4885    3.5568 H   0  0  0  0  0  0  0  0  0  0  0  0
    5.0560   -6.1251    1.1272 H   0  0  0  0  0  0  0  0  0  0  0  0
    2.9998   -7.0570    1.8899 H   0  0  0  0  0  0  0  0  0  0  0  0
    3.4132   -6.8435    3.5003 H   0  0  0  0  0  0  0  0  0  0  0  0
    1.1124   -5.5117    2.2119 H   0  0  0  0  0  0  0  0  0  0  0  0
    1.6327   -5.2197    3.8565 H   0  0  0  0  0  0  0  0  0  0  0  0
    1.4664   -3.0281    2.1515 H   0  0  0  0  0  0  0  0  0  0  0  0
    3.5003   -1.5035    3.0458 H   0  0  0  0  0  0  0  0  0  0  0  0
    6.0696   -1.9953    2.6848 H   0  0  0  0  0  0  0  0  0  0  0  0
    5.5151   -3.0044    3.9422 H   0  0  0  0  0  0  0  0  0  0  0  0
    6.7624   -4.3506    1.9242 H   0  0  0  0  0  0  0  0  0  0  0  0
    7.3325   -2.4097    0.5061 H   0  0  0  0  0  0  0  0  0  0  0  0
    6.4945   -2.3129   -1.0372 H   0  0  0  0  0  0  0  0  0  0  0  0
    7.2262   -3.8192   -0.5352 H   0  0  0  0  0  0  0  0  0  0  0  0
    2.7840   -0.3684    1.0267 H   0  0  0  0  0  0  0  0  0  0  0  0
    2.3272   -2.0455    0.4787 H   0  0  0  0  0  0  0  0  0  0  0  0
  1  2  1  0
  1 21  1  0
  1 22  1  0
  1 23  1  0
  2 20  1  0
  2  3  1  0
  2 24  1  6
  3 14  1  0
  3  4  1  0
  3 25  1  6
  5  4  1  6
  4 26  1  0
  4 27  1  0
  5 10  1  0
  5 20  1  0
  5  6  1  0
  6  7  1  0
  6 28  1  0
  6 29  1  0
  7 13  1  0
  7  8  1  0
  7 30  1  1
  8  9  1  0
  8 31  1  0
  8 32  1  0
  9 10  1  0
  9 33  1  0
  9 34  1  0
 10 11  1  0
 10 35  1  6
 11 16  1  0
 11 12  1  0
 11 36  1  1
 12 13  1  0
 12 37  1  0
 12 38  1  0
 13 14  1  0
 13 39  1  6
 14 15  1  6
 14 16  1  0
 15 40  1  0
 15 41  1  0
 15 42  1  0
 16 17  1  6
 16 20  1  0
 17 18  2  0
 17 19  1  0
 19 43  1  0
 20 44  1  6
M  END
>  <i_m_ct_stereo_status>  (177) 
1

>  <s_m_source_file>  (177) 
/var/tmp/pbs.5076255.sched01/tmp323fbwsu/45qgza_o8k.sdf

>  <i_m_source_file_index>  (177) 
24

>  <i_lp_mmshare_version>  (177) 
48012

>  <i_f3d_flags>  (177) 
0

>  <s_epik_input>  (177) 
W0NIMl0xW0NIMl1bQ0BASF0oW0NIMl0yKVtDQEhdKFtDSDJdMylbQ0BAXShbQ0gzXSkoW0NAQEhdKFtDSDJdNClbQ0BASF0oW0NIM10pW0NAQEhdNTYpW0NAQF02KFtDQEhdM1tDQEhdMVtDQEBdMjQ1KUMoPU8pW09IXQ==

>  <s_epik_cmdline>  (177) 
J2VwaWtfcHl0aG9uJywgJy1waHQnLCAnMi4wJywgJy1waCcsICc3LjAnLCAnLXRuJywgJzgnLCAnLW1hJywgJzIwMCcsICctaW1hZScsICc8aW5maWxlLm1hZT4nLCAnLW9tYWUnLCAnPG91dGZpbGUubWFlPic=

>  <r_epik_Ionization_Penalty>  (177) 
2.29993

>  <r_epik_Ionization_Penalty_Charging>  (177) 
0

>  <r_epik_Ionization_Penalty_Neutral>  (177) 
2.29993

>  <r_epik_State_Penalty>  (177) 
2.45059

>  <r_epik_Charging_Adjusted_Penalty>  (177) 
2.45059

>  <i_epik_Tot_Q>  (177) 
0

>  <i_epik_Tot_abs_Q>  (177) 
0

>  <s_lp_Force_Field>  (177) 
OPLS3e

>  <r_lp_Energy>  (177) 
666.709

>  <b_lp_Chiralities_Consistent>  (177) 
1

>  <s_lp_Variant>  (177) 
46:0-2

>  <s_i_glide_gridfile>  (177) 
pfpi4k_grid

>  <i_i_glide_lignum>  (177) 
24

>  <i_i_glide_rotatable_bonds>  (177) 
2

>  <r_i_docking_score>  (177) 
-2.89294

>  <r_i_glide_ligand_efficiency>  (177) 
-0.144647

>  <r_i_glide_ligand_efficiency_sa>  (177) 
-0.392633

>  <r_i_glide_ligand_efficiency_ln>  (177) 
-0.724008

>  <r_i_glide_gscore>  (177) 
-2.89294

>  <r_i_glide_lipo>  (177) 
-0.230535

>  <r_i_glide_hbond>  (177) 
0

>  <r_i_glide_metal>  (177) 
-0

>  <r_i_glide_rewards>  (177) 
-1.70491

>  <r_i_glide_evdw>  (177) 
-20.7281

>  <r_i_glide_ecoul>  (177) 
-1.08427

>  <r_i_glide_erotb>  (177) 
0.241546

>  <r_i_glide_esite>  (177) 
0

>  <r_i_glide_emodel>  (177) 
-25.6908

>  <r_i_glide_energy>  (177) 
-21.8124

>  <r_i_glide_einternal>  (177) 
1.40382

>  <r_i_glide_intrahb_reward>  (177) 
-0

>  <i_i_glide_confnum>  (177) 
1

>  <i_i_glide_posenum>  (177) 
2

>  <r_i_glide_eff_state_penalty>  (177) 
0

>  <ligand_id>  (177) 
46

>  <original_smiles>  (177) 
CC1C2CC34CC5CCC3C3CC5C2(C)C3(C(=O)O)C14

>  <smiles>  (177) 
[H]OC(=O)C12C3([H])C([H])([H])C4([H])C5([H])C([H])([H])C([H])([H])C3([H])C3(C5([H])[H])C([H])([H])C([H])(C([H])(C([H])([H])[H])C13[H])C42C([H])([H])[H]

$$$$
47:0:0
     RDKit          3D

 85 92  0  0  1  0  0  0  0  0999 V2000
    3.2571    0.7675    1.6626 C   0  0  0  0  0  0  0  0  0  0  0  0
    3.6214   -0.6920    2.0020 C   0  0  2  0  0  0  0  0  0  0  0  0
    4.5638   -0.7075    3.2252 C   0  0  0  0  0  0  0  0  0  0  0  0
    5.2998   -2.0461    3.3929 C   0  0  0  0  0  0  0  0  0  0  0  0
    4.5241   -3.1882    2.7465 C   0  0  2  0  0  0  0  0  0  0  0  0
    5.0050   -4.6004    3.1022 C   0  0  1  0  0  0  0  0  0  0  0  0
    5.2522   -4.8734    4.5927 C   0  0  0  0  0  0  0  0  0  0  0  0
    4.0167   -5.6205    2.4884 C   0  0  1  0  0  0  0  0  0  0  0  0
    2.5737   -5.7187    3.1115 C   0  0  0  0  0  0  0  0  0  0  0  0
    1.6937   -6.9853    2.7905 C   0  0  2  0  0  0  0  0  0  0  0  0
    0.9989   -6.8936    1.4011 C   0  0  0  0  0  0  0  0  0  0  0  0
    1.4425   -6.3072    0.4447 O   0  0  0  0  0  0  0  0  0  0  0  0
   -0.2242   -7.4346    1.4838 O   0  0  0  0  0  0  0  0  0  0  0  0
   -0.5485   -7.8268    2.7828 C   0  0  2  0  0  0  0  0  0  0  0  0
   -1.9069   -7.5041    3.3971 C   0  0  0  0  0  0  0  0  0  0  0  0
   -1.5705   -7.2410    4.8621 C   0  0  0  0  0  0  0  0  0  0  0  0
   -0.0827   -6.9006    4.9001 C   0  0  0  0  0  0  0  0  0  0  0  0
    0.6096   -6.7270    5.9101 O   0  0  0  0  0  0  0  0  0  0  0  0
    0.3340   -6.8068    3.4646 C   0  0  1  0  0  0  0  0  0  0  0  0
   -0.1592   -9.2867    3.0677 C   0  0  1  0  0  0  0  0  0  0  0  0
   -0.9789  -10.0393    2.1837 O   0  0  0  0  0  0  0  0  0  0  0  0
    1.3366   -9.6467    2.8658 C   0  0  2  0  0  0  0  0  0  0  0  0
    1.8412  -10.7461    3.8690 C   0  0  0  0  0  0  0  0  0  0  0  0
    0.7833  -11.7681    4.3361 C   0  0  0  0  0  0  0  0  0  0  0  0
    2.9782  -11.5893    3.2461 C   0  0  0  0  0  0  0  0  0  0  0  0
    2.3705   -9.9372    5.0625 C   0  0  0  0  0  0  0  0  0  0  0  0
    2.8453   -8.6474    4.4405 C   0  0  0  0  0  0  0  0  0  0  0  0
    3.5665   -7.8406    5.0501 O   0  0  0  0  0  0  0  0  0  0  0  0
    2.3334   -8.4275    3.0086 C   0  0  2  0  0  0  0  0  0  0  0  0
    3.4825   -8.6665    1.9702 C   0  0  0  0  0  0  0  0  0  0  0  0
    3.9857   -5.3550    1.0769 O   0  0  0  0  0  0  0  0  0  0  0  0
    3.5694   -4.0864    0.6415 C   0  0  2  0  0  0  0  0  0  0  0  0
    3.5219   -4.0978   -0.7471 O   0  0  0  0  0  0  0  0  0  0  0  0
    4.5624   -3.4502   -1.4535 C   0  0  1  0  0  0  0  0  0  0  0  0
    4.7033   -4.1742   -2.8077 C   0  0  0  0  0  0  0  0  0  0  0  0
    4.1630   -1.9965   -1.7094 C   0  0  0  0  0  0  0  0  0  0  0  0
    3.5216   -1.3880   -0.4767 C   0  0  0  0  0  0  0  0  0  0  0  0
    4.2657   -1.5112    0.8317 C   0  0  2  0  0  0  0  0  0  0  0  0
    4.5514   -3.0097    1.2065 C   0  0  1  0  0  0  0  0  0  0  0  0
    5.8502   -3.2675    0.6801 O   0  0  0  0  0  0  0  0  0  0  0  0
    5.8456   -3.5691   -0.8322 O   0  0  0  0  0  0  0  0  0  0  0  0
    4.0775    1.3395    1.2283 H   0  0  0  0  0  0  0  0  0  0  0  0
    2.9715    1.3019    2.5645 H   0  0  0  0  0  0  0  0  0  0  0  0
    2.4086    0.8116    0.9806 H   0  0  0  0  0  0  0  0  0  0  0  0
    2.6914   -1.1863    2.2959 H   0  0  0  0  0  0  0  0  0  0  0  0
    5.3020    0.0996    3.1725 H   0  0  0  0  0  0  0  0  0  0  0  0
    3.9776   -0.5249    4.1279 H   0  0  0  0  0  0  0  0  0  0  0  0
    6.2515   -1.9626    2.8678 H   0  0  0  0  0  0  0  0  0  0  0  0
    5.4882   -2.2250    4.4548 H   0  0  0  0  0  0  0  0  0  0  0  0
    3.5026   -3.1072    3.1046 H   0  0  0  0  0  0  0  0  0  0  0  0
    5.9677   -4.7550    2.6130 H   0  0  0  0  0  0  0  0  0  0  0  0
    4.3928   -4.6080    5.2087 H   0  0  0  0  0  0  0  0  0  0  0  0
    6.1364   -4.3519    4.9601 H   0  0  0  0  0  0  0  0  0  0  0  0
    5.4450   -5.9397    4.7339 H   0  0  0  0  0  0  0  0  0  0  0  0
    4.5158   -6.5519    2.6522 H   0  0  0  0  0  0  0  0  0  0  0  0
    2.6408   -5.6337    4.1976 H   0  0  0  0  0  0  0  0  0  0  0  0
    2.0002   -4.8268    2.8397 H   0  0  0  0  0  0  0  0  0  0  0  0
   -2.2444   -6.6345    2.8704 H   0  0  0  0  0  0  0  0  0  0  0  0
   -2.6472   -8.3096    3.2932 H   0  0  0  0  0  0  0  0  0  0  0  0
   -2.1902   -6.4575    5.2872 H   0  0  0  0  0  0  0  0  0  0  0  0
   -1.7079   -8.2277    5.2820 H   0  0  0  0  0  0  0  0  0  0  0  0
   -0.0072   -5.7905    3.2359 H   0  0  0  0  0  0  0  0  0  0  0  0
   -0.4619   -9.5182    4.0853 H   0  0  0  0  0  0  0  0  0  0  0  0
   -0.5792  -10.0043    1.3232 H   0  0  0  0  0  0  0  0  0  0  0  0
    1.3847  -10.0277    1.8486 H   0  0  0  0  0  0  0  0  0  0  0  0
    1.2526  -12.5750    4.8973 H   0  0  0  0  0  0  0  0  0  0  0  0
    0.2647  -12.2249    3.4917 H   0  0  0  0  0  0  0  0  0  0  0  0
    0.0507  -11.3317    5.0122 H   0  0  0  0  0  0  0  0  0  0  0  0
    3.2967  -12.3849    3.9214 H   0  0  0  0  0  0  0  0  0  0  0  0
    3.8721  -11.0204    3.0045 H   0  0  0  0  0  0  0  0  0  0  0  0
    2.6314  -12.0742    2.3352 H   0  0  0  0  0  0  0  0  0  0  0  0
    1.5831   -9.7268    5.7871 H   0  0  0  0  0  0  0  0  0  0  0  0
    3.1759  -10.4410    5.5825 H   0  0  0  0  0  0  0  0  0  0  0  0
    3.2784   -9.4945    1.2799 H   0  0  0  0  0  0  0  0  0  0  0  0
    4.4113   -8.9563    2.4668 H   0  0  0  0  0  0  0  0  0  0  0  0
    3.7119   -7.8216    1.3650 H   0  0  0  0  0  0  0  0  0  0  0  0
    2.5420   -3.8943    0.9517 H   0  0  0  0  0  0  0  0  0  0  0  0
    4.9166   -5.2119   -2.5985 H   0  0  0  0  0  0  0  0  0  0  0  0
    5.5073   -3.7494   -3.4129 H   0  0  0  0  0  0  0  0  0  0  0  0
    3.7840   -4.2258   -3.3931 H   0  0  0  0  0  0  0  0  0  0  0  0
    5.0066   -1.4189   -2.0728 H   0  0  0  0  0  0  0  0  0  0  0  0
    3.4080   -1.9753   -2.4960 H   0  0  0  0  0  0  0  0  0  0  0  0
    3.3915   -0.3445   -0.6769 H   0  0  0  0  0  0  0  0  0  0  0  0
    2.5807   -1.8788   -0.3129 H   0  0  0  0  0  0  0  0  0  0  0  0
    5.2314   -1.0307    0.6449 H   0  0  0  0  0  0  0  0  0  0  0  0
  1  2  1  0
  1 42  1  0
  1 43  1  0
  1 44  1  0
  2 38  1  0
  2  3  1  0
  2 45  1  1
  3  4  1  0
  3 46  1  0
  3 47  1  0
  4  5  1  0
  4 48  1  0
  4 49  1  0
  5 39  1  0
  5  6  1  0
  5 50  1  1
  6  7  1  0
  6  8  1  0
  6 51  1  6
  7 52  1  0
  7 53  1  0
  7 54  1  0
  8  9  1  0
  8 31  1  0
  8 55  1  6
 10  9  1  1
  9 56  1  0
  9 57  1  0
 10 19  1  0
 10 29  1  0
 10 11  1  0
 11 12  2  0
 11 13  1  0
 14 13  1  6
 14 19  1  0
 14 15  1  0
 14 20  1  0
 15 16  1  0
 15 58  1  0
 15 59  1  0
 16 17  1  0
 16 60  1  0
 16 61  1  0
 17 18  2  0
 17 19  1  0
 19 62  1  6
 20 21  1  0
 20 22  1  0
 20 63  1  1
 21 64  1  0
 22 29  1  0
 22 23  1  0
 22 65  1  6
 23 24  1  0
 23 25  1  0
 23 26  1  0
 24 66  1  0
 24 67  1  0
 24 68  1  0
 25 69  1  0
 25 70  1  0
 25 71  1  0
 26 27  1  0
 26 72  1  0
 26 73  1  0
 27 28  2  0
 27 29  1  0
 29 30  1  6
 30 74  1  0
 30 75  1  0
 30 76  1  0
 31 32  1  0
 32 39  1  0
 32 33  1  0
 32 77  1  1
 33 34  1  0
 34 41  1  0
 34 35  1  6
 34 36  1  0
 35 78  1  0
 35 79  1  0
 35 80  1  0
 36 37  1  0
 36 81  1  0
 36 82  1  0
 37 38  1  0
 37 83  1  0
 37 84  1  0
 38 39  1  0
 38 85  1  6
 39 40  1  6
 40 41  1  0
M  END
>  <i_m_ct_stereo_status>  (178) 
1

>  <s_m_source_file>  (178) 
/var/tmp/pbs.5076255.sched01/tmp323fbwsu/45qgza_o8k.sdf

>  <i_m_source_file_index>  (178) 
25

>  <i_lp_mmshare_version>  (178) 
48012

>  <i_f3d_flags>  (178) 
0

>  <s_epik_input>  (178) 
W0NAXTEyM1tDQEBIXTRbQ0gyXVtDSDJdW0NAQEhdKFtDSDNdKVtDQEBIXTJbQ0gyXVtDSDJdW0NAQF0oW0NIM10pKE9PMylPW0NASF0xT1tDQEBIXShbQ0BASF00W0NIM10pW0NIMl1bQ0BdKEMoPU8pTzUpKFtDQEBIXShbQ0BdNTY3KUMoPU8pW0NIMl1bQ0gyXTYpW0NAXTgoW0NIM10pW0NASF0oW0NAQEhdN1tPSF0pQyhbQ0gzXSkoW0NIM10pW0NIMl1DOD1P

>  <s_epik_cmdline>  (178) 
J2VwaWtfcHl0aG9uJywgJy1waHQnLCAnMi4wJywgJy1waCcsICc3LjAnLCAnLXRuJywgJzgnLCAnLW1hJywgJzIwMCcsICctaW1hZScsICc8aW5maWxlLm1hZT4nLCAnLW9tYWUnLCAnPG91dGZpbGUubWFlPic=

>  <r_lp_tautomer_probability>  (178) 
1

>  <r_epik_Ionization_Penalty>  (178) 
9.32614e-07

>  <r_epik_Ionization_Penalty_Charging>  (178) 
0

>  <r_epik_Ionization_Penalty_Neutral>  (178) 
9.32614e-07

>  <r_epik_State_Penalty>  (178) 
-0

>  <r_epik_Charging_Adjusted_Penalty>  (178) 
0

>  <i_epik_Tot_Q>  (178) 
0

>  <i_epik_Tot_abs_Q>  (178) 
0

>  <s_epik_Chemistry_Notes>  (178) 
This compound has an ester and may undergo hydrolysis at high or low pH. This compound contains an acetal/aminal-like group ( X-CH(R)-Y where X, Y are N, S, or O) that may be acid/base labile, releasing an aldehyde.

>  <s_lp_Force_Field>  (178) 
OPLS3e

>  <r_lp_Energy>  (178) 
72.0907

>  <b_lp_Chiralities_Consistent>  (178) 
1

>  <s_lp_Variant>  (178) 
47:0-1

>  <s_i_glide_gridfile>  (178) 
pfpi4k_grid

>  <i_i_glide_lignum>  (178) 
25

>  <i_i_glide_rotatable_bonds>  (178) 
3

>  <r_i_docking_score>  (178) 
-2.65922

>  <r_i_glide_ligand_efficiency>  (178) 
-0.0648589

>  <r_i_glide_ligand_efficiency_sa>  (178) 
-0.223648

>  <r_i_glide_ligand_efficiency_ln>  (178) 
-0.564162

>  <r_i_glide_gscore>  (178) 
-2.65922

>  <r_i_glide_lipo>  (178) 
-0.394077

>  <r_i_glide_hbond>  (178) 
-0.0680138

>  <r_i_glide_metal>  (178) 
-0

>  <r_i_glide_rewards>  (178) 
0

>  <r_i_glide_evdw>  (178) 
-25.9932

>  <r_i_glide_ecoul>  (178) 
-5.53852

>  <r_i_glide_erotb>  (178) 
0.0347413

>  <r_i_glide_esite>  (178) 
-0.101428

>  <r_i_glide_emodel>  (178) 
-34.7815

>  <r_i_glide_energy>  (178) 
-31.5317

>  <r_i_glide_einternal>  (178) 
1.92932

>  <r_i_glide_intrahb_reward>  (178) 
-0

>  <i_i_glide_confnum>  (178) 
2

>  <i_i_glide_posenum>  (178) 
3

>  <r_i_glide_eff_state_penalty>  (178) 
0

>  <ligand_id>  (178) 
47

>  <original_smiles>  (178) 
CC1CCC2C(C)C(CC34C(=O)OC5(CCC(=O)C53)C(O)C3C(C)(C)CC(=O)C34C)OC3OC4(C)CCC1C32OO4

>  <smiles>  (178) 
[H]OC1([H])C2([H])C(C([H])([H])[H])(C(=O)C([H])([H])C2(C([H])([H])[H])C([H])([H])[H])C2(C([H])([H])C3([H])OC4([H])OC5(C([H])([H])[H])OOC46C([H])(C([H])([H])C5([H])[H])C([H])(C([H])([H])[H])C([H])([H])C([H])([H])C6([H])C3([H])C([H])([H])[H])C(=O)OC13C([H])([H])C([H])([H])C(=O)C32[H]

$$$$
47:0:1
     RDKit          3D

 85 92  0  0  1  0  0  0  0  0999 V2000
    2.5827    1.1180    3.2881 C   0  0  0  0  0  0  0  0  0  0  0  0
    3.0728   -0.3316    3.4757 C   0  0  2  0  0  0  0  0  0  0  0  0
    3.8994   -0.3994    4.7843 C   0  0  0  0  0  0  0  0  0  0  0  0
    4.7584   -1.6637    4.9155 C   0  0  0  0  0  0  0  0  0  0  0  0
    4.2062   -2.7726    4.0236 C   0  0  2  0  0  0  0  0  0  0  0  0
    4.8186   -4.1561    4.2753 C   0  0  1  0  0  0  0  0  0  0  0  0
    4.9344   -4.6110    5.7383 C   0  0  0  0  0  0  0  0  0  0  0  0
    4.0446   -5.1963    3.4418 C   0  0  1  0  0  0  0  0  0  0  0  0
    2.5545   -5.5445    3.8482 C   0  0  0  0  0  0  0  0  0  0  0  0
    1.8841   -6.8793    3.3089 C   0  0  2  0  0  0  0  0  0  0  0  0
    1.5338   -6.8580    1.7930 C   0  0  0  0  0  0  0  0  0  0  0  0
    2.2444   -6.4065    0.9123 O   0  0  0  0  0  0  0  0  0  0  0  0
    0.3046   -7.4038    1.6076 O   0  0  0  0  0  0  0  0  0  0  0  0
   -0.2522   -7.8884    2.8023 C   0  0  2  0  0  0  0  0  0  0  0  0
   -1.7445   -7.7061    3.1565 C   0  0  0  0  0  0  0  0  0  0  0  0
   -1.7427   -7.4820    4.6878 C   0  0  0  0  0  0  0  0  0  0  0  0
   -0.3062   -7.0722    5.0037 C   0  0  0  0  0  0  0  0  0  0  0  0
    0.1751   -6.8785    6.1202 O   0  0  0  0  0  0  0  0  0  0  0  0
    0.3944   -6.8516    3.6881 C   0  0  1  0  0  0  0  0  0  0  0  0
    0.2339   -9.3353    3.1099 C   0  0  1  0  0  0  0  0  0  0  0  0
   -0.3232  -10.1997    2.1142 O   0  0  0  0  0  0  0  0  0  0  0  0
    1.7731   -9.5470    3.2474 C   0  0  2  0  0  0  0  0  0  0  0  0
    2.1685  -10.6512    4.3017 C   0  0  0  0  0  0  0  0  0  0  0  0
    1.1396  -11.7829    4.5003 C   0  0  0  0  0  0  0  0  0  0  0  0
    3.4911  -11.3609    3.9034 C   0  0  0  0  0  0  0  0  0  0  0  0
    2.3587   -9.8658    5.6094 C   0  0  0  0  0  0  0  0  0  0  0  0
    2.8173   -8.4973    5.1504 C   0  0  0  0  0  0  0  0  0  0  0  0
    3.3259   -7.6863    5.9129 O   0  0  0  0  0  0  0  0  0  0  0  0
    2.6061   -8.2613    3.6386 C   0  0  2  0  0  0  0  0  0  0  0  0
    3.9792   -8.3602    2.8737 C   0  0  0  0  0  0  0  0  0  0  0  0
    4.1245   -4.7606    2.0710 O   0  0  0  0  0  0  0  0  0  0  0  0
    3.5820   -3.5171    1.7141 C   0  0  2  0  0  0  0  0  0  0  0  0
    3.6731   -3.3637    0.3413 O   0  0  0  0  0  0  0  0  0  0  0  0
    4.6925   -2.5225   -0.1449 C   0  0  1  0  0  0  0  0  0  0  0  0
    5.0831   -3.0856   -1.5319 C   0  0  0  0  0  0  0  0  0  0  0  0
    4.1077   -1.1035   -0.2859 C   0  0  0  0  0  0  0  0  0  0  0  0
    3.2249   -0.6830    0.9037 C   0  0  0  0  0  0  0  0  0  0  0  0
    3.8797   -0.9168    2.2704 C   0  0  2  0  0  0  0  0  0  0  0  0
    4.3423   -2.3998    2.5140 C   0  0  1  0  0  0  0  0  0  0  0  0
    5.7123   -2.4474    2.1238 O   0  0  0  0  0  0  0  0  0  0  0  0
    5.9096   -2.5628    0.6011 O   0  0  0  0  0  0  0  0  0  0  0  0
    3.3919    1.8073    3.0589 H   0  0  0  0  0  0  0  0  0  0  0  0
    2.0970    1.4790    4.1919 H   0  0  0  0  0  0  0  0  0  0  0  0
    1.8410    1.1893    2.4944 H   0  0  0  0  0  0  0  0  0  0  0  0
    2.1785   -0.9432    3.6007 H   0  0  0  0  0  0  0  0  0  0  0  0
    4.5236    0.4814    4.9346 H   0  0  0  0  0  0  0  0  0  0  0  0
    3.1985   -0.4126    5.6203 H   0  0  0  0  0  0  0  0  0  0  0  0
    5.7660   -1.4137    4.5794 H   0  0  0  0  0  0  0  0  0  0  0  0
    4.8264   -1.9741    5.9578 H   0  0  0  0  0  0  0  0  0  0  0  0
    3.1522   -2.8718    4.2685 H   0  0  0  0  0  0  0  0  0  0  0  0
    5.8314   -4.1636    3.8804 H   0  0  0  0  0  0  0  0  0  0  0  0
    3.9973   -4.5310    6.2836 H   0  0  0  0  0  0  0  0  0  0  0  0
    5.7114   -4.0551    6.2642 H   0  0  0  0  0  0  0  0  0  0  0  0
    5.2451   -5.6593    5.7841 H   0  0  0  0  0  0  0  0  0  0  0  0
    4.6835   -6.0391    3.6143 H   0  0  0  0  0  0  0  0  0  0  0  0
    2.4873   -5.5736    4.9303 H   0  0  0  0  0  0  0  0  0  0  0  0
    1.8996   -4.7102    3.5994 H   0  0  0  0  0  0  0  0  0  0  0  0
   -2.1590   -6.8286    2.6605 H   0  0  0  0  0  0  0  0  0  0  0  0
   -2.3574   -8.5610    2.8673 H   0  0  0  0  0  0  0  0  0  0  0  0
   -2.4485   -6.7023    4.9820 H   0  0  0  0  0  0  0  0  0  0  0  0
   -1.9754   -8.4126    5.2120 H   0  0  0  0  0  0  0  0  0  0  0  0
    0.0179   -5.8602    3.4222 H   0  0  0  0  0  0  0  0  0  0  0  0
   -0.2364   -9.6211    4.0476 H   0  0  0  0  0  0  0  0  0  0  0  0
   -0.0572   -9.9493    1.2206 H   0  0  0  0  0  0  0  0  0  0  0  0
    2.0885   -9.8781    2.2630 H   0  0  0  0  0  0  0  0  0  0  0  0
    1.5600  -12.5615    5.1334 H   0  0  0  0  0  0  0  0  0  0  0  0
    0.8701  -12.2432    3.5514 H   0  0  0  0  0  0  0  0  0  0  0  0
    0.2266  -11.4608    5.0017 H   0  0  0  0  0  0  0  0  0  0  0  0
    3.7381  -12.1594    4.6013 H   0  0  0  0  0  0  0  0  0  0  0  0
    4.3595  -10.7101    3.8975 H   0  0  0  0  0  0  0  0  0  0  0  0
    3.4098  -11.8112    2.9126 H   0  0  0  0  0  0  0  0  0  0  0  0
    1.4173   -9.7606    6.1584 H   0  0  0  0  0  0  0  0  0  0  0  0
    3.0877  -10.3214    6.2839 H   0  0  0  0  0  0  0  0  0  0  0  0
    3.9907   -9.1757    2.1369 H   0  0  0  0  0  0  0  0  0  0  0  0
    4.8031   -8.5775    3.5796 H   0  0  0  0  0  0  0  0  0  0  0  0
    4.2366   -7.4917    2.2998 H   0  0  0  0  0  0  0  0  0  0  0  0
    2.5092   -3.4981    1.9166 H   0  0  0  0  0  0  0  0  0  0  0  0
    5.4870   -4.0949   -1.4240 H   0  0  0  0  0  0  0  0  0  0  0  0
    5.8524   -2.4849   -2.0062 H   0  0  0  0  0  0  0  0  0  0  0  0
    4.2336   -3.1552   -2.2088 H   0  0  0  0  0  0  0  0  0  0  0  0
    4.9144   -0.3926   -0.4452 H   0  0  0  0  0  0  0  0  0  0  0  0
    3.4751   -1.0606   -1.1725 H   0  0  0  0  0  0  0  0  0  0  0  0
    3.0205    0.3774    0.7888 H   0  0  0  0  0  0  0  0  0  0  0  0
    2.2584   -1.1837    0.8745 H   0  0  0  0  0  0  0  0  0  0  0  0
    4.8026   -0.3311    2.2484 H   0  0  0  0  0  0  0  0  0  0  0  0
  1  2  1  0
  1 42  1  0
  1 43  1  0
  1 44  1  0
  2 38  1  0
  2  3  1  0
  2 45  1  1
  3  4  1  0
  3 46  1  0
  3 47  1  0
  4  5  1  0
  4 48  1  0
  4 49  1  0
  5 39  1  0
  5  6  1  0
  5 50  1  1
  6  7  1  0
  6  8  1  0
  6 51  1  6
  7 52  1  0
  7 53  1  0
  7 54  1  0
  8  9  1  0
  8 31  1  0
  8 55  1  6
 10  9  1  1
  9 56  1  0
  9 57  1  0
 10 19  1  0
 10 29  1  0
 10 11  1  0
 11 12  2  0
 11 13  1  0
 14 13  1  6
 14 19  1  0
 14 15  1  0
 14 20  1  0
 15 16  1  0
 15 58  1  0
 15 59  1  0
 16 17  1  0
 16 60  1  0
 16 61  1  0
 17 18  2  0
 17 19  1  0
 19 62  1  6
 20 21  1  0
 20 22  1  0
 20 63  1  1
 21 64  1  0
 22 29  1  0
 22 23  1  0
 22 65  1  6
 23 24  1  0
 23 25  1  0
 23 26  1  0
 24 66  1  0
 24 67  1  0
 24 68  1  0
 25 69  1  0
 25 70  1  0
 25 71  1  0
 26 27  1  0
 26 72  1  0
 26 73  1  0
 27 28  2  0
 27 29  1  0
 29 30  1  6
 30 74  1  0
 30 75  1  0
 30 76  1  0
 31 32  1  0
 32 39  1  0
 32 33  1  0
 32 77  1  1
 33 34  1  0
 34 41  1  0
 34 35  1  6
 34 36  1  0
 35 78  1  0
 35 79  1  0
 35 80  1  0
 36 37  1  0
 36 81  1  0
 36 82  1  0
 37 38  1  0
 37 83  1  0
 37 84  1  0
 38 39  1  0
 38 85  1  6
 39 40  1  6
 40 41  1  0
M  END
>  <i_m_ct_stereo_status>  (179) 
1

>  <s_m_source_file>  (179) 
/var/tmp/pbs.5076255.sched01/tmp323fbwsu/45qgza_o8k.sdf

>  <i_m_source_file_index>  (179) 
25

>  <i_lp_mmshare_version>  (179) 
48012

>  <i_f3d_flags>  (179) 
0

>  <s_epik_input>  (179) 
W0NAXTEyM1tDQEBIXTRbQ0gyXVtDSDJdW0NAQEhdKFtDSDNdKVtDQEBIXTJbQ0gyXVtDSDJdW0NAQF0oW0NIM10pKE9PMylPW0NASF0xT1tDQEBIXShbQ0BASF00W0NIM10pW0NIMl1bQ0BdKEMoPU8pTzUpKFtDQEBIXShbQ0BdNTY3KUMoPU8pW0NIMl1bQ0gyXTYpW0NAXTgoW0NIM10pW0NASF0oW0NAQEhdN1tPSF0pQyhbQ0gzXSkoW0NIM10pW0NIMl1DOD1P

>  <s_epik_cmdline>  (179) 
J2VwaWtfcHl0aG9uJywgJy1waHQnLCAnMi4wJywgJy1waCcsICc3LjAnLCAnLXRuJywgJzgnLCAnLW1hJywgJzIwMCcsICctaW1hZScsICc8aW5maWxlLm1hZT4nLCAnLW9tYWUnLCAnPG91dGZpbGUubWFlPic=

>  <r_lp_tautomer_probability>  (179) 
1

>  <r_epik_Ionization_Penalty>  (179) 
9.32614e-07

>  <r_epik_Ionization_Penalty_Charging>  (179) 
0

>  <r_epik_Ionization_Penalty_Neutral>  (179) 
9.32614e-07

>  <r_epik_State_Penalty>  (179) 
-0

>  <r_epik_Charging_Adjusted_Penalty>  (179) 
0

>  <i_epik_Tot_Q>  (179) 
0

>  <i_epik_Tot_abs_Q>  (179) 
0

>  <s_epik_Chemistry_Notes>  (179) 
This compound has an ester and may undergo hydrolysis at high or low pH. This compound contains an acetal/aminal-like group ( X-CH(R)-Y where X, Y are N, S, or O) that may be acid/base labile, releasing an aldehyde.

>  <s_lp_Force_Field>  (179) 
OPLS3e

>  <r_lp_Energy>  (179) 
72.0907

>  <b_lp_Chiralities_Consistent>  (179) 
1

>  <s_lp_Variant>  (179) 
47:0-1

>  <s_i_glide_gridfile>  (179) 
pfpi4k_grid

>  <i_i_glide_lignum>  (179) 
25

>  <i_i_glide_rotatable_bonds>  (179) 
3

>  <r_i_docking_score>  (179) 
-2.4859

>  <r_i_glide_ligand_efficiency>  (179) 
-0.0606317

>  <r_i_glide_ligand_efficiency_sa>  (179) 
-0.209071

>  <r_i_glide_ligand_efficiency_ln>  (179) 
-0.527392

>  <r_i_glide_gscore>  (179) 
-2.4859

>  <r_i_glide_lipo>  (179) 
-0.111034

>  <r_i_glide_hbond>  (179) 
0

>  <r_i_glide_metal>  (179) 
-0

>  <r_i_glide_rewards>  (179) 
-0.0053579

>  <r_i_glide_evdw>  (179) 
-26.6839

>  <r_i_glide_ecoul>  (179) 
-6.63904

>  <r_i_glide_erotb>  (179) 
0.0347413

>  <r_i_glide_esite>  (179) 
-0.0741983

>  <r_i_glide_emodel>  (179) 
-36.7805

>  <r_i_glide_energy>  (179) 
-33.323

>  <r_i_glide_einternal>  (179) 
2.04052

>  <r_i_glide_intrahb_reward>  (179) 
-0

>  <i_i_glide_confnum>  (179) 
2

>  <i_i_glide_posenum>  (179) 
20

>  <r_i_glide_eff_state_penalty>  (179) 
0

>  <ligand_id>  (179) 
47

>  <original_smiles>  (179) 
CC1CCC2C(C)C(CC34C(=O)OC5(CCC(=O)C53)C(O)C3C(C)(C)CC(=O)C34C)OC3OC4(C)CCC1C32OO4

>  <smiles>  (179) 
[H]OC1([H])C2([H])C(C([H])([H])[H])(C(=O)C([H])([H])C2(C([H])([H])[H])C([H])([H])[H])C2(C([H])([H])C3([H])OC4([H])OC5(C([H])([H])[H])OOC46C([H])(C([H])([H])C5([H])[H])C([H])(C([H])([H])[H])C([H])([H])C([H])([H])C6([H])C3([H])C([H])([H])[H])C(=O)OC13C([H])([H])C([H])([H])C(=O)C32[H]

$$$$
47:0:2
     RDKit          3D

 85 92  0  0  1  0  0  0  0  0999 V2000
    4.8915    1.0295    5.4329 C   0  0  0  0  0  0  0  0  0  0  0  0
    4.1675   -0.1729    4.8169 C   0  0  2  0  0  0  0  0  0  0  0  0
    4.8205   -0.5082    3.4486 C   0  0  0  0  0  0  0  0  0  0  0  0
    3.9663   -1.4144    2.5487 C   0  0  0  0  0  0  0  0  0  0  0  0
    2.9969   -2.2305    3.4120 C   0  0  2  0  0  0  0  0  0  0  0  0
    2.3132   -3.3745    2.6804 C   0  0  1  0  0  0  0  0  0  0  0  0
    3.1941   -4.2820    1.8092 C   0  0  0  0  0  0  0  0  0  0  0  0
    1.5081   -4.2065    3.6954 C   0  0  1  0  0  0  0  0  0  0  0  0
    2.2949   -5.0936    4.7522 C   0  0  0  0  0  0  0  0  0  0  0  0
    1.6041   -6.3968    5.3375 C   0  0  2  0  0  0  0  0  0  0  0  0
    0.4862   -6.1265    6.3568 C   0  0  0  0  0  0  0  0  0  0  0  0
   -0.3831   -5.2695    6.2433 O   0  0  0  0  0  0  0  0  0  0  0  0
    0.5935   -6.9947    7.4034 O   0  0  0  0  0  0  0  0  0  0  0  0
    1.6675   -7.9179    7.2042 C   0  0  2  0  0  0  0  0  0  0  0  0
    2.6188   -8.3430    8.3473 C   0  0  0  0  0  0  0  0  0  0  0  0
    3.9965   -8.5303    7.6578 C   0  0  0  0  0  0  0  0  0  0  0  0
    3.8552   -7.7359    6.3479 C   0  0  0  0  0  0  0  0  0  0  0  0
    4.6553   -7.6920    5.4397 O   0  0  0  0  0  0  0  0  0  0  0  0
    2.5356   -6.9740    6.4368 C   0  0  1  0  0  0  0  0  0  0  0  0
    1.1979   -9.1403    6.3712 C   0  0  1  0  0  0  0  0  0  0  0  0
    0.2589   -9.8284    7.1702 O   0  0  0  0  0  0  0  0  0  0  0  0
    0.6123   -8.8436    4.9487 C   0  0  2  0  0  0  0  0  0  0  0  0
    0.9184   -9.9711    3.8909 C   0  0  0  0  0  0  0  0  0  0  0  0
    1.0773  -11.4081    4.4495 C   0  0  0  0  0  0  0  0  0  0  0  0
   -0.2015  -10.0609    2.8170 C   0  0  0  0  0  0  0  0  0  0  0  0
    2.2292   -9.5130    3.2491 C   0  0  0  0  0  0  0  0  0  0  0  0
    2.1843   -8.0058    3.3395 C   0  0  0  0  0  0  0  0  0  0  0  0
    2.9327   -7.2960    2.7045 O   0  0  0  0  0  0  0  0  0  0  0  0
    1.0813   -7.5010    4.3004 C   0  0  2  0  0  0  0  0  0  0  0  0
   -0.1343   -6.9205    3.4739 C   0  0  0  0  0  0  0  0  0  0  0  0
    0.5864   -3.3093    4.3677 O   0  0  0  0  0  0  0  0  0  0  0  0
    1.1171   -2.2097    5.0714 C   0  0  2  0  0  0  0  0  0  0  0  0
    0.0507   -1.5444    5.6781 O   0  0  0  0  0  0  0  0  0  0  0  0
   -0.3604   -0.3270    5.0934 C   0  0  1  0  0  0  0  0  0  0  0  0
   -1.8573   -0.2193    5.3895 C   0  0  0  0  0  0  0  0  0  0  0  0
    0.4290    0.8084    5.7520 C   0  0  0  0  0  0  0  0  0  0  0  0
    1.9230    0.5071    5.9525 C   0  0  0  0  0  0  0  0  0  0  0  0
    2.6190   -0.0280    4.6946 C   0  0  2  0  0  0  0  0  0  0  0  0
    1.9305   -1.3171    4.0832 C   0  0  1  0  0  0  0  0  0  0  0  0
    1.0276   -0.8312    3.0775 O   0  0  0  0  0  0  0  0  0  0  0  0
   -0.2893   -0.3042    3.6594 O   0  0  0  0  0  0  0  0  0  0  0  0
    4.6851    1.9588    4.8935 H   0  0  0  0  0  0  0  0  0  0  0  0
    5.9743    0.8880    5.4264 H   0  0  0  0  0  0  0  0  0  0  0  0
    4.6168    1.1834    6.4752 H   0  0  0  0  0  0  0  0  0  0  0  0
    4.3605   -1.0184    5.4939 H   0  0  0  0  0  0  0  0  0  0  0  0
    5.0828    0.4015    2.8852 H   0  0  0  0  0  0  0  0  0  0  0  0
    5.7521   -1.0182    3.6338 H   0  0  0  0  0  0  0  0  0  0  0  0
    3.4111   -0.8152    1.8340 H   0  0  0  0  0  0  0  0  0  0  0  0
    4.6292   -2.0671    1.9593 H   0  0  0  0  0  0  0  0  0  0  0  0
    3.5985   -2.7003    4.1851 H   0  0  0  0  0  0  0  0  0  0  0  0
    1.5781   -2.9419    1.9977 H   0  0  0  0  0  0  0  0  0  0  0  0
    4.0553   -4.6878    2.3449 H   0  0  0  0  0  0  0  0  0  0  0  0
    3.5537   -3.7688    0.9143 H   0  0  0  0  0  0  0  0  0  0  0  0
    2.6163   -5.1267    1.4274 H   0  0  0  0  0  0  0  0  0  0  0  0
    0.9857   -4.7984    2.9904 H   0  0  0  0  0  0  0  0  0  0  0  0
    3.2369   -5.3939    4.3188 H   0  0  0  0  0  0  0  0  0  0  0  0
    2.6118   -4.4880    5.5900 H   0  0  0  0  0  0  0  0  0  0  0  0
    2.6860   -7.5593    9.1035 H   0  0  0  0  0  0  0  0  0  0  0  0
    2.2873   -9.2558    8.8548 H   0  0  0  0  0  0  0  0  0  0  0  0
    4.8213   -8.1534    8.2625 H   0  0  0  0  0  0  0  0  0  0  0  0
    4.1903   -9.5766    7.4238 H   0  0  0  0  0  0  0  0  0  0  0  0
    2.8230   -6.1360    7.0839 H   0  0  0  0  0  0  0  0  0  0  0  0
    2.0569   -9.8035    6.2723 H   0  0  0  0  0  0  0  0  0  0  0  0
    0.5647  -10.7446    7.2817 H   0  0  0  0  0  0  0  0  0  0  0  0
   -0.4732   -8.8059    5.1075 H   0  0  0  0  0  0  0  0  0  0  0  0
    1.1619  -12.1286    3.6393 H   0  0  0  0  0  0  0  0  0  0  0  0
    0.2144  -11.6916    5.0484 H   0  0  0  0  0  0  0  0  0  0  0  0
    1.9672  -11.5364    5.0561 H   0  0  0  0  0  0  0  0  0  0  0  0
   -0.0129  -10.8674    2.1092 H   0  0  0  0  0  0  0  0  0  0  0  0
   -0.3074   -9.1688    2.2049 H   0  0  0  0  0  0  0  0  0  0  0  0
   -1.1614  -10.2511    3.2789 H   0  0  0  0  0  0  0  0  0  0  0  0
    3.1040   -9.8601    3.8053 H   0  0  0  0  0  0  0  0  0  0  0  0
    2.3419   -9.8358    2.2061 H   0  0  0  0  0  0  0  0  0  0  0  0
   -1.0707   -7.4682    3.6783 H   0  0  0  0  0  0  0  0  0  0  0  0
    0.0443   -7.0085    2.3928 H   0  0  0  0  0  0  0  0  0  0  0  0
   -0.3904   -5.9218    3.7238 H   0  0  0  0  0  0  0  0  0  0  0  0
    1.7219   -2.5583    5.8980 H   0  0  0  0  0  0  0  0  0  0  0  0
   -2.4172   -1.0363    4.9263 H   0  0  0  0  0  0  0  0  0  0  0  0
   -2.2705    0.7110    4.9920 H   0  0  0  0  0  0  0  0  0  0  0  0
   -2.0718   -0.2452    6.4589 H   0  0  0  0  0  0  0  0  0  0  0  0
    0.2949    1.7228    5.1717 H   0  0  0  0  0  0  0  0  0  0  0  0
    0.0155    1.0107    6.7407 H   0  0  0  0  0  0  0  0  0  0  0  0
    2.3927    1.4336    6.2622 H   0  0  0  0  0  0  0  0  0  0  0  0
    2.0696   -0.1981    6.7742 H   0  0  0  0  0  0  0  0  0  0  0  0
    2.4882    0.7543    3.9372 H   0  0  0  0  0  0  0  0  0  0  0  0
  1  2  1  0
  1 42  1  0
  1 43  1  0
  1 44  1  0
  2 38  1  0
  2  3  1  0
  2 45  1  1
  3  4  1  0
  3 46  1  0
  3 47  1  0
  4  5  1  0
  4 48  1  0
  4 49  1  0
  5 39  1  0
  5  6  1  0
  5 50  1  1
  6  7  1  0
  6  8  1  0
  6 51  1  6
  7 52  1  0
  7 53  1  0
  7 54  1  0
  8  9  1  0
  8 31  1  0
  8 55  1  6
 10  9  1  6
  9 56  1  0
  9 57  1  0
 10 19  1  0
 10 29  1  0
 10 11  1  0
 11 12  2  0
 11 13  1  0
 14 13  1  1
 14 19  1  0
 14 15  1  0
 14 20  1  0
 15 16  1  0
 15 58  1  0
 15 59  1  0
 16 17  1  0
 16 60  1  0
 16 61  1  0
 17 18  2  0
 17 19  1  0
 19 62  1  1
 20 21  1  0
 20 22  1  0
 20 63  1  6
 21 64  1  0
 22 29  1  0
 22 23  1  0
 22 65  1  1
 23 24  1  0
 23 25  1  0
 23 26  1  0
 24 66  1  0
 24 67  1  0
 24 68  1  0
 25 69  1  0
 25 70  1  0
 25 71  1  0
 26 27  1  0
 26 72  1  0
 26 73  1  0
 27 28  2  0
 27 29  1  0
 29 30  1  6
 30 74  1  0
 30 75  1  0
 30 76  1  0
 31 32  1  0
 32 39  1  0
 32 33  1  0
 32 77  1  1
 33 34  1  0
 34 41  1  0
 34 35  1  6
 34 36  1  0
 35 78  1  0
 35 79  1  0
 35 80  1  0
 36 37  1  0
 36 81  1  0
 36 82  1  0
 37 38  1  0
 37 83  1  0
 37 84  1  0
 38 39  1  0
 38 85  1  6
 39 40  1  6
 40 41  1  0
M  END
>  <i_m_ct_stereo_status>  (180) 
1

>  <s_m_source_file>  (180) 
/var/tmp/pbs.5076255.sched01/tmp323fbwsu/45qgza_o8k.sdf

>  <i_m_source_file_index>  (180) 
25

>  <i_lp_mmshare_version>  (180) 
48012

>  <i_f3d_flags>  (180) 
0

>  <s_epik_input>  (180) 
W0NAXTEyM1tDQEBIXTRbQ0gyXVtDSDJdW0NAQEhdKFtDSDNdKVtDQEBIXTJbQ0gyXVtDSDJdW0NAQF0oW0NIM10pKE9PMylPW0NASF0xT1tDQEBIXShbQ0BASF00W0NIM10pW0NIMl1bQ0BdKEMoPU8pTzUpKFtDQEBIXShbQ0BdNTY3KUMoPU8pW0NIMl1bQ0gyXTYpW0NAXTgoW0NIM10pW0NASF0oW0NAQEhdN1tPSF0pQyhbQ0gzXSkoW0NIM10pW0NIMl1DOD1P

>  <s_epik_cmdline>  (180) 
J2VwaWtfcHl0aG9uJywgJy1waHQnLCAnMi4wJywgJy1waCcsICc3LjAnLCAnLXRuJywgJzgnLCAnLW1hJywgJzIwMCcsICctaW1hZScsICc8aW5maWxlLm1hZT4nLCAnLW9tYWUnLCAnPG91dGZpbGUubWFlPic=

>  <r_lp_tautomer_probability>  (180) 
1

>  <r_epik_Ionization_Penalty>  (180) 
9.32614e-07

>  <r_epik_Ionization_Penalty_Charging>  (180) 
0

>  <r_epik_Ionization_Penalty_Neutral>  (180) 
9.32614e-07

>  <r_epik_State_Penalty>  (180) 
-0

>  <r_epik_Charging_Adjusted_Penalty>  (180) 
0

>  <i_epik_Tot_Q>  (180) 
0

>  <i_epik_Tot_abs_Q>  (180) 
0

>  <s_epik_Chemistry_Notes>  (180) 
This compound has an ester and may undergo hydrolysis at high or low pH. This compound contains an acetal/aminal-like group ( X-CH(R)-Y where X, Y are N, S, or O) that may be acid/base labile, releasing an aldehyde.

>  <s_lp_Force_Field>  (180) 
OPLS3e

>  <r_lp_Energy>  (180) 
72.0907

>  <b_lp_Chiralities_Consistent>  (180) 
1

>  <s_lp_Variant>  (180) 
47:0-1

>  <s_i_glide_gridfile>  (180) 
pfpi4k_grid

>  <i_i_glide_lignum>  (180) 
25

>  <i_i_glide_rotatable_bonds>  (180) 
3

>  <r_i_docking_score>  (180) 
-1.99074

>  <r_i_glide_ligand_efficiency>  (180) 
-0.0485546

>  <r_i_glide_ligand_efficiency_sa>  (180) 
-0.167427

>  <r_i_glide_ligand_efficiency_ln>  (180) 
-0.422342

>  <r_i_glide_gscore>  (180) 
-1.99074

>  <r_i_glide_lipo>  (180) 
-0.227578

>  <r_i_glide_hbond>  (180) 
0

>  <r_i_glide_metal>  (180) 
-0

>  <r_i_glide_rewards>  (180) 
0

>  <r_i_glide_evdw>  (180) 
-26.8915

>  <r_i_glide_ecoul>  (180) 
-2.824

>  <r_i_glide_erotb>  (180) 
0.0347413

>  <r_i_glide_esite>  (180) 
-0.029728

>  <r_i_glide_emodel>  (180) 
-30.4677

>  <r_i_glide_energy>  (180) 
-29.7155

>  <r_i_glide_einternal>  (180) 
4.41594

>  <r_i_glide_intrahb_reward>  (180) 
-0

>  <i_i_glide_confnum>  (180) 
3

>  <i_i_glide_posenum>  (180) 
19

>  <r_i_glide_eff_state_penalty>  (180) 
0

>  <ligand_id>  (180) 
47

>  <original_smiles>  (180) 
CC1CCC2C(C)C(CC34C(=O)OC5(CCC(=O)C53)C(O)C3C(C)(C)CC(=O)C34C)OC3OC4(C)CCC1C32OO4

>  <smiles>  (180) 
[H]OC1([H])C2([H])C(C([H])([H])[H])(C(=O)C([H])([H])C2(C([H])([H])[H])C([H])([H])[H])C2(C([H])([H])C3([H])OC4([H])OC5(C([H])([H])[H])OOC46C([H])(C([H])([H])C5([H])[H])C([H])(C([H])([H])[H])C([H])([H])C([H])([H])C6([H])C3([H])C([H])([H])[H])C(=O)OC13C([H])([H])C([H])([H])C(=O)C32[H]

$$$$
48:0:0
     RDKit          3D

 75 80  0  0  1  0  0  0  0  0999 V2000
    4.5162   -3.6977    6.9968 C   0  0  0  0  0  0  0  0  0  0  0  0
    4.7913   -4.5322    5.7479 C   0  0  0  0  0  0  0  0  0  0  0  0
    5.6689   -4.1696    4.9654 O   0  0  0  0  0  0  0  0  0  0  0  0
    4.0392   -5.6368    5.5735 N   0  0  0  0  0  0  0  0  0  0  0  0
    4.0890   -6.6366    4.4847 C   0  0  1  0  0  0  0  0  0  0  0  0
    5.4382   -7.3640    4.7509 C   0  0  0  0  0  0  0  0  0  0  0  0
    5.8195   -8.6088    3.9374 C   0  0  0  0  0  0  0  0  0  0  0  0
    5.6553   -8.4627    2.4172 C   0  0  1  0  0  0  0  0  0  0  0  0
    6.8566   -9.1449    1.7337 C   0  0  0  0  0  0  0  0  0  0  0  0
    4.3713   -9.1163    1.8175 C   0  0  0  0  0  0  0  0  0  0  0  0
    2.9472   -8.7318    2.2970 C   0  0  0  0  0  0  0  0  0  0  0  0
    2.6860   -8.8792    3.8132 C   0  0  2  0  0  0  0  0  0  0  0  0
    1.2451   -9.2387    4.2558 C   0  0  0  0  0  0  0  0  0  0  0  0
    0.1243   -9.0389    3.2037 C   0  0  0  0  0  0  0  0  0  0  0  0
    1.1437  -10.6708    4.8288 C   0  0  0  0  0  0  0  0  0  0  0  0
    1.1632   -8.1895    5.3527 C   0  0  1  0  0  0  0  0  0  0  0  0
    2.4610   -8.0233    6.1522 C   0  0  0  0  0  0  0  0  0  0  0  0
    2.9030   -7.6385    4.7239 C   0  0  1  0  0  0  0  0  0  0  0  0
    1.5927   -7.0356    4.6001 O   0  0  0  0  0  0  0  0  0  0  0  0
    5.9012   -7.1157    2.0503 O   0  0  0  0  0  0  0  0  0  0  0  0
    4.8672   -6.2195    2.0195 C   0  0  0  0  0  0  0  0  0  0  0  0
    4.8341   -5.6175    0.8123 N   0  0  0  0  0  0  0  0  0  0  0  0
    3.8883   -4.6997    0.5573 C   0  0  0  0  0  0  0  0  0  0  0  0
    3.8731   -4.1115   -0.7206 N   0  0  0  0  0  0  0  0  0  0  0  0
    2.6339   -3.6222   -1.3187 C   0  0  0  0  0  0  0  0  0  0  0  0
    2.8375   -2.1923   -1.8143 C   0  0  0  0  0  0  0  0  0  0  0  0
    4.0126   -2.0826   -2.7047 N   0  0  0  0  0  0  0  0  0  0  0  0
    4.1564   -0.7031   -3.2319 C   0  0  0  0  0  0  0  0  0  0  0  0
    5.2493   -2.5707   -2.0422 C   0  0  0  0  0  0  0  0  0  0  0  0
    5.0789   -4.0149   -1.5388 C   0  0  0  0  0  0  0  0  0  0  0  0
    2.9587   -4.3282    1.5341 C   0  0  0  0  0  0  0  0  0  0  0  0
    2.9872   -4.9184    2.8074 C   0  0  0  0  0  0  0  0  0  0  0  0
    1.9306   -4.3492    3.7462 C   0  0  0  0  0  0  0  0  0  0  0  0
    3.9748   -5.9240    3.0976 C   0  0  0  0  0  0  0  0  0  0  0  0
    3.6819   -4.0932    7.5775 H   0  0  0  0  0  0  0  0  0  0  0  0
    4.2828   -2.6694    6.7189 H   0  0  0  0  0  0  0  0  0  0  0  0
    5.3995   -3.6770    7.6359 H   0  0  0  0  0  0  0  0  0  0  0  0
    3.3470   -5.8217    6.2833 H   0  0  0  0  0  0  0  0  0  0  0  0
    6.2601   -6.6545    4.6520 H   0  0  0  0  0  0  0  0  0  0  0  0
    5.4561   -7.6762    5.7983 H   0  0  0  0  0  0  0  0  0  0  0  0
    6.8726   -8.7781    4.1682 H   0  0  0  0  0  0  0  0  0  0  0  0
    5.3488   -9.5167    4.3084 H   0  0  0  0  0  0  0  0  0  0  0  0
    6.8952  -10.2141    1.9459 H   0  0  0  0  0  0  0  0  0  0  0  0
    7.7976   -8.6942    2.0615 H   0  0  0  0  0  0  0  0  0  0  0  0
    6.8130   -9.0346    0.6503 H   0  0  0  0  0  0  0  0  0  0  0  0
    4.3985   -8.9769    0.7359 H   0  0  0  0  0  0  0  0  0  0  0  0
    4.4655  -10.1949    1.9606 H   0  0  0  0  0  0  0  0  0  0  0  0
    2.6264   -7.7616    1.9215 H   0  0  0  0  0  0  0  0  0  0  0  0
    2.3023   -9.4397    1.7758 H   0  0  0  0  0  0  0  0  0  0  0  0
    3.3009   -9.7029    4.1600 H   0  0  0  0  0  0  0  0  0  0  0  0
   -0.8589   -9.0947    3.6710 H   0  0  0  0  0  0  0  0  0  0  0  0
    0.1483   -9.8106    2.4335 H   0  0  0  0  0  0  0  0  0  0  0  0
    0.1957   -8.0716    2.7088 H   0  0  0  0  0  0  0  0  0  0  0  0
    0.1631  -10.8511    5.2669 H   0  0  0  0  0  0  0  0  0  0  0  0
    1.8682  -10.8536    5.6250 H   0  0  0  0  0  0  0  0  0  0  0  0
    1.3016  -11.4278    4.0576 H   0  0  0  0  0  0  0  0  0  0  0  0
    0.2214   -8.0682    5.8910 H   0  0  0  0  0  0  0  0  0  0  0  0
    2.4139   -7.2252    6.8923 H   0  0  0  0  0  0  0  0  0  0  0  0
    2.8911   -8.9495    6.5321 H   0  0  0  0  0  0  0  0  0  0  0  0
    2.3532   -4.2516   -2.1618 H   0  0  0  0  0  0  0  0  0  0  0  0
    1.7750   -3.6658   -0.6540 H   0  0  0  0  0  0  0  0  0  0  0  0
    1.9458   -1.8816   -2.3519 H   0  0  0  0  0  0  0  0  0  0  0  0
    2.9952   -1.5310   -0.9610 H   0  0  0  0  0  0  0  0  0  0  0  0
    4.3527    0.0017   -2.4185 H   0  0  0  0  0  0  0  0  0  0  0  0
    3.2455   -0.3729   -3.7417 H   0  0  0  0  0  0  0  0  0  0  0  0
    4.9806   -0.6543   -3.9429 H   0  0  0  0  0  0  0  0  0  0  0  0
    6.1017   -2.5067   -2.7196 H   0  0  0  0  0  0  0  0  0  0  0  0
    5.4688   -1.9277   -1.1891 H   0  0  0  0  0  0  0  0  0  0  0  0
    5.9724   -4.3169   -0.9913 H   0  0  0  0  0  0  0  0  0  0  0  0
    4.9909   -4.6902   -2.3908 H   0  0  0  0  0  0  0  0  0  0  0  0
    2.2401   -3.5436    1.3479 H   0  0  0  0  0  0  0  0  0  0  0  0
    1.9604   -4.6730    4.7752 H   0  0  0  0  0  0  0  0  0  0  0  0
    0.9435   -4.5959    3.3620 H   0  0  0  0  0  0  0  0  0  0  0  0
    2.0035   -3.2622    3.7593 H   0  0  0  0  0  0  0  0  0  0  0  0
    3.8262   -2.7000   -3.4809 H   0  0  0  0  0  0  0  0  0  0  0  0
  1  2  1  0
  1 35  1  0
  1 36  1  0
  1 37  1  0
  2  3  2  0
  2  4  1  0
  5  4  1  1
  4 38  1  0
  5 18  1  0
  5 34  1  0
  5  6  1  0
  6  7  1  0
  6 39  1  0
  6 40  1  0
  7  8  1  0
  7 41  1  0
  7 42  1  0
  8  9  1  6
  8 10  1  0
  8 20  1  0
  9 43  1  0
  9 44  1  0
  9 45  1  0
 10 11  1  0
 10 46  1  0
 10 47  1  0
 11 12  1  0
 11 48  1  0
 11 49  1  0
 12 18  1  0
 12 13  1  0
 12 50  1  1
 13 14  1  0
 13 15  1  0
 13 16  1  0
 14 51  1  0
 14 52  1  0
 14 53  1  0
 15 54  1  0
 15 55  1  0
 15 56  1  0
 16 19  1  0
 16 17  1  0
 16 57  1  1
 17 18  1  0
 17 58  1  0
 17 59  1  0
 18 19  1  6
 20 21  1  0
 21 34  2  0
 21 22  1  0
 22 23  2  0
 23 24  1  0
 23 31  1  0
 24 30  1  0
 24 25  1  0
 25 26  1  0
 25 60  1  0
 25 61  1  0
 26 27  1  0
 26 62  1  0
 26 63  1  0
 27 28  1  0
 27 29  1  0
 27 75  1  0
 28 64  1  0
 28 65  1  0
 28 66  1  0
 29 30  1  0
 29 67  1  0
 29 68  1  0
 30 69  1  0
 30 70  1  0
 31 32  2  0
 31 71  1  0
 32 33  1  0
 32 34  1  0
 33 72  1  0
 33 73  1  0
 33 74  1  0
M  CHG  1  27   1
M  END
>  <i_m_ct_stereo_status>  (181) 
1

>  <s_m_source_file>  (181) 
/var/tmp/pbs.5076255.sched01/tmp323fbwsu/45qgza_o8k.sdf

>  <i_m_source_file_index>  (181) 
26

>  <i_lp_mmshare_version>  (181) 
48012

>  <i_f3d_flags>  (181) 
0

>  <s_epik_input>  (181) 
W0NIMl0xW0NIMl1OKFtDSDNdKVtDSDJdW0NIMl1OMWMoW2NIXWMyW0NIM10pbmMoYzJbQ0BdMyhbQ0BAXTQ1NilbTkhdQyg9TylbQ0gzXSlPW0NAQF0oW0NIM10pKFtDSDJdW0NIMl0zKVtDSDJdW0NIMl1bQ0BASF00QyhbQ0gzXSkoW0NIM10pW0NASF0oTzYpW0NIMl01

>  <s_epik_cmdline>  (181) 
J2VwaWtfcHl0aG9uJywgJy1waHQnLCAnMi4wJywgJy1waCcsICc3LjAnLCAnLXRuJywgJzgnLCAnLW1hJywgJzIwMCcsICctaW1hZScsICc8aW5maWxlLm1hZT4nLCAnLW9tYWUnLCAnPG91dGZpbGUubWFlPic=

>  <r_lp_tautomer_probability>  (181) 
1

>  <r_epik_Ionization_Penalty>  (181) 
0.0754737

>  <r_epik_Ionization_Penalty_Charging>  (181) 
0.0735835

>  <r_epik_Ionization_Penalty_Neutral>  (181) 
0.00189026

>  <r_epik_State_Penalty>  (181) 
0.0487438

>  <r_epik_Charging_Adjusted_Penalty>  (181) 
0.122327

>  <i_epik_Tot_Q>  (181) 
1

>  <i_epik_Tot_abs_Q>  (181) 
1

>  <s_lp_Force_Field>  (181) 
OPLS3e

>  <r_lp_Energy>  (181) 
95.7116

>  <b_lp_Chiralities_Consistent>  (181) 
1

>  <s_lp_Variant>  (181) 
48:0-1

>  <s_i_glide_gridfile>  (181) 
pfpi4k_grid

>  <i_i_glide_lignum>  (181) 
26

>  <i_i_glide_rotatable_bonds>  (181) 
3

>  <r_i_docking_score>  (181) 
-2.16923

>  <r_i_glide_ligand_efficiency>  (181) 
-0.0638009

>  <r_i_glide_ligand_efficiency_sa>  (181) 
-0.20669

>  <r_i_glide_ligand_efficiency_ln>  (181) 
-0.479244

>  <r_i_glide_gscore>  (181) 
-2.16923

>  <r_i_glide_lipo>  (181) 
-0.362776

>  <r_i_glide_hbond>  (181) 
0

>  <r_i_glide_metal>  (181) 
-0

>  <r_i_glide_rewards>  (181) 
-0.207004

>  <r_i_glide_evdw>  (181) 
-22.9715

>  <r_i_glide_ecoul>  (181) 
-4.0571

>  <r_i_glide_erotb>  (181) 
0.18316

>  <r_i_glide_esite>  (181) 
-0.025474

>  <r_i_glide_emodel>  (181) 
-31.9979

>  <r_i_glide_energy>  (181) 
-27.0286

>  <r_i_glide_einternal>  (181) 
0.607254

>  <r_i_glide_intrahb_reward>  (181) 
-0

>  <i_i_glide_confnum>  (181) 
3

>  <i_i_glide_posenum>  (181) 
5

>  <r_i_glide_eff_state_penalty>  (181) 
0

>  <ligand_id>  (181) 
48

>  <original_smiles>  (181) 
CC(=O)NC12CCC(C)(CCC3C(C)(C)C4CC31O4)Oc1nc(N3CCN(C)CC3)cc(C)c12

>  <smiles>  (181) 
[H]c1c(N2C([H])([H])C([H])([H])[N+]([H])(C([H])([H])[H])C([H])([H])C2([H])[H])nc2c(c1C([H])([H])[H])C1(N([H])C(=O)C([H])([H])[H])C([H])([H])C([H])([H])C(C([H])([H])[H])(O2)C([H])([H])C([H])([H])C2([H])C13OC([H])(C3([H])[H])C2(C([H])([H])[H])C([H])([H])[H]

$$$$
48:0:1
     RDKit          3D

 75 80  0  0  1  0  0  0  0  0999 V2000
    4.8077   -2.9512    6.5911 C   0  0  0  0  0  0  0  0  0  0  0  0
    4.7461   -3.8329    5.3433 C   0  0  0  0  0  0  0  0  0  0  0  0
    5.4165   -3.5271    4.3661 O   0  0  0  0  0  0  0  0  0  0  0  0
    3.9262   -4.9044    5.3869 N   0  0  0  0  0  0  0  0  0  0  0  0
    3.7121   -5.9628    4.3739 C   0  0  1  0  0  0  0  0  0  0  0  0
    4.9269   -6.8977    4.6300 C   0  0  0  0  0  0  0  0  0  0  0  0
    5.0285   -8.2525    3.9085 C   0  0  0  0  0  0  0  0  0  0  0  0
    4.7955   -8.1940    2.3928 C   0  0  1  0  0  0  0  0  0  0  0  0
    5.8035   -9.1403    1.7039 C   0  0  0  0  0  0  0  0  0  0  0  0
    3.3775   -8.6424    1.9220 C   0  0  0  0  0  0  0  0  0  0  0  0
    2.0786   -7.9668    2.4352 C   0  0  0  0  0  0  0  0  0  0  0  0
    1.8933   -7.9530    3.9688 C   0  0  2  0  0  0  0  0  0  0  0  0
    0.4436   -8.0029    4.5135 C   0  0  0  0  0  0  0  0  0  0  0  0
   -0.6888   -7.6745    3.5075 C   0  0  0  0  0  0  0  0  0  0  0  0
    0.1211   -9.3422    5.2084 C   0  0  0  0  0  0  0  0  0  0  0  0
    0.6269   -6.8840    5.5226 C   0  0  1  0  0  0  0  0  0  0  0  0
    1.9823   -6.9027    6.2388 C   0  0  0  0  0  0  0  0  0  0  0  0
    2.3898   -6.7128    4.7613 C   0  0  1  0  0  0  0  0  0  0  0  0
    1.2047   -5.8897    4.6556 O   0  0  0  0  0  0  0  0  0  0  0  0
    5.2513   -6.9457    1.8981 O   0  0  0  0  0  0  0  0  0  0  0  0
    4.3952   -5.8789    1.8444 C   0  0  0  0  0  0  0  0  0  0  0  0
    4.4037   -5.3630    0.5991 N   0  0  0  0  0  0  0  0  0  0  0  0
    3.6186   -4.3137    0.3130 C   0  0  0  0  0  0  0  0  0  0  0  0
    3.6208   -3.8384   -1.0105 N   0  0  0  0  0  0  0  0  0  0  0  0
    2.4250   -3.2548   -1.6062 C   0  0  0  0  0  0  0  0  0  0  0  0
    2.7686   -1.8867   -2.1939 C   0  0  0  0  0  0  0  0  0  0  0  0
    3.9156   -1.9716   -3.1249 N   0  0  0  0  0  0  0  0  0  0  0  0
    4.1889   -0.6632   -3.7698 C   0  0  0  0  0  0  0  0  0  0  0  0
    5.1153   -2.5504   -2.4607 C   0  0  0  0  0  0  0  0  0  0  0  0
    4.8095   -3.9277   -1.8492 C   0  0  0  0  0  0  0  0  0  0  0  0
    2.8250   -3.7117    1.2975 C   0  0  0  0  0  0  0  0  0  0  0  0
    2.8218   -4.2060    2.6117 C   0  0  0  0  0  0  0  0  0  0  0  0
    1.9560   -3.3821    3.5587 C   0  0  0  0  0  0  0  0  0  0  0  0
    3.6300   -5.3534    2.9349 C   0  0  0  0  0  0  0  0  0  0  0  0
    4.1306   -3.2959    7.3710 H   0  0  0  0  0  0  0  0  0  0  0  0
    4.5445   -1.9254    6.3322 H   0  0  0  0  0  0  0  0  0  0  0  0
    5.8232   -2.9425    6.9873 H   0  0  0  0  0  0  0  0  0  0  0  0
    3.4084   -5.0267    6.2414 H   0  0  0  0  0  0  0  0  0  0  0  0
    5.8476   -6.3449    4.4394 H   0  0  0  0  0  0  0  0  0  0  0  0
    4.9556   -7.1360    5.6966 H   0  0  0  0  0  0  0  0  0  0  0  0
    6.0455   -8.5995    4.1009 H   0  0  0  0  0  0  0  0  0  0  0  0
    4.4258   -9.0289    4.3769 H   0  0  0  0  0  0  0  0  0  0  0  0
    5.6512  -10.1830    1.9896 H   0  0  0  0  0  0  0  0  0  0  0  0
    6.8365   -8.8761    1.9421 H   0  0  0  0  0  0  0  0  0  0  0  0
    5.7080   -9.0824    0.6190 H   0  0  0  0  0  0  0  0  0  0  0  0
    3.3645   -8.5875    0.8352 H   0  0  0  0  0  0  0  0  0  0  0  0
    3.2849   -9.7071    2.1458 H   0  0  0  0  0  0  0  0  0  0  0  0
    1.9132   -6.9845    1.9966 H   0  0  0  0  0  0  0  0  0  0  0  0
    1.2836   -8.5769    2.0061 H   0  0  0  0  0  0  0  0  0  0  0  0
    2.3683   -8.8512    4.3495 H   0  0  0  0  0  0  0  0  0  0  0  0
   -1.6328   -7.5113    4.0271 H   0  0  0  0  0  0  0  0  0  0  0  0
   -0.8547   -8.4916    2.8044 H   0  0  0  0  0  0  0  0  0  0  0  0
   -0.4705   -6.7764    2.9333 H   0  0  0  0  0  0  0  0  0  0  0  0
   -0.8497   -9.2943    5.7051 H   0  0  0  0  0  0  0  0  0  0  0  0
    0.8530   -9.6042    5.9758 H   0  0  0  0  0  0  0  0  0  0  0  0
    0.0868  -10.1687    4.4948 H   0  0  0  0  0  0  0  0  0  0  0  0
   -0.2382   -6.5504    6.0998 H   0  0  0  0  0  0  0  0  0  0  0  0
    2.1253   -6.0576    6.9108 H   0  0  0  0  0  0  0  0  0  0  0  0
    2.2608   -7.8642    6.6701 H   0  0  0  0  0  0  0  0  0  0  0  0
    2.0600   -3.9095   -2.3981 H   0  0  0  0  0  0  0  0  0  0  0  0
    1.5956   -3.1626   -0.9074 H   0  0  0  0  0  0  0  0  0  0  0  0
    1.8985   -1.5130   -2.7202 H   0  0  0  0  0  0  0  0  0  0  0  0
    3.0017   -1.1840   -1.3934 H   0  0  0  0  0  0  0  0  0  0  0  0
    4.4812    0.0804   -3.0233 H   0  0  0  0  0  0  0  0  0  0  0  0
    3.3098   -0.2770   -4.2930 H   0  0  0  0  0  0  0  0  0  0  0  0
    4.9888   -0.7536   -4.5066 H   0  0  0  0  0  0  0  0  0  0  0  0
    5.9472   -2.6491   -3.1588 H   0  0  0  0  0  0  0  0  0  0  0  0
    5.4305   -1.8716   -1.6672 H   0  0  0  0  0  0  0  0  0  0  0  0
    5.6750   -4.2853   -1.2899 H   0  0  0  0  0  0  0  0  0  0  0  0
    4.6276   -4.6494   -2.6460 H   0  0  0  0  0  0  0  0  0  0  0  0
    2.2534   -2.8214    1.0728 H   0  0  0  0  0  0  0  0  0  0  0  0
    1.9962   -3.6344    4.6077 H   0  0  0  0  0  0  0  0  0  0  0  0
    0.9144   -3.4588    3.2566 H   0  0  0  0  0  0  0  0  0  0  0  0
    2.2366   -2.3317    3.4853 H   0  0  0  0  0  0  0  0  0  0  0  0
    3.6334   -2.6218   -3.8438 H   0  0  0  0  0  0  0  0  0  0  0  0
  1  2  1  0
  1 35  1  0
  1 36  1  0
  1 37  1  0
  2  3  2  0
  2  4  1  0
  5  4  1  1
  4 38  1  0
  5 18  1  0
  5 34  1  0
  5  6  1  0
  6  7  1  0
  6 39  1  0
  6 40  1  0
  7  8  1  0
  7 41  1  0
  7 42  1  0
  8  9  1  6
  8 10  1  0
  8 20  1  0
  9 43  1  0
  9 44  1  0
  9 45  1  0
 10 11  1  0
 10 46  1  0
 10 47  1  0
 11 12  1  0
 11 48  1  0
 11 49  1  0
 12 18  1  0
 12 13  1  0
 12 50  1  1
 13 14  1  0
 13 15  1  0
 13 16  1  0
 14 51  1  0
 14 52  1  0
 14 53  1  0
 15 54  1  0
 15 55  1  0
 15 56  1  0
 16 19  1  0
 16 17  1  0
 16 57  1  1
 17 18  1  0
 17 58  1  0
 17 59  1  0
 18 19  1  6
 20 21  1  0
 21 34  2  0
 21 22  1  0
 22 23  2  0
 23 24  1  0
 23 31  1  0
 24 30  1  0
 24 25  1  0
 25 26  1  0
 25 60  1  0
 25 61  1  0
 26 27  1  0
 26 62  1  0
 26 63  1  0
 27 28  1  0
 27 29  1  0
 27 75  1  0
 28 64  1  0
 28 65  1  0
 28 66  1  0
 29 30  1  0
 29 67  1  0
 29 68  1  0
 30 69  1  0
 30 70  1  0
 31 32  2  0
 31 71  1  0
 32 33  1  0
 32 34  1  0
 33 72  1  0
 33 73  1  0
 33 74  1  0
M  CHG  1  27   1
M  END
>  <i_m_ct_stereo_status>  (182) 
1

>  <s_m_source_file>  (182) 
/var/tmp/pbs.5076255.sched01/tmp323fbwsu/45qgza_o8k.sdf

>  <i_m_source_file_index>  (182) 
26

>  <i_lp_mmshare_version>  (182) 
48012

>  <i_f3d_flags>  (182) 
0

>  <s_epik_input>  (182) 
W0NIMl0xW0NIMl1OKFtDSDNdKVtDSDJdW0NIMl1OMWMoW2NIXWMyW0NIM10pbmMoYzJbQ0BdMyhbQ0BAXTQ1NilbTkhdQyg9TylbQ0gzXSlPW0NAQF0oW0NIM10pKFtDSDJdW0NIMl0zKVtDSDJdW0NIMl1bQ0BASF00QyhbQ0gzXSkoW0NIM10pW0NASF0oTzYpW0NIMl01

>  <s_epik_cmdline>  (182) 
J2VwaWtfcHl0aG9uJywgJy1waHQnLCAnMi4wJywgJy1waCcsICc3LjAnLCAnLXRuJywgJzgnLCAnLW1hJywgJzIwMCcsICctaW1hZScsICc8aW5maWxlLm1hZT4nLCAnLW9tYWUnLCAnPG91dGZpbGUubWFlPic=

>  <r_lp_tautomer_probability>  (182) 
1

>  <r_epik_Ionization_Penalty>  (182) 
0.0754737

>  <r_epik_Ionization_Penalty_Charging>  (182) 
0.0735835

>  <r_epik_Ionization_Penalty_Neutral>  (182) 
0.00189026

>  <r_epik_State_Penalty>  (182) 
0.0487438

>  <r_epik_Charging_Adjusted_Penalty>  (182) 
0.122327

>  <i_epik_Tot_Q>  (182) 
1

>  <i_epik_Tot_abs_Q>  (182) 
1

>  <s_lp_Force_Field>  (182) 
OPLS3e

>  <r_lp_Energy>  (182) 
95.7116

>  <b_lp_Chiralities_Consistent>  (182) 
1

>  <s_lp_Variant>  (182) 
48:0-1

>  <s_i_glide_gridfile>  (182) 
pfpi4k_grid

>  <i_i_glide_lignum>  (182) 
26

>  <i_i_glide_rotatable_bonds>  (182) 
3

>  <r_i_docking_score>  (182) 
-2.16271

>  <r_i_glide_ligand_efficiency>  (182) 
-0.0636091

>  <r_i_glide_ligand_efficiency_sa>  (182) 
-0.206069

>  <r_i_glide_ligand_efficiency_ln>  (182) 
-0.477803

>  <r_i_glide_gscore>  (182) 
-2.16271

>  <r_i_glide_lipo>  (182) 
-0.539162

>  <r_i_glide_hbond>  (182) 
0

>  <r_i_glide_metal>  (182) 
-0

>  <r_i_glide_rewards>  (182) 
-0.214159

>  <r_i_glide_evdw>  (182) 
-23.8191

>  <r_i_glide_ecoul>  (182) 
-2.5936

>  <r_i_glide_erotb>  (182) 
0.18316

>  <r_i_glide_esite>  (182) 
-0.0125539

>  <r_i_glide_emodel>  (182) 
-30.7582

>  <r_i_glide_energy>  (182) 
-26.4127

>  <r_i_glide_einternal>  (182) 
1.41578

>  <r_i_glide_intrahb_reward>  (182) 
-0

>  <i_i_glide_confnum>  (182) 
3

>  <i_i_glide_posenum>  (182) 
10

>  <r_i_glide_eff_state_penalty>  (182) 
0

>  <ligand_id>  (182) 
48

>  <original_smiles>  (182) 
CC(=O)NC12CCC(C)(CCC3C(C)(C)C4CC31O4)Oc1nc(N3CCN(C)CC3)cc(C)c12

>  <smiles>  (182) 
[H]c1c(N2C([H])([H])C([H])([H])[N+]([H])(C([H])([H])[H])C([H])([H])C2([H])[H])nc2c(c1C([H])([H])[H])C1(N([H])C(=O)C([H])([H])[H])C([H])([H])C([H])([H])C(C([H])([H])[H])(O2)C([H])([H])C([H])([H])C2([H])C13OC([H])(C3([H])[H])C2(C([H])([H])[H])C([H])([H])[H]

$$$$
48:0:2
     RDKit          3D

 75 80  0  0  1  0  0  0  0  0999 V2000
    3.7798   -5.7823    8.4407 C   0  0  0  0  0  0  0  0  0  0  0  0
    3.6454   -5.4494    6.9571 C   0  0  0  0  0  0  0  0  0  0  0  0
    4.2747   -4.4980    6.4925 O   0  0  0  0  0  0  0  0  0  0  0  0
    2.8232   -6.2314    6.2304 N   0  0  0  0  0  0  0  0  0  0  0  0
    2.5091   -6.1595    4.7880 C   0  0  1  0  0  0  0  0  0  0  0  0
    3.8269   -6.6484    4.1261 C   0  0  0  0  0  0  0  0  0  0  0  0
    3.8883   -6.8944    2.6119 C   0  0  0  0  0  0  0  0  0  0  0  0
    3.3301   -5.7548    1.7494 C   0  0  1  0  0  0  0  0  0  0  0  0
    4.2483   -5.5763    0.5212 C   0  0  0  0  0  0  0  0  0  0  0  0
    1.8920   -5.9828    1.1937 C   0  0  0  0  0  0  0  0  0  0  0  0
    0.6807   -6.2685    2.1205 C   0  0  0  0  0  0  0  0  0  0  0  0
    0.8347   -7.4712    3.0772 C   0  0  2  0  0  0  0  0  0  0  0  0
   -0.4526   -8.2452    3.4590 C   0  0  0  0  0  0  0  0  0  0  0  0
   -1.7978   -7.5427    3.1729 C   0  0  0  0  0  0  0  0  0  0  0  0
   -0.5032   -9.6574    2.8455 C   0  0  0  0  0  0  0  0  0  0  0  0
   -0.1640   -8.2905    4.9476 C   0  0  1  0  0  0  0  0  0  0  0  0
    1.3084   -8.5357    5.2913 C   0  0  0  0  0  0  0  0  0  0  0  0
    1.3719   -7.2057    4.5115 C   0  0  1  0  0  0  0  0  0  0  0  0
    0.1171   -6.8909    5.1637 O   0  0  0  0  0  0  0  0  0  0  0  0
    3.5490   -4.5189    2.4069 O   0  0  0  0  0  0  0  0  0  0  0  0
    2.6046   -4.0290    3.2699 C   0  0  0  0  0  0  0  0  0  0  0  0
    2.2696   -2.7749    2.9084 N   0  0  0  0  0  0  0  0  0  0  0  0
    1.3514   -2.0908    3.6115 C   0  0  0  0  0  0  0  0  0  0  0  0
    1.0149   -0.7901    3.1716 N   0  0  0  0  0  0  0  0  0  0  0  0
    0.3771    0.1895    4.0534 C   0  0  0  0  0  0  0  0  0  0  0  0
    1.1722    1.5034    4.0708 C   0  0  0  0  0  0  0  0  0  0  0  0
    1.4217    2.0076    2.7024 N   0  0  0  0  0  0  0  0  0  0  0  0
    2.1204    3.3172    2.7030 C   0  0  0  0  0  0  0  0  0  0  0  0
    2.1307    0.9875    1.8819 C   0  0  0  0  0  0  0  0  0  0  0  0
    1.3457   -0.3320    1.8251 C   0  0  0  0  0  0  0  0  0  0  0  0
    0.7485   -2.6669    4.7390 C   0  0  0  0  0  0  0  0  0  0  0  0
    1.1037   -3.9576    5.1622 C   0  0  0  0  0  0  0  0  0  0  0  0
    0.3841   -4.3747    6.4383 C   0  0  0  0  0  0  0  0  0  0  0  0
    2.0676   -4.7116    4.4060 C   0  0  0  0  0  0  0  0  0  0  0  0
    3.1317   -6.6086    8.7356 H   0  0  0  0  0  0  0  0  0  0  0  0
    3.5229   -4.9136    9.0465 H   0  0  0  0  0  0  0  0  0  0  0  0
    4.8094   -6.0549    8.6715 H   0  0  0  0  0  0  0  0  0  0  0  0
    2.3576   -6.9769    6.7272 H   0  0  0  0  0  0  0  0  0  0  0  0
    4.6314   -5.9557    4.3766 H   0  0  0  0  0  0  0  0  0  0  0  0
    4.1070   -7.5958    4.5938 H   0  0  0  0  0  0  0  0  0  0  0  0
    4.9510   -7.0137    2.3975 H   0  0  0  0  0  0  0  0  0  0  0  0
    3.4782   -7.8602    2.3233 H   0  0  0  0  0  0  0  0  0  0  0  0
    4.2631   -6.4618   -0.1172 H   0  0  0  0  0  0  0  0  0  0  0  0
    5.2779   -5.3607    0.8160 H   0  0  0  0  0  0  0  0  0  0  0  0
    3.9171   -4.7361   -0.0910 H   0  0  0  0  0  0  0  0  0  0  0  0
    1.6516   -5.1234    0.5685 H   0  0  0  0  0  0  0  0  0  0  0  0
    1.9472   -6.8209    0.5002 H   0  0  0  0  0  0  0  0  0  0  0  0
    0.3438   -5.3831    2.6547 H   0  0  0  0  0  0  0  0  0  0  0  0
   -0.1284   -6.5009    1.4276 H   0  0  0  0  0  0  0  0  0  0  0  0
    1.4593   -8.1997    2.5701 H   0  0  0  0  0  0  0  0  0  0  0  0
   -2.6119   -8.0618    3.6769 H   0  0  0  0  0  0  0  0  0  0  0  0
   -2.0334   -7.5404    2.1081 H   0  0  0  0  0  0  0  0  0  0  0  0
   -1.7974   -6.5211    3.5422 H   0  0  0  0  0  0  0  0  0  0  0  0
   -1.3493  -10.2196    3.2399 H   0  0  0  0  0  0  0  0  0  0  0  0
    0.3965  -10.2355    3.0679 H   0  0  0  0  0  0  0  0  0  0  0  0
   -0.6195   -9.6161    1.7615 H   0  0  0  0  0  0  0  0  0  0  0  0
   -0.9110   -8.7309    5.6116 H   0  0  0  0  0  0  0  0  0  0  0  0
    1.5063   -8.5016    6.3634 H   0  0  0  0  0  0  0  0  0  0  0  0
    1.7585   -9.3891    4.7840 H   0  0  0  0  0  0  0  0  0  0  0  0
   -0.6372    0.3650    3.6933 H   0  0  0  0  0  0  0  0  0  0  0  0
    0.3063   -0.1370    5.0881 H   0  0  0  0  0  0  0  0  0  0  0  0
    0.6443    2.2441    4.6739 H   0  0  0  0  0  0  0  0  0  0  0  0
    2.1290    1.3240    4.5637 H   0  0  0  0  0  0  0  0  0  0  0  0
    3.1183    3.2185    3.1373 H   0  0  0  0  0  0  0  0  0  0  0  0
    1.5667    4.0576    3.2879 H   0  0  0  0  0  0  0  0  0  0  0  0
    2.2156    3.7137    1.6888 H   0  0  0  0  0  0  0  0  0  0  0  0
    2.2702    1.3591    0.8821 H   0  0  0  0  0  0  0  0  0  0  0  0
    3.1243    0.8045    2.2917 H   0  0  0  0  0  0  0  0  0  0  0  0
    1.9094   -1.0624    1.2392 H   0  0  0  0  0  0  0  0  0  0  0  0
    0.4136   -0.1732    1.2832 H   0  0  0  0  0  0  0  0  0  0  0  0
    0.0027   -2.1395    5.3102 H   0  0  0  0  0  0  0  0  0  0  0  0
    0.6696   -5.3158    6.8831 H   0  0  0  0  0  0  0  0  0  0  0  0
   -0.6844   -4.4257    6.2414 H   0  0  0  0  0  0  0  0  0  0  0  0
    0.5324   -3.6121    7.2027 H   0  0  0  0  0  0  0  0  0  0  0  0
    0.5246    2.1707    2.2615 H   0  0  0  0  0  0  0  0  0  0  0  0
  1  2  1  0
  1 35  1  0
  1 36  1  0
  1 37  1  0
  2  3  2  0
  2  4  1  0
  5  4  1  1
  4 38  1  0
  5 18  1  0
  5 34  1  0
  5  6  1  0
  6  7  1  0
  6 39  1  0
  6 40  1  0
  7  8  1  0
  7 41  1  0
  7 42  1  0
  8  9  1  6
  8 10  1  0
  8 20  1  0
  9 43  1  0
  9 44  1  0
  9 45  1  0
 10 11  1  0
 10 46  1  0
 10 47  1  0
 11 12  1  0
 11 48  1  0
 11 49  1  0
 12 18  1  0
 12 13  1  0
 12 50  1  6
 13 14  1  0
 13 15  1  0
 13 16  1  0
 14 51  1  0
 14 52  1  0
 14 53  1  0
 15 54  1  0
 15 55  1  0
 15 56  1  0
 16 19  1  0
 16 17  1  0
 16 57  1  1
 17 18  1  0
 17 58  1  0
 17 59  1  0
 18 19  1  1
 20 21  1  0
 21 34  2  0
 21 22  1  0
 22 23  2  0
 23 24  1  0
 23 31  1  0
 24 30  1  0
 24 25  1  0
 25 26  1  0
 25 60  1  0
 25 61  1  0
 26 27  1  0
 26 62  1  0
 26 63  1  0
 27 28  1  0
 27 29  1  0
 27 75  1  0
 28 64  1  0
 28 65  1  0
 28 66  1  0
 29 30  1  0
 29 67  1  0
 29 68  1  0
 30 69  1  0
 30 70  1  0
 31 32  2  0
 31 71  1  0
 32 33  1  0
 32 34  1  0
 33 72  1  0
 33 73  1  0
 33 74  1  0
M  CHG  1  27   1
M  END
>  <i_m_ct_stereo_status>  (183) 
1

>  <s_m_source_file>  (183) 
/var/tmp/pbs.5076255.sched01/tmp323fbwsu/45qgza_o8k.sdf

>  <i_m_source_file_index>  (183) 
26

>  <i_lp_mmshare_version>  (183) 
48012

>  <i_f3d_flags>  (183) 
0

>  <s_epik_input>  (183) 
W0NIMl0xW0NIMl1OKFtDSDNdKVtDSDJdW0NIMl1OMWMoW2NIXWMyW0NIM10pbmMoYzJbQ0BdMyhbQ0BAXTQ1NilbTkhdQyg9TylbQ0gzXSlPW0NAQF0oW0NIM10pKFtDSDJdW0NIMl0zKVtDSDJdW0NIMl1bQ0BASF00QyhbQ0gzXSkoW0NIM10pW0NASF0oTzYpW0NIMl01

>  <s_epik_cmdline>  (183) 
J2VwaWtfcHl0aG9uJywgJy1waHQnLCAnMi4wJywgJy1waCcsICc3LjAnLCAnLXRuJywgJzgnLCAnLW1hJywgJzIwMCcsICctaW1hZScsICc8aW5maWxlLm1hZT4nLCAnLW9tYWUnLCAnPG91dGZpbGUubWFlPic=

>  <r_lp_tautomer_probability>  (183) 
1

>  <r_epik_Ionization_Penalty>  (183) 
0.0754737

>  <r_epik_Ionization_Penalty_Charging>  (183) 
0.0735835

>  <r_epik_Ionization_Penalty_Neutral>  (183) 
0.00189026

>  <r_epik_State_Penalty>  (183) 
0.0487438

>  <r_epik_Charging_Adjusted_Penalty>  (183) 
0.122327

>  <i_epik_Tot_Q>  (183) 
1

>  <i_epik_Tot_abs_Q>  (183) 
1

>  <s_lp_Force_Field>  (183) 
OPLS3e

>  <r_lp_Energy>  (183) 
95.7116

>  <b_lp_Chiralities_Consistent>  (183) 
1

>  <s_lp_Variant>  (183) 
48:0-1

>  <s_i_glide_gridfile>  (183) 
pfpi4k_grid

>  <i_i_glide_lignum>  (183) 
26

>  <i_i_glide_rotatable_bonds>  (183) 
3

>  <r_i_docking_score>  (183) 
-1.79584

>  <r_i_glide_ligand_efficiency>  (183) 
-0.0528189

>  <r_i_glide_ligand_efficiency_sa>  (183) 
-0.171113

>  <r_i_glide_ligand_efficiency_ln>  (183) 
-0.396752

>  <r_i_glide_gscore>  (183) 
-1.79584

>  <r_i_glide_lipo>  (183) 
-0.131648

>  <r_i_glide_hbond>  (183) 
0

>  <r_i_glide_metal>  (183) 
-0

>  <r_i_glide_rewards>  (183) 
-0.207004

>  <r_i_glide_evdw>  (183) 
-24.0039

>  <r_i_glide_ecoul>  (183) 
-2.52724

>  <r_i_glide_erotb>  (183) 
0.18316

>  <r_i_glide_esite>  (183) 
-0.0610672

>  <r_i_glide_emodel>  (183) 
-30.8251

>  <r_i_glide_energy>  (183) 
-26.5312

>  <r_i_glide_einternal>  (183) 
0.110499

>  <r_i_glide_intrahb_reward>  (183) 
-0

>  <i_i_glide_confnum>  (183) 
3

>  <i_i_glide_posenum>  (183) 
1

>  <r_i_glide_eff_state_penalty>  (183) 
0

>  <ligand_id>  (183) 
48

>  <original_smiles>  (183) 
CC(=O)NC12CCC(C)(CCC3C(C)(C)C4CC31O4)Oc1nc(N3CCN(C)CC3)cc(C)c12

>  <smiles>  (183) 
[H]c1c(N2C([H])([H])C([H])([H])[N+]([H])(C([H])([H])[H])C([H])([H])C2([H])[H])nc2c(c1C([H])([H])[H])C1(N([H])C(=O)C([H])([H])[H])C([H])([H])C([H])([H])C(C([H])([H])[H])(O2)C([H])([H])C([H])([H])C2([H])C13OC([H])(C3([H])[H])C2(C([H])([H])[H])C([H])([H])[H]

$$$$
48:1:0
     RDKit          3D

 74 79  0  0  1  0  0  0  0  0999 V2000
    1.7493    6.4072    3.5894 C   0  0  0  0  0  0  0  0  0  0  0  0
    1.9946    5.3797    4.6924 C   0  0  0  0  0  0  0  0  0  0  0  0
    1.9452    5.7572    5.8637 O   0  0  0  0  0  0  0  0  0  0  0  0
    2.2376    4.1004    4.3186 N   0  0  0  0  0  0  0  0  0  0  0  0
    2.4624    2.8644    5.1145 C   0  0  1  0  0  0  0  0  0  0  0  0
    3.5670    3.2795    6.1491 C   0  0  0  0  0  0  0  0  0  0  0  0
    3.9987    2.3230    7.2599 C   0  0  0  0  0  0  0  0  0  0  0  0
    4.3620    0.9124    6.8094 C   0  0  1  0  0  0  0  0  0  0  0  0
    5.6115    0.4693    7.5996 C   0  0  0  0  0  0  0  0  0  0  0  0
    3.2605   -0.1608    7.0552 C   0  0  0  0  0  0  0  0  0  0  0  0
    1.8327   -0.0319    6.4599 C   0  0  0  0  0  0  0  0  0  0  0  0
    1.0543    1.2572    6.8236 C   0  0  2  0  0  0  0  0  0  0  0  0
   -0.4888    1.1315    6.9390 C   0  0  0  0  0  0  0  0  0  0  0  0
   -1.1485   -0.1288    6.3189 C   0  0  0  0  0  0  0  0  0  0  0  0
   -1.0000    1.3199    8.3877 C   0  0  0  0  0  0  0  0  0  0  0  0
   -0.7992    2.3406    6.0917 C   0  0  1  0  0  0  0  0  0  0  0  0
    0.1150    3.5295    6.3602 C   0  0  0  0  0  0  0  0  0  0  0  0
    1.1111    2.4665    5.8407 C   0  0  1  0  0  0  0  0  0  0  0  0
    0.0480    2.0543    4.9637 O   0  0  0  0  0  0  0  0  0  0  0  0
    4.8880    0.9834    5.4981 O   0  0  0  0  0  0  0  0  0  0  0  0
    4.0567    0.8767    4.4195 C   0  0  0  0  0  0  0  0  0  0  0  0
    4.4982   -0.1144    3.6268 N   0  0  0  0  0  0  0  0  0  0  0  0
    3.8515   -0.4206    2.4966 C   0  0  0  0  0  0  0  0  0  0  0  0
    4.3383   -1.5076    1.7256 N   0  0  0  0  0  0  0  0  0  0  0  0
    3.5095   -2.2620    0.7928 C   0  0  0  0  0  0  0  0  0  0  0  0
    4.1657   -2.2776   -0.6042 C   0  0  0  0  0  0  0  0  0  0  0  0
    5.5303   -2.8087   -0.5235 N   0  0  0  0  0  0  0  0  0  0  0  0
    6.1161   -2.8538   -1.8600 C   0  0  0  0  0  0  0  0  0  0  0  0
    6.3314   -1.9526    0.3517 C   0  0  0  0  0  0  0  0  0  0  0  0
    5.7386   -1.9291    1.7801 C   0  0  0  0  0  0  0  0  0  0  0  0
    2.7455    0.3451    2.0965 C   0  0  0  0  0  0  0  0  0  0  0  0
    2.2812    1.4064    2.8838 C   0  0  0  0  0  0  0  0  0  0  0  0
    1.1011    2.1391    2.2575 C   0  0  0  0  0  0  0  0  0  0  0  0
    2.9293    1.7255    4.1401 C   0  0  0  0  0  0  0  0  0  0  0  0
    1.9086    6.0086    2.5789 H   0  0  0  0  0  0  0  0  0  0  0  0
    2.4030    7.2701    3.7520 H   0  0  0  0  0  0  0  0  0  0  0  0
    0.7217    6.7612    3.6751 H   0  0  0  0  0  0  0  0  0  0  0  0
    2.2691    3.9443    3.3245 H   0  0  0  0  0  0  0  0  0  0  0  0
    4.4489    3.5894    5.5809 H   0  0  0  0  0  0  0  0  0  0  0  0
    3.2430    4.1316    6.7367 H   0  0  0  0  0  0  0  0  0  0  0  0
    4.8770    2.8007    7.6943 H   0  0  0  0  0  0  0  0  0  0  0  0
    3.2968    2.3141    8.0872 H   0  0  0  0  0  0  0  0  0  0  0  0
    5.4132    0.4203    8.6721 H   0  0  0  0  0  0  0  0  0  0  0  0
    6.4446    1.1595    7.4442 H   0  0  0  0  0  0  0  0  0  0  0  0
    5.9451   -0.5150    7.2662 H   0  0  0  0  0  0  0  0  0  0  0  0
    3.6612   -1.1224    6.7309 H   0  0  0  0  0  0  0  0  0  0  0  0
    3.1391   -0.2471    8.1371 H   0  0  0  0  0  0  0  0  0  0  0  0
    1.8010   -0.2354    5.3897 H   0  0  0  0  0  0  0  0  0  0  0  0
    1.3027   -0.8753    6.9007 H   0  0  0  0  0  0  0  0  0  0  0  0
    1.3923    1.5609    7.8122 H   0  0  0  0  0  0  0  0  0  0  0  0
   -2.2267    0.0147    6.2225 H   0  0  0  0  0  0  0  0  0  0  0  0
   -0.9684   -1.0207    6.9222 H   0  0  0  0  0  0  0  0  0  0  0  0
   -0.7647   -0.3245    5.3137 H   0  0  0  0  0  0  0  0  0  0  0  0
   -2.0882    1.3971    8.4150 H   0  0  0  0  0  0  0  0  0  0  0  0
   -0.6101    2.2390    8.8292 H   0  0  0  0  0  0  0  0  0  0  0  0
   -0.6881    0.4949    9.0320 H   0  0  0  0  0  0  0  0  0  0  0  0
   -1.8454    2.5637    5.8583 H   0  0  0  0  0  0  0  0  0  0  0  0
   -0.2041    4.3517    5.7187 H   0  0  0  0  0  0  0  0  0  0  0  0
    0.2542    3.7958    7.4146 H   0  0  0  0  0  0  0  0  0  0  0  0
    3.4134   -3.2846    1.1662 H   0  0  0  0  0  0  0  0  0  0  0  0
    2.4935   -1.8869    0.7048 H   0  0  0  0  0  0  0  0  0  0  0  0
    3.5724   -2.9005   -1.2743 H   0  0  0  0  0  0  0  0  0  0  0  0
    4.1697   -1.2720   -1.0283 H   0  0  0  0  0  0  0  0  0  0  0  0
    7.1280   -3.2627   -1.8276 H   0  0  0  0  0  0  0  0  0  0  0  0
    6.1603   -1.8597   -2.3066 H   0  0  0  0  0  0  0  0  0  0  0  0
    5.5249   -3.4938   -2.5174 H   0  0  0  0  0  0  0  0  0  0  0  0
    7.3582   -2.3249    0.3845 H   0  0  0  0  0  0  0  0  0  0  0  0
    6.3721   -0.9377   -0.0459 H   0  0  0  0  0  0  0  0  0  0  0  0
    6.3369   -1.2617    2.3949 H   0  0  0  0  0  0  0  0  0  0  0  0
    5.8148   -2.9208    2.2286 H   0  0  0  0  0  0  0  0  0  0  0  0
    2.2506    0.1301    1.1605 H   0  0  0  0  0  0  0  0  0  0  0  0
    0.6598    2.9467    2.8250 H   0  0  0  0  0  0  0  0  0  0  0  0
    0.3034    1.4267    2.0398 H   0  0  0  0  0  0  0  0  0  0  0  0
    1.4124    2.5406    1.3008 H   0  0  0  0  0  0  0  0  0  0  0  0
  1  2  1  0
  1 35  1  0
  1 36  1  0
  1 37  1  0
  2  3  2  0
  2  4  1  0
  5  4  1  6
  4 38  1  0
  5 18  1  0
  5 34  1  0
  5  6  1  0
  6  7  1  0
  6 39  1  0
  6 40  1  0
  7  8  1  0
  7 41  1  0
  7 42  1  0
  8  9  1  1
  8 10  1  0
  8 20  1  0
  9 43  1  0
  9 44  1  0
  9 45  1  0
 10 11  1  0
 10 46  1  0
 10 47  1  0
 11 12  1  0
 11 48  1  0
 11 49  1  0
 12 18  1  0
 12 13  1  0
 12 50  1  1
 13 14  1  0
 13 15  1  0
 13 16  1  0
 14 51  1  0
 14 52  1  0
 14 53  1  0
 15 54  1  0
 15 55  1  0
 15 56  1  0
 16 19  1  0
 16 17  1  0
 16 57  1  6
 17 18  1  0
 17 58  1  0
 17 59  1  0
 18 19  1  6
 20 21  1  0
 21 34  2  0
 21 22  1  0
 22 23  2  0
 23 24  1  0
 23 31  1  0
 24 30  1  0
 24 25  1  0
 25 26  1  0
 25 60  1  0
 25 61  1  0
 26 27  1  0
 26 62  1  0
 26 63  1  0
 27 28  1  0
 27 29  1  0
 28 64  1  0
 28 65  1  0
 28 66  1  0
 29 30  1  0
 29 67  1  0
 29 68  1  0
 30 69  1  0
 30 70  1  0
 31 32  2  0
 31 71  1  0
 32 33  1  0
 32 34  1  0
 33 72  1  0
 33 73  1  0
 33 74  1  0
M  END
>  <i_m_ct_stereo_status>  (184) 
1

>  <s_m_source_file>  (184) 
/var/tmp/pbs.5076255.sched01/tmp323fbwsu/45qgza_o8k.sdf

>  <i_m_source_file_index>  (184) 
27

>  <i_lp_mmshare_version>  (184) 
48012

>  <i_f3d_flags>  (184) 
0

>  <s_epik_input>  (184) 
W0NIMl0xW0NIMl1OKFtDSDNdKVtDSDJdW0NIMl1OMWMoW2NIXWMyW0NIM10pbmMoYzJbQ0BdMyhbQ0BAXTQ1NilbTkhdQyg9TylbQ0gzXSlPW0NAQF0oW0NIM10pKFtDSDJdW0NIMl0zKVtDSDJdW0NIMl1bQ0BASF00QyhbQ0gzXSkoW0NIM10pW0NASF0oTzYpW0NIMl01

>  <s_epik_cmdline>  (184) 
J2VwaWtfcHl0aG9uJywgJy1waHQnLCAnMi4wJywgJy1waCcsICc3LjAnLCAnLXRuJywgJzgnLCAnLW1hJywgJzIwMCcsICctaW1hZScsICc8aW5maWxlLm1hZT4nLCAnLW9tYWUnLCAnPG91dGZpbGUubWFlPic=

>  <r_lp_tautomer_probability>  (184) 
1

>  <r_epik_Ionization_Penalty>  (184) 
1.3034

>  <r_epik_Ionization_Penalty_Charging>  (184) 
0

>  <r_epik_Ionization_Penalty_Neutral>  (184) 
1.3034

>  <r_epik_State_Penalty>  (184) 
1.54393

>  <r_epik_Charging_Adjusted_Penalty>  (184) 
1.54393

>  <i_epik_Tot_Q>  (184) 
0

>  <i_epik_Tot_abs_Q>  (184) 
0

>  <s_lp_Force_Field>  (184) 
OPLS3e

>  <r_lp_Energy>  (184) 
93.7591

>  <b_lp_Chiralities_Consistent>  (184) 
1

>  <s_lp_Variant>  (184) 
48:0-2

>  <s_i_glide_gridfile>  (184) 
pfpi4k_grid

>  <i_i_glide_lignum>  (184) 
27

>  <i_i_glide_rotatable_bonds>  (184) 
3

>  <r_i_docking_score>  (184) 
-1.74067

>  <r_i_glide_ligand_efficiency>  (184) 
-0.051196

>  <r_i_glide_ligand_efficiency_sa>  (184) 
-0.165855

>  <r_i_glide_ligand_efficiency_ln>  (184) 
-0.384562

>  <r_i_glide_gscore>  (184) 
-1.74067

>  <r_i_glide_lipo>  (184) 
-0.251575

>  <r_i_glide_hbond>  (184) 
0

>  <r_i_glide_metal>  (184) 
-0

>  <r_i_glide_rewards>  (184) 
-0.227973

>  <r_i_glide_evdw>  (184) 
-25.3409

>  <r_i_glide_ecoul>  (184) 
-1.01406

>  <r_i_glide_erotb>  (184) 
0.18388

>  <r_i_glide_esite>  (184) 
-0.0258451

>  <r_i_glide_emodel>  (184) 
-22.9082

>  <r_i_glide_energy>  (184) 
-26.3549

>  <r_i_glide_einternal>  (184) 
11.2507

>  <r_i_glide_intrahb_reward>  (184) 
-0

>  <i_i_glide_confnum>  (184) 
3

>  <i_i_glide_posenum>  (184) 
34

>  <r_i_glide_eff_state_penalty>  (184) 
0

>  <ligand_id>  (184) 
48

>  <original_smiles>  (184) 
CC(=O)NC12CCC(C)(CCC3C(C)(C)C4CC31O4)Oc1nc(N3CCN(C)CC3)cc(C)c12

>  <smiles>  (184) 
[H]c1c(N2C([H])([H])C([H])([H])N(C([H])([H])[H])C([H])([H])C2([H])[H])nc2c(c1C([H])([H])[H])C1(N([H])C(=O)C([H])([H])[H])C([H])([H])C([H])([H])C(C([H])([H])[H])(O2)C([H])([H])C([H])([H])C2([H])C13OC([H])(C3([H])[H])C2(C([H])([H])[H])C([H])([H])[H]

$$$$
48:1:1
     RDKit          3D

 74 79  0  0  1  0  0  0  0  0999 V2000
    1.6864    6.2133    3.6689 C   0  0  0  0  0  0  0  0  0  0  0  0
    2.0654    5.1729    4.7229 C   0  0  0  0  0  0  0  0  0  0  0  0
    2.0772    5.5295    5.8962 O   0  0  0  0  0  0  0  0  0  0  0  0
    2.3101    3.9064    4.2937 N   0  0  0  0  0  0  0  0  0  0  0  0
    2.6150    2.6609    5.0451 C   0  0  1  0  0  0  0  0  0  0  0  0
    3.7806    3.0778    6.0056 C   0  0  0  0  0  0  0  0  0  0  0  0
    4.3226    2.1114    7.0612 C   0  0  0  0  0  0  0  0  0  0  0  0
    4.6877    0.7283    6.5496 C   0  0  1  0  0  0  0  0  0  0  0  0
    6.0055    0.2962    7.2320 C   0  0  0  0  0  0  0  0  0  0  0  0
    3.6404   -0.3907    6.8339 C   0  0  0  0  0  0  0  0  0  0  0  0
    2.1711   -0.2844    6.3427 C   0  0  0  0  0  0  0  0  0  0  0  0
    1.3880    0.9698    6.7977 C   0  0  2  0  0  0  0  0  0  0  0  0
   -0.1361    0.7975    7.0110 C   0  0  0  0  0  0  0  0  0  0  0  0
   -0.8024   -0.4645    6.4071 C   0  0  0  0  0  0  0  0  0  0  0  0
   -0.5523    0.9267    8.4949 C   0  0  0  0  0  0  0  0  0  0  0  0
   -0.5452    2.0174    6.2269 C   0  0  1  0  0  0  0  0  0  0  0  0
    0.3495    3.2211    6.4699 C   0  0  0  0  0  0  0  0  0  0  0  0
    1.3382    2.2037    5.8544 C   0  0  1  0  0  0  0  0  0  0  0  0
    0.2290    1.7899    5.0332 O   0  0  0  0  0  0  0  0  0  0  0  0
    5.1191    0.8481    5.2036 O   0  0  0  0  0  0  0  0  0  0  0  0
    4.2125    0.7380    4.1894 C   0  0  0  0  0  0  0  0  0  0  0  0
    4.6261   -0.2432    3.3487 N   0  0  0  0  0  0  0  0  0  0  0  0
    3.9190   -0.5086    2.2449 C   0  0  0  0  0  0  0  0  0  0  0  0
    4.3871   -1.5549    1.3995 N   0  0  0  0  0  0  0  0  0  0  0  0
    4.0589   -1.6164   -0.0184 C   0  0  0  0  0  0  0  0  0  0  0  0
    5.3500   -1.7040   -0.8560 C   0  0  0  0  0  0  0  0  0  0  0  0
    6.1691   -2.8377   -0.4332 N   0  0  0  0  0  0  0  0  0  0  0  0
    7.3658   -2.9320   -1.2692 C   0  0  0  0  0  0  0  0  0  0  0  0
    6.5528   -2.6585    0.9625 C   0  0  0  0  0  0  0  0  0  0  0  0
    5.3009   -2.6003    1.8683 C   0  0  0  0  0  0  0  0  0  0  0  0
    2.7657    0.2301    1.9464 C   0  0  0  0  0  0  0  0  0  0  0  0
    2.3332    1.2721    2.7918 C   0  0  0  0  0  0  0  0  0  0  0  0
    1.0954    1.9827    2.2648 C   0  0  0  0  0  0  0  0  0  0  0  0
    3.0562    1.5666    3.9981 C   0  0  0  0  0  0  0  0  0  0  0  0
    1.7733    5.8487    2.6413 H   0  0  0  0  0  0  0  0  0  0  0  0
    2.3187    7.0922    3.7855 H   0  0  0  0  0  0  0  0  0  0  0  0
    0.6594    6.5360    3.8354 H   0  0  0  0  0  0  0  0  0  0  0  0
    2.2738    3.7843    3.2945 H   0  0  0  0  0  0  0  0  0  0  0  0
    4.6217    3.4375    5.3999 H   0  0  0  0  0  0  0  0  0  0  0  0
    3.4820    3.9164    6.6405 H   0  0  0  0  0  0  0  0  0  0  0  0
    5.2183    2.5997    7.4494 H   0  0  0  0  0  0  0  0  0  0  0  0
    3.6815    2.0556    7.9338 H   0  0  0  0  0  0  0  0  0  0  0  0
    5.8859    0.2083    8.3146 H   0  0  0  0  0  0  0  0  0  0  0  0
    6.8071    1.0148    7.0430 H   0  0  0  0  0  0  0  0  0  0  0  0
    6.3476   -0.6707    6.8464 H   0  0  0  0  0  0  0  0  0  0  0  0
    4.0446   -1.3333    6.4520 H   0  0  0  0  0  0  0  0  0  0  0  0
    3.5974   -0.5140    7.9202 H   0  0  0  0  0  0  0  0  0  0  0  0
    2.0694   -0.4627    5.2716 H   0  0  0  0  0  0  0  0  0  0  0  0
    1.6966   -1.1590    6.7909 H   0  0  0  0  0  0  0  0  0  0  0  0
    1.7846    1.2551    7.7646 H   0  0  0  0  0  0  0  0  0  0  0  0
   -1.8851   -0.3536    6.3808 H   0  0  0  0  0  0  0  0  0  0  0  0
   -0.5705   -1.3674    6.9790 H   0  0  0  0  0  0  0  0  0  0  0  0
   -0.4845   -0.6321    5.3764 H   0  0  0  0  0  0  0  0  0  0  0  0
   -1.6376    0.9732    8.6005 H   0  0  0  0  0  0  0  0  0  0  0  0
   -0.1572    1.8404    8.9437 H   0  0  0  0  0  0  0  0  0  0  0  0
   -0.1815    0.0876    9.0929 H   0  0  0  0  0  0  0  0  0  0  0  0
   -1.6068    2.2143    6.0721 H   0  0  0  0  0  0  0  0  0  0  0  0
   -0.0166    4.0571    5.8828 H   0  0  0  0  0  0  0  0  0  0  0  0
    0.5562    3.4699    7.5086 H   0  0  0  0  0  0  0  0  0  0  0  0
    3.4195   -2.4831   -0.1997 H   0  0  0  0  0  0  0  0  0  0  0  0
    3.5128   -0.7415   -0.3626 H   0  0  0  0  0  0  0  0  0  0  0  0
    5.0848   -1.8097   -1.9067 H   0  0  0  0  0  0  0  0  0  0  0  0
    5.9031   -0.7741   -0.7592 H   0  0  0  0  0  0  0  0  0  0  0  0
    7.9681   -3.7924   -0.9797 H   0  0  0  0  0  0  0  0  0  0  0  0
    7.9889   -2.0450   -1.1784 H   0  0  0  0  0  0  0  0  0  0  0  0
    7.0941   -3.0573   -2.3183 H   0  0  0  0  0  0  0  0  0  0  0  0
    7.1845   -3.4931    1.2759 H   0  0  0  0  0  0  0  0  0  0  0  0
    7.1422   -1.7505    1.0895 H   0  0  0  0  0  0  0  0  0  0  0  0
    5.6008   -2.4646    2.9051 H   0  0  0  0  0  0  0  0  0  0  0  0
    4.7833   -3.5633    1.8324 H   0  0  0  0  0  0  0  0  0  0  0  0
    2.1958   -0.0001    1.0515 H   0  0  0  0  0  0  0  0  0  0  0  0
    0.6658    2.7584    2.8845 H   0  0  0  0  0  0  0  0  0  0  0  0
    0.3056    1.2556    2.0729 H   0  0  0  0  0  0  0  0  0  0  0  0
    1.3351    2.4355    1.3058 H   0  0  0  0  0  0  0  0  0  0  0  0
  1  2  1  0
  1 35  1  0
  1 36  1  0
  1 37  1  0
  2  3  2  0
  2  4  1  0
  5  4  1  6
  4 38  1  0
  5 18  1  0
  5 34  1  0
  5  6  1  0
  6  7  1  0
  6 39  1  0
  6 40  1  0
  7  8  1  0
  7 41  1  0
  7 42  1  0
  8  9  1  1
  8 10  1  0
  8 20  1  0
  9 43  1  0
  9 44  1  0
  9 45  1  0
 10 11  1  0
 10 46  1  0
 10 47  1  0
 11 12  1  0
 11 48  1  0
 11 49  1  0
 12 18  1  0
 12 13  1  0
 12 50  1  1
 13 14  1  0
 13 15  1  0
 13 16  1  0
 14 51  1  0
 14 52  1  0
 14 53  1  0
 15 54  1  0
 15 55  1  0
 15 56  1  0
 16 19  1  0
 16 17  1  0
 16 57  1  6
 17 18  1  0
 17 58  1  0
 17 59  1  0
 18 19  1  6
 20 21  1  0
 21 34  2  0
 21 22  1  0
 22 23  2  0
 23 24  1  0
 23 31  1  0
 24 30  1  0
 24 25  1  0
 25 26  1  0
 25 60  1  0
 25 61  1  0
 26 27  1  0
 26 62  1  0
 26 63  1  0
 27 28  1  0
 27 29  1  0
 28 64  1  0
 28 65  1  0
 28 66  1  0
 29 30  1  0
 29 67  1  0
 29 68  1  0
 30 69  1  0
 30 70  1  0
 31 32  2  0
 31 71  1  0
 32 33  1  0
 32 34  1  0
 33 72  1  0
 33 73  1  0
 33 74  1  0
M  END
>  <i_m_ct_stereo_status>  (185) 
1

>  <s_m_source_file>  (185) 
/var/tmp/pbs.5076255.sched01/tmp323fbwsu/45qgza_o8k.sdf

>  <i_m_source_file_index>  (185) 
27

>  <i_lp_mmshare_version>  (185) 
48012

>  <i_f3d_flags>  (185) 
0

>  <s_epik_input>  (185) 
W0NIMl0xW0NIMl1OKFtDSDNdKVtDSDJdW0NIMl1OMWMoW2NIXWMyW0NIM10pbmMoYzJbQ0BdMyhbQ0BAXTQ1NilbTkhdQyg9TylbQ0gzXSlPW0NAQF0oW0NIM10pKFtDSDJdW0NIMl0zKVtDSDJdW0NIMl1bQ0BASF00QyhbQ0gzXSkoW0NIM10pW0NASF0oTzYpW0NIMl01

>  <s_epik_cmdline>  (185) 
J2VwaWtfcHl0aG9uJywgJy1waHQnLCAnMi4wJywgJy1waCcsICc3LjAnLCAnLXRuJywgJzgnLCAnLW1hJywgJzIwMCcsICctaW1hZScsICc8aW5maWxlLm1hZT4nLCAnLW9tYWUnLCAnPG91dGZpbGUubWFlPic=

>  <r_lp_tautomer_probability>  (185) 
1

>  <r_epik_Ionization_Penalty>  (185) 
1.3034

>  <r_epik_Ionization_Penalty_Charging>  (185) 
0

>  <r_epik_Ionization_Penalty_Neutral>  (185) 
1.3034

>  <r_epik_State_Penalty>  (185) 
1.54393

>  <r_epik_Charging_Adjusted_Penalty>  (185) 
1.54393

>  <i_epik_Tot_Q>  (185) 
0

>  <i_epik_Tot_abs_Q>  (185) 
0

>  <s_lp_Force_Field>  (185) 
OPLS3e

>  <r_lp_Energy>  (185) 
93.7591

>  <b_lp_Chiralities_Consistent>  (185) 
1

>  <s_lp_Variant>  (185) 
48:0-2

>  <s_i_glide_gridfile>  (185) 
pfpi4k_grid

>  <i_i_glide_lignum>  (185) 
27

>  <i_i_glide_rotatable_bonds>  (185) 
3

>  <r_i_docking_score>  (185) 
-1.58504

>  <r_i_glide_ligand_efficiency>  (185) 
-0.0466189

>  <r_i_glide_ligand_efficiency_sa>  (185) 
-0.151027

>  <r_i_glide_ligand_efficiency_ln>  (185) 
-0.350181

>  <r_i_glide_gscore>  (185) 
-1.58504

>  <r_i_glide_lipo>  (185) 
-0.188756

>  <r_i_glide_hbond>  (185) 
0

>  <r_i_glide_metal>  (185) 
-0

>  <r_i_glide_rewards>  (185) 
-0.225911

>  <r_i_glide_evdw>  (185) 
-25.5593

>  <r_i_glide_ecoul>  (185) 
-0.345765

>  <r_i_glide_erotb>  (185) 
0.18388

>  <r_i_glide_esite>  (185) 
-0.0244284

>  <r_i_glide_emodel>  (185) 
-22.728

>  <r_i_glide_energy>  (185) 
-25.905

>  <r_i_glide_einternal>  (185) 
10.2401

>  <r_i_glide_intrahb_reward>  (185) 
-0

>  <i_i_glide_confnum>  (185) 
4

>  <i_i_glide_posenum>  (185) 
32

>  <r_i_glide_eff_state_penalty>  (185) 
0

>  <ligand_id>  (185) 
48

>  <original_smiles>  (185) 
CC(=O)NC12CCC(C)(CCC3C(C)(C)C4CC31O4)Oc1nc(N3CCN(C)CC3)cc(C)c12

>  <smiles>  (185) 
[H]c1c(N2C([H])([H])C([H])([H])N(C([H])([H])[H])C([H])([H])C2([H])[H])nc2c(c1C([H])([H])[H])C1(N([H])C(=O)C([H])([H])[H])C([H])([H])C([H])([H])C(C([H])([H])[H])(O2)C([H])([H])C([H])([H])C2([H])C13OC([H])(C3([H])[H])C2(C([H])([H])[H])C([H])([H])[H]

$$$$
48:1:2
     RDKit          3D

 74 79  0  0  1  0  0  0  0  0999 V2000
    3.2693    6.6579    3.5053 C   0  0  0  0  0  0  0  0  0  0  0  0
    3.2940    5.6804    4.6788 C   0  0  0  0  0  0  0  0  0  0  0  0
    3.3933    6.1392    5.8101 O   0  0  0  0  0  0  0  0  0  0  0  0
    3.1553    4.3592    4.3854 N   0  0  0  0  0  0  0  0  0  0  0  0
    3.0708    3.1698    5.2708 C   0  0  1  0  0  0  0  0  0  0  0  0
    4.2925    3.3375    6.2389 C   0  0  0  0  0  0  0  0  0  0  0  0
    4.5086    2.3752    7.4063 C   0  0  0  0  0  0  0  0  0  0  0  0
    4.4566    0.8980    7.0495 C   0  0  1  0  0  0  0  0  0  0  0  0
    5.5747    0.1771    7.8370 C   0  0  0  0  0  0  0  0  0  0  0  0
    3.1214    0.1758    7.4028 C   0  0  0  0  0  0  0  0  0  0  0  0
    1.7551    0.6511    6.8388 C   0  0  0  0  0  0  0  0  0  0  0  0
    1.3726    2.1221    7.1278 C   0  0  2  0  0  0  0  0  0  0  0  0
   -0.1375    2.4323    7.2884 C   0  0  0  0  0  0  0  0  0  0  0  0
   -1.1435    1.3597    6.7945 C   0  0  0  0  0  0  0  0  0  0  0  0
   -0.5168    2.8392    8.7321 C   0  0  0  0  0  0  0  0  0  0  0  0
   -0.1546    3.6211    6.3628 C   0  0  1  0  0  0  0  0  0  0  0  0
    1.0548    4.5314    6.5195 C   0  0  0  0  0  0  0  0  0  0  0  0
    1.7012    3.2027    6.0594 C   0  0  1  0  0  0  0  0  0  0  0  0
    0.5297    3.0421    5.2396 O   0  0  0  0  0  0  0  0  0  0  0  0
    4.9261    0.7370    5.7222 O   0  0  0  0  0  0  0  0  0  0  0  0
    4.0491    0.7921    4.6761 C   0  0  0  0  0  0  0  0  0  0  0  0
    4.1761   -0.3404    3.9496 N   0  0  0  0  0  0  0  0  0  0  0  0
    3.4196   -0.5220    2.8569 C   0  0  0  0  0  0  0  0  0  0  0  0
    3.5554   -1.7554    2.1661 N   0  0  0  0  0  0  0  0  0  0  0  0
    2.5043   -2.3188    1.3252 C   0  0  0  0  0  0  0  0  0  0  0  0
    3.0545   -2.5997   -0.0899 C   0  0  0  0  0  0  0  0  0  0  0  0
    4.2294   -3.4710   -0.0127 N   0  0  0  0  0  0  0  0  0  0  0  0
    4.7130   -3.7560   -1.3585 C   0  0  0  0  0  0  0  0  0  0  0  0
    5.2772   -2.8055    0.7582 C   0  0  0  0  0  0  0  0  0  0  0  0
    4.7951   -2.5282    2.2011 C   0  0  0  0  0  0  0  0  0  0  0  0
    2.5330    0.4806    2.4365 C   0  0  0  0  0  0  0  0  0  0  0  0
    2.4135    1.6876    3.1543 C   0  0  0  0  0  0  0  0  0  0  0  0
    1.4455    2.6652    2.5082 C   0  0  0  0  0  0  0  0  0  0  0  0
    3.1808    1.8895    4.3597 C   0  0  0  0  0  0  0  0  0  0  0  0
    3.2806    6.1605    2.5314 H   0  0  0  0  0  0  0  0  0  0  0  0
    4.1295    7.3258    3.5697 H   0  0  0  0  0  0  0  0  0  0  0  0
    2.3774    7.2823    3.5771 H   0  0  0  0  0  0  0  0  0  0  0  0
    3.1078    4.1427    3.4039 H   0  0  0  0  0  0  0  0  0  0  0  0
    5.2107    3.3619    5.6457 H   0  0  0  0  0  0  0  0  0  0  0  0
    4.2427    4.2890    6.7671 H   0  0  0  0  0  0  0  0  0  0  0  0
    5.5052    2.6183    7.7817 H   0  0  0  0  0  0  0  0  0  0  0  0
    3.8686    2.6051    8.2506 H   0  0  0  0  0  0  0  0  0  0  0  0
    5.4217    0.2522    8.9179 H   0  0  0  0  0  0  0  0  0  0  0  0
    6.5574    0.6021    7.6111 H   0  0  0  0  0  0  0  0  0  0  0  0
    5.6193   -0.8848    7.5720 H   0  0  0  0  0  0  0  0  0  0  0  0
    3.2312   -0.8823    7.1419 H   0  0  0  0  0  0  0  0  0  0  0  0
    3.0285    0.1946    8.4938 H   0  0  0  0  0  0  0  0  0  0  0  0
    1.6211    0.3937    5.7884 H   0  0  0  0  0  0  0  0  0  0  0  0
    1.0372    0.0122    7.3534 H   0  0  0  0  0  0  0  0  0  0  0  0
    1.8222    2.3839    8.0788 H   0  0  0  0  0  0  0  0  0  0  0  0
   -2.1482    1.7765    6.7239 H   0  0  0  0  0  0  0  0  0  0  0  0
   -1.1881    0.5090    7.4735 H   0  0  0  0  0  0  0  0  0  0  0  0
   -0.8818    0.9921    5.8009 H   0  0  0  0  0  0  0  0  0  0  0  0
   -1.5445    3.2075    8.7845 H   0  0  0  0  0  0  0  0  0  0  0  0
    0.1246    3.6444    9.1000 H   0  0  0  0  0  0  0  0  0  0  0  0
   -0.4189    2.0025    9.4292 H   0  0  0  0  0  0  0  0  0  0  0  0
   -1.1133    4.0989    6.1436 H   0  0  0  0  0  0  0  0  0  0  0  0
    0.9640    5.3646    5.8343 H   0  0  0  0  0  0  0  0  0  0  0  0
    1.3060    4.8228    7.5374 H   0  0  0  0  0  0  0  0  0  0  0  0
    2.1703   -3.2548    1.7814 H   0  0  0  0  0  0  0  0  0  0  0  0
    1.6222   -1.6871    1.2751 H   0  0  0  0  0  0  0  0  0  0  0  0
    2.2843   -3.0808   -0.6898 H   0  0  0  0  0  0  0  0  0  0  0  0
    3.3023   -1.6653   -0.5911 H   0  0  0  0  0  0  0  0  0  0  0  0
    5.5781   -4.4187   -1.3273 H   0  0  0  0  0  0  0  0  0  0  0  0
    5.0008   -2.8440   -1.8828 H   0  0  0  0  0  0  0  0  0  0  0  0
    3.9427   -4.2547   -1.9452 H   0  0  0  0  0  0  0  0  0  0  0  0
    6.1689   -3.4353    0.7847 H   0  0  0  0  0  0  0  0  0  0  0  0
    5.5644   -1.8719    0.2770 H   0  0  0  0  0  0  0  0  0  0  0  0
    5.5817   -2.0086    2.7448 H   0  0  0  0  0  0  0  0  0  0  0  0
    4.6282   -3.4723    2.7235 H   0  0  0  0  0  0  0  0  0  0  0  0
    1.9626    0.3465    1.5221 H   0  0  0  0  0  0  0  0  0  0  0  0
    1.2620    3.5922    3.0292 H   0  0  0  0  0  0  0  0  0  0  0  0
    0.4796    2.1826    2.3616 H   0  0  0  0  0  0  0  0  0  0  0  0
    1.8143    2.9223    1.5196 H   0  0  0  0  0  0  0  0  0  0  0  0
  1  2  1  0
  1 35  1  0
  1 36  1  0
  1 37  1  0
  2  3  2  0
  2  4  1  0
  5  4  1  6
  4 38  1  0
  5 18  1  0
  5 34  1  0
  5  6  1  0
  6  7  1  0
  6 39  1  0
  6 40  1  0
  7  8  1  0
  7 41  1  0
  7 42  1  0
  8  9  1  1
  8 10  1  0
  8 20  1  0
  9 43  1  0
  9 44  1  0
  9 45  1  0
 10 11  1  0
 10 46  1  0
 10 47  1  0
 11 12  1  0
 11 48  1  0
 11 49  1  0
 12 18  1  0
 12 13  1  0
 12 50  1  1
 13 14  1  0
 13 15  1  0
 13 16  1  0
 14 51  1  0
 14 52  1  0
 14 53  1  0
 15 54  1  0
 15 55  1  0
 15 56  1  0
 16 19  1  0
 16 17  1  0
 16 57  1  6
 17 18  1  0
 17 58  1  0
 17 59  1  0
 18 19  1  6
 20 21  1  0
 21 34  2  0
 21 22  1  0
 22 23  2  0
 23 24  1  0
 23 31  1  0
 24 30  1  0
 24 25  1  0
 25 26  1  0
 25 60  1  0
 25 61  1  0
 26 27  1  0
 26 62  1  0
 26 63  1  0
 27 28  1  0
 27 29  1  0
 28 64  1  0
 28 65  1  0
 28 66  1  0
 29 30  1  0
 29 67  1  0
 29 68  1  0
 30 69  1  0
 30 70  1  0
 31 32  2  0
 31 71  1  0
 32 33  1  0
 32 34  1  0
 33 72  1  0
 33 73  1  0
 33 74  1  0
M  END
>  <i_m_ct_stereo_status>  (186) 
1

>  <s_m_source_file>  (186) 
/var/tmp/pbs.5076255.sched01/tmp323fbwsu/45qgza_o8k.sdf

>  <i_m_source_file_index>  (186) 
27

>  <i_lp_mmshare_version>  (186) 
48012

>  <i_f3d_flags>  (186) 
0

>  <s_epik_input>  (186) 
W0NIMl0xW0NIMl1OKFtDSDNdKVtDSDJdW0NIMl1OMWMoW2NIXWMyW0NIM10pbmMoYzJbQ0BdMyhbQ0BAXTQ1NilbTkhdQyg9TylbQ0gzXSlPW0NAQF0oW0NIM10pKFtDSDJdW0NIMl0zKVtDSDJdW0NIMl1bQ0BASF00QyhbQ0gzXSkoW0NIM10pW0NASF0oTzYpW0NIMl01

>  <s_epik_cmdline>  (186) 
J2VwaWtfcHl0aG9uJywgJy1waHQnLCAnMi4wJywgJy1waCcsICc3LjAnLCAnLXRuJywgJzgnLCAnLW1hJywgJzIwMCcsICctaW1hZScsICc8aW5maWxlLm1hZT4nLCAnLW9tYWUnLCAnPG91dGZpbGUubWFlPic=

>  <r_lp_tautomer_probability>  (186) 
1

>  <r_epik_Ionization_Penalty>  (186) 
1.3034

>  <r_epik_Ionization_Penalty_Charging>  (186) 
0

>  <r_epik_Ionization_Penalty_Neutral>  (186) 
1.3034

>  <r_epik_State_Penalty>  (186) 
1.54393

>  <r_epik_Charging_Adjusted_Penalty>  (186) 
1.54393

>  <i_epik_Tot_Q>  (186) 
0

>  <i_epik_Tot_abs_Q>  (186) 
0

>  <s_lp_Force_Field>  (186) 
OPLS3e

>  <r_lp_Energy>  (186) 
93.7591

>  <b_lp_Chiralities_Consistent>  (186) 
1

>  <s_lp_Variant>  (186) 
48:0-2

>  <s_i_glide_gridfile>  (186) 
pfpi4k_grid

>  <i_i_glide_lignum>  (186) 
27

>  <i_i_glide_rotatable_bonds>  (186) 
3

>  <r_i_docking_score>  (186) 
-1.55311

>  <r_i_glide_ligand_efficiency>  (186) 
-0.0456797

>  <r_i_glide_ligand_efficiency_sa>  (186) 
-0.147984

>  <r_i_glide_ligand_efficiency_ln>  (186) 
-0.343125

>  <r_i_glide_gscore>  (186) 
-1.55311

>  <r_i_glide_lipo>  (186) 
-0.155055

>  <r_i_glide_hbond>  (186) 
0

>  <r_i_glide_metal>  (186) 
-0

>  <r_i_glide_rewards>  (186) 
-0.213876

>  <r_i_glide_evdw>  (186) 
-22.1796

>  <r_i_glide_ecoul>  (186) 
-1.61324

>  <r_i_glide_erotb>  (186) 
0.18388

>  <r_i_glide_esite>  (186) 
-0.0170902

>  <r_i_glide_emodel>  (186) 
-20.0729

>  <r_i_glide_energy>  (186) 
-23.7929

>  <r_i_glide_einternal>  (186) 
11.2567

>  <r_i_glide_intrahb_reward>  (186) 
-0

>  <i_i_glide_confnum>  (186) 
3

>  <i_i_glide_posenum>  (186) 
23

>  <r_i_glide_eff_state_penalty>  (186) 
0

>  <ligand_id>  (186) 
48

>  <original_smiles>  (186) 
CC(=O)NC12CCC(C)(CCC3C(C)(C)C4CC31O4)Oc1nc(N3CCN(C)CC3)cc(C)c12

>  <smiles>  (186) 
[H]c1c(N2C([H])([H])C([H])([H])N(C([H])([H])[H])C([H])([H])C2([H])[H])nc2c(c1C([H])([H])[H])C1(N([H])C(=O)C([H])([H])[H])C([H])([H])C([H])([H])C(C([H])([H])[H])(O2)C([H])([H])C([H])([H])C2([H])C13OC([H])(C3([H])[H])C2(C([H])([H])[H])C([H])([H])[H]

$$$$
50:1:0
     RDKit          3D

 51 56  0  0  1  0  0  0  0  0999 V2000
    5.3656   -2.2095    3.5990 C   0  0  0  0  0  0  0  0  0  0  0  0
    5.8015   -1.5260    2.4327 O   0  0  0  0  0  0  0  0  0  0  0  0
    5.8206   -2.3151    1.2210 C   0  0  2  0  0  0  0  0  0  0  0  0
    5.7109   -1.5331   -0.2115 C   0  0  1  0  0  0  0  0  0  0  0  0
    6.5118   -2.1739   -1.3587 C   0  0  1  0  0  0  0  0  0  0  0  0
    7.8174   -2.5320   -0.9655 O   0  0  0  0  0  0  0  0  0  0  0  0
    5.6537   -3.3275   -1.8246 C   0  0  2  0  0  0  0  0  0  0  0  0
    4.5378   -2.8725   -2.8839 C   0  0  1  0  0  0  0  0  0  0  0  0
    3.1682   -3.5052   -2.6806 C   0  0  0  0  0  0  0  0  0  0  0  0
    2.4537   -3.4678   -1.5408 C   0  0  0  0  0  0  0  0  0  0  0  0
    2.8929   -2.7367   -0.2907 C   0  0  2  0  0  0  0  0  0  0  0  0
    4.0738   -1.5386   -0.6002 C   0  0  2  0  0  0  0  0  0  0  0  0
    3.7674   -0.6740   -1.8152 C   0  0  0  0  0  0  0  0  0  0  0  0
    4.2647   -1.3564   -3.0805 C   0  0  0  0  0  0  0  0  0  0  0  0
    3.9199   -1.2486    0.7095 C   0  0  0  0  0  0  0  0  0  0  0  0
    4.5261   -2.8250    0.6887 C   0  0  1  0  0  0  0  0  0  0  0  0
    5.1252   -3.9288   -0.4817 C   0  0  2  0  0  0  0  0  0  0  0  0
    5.7574   -5.1620    0.1914 C   0  0  0  0  0  0  0  0  0  0  0  0
    4.7665   -5.6860    1.2667 C   0  0  1  0  0  0  0  0  0  0  0  0
    5.3010   -5.5423    2.6901 C   0  0  0  0  0  0  0  0  0  0  0  0
    3.3354   -5.0355    1.0982 C   0  0  0  0  0  0  0  0  0  0  0  0
    3.2857   -3.5096    1.0118 N   0  0  2  0  0  0  0  0  0  0  0  0
    2.4998   -3.0141    2.1497 O   0  0  0  0  0  0  0  0  0  0  0  0
    5.2680   -1.5472    4.4544 H   0  0  0  0  0  0  0  0  0  0  0  0
    6.0424   -3.0083    3.8735 H   0  0  0  0  0  0  0  0  0  0  0  0
    4.3939   -2.6423    3.4404 H   0  0  0  0  0  0  0  0  0  0  0  0
    6.6590   -3.0077    1.2491 H   0  0  0  0  0  0  0  0  0  0  0  0
    6.1206   -0.5294   -0.1249 H   0  0  0  0  0  0  0  0  0  0  0  0
    6.6659   -1.4888   -2.1780 H   0  0  0  0  0  0  0  0  0  0  0  0
    7.7731   -3.2346   -0.3364 H   0  0  0  0  0  0  0  0  0  0  0  0
    6.2690   -4.0539   -2.3367 H   0  0  0  0  0  0  0  0  0  0  0  0
    4.8748   -3.2378   -3.8584 H   0  0  0  0  0  0  0  0  0  0  0  0
    2.7644   -4.0143   -3.5295 H   0  0  0  0  0  0  0  0  0  0  0  0
    1.5025   -3.9881   -1.5107 H   0  0  0  0  0  0  0  0  0  0  0  0
    1.9369   -2.3136    0.0029 H   0  0  0  0  0  0  0  0  0  0  0  0
    2.6981   -0.5325   -1.9423 H   0  0  0  0  0  0  0  0  0  0  0  0
    4.2988    0.2436   -1.7609 H   0  0  0  0  0  0  0  0  0  0  0  0
    5.1287   -0.8220   -3.4480 H   0  0  0  0  0  0  0  0  0  0  0  0
    3.5356   -1.2082   -3.8816 H   0  0  0  0  0  0  0  0  0  0  0  0
    4.4471   -0.3495    1.0630 H   0  0  0  0  0  0  0  0  0  0  0  0
    2.9220   -0.9628    1.0558 H   0  0  0  0  0  0  0  0  0  0  0  0
    4.4015   -4.5657   -0.9558 H   0  0  0  0  0  0  0  0  0  0  0  0
    5.8577   -5.9481   -0.5512 H   0  0  0  0  0  0  0  0  0  0  0  0
    6.7590   -4.9998    0.5854 H   0  0  0  0  0  0  0  0  0  0  0  0
    4.6529   -6.7601    1.1164 H   0  0  0  0  0  0  0  0  0  0  0  0
    5.3281   -4.4980    2.8132 H   0  0  0  0  0  0  0  0  0  0  0  0
    6.3103   -5.9285    2.8285 H   0  0  0  0  0  0  0  0  0  0  0  0
    4.6428   -5.9560    3.4560 H   0  0  0  0  0  0  0  0  0  0  0  0
    2.7975   -5.4735    0.2505 H   0  0  0  0  0  0  0  0  0  0  0  0
    2.7538   -5.3316    1.9681 H   0  0  0  0  0  0  0  0  0  0  0  0
    2.2598   -2.1401    1.8644 H   0  0  0  0  0  0  0  0  0  0  0  0
  1  2  1  0
  1 24  1  0
  1 25  1  0
  1 26  1  0
  2  3  1  0
  3 16  1  0
  3  4  1  0
  3 27  1  6
  4 12  1  0
  4  5  1  0
  4 28  1  1
  5  6  1  0
  5  7  1  0
  5 29  1  6
  6 30  1  0
  7 17  1  0
  7  8  1  0
  7 31  1  6
  8 14  1  0
  8  9  1  0
  8 32  1  6
  9 10  2  0
  9 33  1  0
 10 11  1  0
 10 34  1  0
 11 22  1  0
 11 12  1  0
 11 35  1  1
 12 13  1  6
 12 15  1  0
 13 14  1  0
 13 36  1  0
 13 37  1  0
 14 38  1  0
 14 39  1  0
 16 15  1  6
 15 40  1  0
 15 41  1  0
 16 22  1  0
 16 17  1  0
 17 18  1  0
 17 42  1  6
 18 19  1  0
 18 43  1  0
 18 44  1  0
 19 20  1  0
 19 21  1  0
 19 45  1  6
 20 46  1  0
 20 47  1  0
 20 48  1  0
 21 22  1  0
 21 49  1  0
 21 50  1  0
 22 23  1  1
 23 51  1  0
M  CHG  1  22   1
M  END
>  <i_m_ct_stereo_status>  (187) 
1

>  <s_m_source_file>  (187) 
/var/tmp/pbs.5076255.sched01/tmp323fbwsu/45qgza_o8k.sdf

>  <i_m_source_file_index>  (187) 
30

>  <i_lp_mmshare_version>  (187) 
48012

>  <i_f3d_flags>  (187) 
0

>  <s_epik_input>  (187) 
W0NIM11PW0NASF0oW0NAQEhdMVtDQF0yMzQpW0NAQF01KFtDSDJdNClbQ0BIXTZbQ0BIXShbQ0BASF0xW09IXSlbQ0BIXShbQ0gyXVtDSDJdMylbQ0hdPVtDSF1bQ0BIXTJbTkBAK101KFtPLV0pW0NIMl1bQ0BASF0oW0NIMl02KVtDSDNd

>  <s_epik_cmdline>  (187) 
J2VwaWtfcHl0aG9uJywgJy1waHQnLCAnMi4wJywgJy1waCcsICc3LjAnLCAnLXRuJywgJzgnLCAnLW1hJywgJzIwMCcsICctaW1hZScsICc8aW5maWxlLm1hZT4nLCAnLW9tYWUnLCAnPG91dGZpbGUubWFlPic=

>  <r_epik_Ionization_Penalty>  (187) 
1.93468

>  <r_epik_Ionization_Penalty_Charging>  (187) 
0

>  <r_epik_Ionization_Penalty_Neutral>  (187) 
1.93468

>  <r_epik_State_Penalty>  (187) 
2.05849

>  <r_epik_Charging_Adjusted_Penalty>  (187) 
2.05849

>  <i_epik_Tot_Q>  (187) 
1

>  <i_epik_Tot_abs_Q>  (187) 
1

>  <s_epik_Chemistry_Notes>  (187) 
This compound has a N-S or N-O group and may undergo hydrolysis at high or low pH.

>  <s_lp_Force_Field>  (187) 
OPLS3e

>  <r_lp_Energy>  (187) 
351.877

>  <b_lp_Chiralities_Consistent>  (187) 
1

>  <s_lp_Variant>  (187) 
50:0-2

>  <s_i_glide_gridfile>  (187) 
pfpi4k_grid

>  <i_i_glide_lignum>  (187) 
30

>  <i_i_glide_rotatable_bonds>  (187) 
3

>  <r_i_docking_score>  (187) 
-3.03922

>  <r_i_glide_ligand_efficiency>  (187) 
-0.13214

>  <r_i_glide_ligand_efficiency_sa>  (187) 
-0.375789

>  <r_i_glide_ligand_efficiency_ln>  (187) 
-0.734911

>  <r_i_glide_gscore>  (187) 
-3.03922

>  <r_i_glide_lipo>  (187) 
-0.753225

>  <r_i_glide_hbond>  (187) 
-0.156661

>  <r_i_glide_metal>  (187) 
-0

>  <r_i_glide_rewards>  (187) 
-1.23797

>  <r_i_glide_evdw>  (187) 
-6.67387

>  <r_i_glide_ecoul>  (187) 
-3.70153

>  <r_i_glide_erotb>  (187) 
0

>  <r_i_glide_esite>  (187) 
-0.0024378

>  <r_i_glide_emodel>  (187) 
-5.01404

>  <r_i_glide_energy>  (187) 
-10.3754

>  <r_i_glide_einternal>  (187) 
4.97076

>  <r_i_glide_intrahb_reward>  (187) 
-0

>  <i_i_glide_confnum>  (187) 
2

>  <i_i_glide_posenum>  (187) 
3

>  <r_i_glide_eff_state_penalty>  (187) 
0

>  <ligand_id>  (187) 
50

>  <original_smiles>  (187) 
COC1C2C(O)C3C4C=CC5C2(CC4)CC12C3CC(C)C[N+]52[O-]

>  <smiles>  (187) 
[H]OC1([H])C2([H])C3([H])C([H])=C([H])C4([H])C5(C([H])([H])C3([H])[H])C([H])([H])C3(C([H])(OC([H])([H])[H])C15[H])C2([H])C([H])([H])C([H])(C([H])([H])[H])C([H])([H])[N+]43O[H]

$$$$
50:1:1
     RDKit          3D

 51 56  0  0  1  0  0  0  0  0999 V2000
    6.2297   -0.8218    2.8986 C   0  0  0  0  0  0  0  0  0  0  0  0
    5.5538   -2.0697    2.7188 O   0  0  0  0  0  0  0  0  0  0  0  0
    5.6972   -2.7088    1.4356 C   0  0  2  0  0  0  0  0  0  0  0  0
    5.6172   -1.8084    0.1026 C   0  0  1  0  0  0  0  0  0  0  0  0
    6.4608   -2.3238   -1.0732 C   0  0  1  0  0  0  0  0  0  0  0  0
    7.7493   -2.7532   -0.6938 O   0  0  0  0  0  0  0  0  0  0  0  0
    5.6075   -3.4075   -1.6917 C   0  0  2  0  0  0  0  0  0  0  0  0
    4.5156   -2.8175   -2.7164 C   0  0  1  0  0  0  0  0  0  0  0  0
    3.1324   -3.4300   -2.6156 C   0  0  0  0  0  0  0  0  0  0  0  0
    2.3755   -3.5355   -1.5040 C   0  0  0  0  0  0  0  0  0  0  0  0
    2.7901   -2.9673   -0.1497 C   0  0  2  0  0  0  0  0  0  0  0  0
    3.9886   -1.7874   -0.3190 C   0  0  2  0  0  0  0  0  0  0  0  0
    3.7289   -0.8012   -1.4030 C   0  0  0  0  0  0  0  0  0  0  0  0
    4.2919   -1.2787   -2.7312 C   0  0  0  0  0  0  0  0  0  0  0  0
    3.7924   -1.6186    1.0039 C   0  0  0  0  0  0  0  0  0  0  0  0
    4.4296   -3.1864    0.8165 C   0  0  1  0  0  0  0  0  0  0  0  0
    5.0308   -4.1580   -0.4560 C   0  0  2  0  0  0  0  0  0  0  0  0
    5.6198   -5.4521    0.0944 C   0  0  0  0  0  0  0  0  0  0  0  0
    4.5971   -6.0223    1.1088 C   0  0  1  0  0  0  0  0  0  0  0  0
    5.1061   -6.0174    2.5596 C   0  0  0  0  0  0  0  0  0  0  0  0
    3.1803   -5.3804    0.9669 C   0  0  0  0  0  0  0  0  0  0  0  0
    3.1888   -3.8629    1.0672 N   0  0  2  0  0  0  0  0  0  0  0  0
    2.5397   -3.5113    2.3263 O   0  0  0  0  0  0  0  0  0  0  0  0
    6.1963   -0.5803    3.9709 H   0  0  0  0  0  0  0  0  0  0  0  0
    5.7705    0.0048    2.3929 H   0  0  0  0  0  0  0  0  0  0  0  0
    7.2651   -0.8169    2.5395 H   0  0  0  0  0  0  0  0  0  0  0  0
    6.5286   -3.4108    1.4330 H   0  0  0  0  0  0  0  0  0  0  0  0
    6.0253   -0.8112    0.2866 H   0  0  0  0  0  0  0  0  0  0  0  0
    6.6402   -1.5370   -1.7918 H   0  0  0  0  0  0  0  0  0  0  0  0
    7.6777   -3.5491   -0.1904 H   0  0  0  0  0  0  0  0  0  0  0  0
    6.2162   -4.0801   -2.2780 H   0  0  0  0  0  0  0  0  0  0  0  0
    4.8791   -3.0467   -3.7132 H   0  0  0  0  0  0  0  0  0  0  0  0
    2.7444   -3.8616   -3.5322 H   0  0  0  0  0  0  0  0  0  0  0  0
    1.4147   -4.0065   -1.5468 H   0  0  0  0  0  0  0  0  0  0  0  0
    1.7985   -2.5748    0.0893 H   0  0  0  0  0  0  0  0  0  0  0  0
    2.6566   -0.7155   -1.5099 H   0  0  0  0  0  0  0  0  0  0  0  0
    4.2319    0.1342   -1.1411 H   0  0  0  0  0  0  0  0  0  0  0  0
    5.1808   -0.7123   -2.9873 H   0  0  0  0  0  0  0  0  0  0  0  0
    3.5762   -0.9970   -3.5068 H   0  0  0  0  0  0  0  0  0  0  0  0
    4.2683   -0.7495    1.3862 H   0  0  0  0  0  0  0  0  0  0  0  0
    2.7591   -1.4123    1.3432 H   0  0  0  0  0  0  0  0  0  0  0  0
    4.3101   -4.7312   -1.0093 H   0  0  0  0  0  0  0  0  0  0  0  0
    5.7047   -6.1663   -0.7102 H   0  0  0  0  0  0  0  0  0  0  0  0
    6.6098   -5.3507    0.5285 H   0  0  0  0  0  0  0  0  0  0  0  0
    4.4689   -7.0712    0.8623 H   0  0  0  0  0  0  0  0  0  0  0  0
    5.2012   -5.0051    2.9410 H   0  0  0  0  0  0  0  0  0  0  0  0
    6.0772   -6.5058    2.6420 H   0  0  0  0  0  0  0  0  0  0  0  0
    4.4225   -6.5541    3.2161 H   0  0  0  0  0  0  0  0  0  0  0  0
    2.6811   -5.6938    0.0479 H   0  0  0  0  0  0  0  0  0  0  0  0
    2.5593   -5.7613    1.7560 H   0  0  0  0  0  0  0  0  0  0  0  0
    2.4885   -2.5670    2.2534 H   0  0  0  0  0  0  0  0  0  0  0  0
  1  2  1  0
  1 24  1  0
  1 25  1  0
  1 26  1  0
  2  3  1  0
  3 16  1  0
  3  4  1  0
  3 27  1  1
  4 12  1  0
  4  5  1  0
  4 28  1  1
  5  6  1  0
  5  7  1  0
  5 29  1  6
  6 30  1  0
  7 17  1  0
  7  8  1  0
  7 31  1  6
  8 14  1  0
  8  9  1  0
  8 32  1  6
  9 10  2  0
  9 33  1  0
 10 11  1  0
 10 34  1  0
 11 22  1  0
 11 12  1  0
 11 35  1  1
 12 13  1  6
 12 15  1  0
 13 14  1  0
 13 36  1  0
 13 37  1  0
 14 38  1  0
 14 39  1  0
 16 15  1  6
 15 40  1  0
 15 41  1  0
 16 22  1  0
 16 17  1  0
 17 18  1  0
 17 42  1  6
 18 19  1  0
 18 43  1  0
 18 44  1  0
 19 20  1  0
 19 21  1  0
 19 45  1  6
 20 46  1  0
 20 47  1  0
 20 48  1  0
 21 22  1  0
 21 49  1  0
 21 50  1  0
 22 23  1  1
 23 51  1  0
M  CHG  1  22   1
M  END
>  <i_m_ct_stereo_status>  (188) 
1

>  <s_m_source_file>  (188) 
/var/tmp/pbs.5076255.sched01/tmp323fbwsu/45qgza_o8k.sdf

>  <i_m_source_file_index>  (188) 
30

>  <i_lp_mmshare_version>  (188) 
48012

>  <i_f3d_flags>  (188) 
0

>  <s_epik_input>  (188) 
W0NIM11PW0NASF0oW0NAQEhdMVtDQF0yMzQpW0NAQF01KFtDSDJdNClbQ0BIXTZbQ0BIXShbQ0BASF0xW09IXSlbQ0BIXShbQ0gyXVtDSDJdMylbQ0hdPVtDSF1bQ0BIXTJbTkBAK101KFtPLV0pW0NIMl1bQ0BASF0oW0NIMl02KVtDSDNd

>  <s_epik_cmdline>  (188) 
J2VwaWtfcHl0aG9uJywgJy1waHQnLCAnMi4wJywgJy1waCcsICc3LjAnLCAnLXRuJywgJzgnLCAnLW1hJywgJzIwMCcsICctaW1hZScsICc8aW5maWxlLm1hZT4nLCAnLW9tYWUnLCAnPG91dGZpbGUubWFlPic=

>  <r_epik_Ionization_Penalty>  (188) 
1.93468

>  <r_epik_Ionization_Penalty_Charging>  (188) 
0

>  <r_epik_Ionization_Penalty_Neutral>  (188) 
1.93468

>  <r_epik_State_Penalty>  (188) 
2.05849

>  <r_epik_Charging_Adjusted_Penalty>  (188) 
2.05849

>  <i_epik_Tot_Q>  (188) 
1

>  <i_epik_Tot_abs_Q>  (188) 
1

>  <s_epik_Chemistry_Notes>  (188) 
This compound has a N-S or N-O group and may undergo hydrolysis at high or low pH.

>  <s_lp_Force_Field>  (188) 
OPLS3e

>  <r_lp_Energy>  (188) 
351.877

>  <b_lp_Chiralities_Consistent>  (188) 
1

>  <s_lp_Variant>  (188) 
50:0-2

>  <s_i_glide_gridfile>  (188) 
pfpi4k_grid

>  <i_i_glide_lignum>  (188) 
30

>  <i_i_glide_rotatable_bonds>  (188) 
3

>  <r_i_docking_score>  (188) 
-2.90982

>  <r_i_glide_ligand_efficiency>  (188) 
-0.126514

>  <r_i_glide_ligand_efficiency_sa>  (188) 
-0.359789

>  <r_i_glide_ligand_efficiency_ln>  (188) 
-0.703621

>  <r_i_glide_gscore>  (188) 
-2.90982

>  <r_i_glide_lipo>  (188) 
-0.675475

>  <r_i_glide_hbond>  (188) 
-0.0327943

>  <r_i_glide_metal>  (188) 
-0

>  <r_i_glide_rewards>  (188) 
-1.23797

>  <r_i_glide_evdw>  (188) 
-10.6145

>  <r_i_glide_ecoul>  (188) 
-2.86667

>  <r_i_glide_erotb>  (188) 
0

>  <r_i_glide_esite>  (188) 
-0.00285079

>  <r_i_glide_emodel>  (188) 
-6.32454

>  <r_i_glide_energy>  (188) 
-13.4812

>  <r_i_glide_einternal>  (188) 
9.36258

>  <r_i_glide_intrahb_reward>  (188) 
-0

>  <i_i_glide_confnum>  (188) 
2

>  <i_i_glide_posenum>  (188) 
33

>  <r_i_glide_eff_state_penalty>  (188) 
0

>  <ligand_id>  (188) 
50

>  <original_smiles>  (188) 
COC1C2C(O)C3C4C=CC5C2(CC4)CC12C3CC(C)C[N+]52[O-]

>  <smiles>  (188) 
[H]OC1([H])C2([H])C3([H])C([H])=C([H])C4([H])C5(C([H])([H])C3([H])[H])C([H])([H])C3(C([H])(OC([H])([H])[H])C15[H])C2([H])C([H])([H])C([H])(C([H])([H])[H])C([H])([H])[N+]43O[H]

$$$$
52:0:0
     RDKit          3D

 55 61  0  0  1  0  0  0  0  0999 V2000
    2.9311   -1.8763    4.5399 C   0  0  0  0  0  0  0  0  0  0  0  0
    3.6560   -2.1821    3.2119 C   0  0  2  0  0  0  0  0  0  0  0  0
    3.6455   -0.9156    2.2481 C   0  0  0  0  0  0  0  0  0  0  0  0
    2.8966   -0.0023    2.5815 O   0  0  0  0  0  0  0  0  0  0  0  0
    4.4567   -0.7022    0.9672 C   0  0  0  0  0  0  0  0  0  0  0  0
    4.8029   -1.5733   -0.0259 C   0  0  0  0  0  0  0  0  0  0  0  0
    4.4680   -3.0454    0.0096 C   0  0  1  0  0  0  0  0  0  0  0  0
    4.6372   -4.1666   -1.0215 C   0  0  0  0  0  0  0  0  0  0  0  0
    5.2608   -5.0246    0.1488 C   0  0  1  0  0  0  0  0  0  0  0  0
    5.8647   -3.6727    0.4915 C   0  0  1  0  0  0  0  0  0  0  0  0
    7.1539   -3.2851   -0.3374 C   0  0  0  0  0  0  0  0  0  0  0  0
    6.4066   -3.4098    1.8960 C   0  0  0  0  0  0  0  0  0  0  0  0
    5.8027   -4.2597    2.9928 C   0  0  0  0  0  0  0  0  0  0  0  0
    4.4128   -4.7259    2.5777 C   0  0  2  0  0  0  0  0  0  0  0  0
    3.7647   -5.3184    3.8202 C   0  0  0  0  0  0  0  0  0  0  0  0
    2.6675   -4.6051    3.6347 C   0  0  0  0  0  0  0  0  0  0  0  0
    1.2927   -5.2662    3.5663 C   0  0  0  0  0  0  0  0  0  0  0  0
    1.1655   -6.2298    2.3596 C   0  0  0  0  0  0  0  0  0  0  0  0
    0.1184   -6.2591    1.7120 O   0  0  0  0  0  0  0  0  0  0  0  0
    2.3165   -7.1817    2.0093 C   0  0  0  0  0  0  0  0  0  0  0  0
    3.3380   -6.6617    0.9531 C   0  0  0  0  0  0  0  0  0  0  0  0
    4.5820   -5.7768    1.3763 C   0  0  1  0  0  0  0  0  0  0  0  0
    5.5974   -6.8904    1.8018 C   0  0  0  0  0  0  0  0  0  0  0  0
    3.2847   -3.6124    2.6337 C   0  0  1  0  0  0  0  0  0  0  0  0
    2.3323   -3.3350    1.5329 C   0  0  2  0  0  0  0  0  0  0  0  0
    2.2113   -4.2151    0.4250 O   0  0  0  0  0  0  0  0  0  0  0  0
    2.9558   -3.0098    0.2634 C   0  0  2  0  0  0  0  0  0  0  0  0
    3.3042   -0.9552    4.9881 H   0  0  0  0  0  0  0  0  0  0  0  0
    3.1166   -2.6567    5.2756 H   0  0  0  0  0  0  0  0  0  0  0  0
    1.8547   -1.7839    4.3999 H   0  0  0  0  0  0  0  0  0  0  0  0
    4.6905   -2.1598    3.5154 H   0  0  0  0  0  0  0  0  0  0  0  0
    4.7422    0.3347    0.8134 H   0  0  0  0  0  0  0  0  0  0  0  0
    5.3508   -1.1897   -0.8835 H   0  0  0  0  0  0  0  0  0  0  0  0
    3.7177   -4.6090   -1.3596 H   0  0  0  0  0  0  0  0  0  0  0  0
    5.2584   -3.9855   -1.9074 H   0  0  0  0  0  0  0  0  0  0  0  0
    6.0047   -5.6536   -0.3239 H   0  0  0  0  0  0  0  0  0  0  0  0
    7.9462   -4.0253   -0.2033 H   0  0  0  0  0  0  0  0  0  0  0  0
    7.5610   -2.3138   -0.0443 H   0  0  0  0  0  0  0  0  0  0  0  0
    7.0215   -3.2076   -1.4117 H   0  0  0  0  0  0  0  0  0  0  0  0
    7.4716   -3.6169    1.9272 H   0  0  0  0  0  0  0  0  0  0  0  0
    6.3159   -2.3540    2.1521 H   0  0  0  0  0  0  0  0  0  0  0  0
    6.4654   -5.0736    3.2662 H   0  0  0  0  0  0  0  0  0  0  0  0
    5.7827   -3.7190    3.9381 H   0  0  0  0  0  0  0  0  0  0  0  0
    3.9763   -6.2527    4.3625 H   0  0  0  0  0  0  0  0  0  0  0  0
    1.1195   -5.8544    4.4689 H   0  0  0  0  0  0  0  0  0  0  0  0
    0.5097   -4.5101    3.5166 H   0  0  0  0  0  0  0  0  0  0  0  0
    2.8073   -7.5140    2.9202 H   0  0  0  0  0  0  0  0  0  0  0  0
    1.8379   -8.0739    1.6029 H   0  0  0  0  0  0  0  0  0  0  0  0
    3.7101   -7.5801    0.5073 H   0  0  0  0  0  0  0  0  0  0  0  0
    2.8137   -6.2737    0.0884 H   0  0  0  0  0  0  0  0  0  0  0  0
    5.3262   -7.3468    2.7538 H   0  0  0  0  0  0  0  0  0  0  0  0
    6.6230   -6.5430    1.8682 H   0  0  0  0  0  0  0  0  0  0  0  0
    5.6707   -7.7031    1.0811 H   0  0  0  0  0  0  0  0  0  0  0  0
    1.4269   -2.7930    1.8029 H   0  0  0  0  0  0  0  0  0  0  0  0
    2.4419   -2.3235   -0.4071 H   0  0  0  0  0  0  0  0  0  0  0  0
  1  2  1  0
  1 28  1  0
  1 29  1  0
  1 30  1  0
  2 24  1  0
  2  3  1  0
  2 31  1  1
  3  4  2  0
  3  5  1  0
  5  6  2  3
  5 32  1  0
  6  7  1  0
  6 33  1  0
  7 10  1  0
  7 27  1  0
  7  8  1  6
  8  9  1  0
  8 34  1  0
  8 35  1  0
  9 22  1  0
  9 10  1  0
  9 36  1  6
 10 11  1  6
 10 12  1  0
 11 37  1  0
 11 38  1  0
 11 39  1  0
 12 13  1  0
 12 40  1  0
 12 41  1  0
 14 13  1  1
 13 42  1  0
 13 43  1  0
 14 22  1  0
 14 24  1  0
 14 15  1  0
 15 16  2  0
 15 44  1  0
 16 17  1  0
 24 16  1  1
 17 18  1  0
 17 45  1  0
 17 46  1  0
 18 19  2  0
 18 20  1  0
 20 21  1  0
 20 47  1  0
 20 48  1  0
 21 22  1  0
 21 49  1  0
 21 50  1  0
 22 23  1  1
 23 51  1  0
 23 52  1  0
 23 53  1  0
 24 25  1  0
 25 27  1  0
 25 26  1  0
 25 54  1  1
 26 27  1  0
 27 55  1  6
M  END
>  <i_m_ct_stereo_status>  (189) 
1

>  <s_m_source_file>  (189) 
/var/tmp/pbs.5076255.sched01/tmp323fbwsu/45qgza_o8k.sdf

>  <i_m_source_file_index>  (189) 
32

>  <i_lp_mmshare_version>  (189) 
48012

>  <i_f3d_flags>  (189) 
0

>  <s_epik_input>  (189) 
W0NIMl0xW0NIMl1DKD1PKVtDSDJdQyg9W0NIXTIpW0NAQF0oW0NASF0zW0NAQEhdNE8zKShbQ0BIXShbQ0gzXSlDKD1PKS9bQ0hdPVtDSF1cNSlbQ0BdMihbQ0gyXVtDSDJdNilbQ0BdMShbQ0gzXSlbQ0BASF0oW0NIMl03KVtDQF02KFtDQEBdNDU3KVtDSDNd

>  <s_epik_cmdline>  (189) 
J2VwaWtfcHl0aG9uJywgJy1waHQnLCAnMi4wJywgJy1waCcsICc3LjAnLCAnLXRuJywgJzgnLCAnLW1hJywgJzIwMCcsICctaW1hZScsICc8aW5maWxlLm1hZT4nLCAnLW9tYWUnLCAnPG91dGZpbGUubWFlPic=

>  <r_lp_tautomer_probability>  (189) 
1

>  <r_epik_Ionization_Penalty>  (189) 
1.11269e-11

>  <r_epik_Ionization_Penalty_Charging>  (189) 
0

>  <r_epik_Ionization_Penalty_Neutral>  (189) 
1.11269e-11

>  <r_epik_State_Penalty>  (189) 
-0

>  <r_epik_Charging_Adjusted_Penalty>  (189) 
0

>  <i_epik_Tot_Q>  (189) 
0

>  <i_epik_Tot_abs_Q>  (189) 
0

>  <s_lp_Force_Field>  (189) 
OPLS3e

>  <r_lp_Energy>  (189) 
192.525

>  <b_lp_Chiralities_Consistent>  (189) 
1

>  <s_lp_Variant>  (189) 
52:0-1

>  <s_i_glide_gridfile>  (189) 
pfpi4k_grid

>  <i_i_glide_lignum>  (189) 
32

>  <i_i_glide_rotatable_bonds>  (189) 
0

>  <r_i_docking_score>  (189) 
-3.27834

>  <r_i_glide_ligand_efficiency>  (189) 
-0.12142

>  <r_i_glide_ligand_efficiency_sa>  (189) 
-0.36426

>  <r_i_glide_ligand_efficiency_ln>  (189) 
-0.763144

>  <r_i_glide_gscore>  (189) 
-3.27834

>  <r_i_glide_lipo>  (189) 
-0.591714

>  <r_i_glide_hbond>  (189) 
-0.287976

>  <r_i_glide_metal>  (189) 
-0

>  <r_i_glide_rewards>  (189) 
-0.925152

>  <r_i_glide_evdw>  (189) 
-15.6613

>  <r_i_glide_ecoul>  (189) 
-4.27647

>  <r_i_glide_erotb>  (189) 
0

>  <r_i_glide_esite>  (189) 
-0.0489617

>  <r_i_glide_emodel>  (189) 
-23.7385

>  <r_i_glide_energy>  (189) 
-19.9378

>  <r_i_glide_einternal>  (189) 
0

>  <r_i_glide_intrahb_reward>  (189) 
-0

>  <i_i_glide_confnum>  (189) 
1

>  <i_i_glide_posenum>  (189) 
22

>  <r_i_glide_eff_state_penalty>  (189) 
0

>  <ligand_id>  (189) 
52

>  <original_smiles>  (189) 
CC1C(=O)C=CC23CC4C2(C)CCC25C=C(CC(=O)CCC42C)C15C1OC13

>  <smiles>  (189) 
[H]C1=C([H])C23C([H])([H])C4([H])C2(C([H])([H])[H])C([H])([H])C([H])([H])C25C([H])=C(C([H])([H])C(=O)C([H])([H])C([H])([H])C42C([H])([H])[H])C5(C2([H])OC23[H])C([H])(C([H])([H])[H])C1=O

$$$$
52:0:1
     RDKit          3D

 55 61  0  0  1  0  0  0  0  0999 V2000
    5.3216   -1.6462    4.5417 C   0  0  0  0  0  0  0  0  0  0  0  0
    4.9345   -1.9521    3.0819 C   0  0  2  0  0  0  0  0  0  0  0  0
    4.2017   -0.7056    2.4179 C   0  0  0  0  0  0  0  0  0  0  0  0
    3.8681    0.1888    3.1915 O   0  0  0  0  0  0  0  0  0  0  0  0
    3.8812   -0.4913    0.9525 C   0  0  0  0  0  0  0  0  0  0  0  0
    3.4394   -1.3591   -0.0030 C   0  0  0  0  0  0  0  0  0  0  0  0
    3.2696   -2.8369    0.2367 C   0  0  1  0  0  0  0  0  0  0  0  0
    2.6810   -3.9727   -0.6145 C   0  0  0  0  0  0  0  0  0  0  0  0
    3.9914   -4.7808   -0.2497 C   0  0  1  0  0  0  0  0  0  0  0  0
    4.6263   -3.4076   -0.4180 C   0  0  1  0  0  0  0  0  0  0  0  0
    4.9249   -3.0139   -1.9096 C   0  0  0  0  0  0  0  0  0  0  0  0
    6.0116   -3.1195    0.1923 C   0  0  0  0  0  0  0  0  0  0  0  0
    6.3536   -3.9757    1.3873 C   0  0  0  0  0  0  0  0  0  0  0  0
    5.0929   -4.4807    2.0848 C   0  0  2  0  0  0  0  0  0  0  0  0
    5.5489   -5.0603    3.4102 C   0  0  0  0  0  0  0  0  0  0  0  0
    4.5866   -4.4051    4.0606 C   0  0  0  0  0  0  0  0  0  0  0  0
    3.5968   -5.0827    4.9772 C   0  0  0  0  0  0  0  0  0  0  0  0
    2.6791   -6.0488    4.2031 C   0  0  0  0  0  0  0  0  0  0  0  0
    1.4868   -6.1046    4.4851 O   0  0  0  0  0  0  0  0  0  0  0  0
    3.2651   -6.9879    3.1362 C   0  0  0  0  0  0  0  0  0  0  0  0
    3.2187   -6.4750    1.6643 C   0  0  0  0  0  0  0  0  0  0  0  0
    4.3757   -5.5436    1.0966 C   0  0  1  0  0  0  0  0  0  0  0  0
    5.4234   -6.6263    0.6873 C   0  0  0  0  0  0  0  0  0  0  0  0
    4.3016   -3.4008    2.9339 C   0  0  1  0  0  0  0  0  0  0  0  0
    2.8312   -3.1677    2.8458 C   0  0  2  0  0  0  0  0  0  0  0  0
    2.0064   -4.0712    2.1255 O   0  0  0  0  0  0  0  0  0  0  0  0
    2.3662   -2.8433    1.4867 C   0  0  2  0  0  0  0  0  0  0  0  0
    5.8770   -0.7087    4.6051 H   0  0  0  0  0  0  0  0  0  0  0  0
    5.9599   -2.4263    4.9487 H   0  0  0  0  0  0  0  0  0  0  0  0
    4.4538   -1.5753    5.1953 H   0  0  0  0  0  0  0  0  0  0  0  0
    5.8811   -1.8972    2.5629 H   0  0  0  0  0  0  0  0  0  0  0  0
    3.9333    0.5389    0.6352 H   0  0  0  0  0  0  0  0  0  0  0  0
    3.1958   -1.0084   -0.9934 H   0  0  0  0  0  0  0  0  0  0  0  0
    1.8011   -4.4779   -0.2298 H   0  0  0  0  0  0  0  0  0  0  0  0
    2.4973   -3.7829   -1.6738 H   0  0  0  0  0  0  0  0  0  0  0  0
    4.2438   -5.3899   -1.1104 H   0  0  0  0  0  0  0  0  0  0  0  0
    5.5969   -3.7328   -2.3829 H   0  0  0  0  0  0  0  0  0  0  0  0
    5.3787   -2.0268   -1.9862 H   0  0  0  0  0  0  0  0  0  0  0  0
    4.0644   -2.9566   -2.5691 H   0  0  0  0  0  0  0  0  0  0  0  0
    6.8171   -3.2509   -0.5311 H   0  0  0  0  0  0  0  0  0  0  0  0
    6.0769   -2.0664    0.4508 H   0  0  0  0  0  0  0  0  0  0  0  0
    7.0455   -4.7632    1.1080 H   0  0  0  0  0  0  0  0  0  0  0  0
    6.9791   -3.4129    2.0686 H   0  0  0  0  0  0  0  0  0  0  0  0
    6.0559   -5.9977    3.6133 H   0  0  0  0  0  0  0  0  0  0  0  0
    4.1295   -5.6675    5.7223 H   0  0  0  0  0  0  0  0  0  0  0  0
    2.9886   -4.3470    5.5066 H   0  0  0  0  0  0  0  0  0  0  0  0
    4.2651   -7.2952    3.4329 H   0  0  0  0  0  0  0  0  0  0  0  0
    2.6676   -7.9000    3.1913 H   0  0  0  0  0  0  0  0  0  0  0  0
    3.1795   -7.3908    1.0720 H   0  0  0  0  0  0  0  0  0  0  0  0
    2.2199   -6.1229    1.4318 H   0  0  0  0  0  0  0  0  0  0  0  0
    5.9209   -7.0827    1.5438 H   0  0  0  0  0  0  0  0  0  0  0  0
    6.1896   -6.2404    0.0252 H   0  0  0  0  0  0  0  0  0  0  0  0
    4.9927   -7.4394    0.1017 H   0  0  0  0  0  0  0  0  0  0  0  0
    2.3409   -2.6789    3.6829 H   0  0  0  0  0  0  0  0  0  0  0  0
    1.5157   -2.1699    1.4115 H   0  0  0  0  0  0  0  0  0  0  0  0
  1  2  1  0
  1 28  1  0
  1 29  1  0
  1 30  1  0
  2 24  1  0
  2  3  1  0
  2 31  1  6
  3  4  2  0
  3  5  1  0
  5  6  2  3
  5 32  1  0
  6  7  1  0
  6 33  1  0
  7 10  1  0
  7 27  1  0
  7  8  1  6
  8  9  1  0
  8 34  1  0
  8 35  1  0
  9 22  1  0
  9 10  1  0
  9 36  1  6
 10 11  1  6
 10 12  1  0
 11 37  1  0
 11 38  1  0
 11 39  1  0
 12 13  1  0
 12 40  1  0
 12 41  1  0
 14 13  1  6
 13 42  1  0
 13 43  1  0
 14 22  1  0
 14 24  1  0
 14 15  1  0
 15 16  2  0
 15 44  1  0
 16 17  1  0
 24 16  1  1
 17 18  1  0
 17 45  1  0
 17 46  1  0
 18 19  2  0
 18 20  1  0
 20 21  1  0
 20 47  1  0
 20 48  1  0
 21 22  1  0
 21 49  1  0
 21 50  1  0
 22 23  1  6
 23 51  1  0
 23 52  1  0
 23 53  1  0
 24 25  1  0
 25 27  1  0
 25 26  1  0
 25 54  1  1
 26 27  1  0
 27 55  1  1
M  END
>  <i_m_ct_stereo_status>  (190) 
1

>  <s_m_source_file>  (190) 
/var/tmp/pbs.5076255.sched01/tmp323fbwsu/45qgza_o8k.sdf

>  <i_m_source_file_index>  (190) 
32

>  <i_lp_mmshare_version>  (190) 
48012

>  <i_f3d_flags>  (190) 
0

>  <s_epik_input>  (190) 
W0NIMl0xW0NIMl1DKD1PKVtDSDJdQyg9W0NIXTIpW0NAQF0oW0NASF0zW0NAQEhdNE8zKShbQ0BIXShbQ0gzXSlDKD1PKS9bQ0hdPVtDSF1cNSlbQ0BdMihbQ0gyXVtDSDJdNilbQ0BdMShbQ0gzXSlbQ0BASF0oW0NIMl03KVtDQF02KFtDQEBdNDU3KVtDSDNd

>  <s_epik_cmdline>  (190) 
J2VwaWtfcHl0aG9uJywgJy1waHQnLCAnMi4wJywgJy1waCcsICc3LjAnLCAnLXRuJywgJzgnLCAnLW1hJywgJzIwMCcsICctaW1hZScsICc8aW5maWxlLm1hZT4nLCAnLW9tYWUnLCAnPG91dGZpbGUubWFlPic=

>  <r_lp_tautomer_probability>  (190) 
1

>  <r_epik_Ionization_Penalty>  (190) 
1.11269e-11

>  <r_epik_Ionization_Penalty_Charging>  (190) 
0

>  <r_epik_Ionization_Penalty_Neutral>  (190) 
1.11269e-11

>  <r_epik_State_Penalty>  (190) 
-0

>  <r_epik_Charging_Adjusted_Penalty>  (190) 
0

>  <i_epik_Tot_Q>  (190) 
0

>  <i_epik_Tot_abs_Q>  (190) 
0

>  <s_lp_Force_Field>  (190) 
OPLS3e

>  <r_lp_Energy>  (190) 
192.525

>  <b_lp_Chiralities_Consistent>  (190) 
1

>  <s_lp_Variant>  (190) 
52:0-1

>  <s_i_glide_gridfile>  (190) 
pfpi4k_grid

>  <i_i_glide_lignum>  (190) 
32

>  <i_i_glide_rotatable_bonds>  (190) 
0

>  <r_i_docking_score>  (190) 
-2.34964

>  <r_i_glide_ligand_efficiency>  (190) 
-0.0870236

>  <r_i_glide_ligand_efficiency_sa>  (190) 
-0.261071

>  <r_i_glide_ligand_efficiency_ln>  (190) 
-0.546957

>  <r_i_glide_gscore>  (190) 
-2.34964

>  <r_i_glide_lipo>  (190) 
-0.596705

>  <r_i_glide_hbond>  (190) 
0

>  <r_i_glide_metal>  (190) 
-0

>  <r_i_glide_rewards>  (190) 
-0.987796

>  <r_i_glide_evdw>  (190) 
-16.1821

>  <r_i_glide_ecoul>  (190) 
0.293611

>  <r_i_glide_erotb>  (190) 
0

>  <r_i_glide_esite>  (190) 
-7.57637e-05

>  <r_i_glide_emodel>  (190) 
-18.5759

>  <r_i_glide_energy>  (190) 
-15.8884

>  <r_i_glide_einternal>  (190) 
0

>  <r_i_glide_intrahb_reward>  (190) 
-0

>  <i_i_glide_confnum>  (190) 
2

>  <i_i_glide_posenum>  (190) 
18

>  <r_i_glide_eff_state_penalty>  (190) 
0

>  <ligand_id>  (190) 
52

>  <original_smiles>  (190) 
CC1C(=O)C=CC23CC4C2(C)CCC25C=C(CC(=O)CCC42C)C15C1OC13

>  <smiles>  (190) 
[H]C1=C([H])C23C([H])([H])C4([H])C2(C([H])([H])[H])C([H])([H])C([H])([H])C25C([H])=C(C([H])([H])C(=O)C([H])([H])C([H])([H])C42C([H])([H])[H])C5(C2([H])OC23[H])C([H])(C([H])([H])[H])C1=O

$$$$
52:0:2
     RDKit          3D

 55 61  0  0  1  0  0  0  0  0999 V2000
    4.7161    0.1008    3.6864 C   0  0  0  0  0  0  0  0  0  0  0  0
    4.4756   -0.9820    2.6177 C   0  0  2  0  0  0  0  0  0  0  0  0
    3.8882   -0.3790    1.2710 C   0  0  0  0  0  0  0  0  0  0  0  0
    3.4046    0.7484    1.3551 O   0  0  0  0  0  0  0  0  0  0  0  0
    3.8179   -1.0382   -0.0946 C   0  0  0  0  0  0  0  0  0  0  0  0
    3.4226   -2.3071   -0.4463 C   0  0  0  0  0  0  0  0  0  0  0  0
    3.1335   -3.3774    0.5738 C   0  0  1  0  0  0  0  0  0  0  0  0
    2.5729   -4.8066    0.4564 C   0  0  0  0  0  0  0  0  0  0  0  0
    3.7752   -5.2480    1.3814 C   0  0  1  0  0  0  0  0  0  0  0  0
    4.5102   -4.1951    0.5546 C   0  0  1  0  0  0  0  0  0  0  0  0
    5.0274   -4.6862   -0.8355 C   0  0  0  0  0  0  0  0  0  0  0  0
    5.8104   -3.5677    1.0571 C   0  0  0  0  0  0  0  0  0  0  0  0
    5.9316   -3.5784    2.5425 C   0  0  0  0  0  0  0  0  0  0  0  0
    4.5895   -3.6318    3.2498 C   0  0  2  0  0  0  0  0  0  0  0  0
    4.8506   -3.3376    4.7236 C   0  0  0  0  0  0  0  0  0  0  0  0
    3.8547   -2.4567    4.7550 C   0  0  0  0  0  0  0  0  0  0  0  0
    2.7135   -2.5112    5.7573 C   0  0  0  0  0  0  0  0  0  0  0  0
    1.8389   -3.7662    5.5494 C   0  0  0  0  0  0  0  0  0  0  0  0
    0.6167   -3.6777    5.6494 O   0  0  0  0  0  0  0  0  0  0  0  0
    2.5024   -5.1304    5.2849 C   0  0  0  0  0  0  0  0  0  0  0  0
    2.6729   -5.5497    3.7900 C   0  0  0  0  0  0  0  0  0  0  0  0
    3.9492   -5.0868    2.9589 C   0  0  1  0  0  0  0  0  0  0  0  0
    4.9776   -6.1929    3.3769 C   0  0  0  0  0  0  0  0  0  0  0  0
    3.7780   -2.2695    3.2350 C   0  0  1  0  0  0  0  0  0  0  0  0
    2.3588   -2.1692    2.8259 C   0  0  2  0  0  0  0  0  0  0  0  0
    1.5912   -3.3347    2.6392 O   0  0  0  0  0  0  0  0  0  0  0  0
    2.1137   -2.6813    1.4870 C   0  0  2  0  0  0  0  0  0  0  0  0
    5.3199    0.9124    3.2901 H   0  0  0  0  0  0  0  0  0  0  0  0
    5.2854   -0.2993    4.5235 H   0  0  0  0  0  0  0  0  0  0  0  0
    3.7825    0.5136    4.0677 H   0  0  0  0  0  0  0  0  0  0  0  0
    5.4776   -1.1857    2.2774 H   0  0  0  0  0  0  0  0  0  0  0  0
    3.9945   -0.3662   -0.9199 H   0  0  0  0  0  0  0  0  0  0  0  0
    3.3370   -2.5586   -1.4958 H   0  0  0  0  0  0  0  0  0  0  0  0
    1.6244   -5.0221    0.9343 H   0  0  0  0  0  0  0  0  0  0  0  0
    2.5312   -5.2528   -0.5393 H   0  0  0  0  0  0  0  0  0  0  0  0
    4.0543   -6.2522    1.0661 H   0  0  0  0  0  0  0  0  0  0  0  0
    5.6854   -5.5460   -0.7082 H   0  0  0  0  0  0  0  0  0  0  0  0
    5.5829   -3.9115   -1.3721 H   0  0  0  0  0  0  0  0  0  0  0  0
    4.2589   -4.9856   -1.5214 H   0  0  0  0  0  0  0  0  0  0  0  0
    6.7019   -4.0702    0.6788 H   0  0  0  0  0  0  0  0  0  0  0  0
    5.9129   -2.5531    0.6791 H   0  0  0  0  0  0  0  0  0  0  0  0
    6.6051   -4.3703    2.8494 H   0  0  0  0  0  0  0  0  0  0  0  0
    6.4788   -2.6902    2.8041 H   0  0  0  0  0  0  0  0  0  0  0  0
    5.2996   -3.9707    5.4883 H   0  0  0  0  0  0  0  0  0  0  0  0
    3.1163   -2.5514    6.7693 H   0  0  0  0  0  0  0  0  0  0  0  0
    2.0945   -1.6138    5.6795 H   0  0  0  0  0  0  0  0  0  0  0  0
    3.4400   -5.1895    5.8328 H   0  0  0  0  0  0  0  0  0  0  0  0
    1.8515   -5.8627    5.7629 H   0  0  0  0  0  0  0  0  0  0  0  0
    2.6503   -6.6399    3.8240 H   0  0  0  0  0  0  0  0  0  0  0  0
    1.7327   -5.4157    3.2648 H   0  0  0  0  0  0  0  0  0  0  0  0
    5.3390   -6.0584    4.3960 H   0  0  0  0  0  0  0  0  0  0  0  0
    5.8378   -6.2617    2.7192 H   0  0  0  0  0  0  0  0  0  0  0  0
    4.5696   -7.2017    3.3234 H   0  0  0  0  0  0  0  0  0  0  0  0
    1.7929   -1.3012    3.1610 H   0  0  0  0  0  0  0  0  0  0  0  0
    1.3624   -2.1543    0.9189 H   0  0  0  0  0  0  0  0  0  0  0  0
  1  2  1  0
  1 28  1  0
  1 29  1  0
  1 30  1  0
  2 24  1  0
  2  3  1  0
  2 31  1  6
  3  4  2  0
  3  5  1  0
  5  6  2  3
  5 32  1  0
  6  7  1  0
  6 33  1  0
  7 10  1  0
  7 27  1  0
  7  8  1  6
  8  9  1  0
  8 34  1  0
  8 35  1  0
  9 22  1  0
  9 10  1  0
  9 36  1  6
 10 11  1  6
 10 12  1  0
 11 37  1  0
 11 38  1  0
 11 39  1  0
 12 13  1  0
 12 40  1  0
 12 41  1  0
 14 13  1  6
 13 42  1  0
 13 43  1  0
 14 22  1  0
 14 24  1  0
 14 15  1  0
 15 16  2  0
 15 44  1  0
 16 17  1  0
 24 16  1  1
 17 18  1  0
 17 45  1  0
 17 46  1  0
 18 19  2  0
 18 20  1  0
 20 21  1  0
 20 47  1  0
 20 48  1  0
 21 22  1  0
 21 49  1  0
 21 50  1  0
 22 23  1  1
 23 51  1  0
 23 52  1  0
 23 53  1  0
 24 25  1  0
 25 27  1  0
 25 26  1  0
 25 54  1  6
 26 27  1  0
 27 55  1  6
M  END
>  <i_m_ct_stereo_status>  (191) 
1

>  <s_m_source_file>  (191) 
/var/tmp/pbs.5076255.sched01/tmp323fbwsu/45qgza_o8k.sdf

>  <i_m_source_file_index>  (191) 
32

>  <i_lp_mmshare_version>  (191) 
48012

>  <i_f3d_flags>  (191) 
0

>  <s_epik_input>  (191) 
W0NIMl0xW0NIMl1DKD1PKVtDSDJdQyg9W0NIXTIpW0NAQF0oW0NASF0zW0NAQEhdNE8zKShbQ0BIXShbQ0gzXSlDKD1PKS9bQ0hdPVtDSF1cNSlbQ0BdMihbQ0gyXVtDSDJdNilbQ0BdMShbQ0gzXSlbQ0BASF0oW0NIMl03KVtDQF02KFtDQEBdNDU3KVtDSDNd

>  <s_epik_cmdline>  (191) 
J2VwaWtfcHl0aG9uJywgJy1waHQnLCAnMi4wJywgJy1waCcsICc3LjAnLCAnLXRuJywgJzgnLCAnLW1hJywgJzIwMCcsICctaW1hZScsICc8aW5maWxlLm1hZT4nLCAnLW9tYWUnLCAnPG91dGZpbGUubWFlPic=

>  <r_lp_tautomer_probability>  (191) 
1

>  <r_epik_Ionization_Penalty>  (191) 
1.11269e-11

>  <r_epik_Ionization_Penalty_Charging>  (191) 
0

>  <r_epik_Ionization_Penalty_Neutral>  (191) 
1.11269e-11

>  <r_epik_State_Penalty>  (191) 
-0

>  <r_epik_Charging_Adjusted_Penalty>  (191) 
0

>  <i_epik_Tot_Q>  (191) 
0

>  <i_epik_Tot_abs_Q>  (191) 
0

>  <s_lp_Force_Field>  (191) 
OPLS3e

>  <r_lp_Energy>  (191) 
192.525

>  <b_lp_Chiralities_Consistent>  (191) 
1

>  <s_lp_Variant>  (191) 
52:0-1

>  <s_i_glide_gridfile>  (191) 
pfpi4k_grid

>  <i_i_glide_lignum>  (191) 
32

>  <i_i_glide_rotatable_bonds>  (191) 
0

>  <r_i_docking_score>  (191) 
-1.55611

>  <r_i_glide_ligand_efficiency>  (191) 
-0.0576338

>  <r_i_glide_ligand_efficiency_sa>  (191) 
-0.172901

>  <r_i_glide_ligand_efficiency_ln>  (191) 
-0.362237

>  <r_i_glide_gscore>  (191) 
-1.55611

>  <r_i_glide_lipo>  (191) 
-0.282426

>  <r_i_glide_hbond>  (191) 
0

>  <r_i_glide_metal>  (191) 
-0

>  <r_i_glide_rewards>  (191) 
-0.99494

>  <r_i_glide_evdw>  (191) 
-8.24815

>  <r_i_glide_ecoul>  (191) 
0.891079

>  <r_i_glide_erotb>  (191) 
0

>  <r_i_glide_esite>  (191) 
0

>  <r_i_glide_emodel>  (191) 
-8.88721

>  <r_i_glide_energy>  (191) 
-7.35707

>  <r_i_glide_einternal>  (191) 
0

>  <r_i_glide_intrahb_reward>  (191) 
-0

>  <i_i_glide_confnum>  (191) 
1

>  <i_i_glide_posenum>  (191) 
2

>  <r_i_glide_eff_state_penalty>  (191) 
0

>  <ligand_id>  (191) 
52

>  <original_smiles>  (191) 
CC1C(=O)C=CC23CC4C2(C)CCC25C=C(CC(=O)CCC42C)C15C1OC13

>  <smiles>  (191) 
[H]C1=C([H])C23C([H])([H])C4([H])C2(C([H])([H])[H])C([H])([H])C([H])([H])C25C([H])=C(C([H])([H])C(=O)C([H])([H])C([H])([H])C42C([H])([H])[H])C5(C2([H])OC23[H])C([H])(C([H])([H])[H])C1=O

$$$$
52:1:0
     RDKit          3D

 55 61  0  0  1  0  0  0  0  0999 V2000
    4.4026   -5.6236    4.1608 C   0  0  0  0  0  0  0  0  0  0  0  0
    3.6760   -4.8315    3.0327 C   0  0  2  0  0  0  0  0  0  0  0  0
    3.0622   -5.9744    2.1177 C   0  0  0  0  0  0  0  0  0  0  0  0
    2.5113   -6.9286    2.6376 O   0  0  0  0  0  0  0  0  0  0  0  0
    3.1737   -5.8924    0.6632 C   0  0  0  0  0  0  0  0  0  0  0  0
    3.2984   -4.6220    0.2996 C   0  0  0  0  0  0  0  0  0  0  0  0
    4.2165   -3.9907   -0.7130 C   0  0  2  0  0  0  0  0  0  0  0  0
    2.8548   -3.1038   -0.9730 C   0  0  0  0  0  0  0  0  0  0  0  0
    3.3883   -1.8379   -0.3726 C   0  0  2  0  0  0  0  0  0  0  0  0
    4.6410   -2.4292   -1.0339 C   0  0  2  0  0  0  0  0  0  0  0  0
    4.8932   -2.2165   -2.5605 C   0  0  0  0  0  0  0  0  0  0  0  0
    5.8623   -1.6961   -0.4550 C   0  0  0  0  0  0  0  0  0  0  0  0
    5.8607   -1.5451    1.0710 C   0  0  0  0  0  0  0  0  0  0  0  0
    4.6176   -2.1067    1.8465 C   0  0  1  0  0  0  0  0  0  0  0  0
    4.9889   -1.5685    3.2019 C   0  0  0  0  0  0  0  0  0  0  0  0
    4.7465   -2.7182    3.8067 C   0  0  0  0  0  0  0  0  0  0  0  0
    3.7286   -2.6381    4.9443 C   0  0  0  0  0  0  0  0  0  0  0  0
    2.2737   -2.3435    4.4914 C   0  0  0  0  0  0  0  0  0  0  0  0
    1.3597   -2.9611    5.0159 O   0  0  0  0  0  0  0  0  0  0  0  0
    1.9435   -1.2727    3.4383 C   0  0  0  0  0  0  0  0  0  0  0  0
    2.0254   -1.7258    1.9478 C   0  0  0  0  0  0  0  0  0  0  0  0
    3.3709   -1.4479    1.1785 C   0  0  2  0  0  0  0  0  0  0  0  0
    3.4664    0.1138    1.2000 C   0  0  0  0  0  0  0  0  0  0  0  0
    4.6403   -3.6073    2.5156 C   0  0  1  0  0  0  0  0  0  0  0  0
    5.8041   -4.2275    1.7193 C   0  0  1  0  0  0  0  0  0  0  0  0
    5.6997   -5.4516    0.9770 O   0  0  0  0  0  0  0  0  0  0  0  0
    5.5633   -4.2896    0.1441 C   0  0  1  0  0  0  0  0  0  0  0  0
    3.6867   -6.0754    4.8471 H   0  0  0  0  0  0  0  0  0  0  0  0
    5.0795   -5.0277    4.7692 H   0  0  0  0  0  0  0  0  0  0  0  0
    5.0229   -6.4224    3.7532 H   0  0  0  0  0  0  0  0  0  0  0  0
    2.7538   -4.4503    3.4384 H   0  0  0  0  0  0  0  0  0  0  0  0
    3.6699   -6.6716    0.1073 H   0  0  0  0  0  0  0  0  0  0  0  0
    2.8852   -3.9531    1.0118 H   0  0  0  0  0  0  0  0  0  0  0  0
    2.5910   -2.9930   -2.0282 H   0  0  0  0  0  0  0  0  0  0  0  0
    1.8426   -3.2850   -0.5697 H   0  0  0  0  0  0  0  0  0  0  0  0
    3.0062   -1.0226   -0.9811 H   0  0  0  0  0  0  0  0  0  0  0  0
    4.7893   -1.1747   -2.8788 H   0  0  0  0  0  0  0  0  0  0  0  0
    4.2444   -2.8144   -3.1992 H   0  0  0  0  0  0  0  0  0  0  0  0
    5.8879   -2.5715   -2.8305 H   0  0  0  0  0  0  0  0  0  0  0  0
    6.7975   -2.1405   -0.7953 H   0  0  0  0  0  0  0  0  0  0  0  0
    5.8840   -0.6829   -0.8660 H   0  0  0  0  0  0  0  0  0  0  0  0
    6.7935   -1.9525    1.4526 H   0  0  0  0  0  0  0  0  0  0  0  0
    6.0016   -0.4822    1.2777 H   0  0  0  0  0  0  0  0  0  0  0  0
    4.9402   -0.5396    3.5605 H   0  0  0  0  0  0  0  0  0  0  0  0
    3.7193   -3.5511    5.5391 H   0  0  0  0  0  0  0  0  0  0  0  0
    4.0099   -1.8315    5.6171 H   0  0  0  0  0  0  0  0  0  0  0  0
    0.9080   -0.9836    3.6336 H   0  0  0  0  0  0  0  0  0  0  0  0
    2.5363   -0.3917    3.6574 H   0  0  0  0  0  0  0  0  0  0  0  0
    1.6965   -2.7599    1.9386 H   0  0  0  0  0  0  0  0  0  0  0  0
    1.2255   -1.2038    1.4157 H   0  0  0  0  0  0  0  0  0  0  0  0
    3.6831    0.5417    2.1758 H   0  0  0  0  0  0  0  0  0  0  0  0
    2.5254    0.5591    0.8783 H   0  0  0  0  0  0  0  0  0  0  0  0
    4.2119    0.5107    0.5179 H   0  0  0  0  0  0  0  0  0  0  0  0
    6.8048   -4.0406    2.0846 H   0  0  0  0  0  0  0  0  0  0  0  0
    6.4454   -4.2315   -0.4829 H   0  0  0  0  0  0  0  0  0  0  0  0
  1  2  1  0
  1 28  1  0
  1 29  1  0
  1 30  1  0
  2 24  1  0
  2  3  1  0
  2 31  1  1
  3  4  2  0
  3  5  1  0
  5  6  2  3
  5 32  1  0
  6  7  1  0
  6 33  1  0
  7 10  1  0
  7 27  1  0
  7  8  1  6
  8  9  1  0
  8 34  1  0
  8 35  1  0
  9 22  1  0
  9 10  1  0
  9 36  1  6
 10 11  1  6
 10 12  1  0
 11 37  1  0
 11 38  1  0
 11 39  1  0
 12 13  1  0
 12 40  1  0
 12 41  1  0
 14 13  1  6
 13 42  1  0
 13 43  1  0
 14 22  1  0
 14 24  1  0
 14 15  1  0
 15 16  2  0
 15 44  1  0
 16 17  1  0
 24 16  1  1
 17 18  1  0
 17 45  1  0
 17 46  1  0
 18 19  2  0
 18 20  1  0
 20 21  1  0
 20 47  1  0
 20 48  1  0
 21 22  1  0
 21 49  1  0
 21 50  1  0
 22 23  1  6
 23 51  1  0
 23 52  1  0
 23 53  1  0
 24 25  1  0
 25 27  1  0
 25 26  1  0
 25 54  1  6
 26 27  1  0
 27 55  1  6
M  END
>  <i_m_ct_stereo_status>  (192) 
1

>  <s_m_source_file>  (192) 
/var/tmp/pbs.5076255.sched01/tmp323fbwsu/45qgza_o8k.sdf

>  <i_m_source_file_index>  (192) 
33

>  <i_lp_mmshare_version>  (192) 
48012

>  <i_f3d_flags>  (192) 
2

>  <s_epik_input>  (192) 
W0NIMl0xW0NIMl1DKD1PKVtDSDJdQyg9W0NIXTIpW0NAQF0oW0NASF0zW0NAQEhdNE8zKShbQ0BIXShbQ0gzXSlDKD1PKS9bQ0hdPVtDSF1cNSlbQ0BdMihbQ0gyXVtDSDJdNilbQ0BdMShbQ0gzXSlbQ0BASF0oW0NIMl03KVtDQF02KFtDQEBdNDU3KVtDSDNd

>  <s_epik_cmdline>  (192) 
J2VwaWtfcHl0aG9uJywgJy1waHQnLCAnMi4wJywgJy1waCcsICc3LjAnLCAnLXRuJywgJzgnLCAnLW1hJywgJzIwMCcsICctaW1hZScsICc8aW5maWxlLm1hZT4nLCAnLW9tYWUnLCAnPG91dGZpbGUubWFlPic=

>  <r_lp_tautomer_probability>  (192) 
1

>  <r_epik_Ionization_Penalty>  (192) 
1.11269e-11

>  <r_epik_Ionization_Penalty_Charging>  (192) 
0

>  <r_epik_Ionization_Penalty_Neutral>  (192) 
1.11269e-11

>  <r_epik_State_Penalty>  (192) 
-0

>  <r_epik_Charging_Adjusted_Penalty>  (192) 
0

>  <i_epik_Tot_Q>  (192) 
0

>  <i_epik_Tot_abs_Q>  (192) 
0

>  <s_lp_Force_Field>  (192) 
OPLS3e

>  <r_lp_Energy>  (192) 
340.684

>  <b_lp_Chiralities_Consistent>  (192) 
0

>  <s_lp_Variant>  (192) 
52:0-2

>  <s_i_glide_gridfile>  (192) 
pfpi4k_grid

>  <i_i_glide_lignum>  (192) 
33

>  <i_i_glide_rotatable_bonds>  (192) 
0

>  <r_i_docking_score>  (192) 
-2.55677

>  <r_i_glide_ligand_efficiency>  (192) 
-0.0946953

>  <r_i_glide_ligand_efficiency_sa>  (192) 
-0.284086

>  <r_i_glide_ligand_efficiency_ln>  (192) 
-0.595175

>  <r_i_glide_gscore>  (192) 
-2.55677

>  <r_i_glide_lipo>  (192) 
-0.55354

>  <r_i_glide_hbond>  (192) 
0

>  <r_i_glide_metal>  (192) 
-0

>  <r_i_glide_rewards>  (192) 
-0.93137

>  <r_i_glide_evdw>  (192) 
-21.5125

>  <r_i_glide_ecoul>  (192) 
0.0250861

>  <r_i_glide_erotb>  (192) 
0

>  <r_i_glide_esite>  (192) 
0

>  <r_i_glide_emodel>  (192) 
-24.2993

>  <r_i_glide_energy>  (192) 
-21.4875

>  <r_i_glide_einternal>  (192) 
0

>  <r_i_glide_intrahb_reward>  (192) 
-0

>  <i_i_glide_confnum>  (192) 
2

>  <i_i_glide_posenum>  (192) 
25

>  <r_i_glide_eff_state_penalty>  (192) 
0

>  <ligand_id>  (192) 
52

>  <original_smiles>  (192) 
CC1C(=O)C=CC23CC4C2(C)CCC25C=C(CC(=O)CCC42C)C15C1OC13

>  <smiles>  (192) 
[H]C1=C([H])C23C([H])([H])C4([H])C2(C([H])([H])[H])C([H])([H])C([H])([H])C25C([H])=C(C([H])([H])C(=O)C([H])([H])C([H])([H])C42C([H])([H])[H])C5(C2([H])OC23[H])C([H])(C([H])([H])[H])C1=O

$$$$
52:1:1
     RDKit          3D

 55 61  0  0  1  0  0  0  0  0999 V2000
    3.1341   -5.6383    4.5302 C   0  0  0  0  0  0  0  0  0  0  0  0
    2.7622   -4.7639    3.2984 C   0  0  2  0  0  0  0  0  0  0  0  0
    2.0055   -5.7716    2.3391 C   0  0  0  0  0  0  0  0  0  0  0  0
    1.1521   -6.5162    2.8044 O   0  0  0  0  0  0  0  0  0  0  0  0
    2.3168   -5.8008    0.9156 C   0  0  0  0  0  0  0  0  0  0  0  0
    2.7907   -4.6290    0.5341 C   0  0  0  0  0  0  0  0  0  0  0  0
    3.9473   -4.2698   -0.3687 C   0  0  2  0  0  0  0  0  0  0  0  0
    2.8823   -3.1078   -0.8219 C   0  0  0  0  0  0  0  0  0  0  0  0
    3.6164   -1.9639   -0.1880 C   0  0  2  0  0  0  0  0  0  0  0  0
    4.7675   -2.8746   -0.6651 C   0  0  2  0  0  0  0  0  0  0  0  0
    5.2530   -2.8218   -2.1515 C   0  0  0  0  0  0  0  0  0  0  0  0
    6.0589   -2.4336    0.0487 C   0  0  0  0  0  0  0  0  0  0  0  0
    5.9067   -2.2017    1.5556 C   0  0  0  0  0  0  0  0  0  0  0  0
    4.4764   -2.4085    2.1738 C   0  0  1  0  0  0  0  0  0  0  0  0
    4.7899   -1.8978    3.5530 C   0  0  0  0  0  0  0  0  0  0  0  0
    4.2210   -2.9244    4.1516 C   0  0  0  0  0  0  0  0  0  0  0  0
    3.1212   -2.5388    5.1484 C   0  0  0  0  0  0  0  0  0  0  0  0
    1.8437   -1.9288    4.5023 C   0  0  0  0  0  0  0  0  0  0  0  0
    0.7402   -2.2844    4.9229 O   0  0  0  0  0  0  0  0  0  0  0  0
    1.9154   -0.8712    3.3887 C   0  0  0  0  0  0  0  0  0  0  0  0
    2.0671   -1.4079    1.9279 C   0  0  0  0  0  0  0  0  0  0  0  0
    3.5188   -1.5034    1.3370 C   0  0  2  0  0  0  0  0  0  0  0  0
    3.9977   -0.0116    1.3322 C   0  0  0  0  0  0  0  0  0  0  0  0
    4.0546   -3.8305    2.8810 C   0  0  1  0  0  0  0  0  0  0  0  0
    5.1177   -4.7554    2.2557 C   0  0  1  0  0  0  0  0  0  0  0  0
    4.8115   -5.9483    1.5418 O   0  0  0  0  0  0  0  0  0  0  0  0
    5.0660   -4.8428    0.6714 C   0  0  1  0  0  0  0  0  0  0  0  0
    2.2504   -5.8650    5.1266 H   0  0  0  0  0  0  0  0  0  0  0  0
    3.8560   -5.1871    5.2059 H   0  0  0  0  0  0  0  0  0  0  0  0
    3.5841   -6.5856    4.2299 H   0  0  0  0  0  0  0  0  0  0  0  0
    1.9249   -4.1423    3.5669 H   0  0  0  0  0  0  0  0  0  0  0  0
    2.6648   -6.7268    0.4809 H   0  0  0  0  0  0  0  0  0  0  0  0
    2.4569   -3.8300    1.1646 H   0  0  0  0  0  0  0  0  0  0  0  0
    2.7790   -2.9949   -1.9056 H   0  0  0  0  0  0  0  0  0  0  0  0
    1.8158   -3.0382   -0.5547 H   0  0  0  0  0  0  0  0  0  0  0  0
    3.5394   -1.1157   -0.8580 H   0  0  0  0  0  0  0  0  0  0  0  0
    5.4388   -1.8072   -2.5067 H   0  0  0  0  0  0  0  0  0  0  0  0
    4.5617   -3.2857   -2.8541 H   0  0  0  0  0  0  0  0  0  0  0  0
    6.1651   -3.4082   -2.2861 H   0  0  0  0  0  0  0  0  0  0  0  0
    6.8963   -3.1065   -0.1473 H   0  0  0  0  0  0  0  0  0  0  0  0
    6.3999   -1.4873   -0.3750 H   0  0  0  0  0  0  0  0  0  0  0  0
    6.6452   -2.8092    2.0702 H   0  0  0  0  0  0  0  0  0  0  0  0
    6.2861   -1.1970    1.7639 H   0  0  0  0  0  0  0  0  0  0  0  0
    4.9927   -0.8738    3.8924 H   0  0  0  0  0  0  0  0  0  0  0  0
    2.8170   -3.3851    5.7647 H   0  0  0  0  0  0  0  0  0  0  0  0
    3.5054   -1.7840    5.8366 H   0  0  0  0  0  0  0  0  0  0  0  0
    0.9711   -0.3266    3.4411 H   0  0  0  0  0  0  0  0  0  0  0  0
    2.6786   -0.1462    3.6624 H   0  0  0  0  0  0  0  0  0  0  0  0
    1.4910   -2.3279    1.8914 H   0  0  0  0  0  0  0  0  0  0  0  0
    1.4914   -0.7372    1.2854 H   0  0  0  0  0  0  0  0  0  0  0  0
    4.1893    0.3993    2.3203 H   0  0  0  0  0  0  0  0  0  0  0  0
    3.2450    0.6355    0.8837 H   0  0  0  0  0  0  0  0  0  0  0  0
    4.8951    0.1491    0.7461 H   0  0  0  0  0  0  0  0  0  0  0  0
    6.0891   -4.7926    2.7541 H   0  0  0  0  0  0  0  0  0  0  0  0
    6.0038   -5.0359    0.1551 H   0  0  0  0  0  0  0  0  0  0  0  0
  1  2  1  0
  1 28  1  0
  1 29  1  0
  1 30  1  0
  2 24  1  0
  2  3  1  0
  2 31  1  1
  3  4  2  0
  3  5  1  0
  5  6  2  3
  5 32  1  0
  6  7  1  0
  6 33  1  0
  7 10  1  0
  7 27  1  0
  7  8  1  6
  8  9  1  0
  8 34  1  0
  8 35  1  0
  9 22  1  0
  9 10  1  0
  9 36  1  6
 10 11  1  6
 10 12  1  0
 11 37  1  0
 11 38  1  0
 11 39  1  0
 12 13  1  0
 12 40  1  0
 12 41  1  0
 14 13  1  6
 13 42  1  0
 13 43  1  0
 14 22  1  0
 14 24  1  0
 14 15  1  0
 15 16  2  0
 15 44  1  0
 16 17  1  0
 24 16  1  1
 17 18  1  0
 17 45  1  0
 17 46  1  0
 18 19  2  0
 18 20  1  0
 20 21  1  0
 20 47  1  0
 20 48  1  0
 21 22  1  0
 21 49  1  0
 21 50  1  0
 22 23  1  6
 23 51  1  0
 23 52  1  0
 23 53  1  0
 24 25  1  0
 25 27  1  0
 25 26  1  0
 25 54  1  6
 26 27  1  0
 27 55  1  6
M  END
>  <i_m_ct_stereo_status>  (193) 
1

>  <s_m_source_file>  (193) 
/var/tmp/pbs.5076255.sched01/tmp323fbwsu/45qgza_o8k.sdf

>  <i_m_source_file_index>  (193) 
33

>  <i_lp_mmshare_version>  (193) 
48012

>  <i_f3d_flags>  (193) 
2

>  <s_epik_input>  (193) 
W0NIMl0xW0NIMl1DKD1PKVtDSDJdQyg9W0NIXTIpW0NAQF0oW0NASF0zW0NAQEhdNE8zKShbQ0BIXShbQ0gzXSlDKD1PKS9bQ0hdPVtDSF1cNSlbQ0BdMihbQ0gyXVtDSDJdNilbQ0BdMShbQ0gzXSlbQ0BASF0oW0NIMl03KVtDQF02KFtDQEBdNDU3KVtDSDNd

>  <s_epik_cmdline>  (193) 
J2VwaWtfcHl0aG9uJywgJy1waHQnLCAnMi4wJywgJy1waCcsICc3LjAnLCAnLXRuJywgJzgnLCAnLW1hJywgJzIwMCcsICctaW1hZScsICc8aW5maWxlLm1hZT4nLCAnLW9tYWUnLCAnPG91dGZpbGUubWFlPic=

>  <r_lp_tautomer_probability>  (193) 
1

>  <r_epik_Ionization_Penalty>  (193) 
1.11269e-11

>  <r_epik_Ionization_Penalty_Charging>  (193) 
0

>  <r_epik_Ionization_Penalty_Neutral>  (193) 
1.11269e-11

>  <r_epik_State_Penalty>  (193) 
-0

>  <r_epik_Charging_Adjusted_Penalty>  (193) 
0

>  <i_epik_Tot_Q>  (193) 
0

>  <i_epik_Tot_abs_Q>  (193) 
0

>  <s_lp_Force_Field>  (193) 
OPLS3e

>  <r_lp_Energy>  (193) 
340.684

>  <b_lp_Chiralities_Consistent>  (193) 
0

>  <s_lp_Variant>  (193) 
52:0-2

>  <s_i_glide_gridfile>  (193) 
pfpi4k_grid

>  <i_i_glide_lignum>  (193) 
33

>  <i_i_glide_rotatable_bonds>  (193) 
0

>  <r_i_docking_score>  (193) 
-2.47147

>  <r_i_glide_ligand_efficiency>  (193) 
-0.091536

>  <r_i_glide_ligand_efficiency_sa>  (193) 
-0.274608

>  <r_i_glide_ligand_efficiency_ln>  (193) 
-0.575318

>  <r_i_glide_gscore>  (193) 
-2.47147

>  <r_i_glide_lipo>  (193) 
-0.430496

>  <r_i_glide_hbond>  (193) 
0

>  <r_i_glide_metal>  (193) 
-0

>  <r_i_glide_rewards>  (193) 
-0.924018

>  <r_i_glide_evdw>  (193) 
-20.7384

>  <r_i_glide_ecoul>  (193) 
-0.399066

>  <r_i_glide_erotb>  (193) 
0

>  <r_i_glide_esite>  (193) 
-0.0201794

>  <r_i_glide_emodel>  (193) 
-23.9087

>  <r_i_glide_energy>  (193) 
-21.1375

>  <r_i_glide_einternal>  (193) 
0

>  <r_i_glide_intrahb_reward>  (193) 
-0

>  <i_i_glide_confnum>  (193) 
2

>  <i_i_glide_posenum>  (193) 
10

>  <r_i_glide_eff_state_penalty>  (193) 
0

>  <ligand_id>  (193) 
52

>  <original_smiles>  (193) 
CC1C(=O)C=CC23CC4C2(C)CCC25C=C(CC(=O)CCC42C)C15C1OC13

>  <smiles>  (193) 
[H]C1=C([H])C23C([H])([H])C4([H])C2(C([H])([H])[H])C([H])([H])C([H])([H])C25C([H])=C(C([H])([H])C(=O)C([H])([H])C([H])([H])C42C([H])([H])[H])C5(C2([H])OC23[H])C([H])(C([H])([H])[H])C1=O

$$$$
52:1:2
     RDKit          3D

 55 61  0  0  1  0  0  0  0  0999 V2000
   -2.4486    3.1548    6.2537 C   0  0  0  0  0  0  0  0  0  0  0  0
   -1.2177    3.1503    5.2994 C   0  0  2  0  0  0  0  0  0  0  0  0
   -1.8352    2.7762    3.8860 C   0  0  0  0  0  0  0  0  0  0  0  0
   -2.8817    3.3140    3.5411 O   0  0  0  0  0  0  0  0  0  0  0  0
   -1.1680    1.7970    3.0273 C   0  0  0  0  0  0  0  0  0  0  0  0
    0.1183    1.7488    3.3268 C   0  0  0  0  0  0  0  0  0  0  0  0
    1.0478    0.5717    3.4993 C   0  0  2  0  0  0  0  0  0  0  0  0
    2.0783    1.6153    2.7521 C   0  0  0  0  0  0  0  0  0  0  0  0
    2.9291    1.8738    3.9559 C   0  0  2  0  0  0  0  0  0  0  0  0
    2.5553    0.3908    4.1340 C   0  0  2  0  0  0  0  0  0  0  0  0
    3.3474   -0.7220    3.3716 C   0  0  0  0  0  0  0  0  0  0  0  0
    2.8736   -0.0096    5.5899 C   0  0  0  0  0  0  0  0  0  0  0  0
    2.3863    0.9871    6.6489 C   0  0  0  0  0  0  0  0  0  0  0  0
    1.6657    2.2859    6.1284 C   0  0  1  0  0  0  0  0  0  0  0  0
    1.5653    2.9903    7.4553 C   0  0  0  0  0  0  0  0  0  0  0  0
    0.2937    3.2980    7.2808 C   0  0  0  0  0  0  0  0  0  0  0  0
   -0.0156    4.7971    7.3964 C   0  0  0  0  0  0  0  0  0  0  0  0
    0.5532    5.6629    6.2352 C   0  0  0  0  0  0  0  0  0  0  0  0
   -0.1679    6.5364    5.7500 O   0  0  0  0  0  0  0  0  0  0  0  0
    1.9892    5.4707    5.7019 C   0  0  0  0  0  0  0  0  0  0  0  0
    2.1873    4.3674    4.6132 C   0  0  0  0  0  0  0  0  0  0  0  0
    2.6431    2.9423    5.1038 C   0  0  2  0  0  0  0  0  0  0  0  0
    4.0441    3.2161    5.7416 C   0  0  0  0  0  0  0  0  0  0  0  0
    0.0230    2.3700    6.0479 C   0  0  1  0  0  0  0  0  0  0  0  0
   -0.3088    0.8660    6.0674 C   0  0  1  0  0  0  0  0  0  0  0  0
   -1.1051    0.2151    5.0790 O   0  0  0  0  0  0  0  0  0  0  0  0
    0.2974    0.0382    4.8501 C   0  0  1  0  0  0  0  0  0  0  0  0
   -3.0882    4.0116    6.0641 H   0  0  0  0  0  0  0  0  0  0  0  0
   -2.2130    3.1722    7.3158 H   0  0  0  0  0  0  0  0  0  0  0  0
   -3.0415    2.2548    6.1240 H   0  0  0  0  0  0  0  0  0  0  0  0
   -0.9464    4.1740    5.0969 H   0  0  0  0  0  0  0  0  0  0  0  0
   -1.7122    0.9251    2.6938 H   0  0  0  0  0  0  0  0  0  0  0  0
    0.4718    2.6615    3.7521 H   0  0  0  0  0  0  0  0  0  0  0  0
    2.6263    1.1730    1.9170 H   0  0  0  0  0  0  0  0  0  0  0  0
    1.8291    2.5831    2.2850 H   0  0  0  0  0  0  0  0  0  0  0  0
    3.9707    1.9137    3.6575 H   0  0  0  0  0  0  0  0  0  0  0  0
    4.4310   -0.6232    3.4692 H   0  0  0  0  0  0  0  0  0  0  0  0
    3.1248   -0.7700    2.3071 H   0  0  0  0  0  0  0  0  0  0  0  0
    3.0658   -1.7154    3.7268 H   0  0  0  0  0  0  0  0  0  0  0  0
    2.5327   -1.0174    5.8328 H   0  0  0  0  0  0  0  0  0  0  0  0
    3.9567   -0.0854    5.7131 H   0  0  0  0  0  0  0  0  0  0  0  0
    1.7832    0.4486    7.3777 H   0  0  0  0  0  0  0  0  0  0  0  0
    3.2542    1.2450    7.2602 H   0  0  0  0  0  0  0  0  0  0  0  0
    2.3467    3.4476    8.0643 H   0  0  0  0  0  0  0  0  0  0  0  0
   -1.0863    4.9866    7.4612 H   0  0  0  0  0  0  0  0  0  0  0  0
    0.4201    5.1905    8.3150 H   0  0  0  0  0  0  0  0  0  0  0  0
    2.2645    6.4284    5.2557 H   0  0  0  0  0  0  0  0  0  0  0  0
    2.6484    5.3554    6.5574 H   0  0  0  0  0  0  0  0  0  0  0  0
    1.2899    4.3865    4.0029 H   0  0  0  0  0  0  0  0  0  0  0  0
    2.9460    4.7385    3.9200 H   0  0  0  0  0  0  0  0  0  0  0  0
    4.0103    3.7666    6.6756 H   0  0  0  0  0  0  0  0  0  0  0  0
    4.6616    3.8080    5.0692 H   0  0  0  0  0  0  0  0  0  0  0  0
    4.6142    2.3114    5.9338 H   0  0  0  0  0  0  0  0  0  0  0  0
   -0.3642    0.3945    7.0461 H   0  0  0  0  0  0  0  0  0  0  0  0
    0.5387   -1.0030    5.0370 H   0  0  0  0  0  0  0  0  0  0  0  0
  1  2  1  0
  1 28  1  0
  1 29  1  0
  1 30  1  0
  2 24  1  0
  2  3  1  0
  2 31  1  6
  3  4  2  0
  3  5  1  0
  5  6  2  3
  5 32  1  0
  6  7  1  0
  6 33  1  0
  7 10  1  0
  7 27  1  0
  7  8  1  6
  8  9  1  0
  8 34  1  0
  8 35  1  0
  9 22  1  0
  9 10  1  0
  9 36  1  6
 10 11  1  6
 10 12  1  0
 11 37  1  0
 11 38  1  0
 11 39  1  0
 12 13  1  0
 12 40  1  0
 12 41  1  0
 14 13  1  1
 13 42  1  0
 13 43  1  0
 14 22  1  0
 14 24  1  0
 14 15  1  0
 15 16  2  0
 15 44  1  0
 16 17  1  0
 24 16  1  1
 17 18  1  0
 17 45  1  0
 17 46  1  0
 18 19  2  0
 18 20  1  0
 20 21  1  0
 20 47  1  0
 20 48  1  0
 21 22  1  0
 21 49  1  0
 21 50  1  0
 22 23  1  1
 23 51  1  0
 23 52  1  0
 23 53  1  0
 24 25  1  0
 25 27  1  0
 25 26  1  0
 25 54  1  1
 26 27  1  0
 27 55  1  1
M  END
>  <i_m_ct_stereo_status>  (194) 
1

>  <s_m_source_file>  (194) 
/var/tmp/pbs.5076255.sched01/tmp323fbwsu/45qgza_o8k.sdf

>  <i_m_source_file_index>  (194) 
33

>  <i_lp_mmshare_version>  (194) 
48012

>  <i_f3d_flags>  (194) 
2

>  <s_epik_input>  (194) 
W0NIMl0xW0NIMl1DKD1PKVtDSDJdQyg9W0NIXTIpW0NAQF0oW0NASF0zW0NAQEhdNE8zKShbQ0BIXShbQ0gzXSlDKD1PKS9bQ0hdPVtDSF1cNSlbQ0BdMihbQ0gyXVtDSDJdNilbQ0BdMShbQ0gzXSlbQ0BASF0oW0NIMl03KVtDQF02KFtDQEBdNDU3KVtDSDNd

>  <s_epik_cmdline>  (194) 
J2VwaWtfcHl0aG9uJywgJy1waHQnLCAnMi4wJywgJy1waCcsICc3LjAnLCAnLXRuJywgJzgnLCAnLW1hJywgJzIwMCcsICctaW1hZScsICc8aW5maWxlLm1hZT4nLCAnLW9tYWUnLCAnPG91dGZpbGUubWFlPic=

>  <r_lp_tautomer_probability>  (194) 
1

>  <r_epik_Ionization_Penalty>  (194) 
1.11269e-11

>  <r_epik_Ionization_Penalty_Charging>  (194) 
0

>  <r_epik_Ionization_Penalty_Neutral>  (194) 
1.11269e-11

>  <r_epik_State_Penalty>  (194) 
-0

>  <r_epik_Charging_Adjusted_Penalty>  (194) 
0

>  <i_epik_Tot_Q>  (194) 
0

>  <i_epik_Tot_abs_Q>  (194) 
0

>  <s_lp_Force_Field>  (194) 
OPLS3e

>  <r_lp_Energy>  (194) 
340.684

>  <b_lp_Chiralities_Consistent>  (194) 
0

>  <s_lp_Variant>  (194) 
52:0-2

>  <s_i_glide_gridfile>  (194) 
pfpi4k_grid

>  <i_i_glide_lignum>  (194) 
33

>  <i_i_glide_rotatable_bonds>  (194) 
0

>  <r_i_docking_score>  (194) 
-2.38244

>  <r_i_glide_ligand_efficiency>  (194) 
-0.0882387

>  <r_i_glide_ligand_efficiency_sa>  (194) 
-0.264716

>  <r_i_glide_ligand_efficiency_ln>  (194) 
-0.554594

>  <r_i_glide_gscore>  (194) 
-2.38244

>  <r_i_glide_lipo>  (194) 
-0.149875

>  <r_i_glide_hbond>  (194) 
-0.0231256

>  <r_i_glide_metal>  (194) 
-0

>  <r_i_glide_rewards>  (194) 
-0.924018

>  <r_i_glide_evdw>  (194) 
-18.0676

>  <r_i_glide_ecoul>  (194) 
-2.26746

>  <r_i_glide_erotb>  (194) 
0

>  <r_i_glide_esite>  (194) 
-0.0419264

>  <r_i_glide_emodel>  (194) 
-22.9715

>  <r_i_glide_energy>  (194) 
-20.3351

>  <r_i_glide_einternal>  (194) 
0

>  <r_i_glide_intrahb_reward>  (194) 
-0

>  <i_i_glide_confnum>  (194) 
1

>  <i_i_glide_posenum>  (194) 
2

>  <r_i_glide_eff_state_penalty>  (194) 
0

>  <ligand_id>  (194) 
52

>  <original_smiles>  (194) 
CC1C(=O)C=CC23CC4C2(C)CCC25C=C(CC(=O)CCC42C)C15C1OC13

>  <smiles>  (194) 
[H]C1=C([H])C23C([H])([H])C4([H])C2(C([H])([H])[H])C([H])([H])C([H])([H])C25C([H])=C(C([H])([H])C(=O)C([H])([H])C([H])([H])C42C([H])([H])[H])C5(C2([H])OC23[H])C([H])(C([H])([H])[H])C1=O

$$$$
53:0:0
     RDKit          3D

 76 80  0  0  1  0  0  0  0  0999 V2000
    2.5228   -5.5022    1.6600 C   0  0  0  0  0  0  0  0  0  0  0  0
    3.2224   -4.8435    2.8097 C   0  0  2  0  0  0  0  0  0  0  0  0
    2.7526   -5.1002    4.2294 C   0  0  0  0  0  0  0  0  0  0  0  0
    2.5708   -3.7236    3.6093 C   0  0  1  0  0  0  0  0  0  0  0  0
    3.3417   -2.4358    4.0422 C   0  0  2  0  0  0  0  0  0  0  0  0
    4.6115   -2.8626    4.8546 C   0  0  0  0  0  0  0  0  0  0  0  0
    2.4495   -1.2870    4.7189 C   0  0  1  0  0  0  0  0  0  0  0  0
    1.6466   -2.0456    5.6041 O   0  0  0  0  0  0  0  0  0  0  0  0
    3.3910   -0.4106    5.6192 C   0  0  0  0  0  0  0  0  0  0  0  0
    3.0148    0.9896    6.2435 C   0  0  2  0  0  0  0  0  0  0  0  0
    4.2918    1.2860    7.1320 C   0  0  0  0  0  0  0  0  0  0  0  0
    4.1827    1.3945    8.3792 O   0  0  0  0  0  0  0  0  0  0  0  0
    5.4015    1.3599    6.5570 O   0  0  0  0  0  0  0  0  0  0  0  0
    1.8247    0.7833    7.2545 C   0  0  0  0  0  0  0  0  0  0  0  0
    0.3320    0.8706    6.9136 C   0  0  0  0  0  0  0  0  0  0  0  0
   -0.2311    0.1339    5.7036 C   0  0  0  0  0  0  0  0  0  0  0  0
   -1.1870   -0.6277    5.9050 O   0  0  0  0  0  0  0  0  0  0  0  0
    0.2777    0.3477    4.2593 C   0  0  1  0  0  0  0  0  0  0  0  0
   -0.3243    1.5819    3.5010 C   0  0  0  0  0  0  0  0  0  0  0  0
    0.3703    2.9630    3.4784 C   0  0  0  0  0  0  0  0  0  0  0  0
    0.6622    3.5890    4.8597 C   0  0  2  0  0  0  0  0  0  0  0  0
    0.0178    4.9872    4.9946 C   0  0  0  0  0  0  0  0  0  0  0  0
    0.7630    6.0559    4.1898 C   0  0  1  0  0  0  0  0  0  0  0  0
    0.2101    7.3359    4.4818 O   0  0  0  0  0  0  0  0  0  0  0  0
    2.2586    6.0901    4.5032 C   0  0  0  0  0  0  0  0  0  0  0  0
    2.8870    4.6849    4.4468 C   0  0  0  0  0  0  0  0  0  0  0  0
    2.1667    3.5693    5.2848 C   0  0  1  0  0  0  0  0  0  0  0  0
    2.2775    4.0187    6.7829 C   0  0  0  0  0  0  0  0  0  0  0  0
    2.9336    2.1575    5.1264 C   0  0  2  0  0  0  0  0  0  0  0  0
    3.3148    1.6742    3.6872 C   0  0  0  0  0  0  0  0  0  0  0  0
    2.5039    0.5920    2.9424 C   0  0  0  0  0  0  0  0  0  0  0  0
    1.5777   -0.3944    3.6983 C   0  0  1  0  0  0  0  0  0  0  0  0
    1.0056   -1.2472    2.5299 C   0  0  0  0  0  0  0  0  0  0  0  0
    1.4599   -5.6271    1.8854 H   0  0  0  0  0  0  0  0  0  0  0  0
    2.9621   -6.4814    1.4989 H   0  0  0  0  0  0  0  0  0  0  0  0
    2.6288   -4.9118    0.7519 H   0  0  0  0  0  0  0  0  0  0  0  0
    4.2973   -4.7133    2.6237 H   0  0  0  0  0  0  0  0  0  0  0  0
    1.8454   -5.6903    4.3521 H   0  0  0  0  0  0  0  0  0  0  0  0
    3.4847   -5.2500    5.0204 H   0  0  0  0  0  0  0  0  0  0  0  0
    1.5339   -3.5784    3.3301 H   0  0  0  0  0  0  0  0  0  0  0  0
    3.7511   -2.0051    3.1294 H   0  0  0  0  0  0  0  0  0  0  0  0
    4.3338   -3.2334    5.8434 H   0  0  0  0  0  0  0  0  0  0  0  0
    5.3571   -2.0839    4.9895 H   0  0  0  0  0  0  0  0  0  0  0  0
    5.1581   -3.6646    4.3605 H   0  0  0  0  0  0  0  0  0  0  0  0
    1.0955   -2.6018    5.1029 H   0  0  0  0  0  0  0  0  0  0  0  0
    3.7061   -1.0405    6.4551 H   0  0  0  0  0  0  0  0  0  0  0  0
    4.3120   -0.2713    5.0635 H   0  0  0  0  0  0  0  0  0  0  0  0
    1.9746   -0.1822    7.7372 H   0  0  0  0  0  0  0  0  0  0  0  0
    1.8956    1.4770    8.0885 H   0  0  0  0  0  0  0  0  0  0  0  0
   -0.1618    0.3978    7.7630 H   0  0  0  0  0  0  0  0  0  0  0  0
   -0.0442    1.8794    7.0136 H   0  0  0  0  0  0  0  0  0  0  0  0
   -0.4825   -0.3260    3.8744 H   0  0  0  0  0  0  0  0  0  0  0  0
   -0.4919    1.3006    2.4577 H   0  0  0  0  0  0  0  0  0  0  0  0
   -1.3351    1.7494    3.8849 H   0  0  0  0  0  0  0  0  0  0  0  0
    1.2421    2.9787    2.8339 H   0  0  0  0  0  0  0  0  0  0  0  0
   -0.3125    3.6182    2.9371 H   0  0  0  0  0  0  0  0  0  0  0  0
    0.0743    3.0117    5.5372 H   0  0  0  0  0  0  0  0  0  0  0  0
   -1.0248    4.9440    4.6857 H   0  0  0  0  0  0  0  0  0  0  0  0
   -0.0175    5.2737    6.0463 H   0  0  0  0  0  0  0  0  0  0  0  0
    0.6138    5.8672    3.1243 H   0  0  0  0  0  0  0  0  0  0  0  0
    0.2177    7.8263    3.6343 H   0  0  0  0  0  0  0  0  0  0  0  0
    2.7544    6.7359    3.7801 H   0  0  0  0  0  0  0  0  0  0  0  0
    2.4399    6.5559    5.4727 H   0  0  0  0  0  0  0  0  0  0  0  0
    2.8670    4.4322    3.3887 H   0  0  0  0  0  0  0  0  0  0  0  0
    3.9373    4.7614    4.7124 H   0  0  0  0  0  0  0  0  0  0  0  0
    3.2920    3.9281    7.1712 H   0  0  0  0  0  0  0  0  0  0  0  0
    1.6053    3.4692    7.4350 H   0  0  0  0  0  0  0  0  0  0  0  0
    2.0023    5.0622    6.9356 H   0  0  0  0  0  0  0  0  0  0  0  0
    3.8979    2.6399    5.2602 H   0  0  0  0  0  0  0  0  0  0  0  0
    3.4087    2.5029    2.9972 H   0  0  0  0  0  0  0  0  0  0  0  0
    4.3454    1.3203    3.7222 H   0  0  0  0  0  0  0  0  0  0  0  0
    1.9440    1.0729    2.1408 H   0  0  0  0  0  0  0  0  0  0  0  0
    3.2353    0.0110    2.3795 H   0  0  0  0  0  0  0  0  0  0  0  0
    0.4958   -0.6371    1.7867 H   0  0  0  0  0  0  0  0  0  0  0  0
    0.2653   -1.9668    2.8771 H   0  0  0  0  0  0  0  0  0  0  0  0
    1.7734   -1.7718    1.9602 H   0  0  0  0  0  0  0  0  0  0  0  0
  1  2  1  0
  1 34  1  0
  1 35  1  0
  1 36  1  0
  2  4  1  0
  2  3  1  0
  2 37  1  1
  3  4  1  0
  3 38  1  0
  3 39  1  0
  4  5  1  0
  4 40  1  6
  5  6  1  0
  5  7  1  0
  5 41  1  6
  6 42  1  0
  6 43  1  0
  6 44  1  0
  7 32  1  0
  7  8  1  1
  7  9  1  0
  8 45  1  0
  9 10  1  0
  9 46  1  0
  9 47  1  0
 10 29  1  0
 10 11  1  1
 10 14  1  0
 11 12  2  0
 11 13  1  0
 14 15  1  0
 14 48  1  0
 14 49  1  0
 15 16  1  0
 15 50  1  0
 15 51  1  0
 16 17  2  0
 16 18  1  0
 18 32  1  0
 18 19  1  0
 18 52  1  6
 19 20  1  0
 19 53  1  0
 19 54  1  0
 20 21  1  0
 20 55  1  0
 20 56  1  0
 21 27  1  0
 21 22  1  0
 21 57  1  1
 22 23  1  0
 22 58  1  0
 22 59  1  0
 23 24  1  0
 23 25  1  0
 23 60  1  6
 24 61  1  0
 25 26  1  0
 25 62  1  0
 25 63  1  0
 26 27  1  0
 26 64  1  0
 26 65  1  0
 27 28  1  1
 27 29  1  0
 28 66  1  0
 28 67  1  0
 28 68  1  0
 29 30  1  0
 29 69  1  1
 30 31  1  0
 30 70  1  0
 30 71  1  0
 31 32  1  0
 31 72  1  0
 31 73  1  0
 32 33  1  6
 33 74  1  0
 33 75  1  0
 33 76  1  0
M  CHG  1  13  -1
M  END
>  <i_m_ct_stereo_status>  (195) 
1

>  <s_m_source_file>  (195) 
/var/tmp/pbs.5076255.sched01/tmp323fbwsu/45qgza_o8k.sdf

>  <i_m_source_file_index>  (195) 
34

>  <i_lp_mmshare_version>  (195) 
48012

>  <i_f3d_flags>  (195) 
0

>  <s_epik_input>  (195) 
W0NIM11bQ0BASF0xW0NIMl1bQ0BIXTFbQ0BIXShbQ0gzXSlbQ0BAXShbT0hdKShbQ0gyXTIpW0NAXShbQ0gzXSkoW0NIMl1bQ0gyXTMpW0NAQEhdKEMoPU8pW0NIMl1bQ0gyXTQpW0NIMl1bQ0gyXVtDQEhdKFtDSDJdW0NAQEhdKFtPSF0pW0NIMl1bQ0gyXTUpW0NAQF01KFtDSDNdKVtDQEhdM1tDQF0yNEMoPU8pW09IXQ==

>  <s_epik_cmdline>  (195) 
J2VwaWtfcHl0aG9uJywgJy1waHQnLCAnMi4wJywgJy1waCcsICc3LjAnLCAnLXRuJywgJzgnLCAnLW1hJywgJzIwMCcsICctaW1hZScsICc8aW5maWxlLm1hZT4nLCAnLW9tYWUnLCAnPG91dGZpbGUubWFlPic=

>  <r_lp_tautomer_probability>  (195) 
1

>  <r_epik_Ionization_Penalty>  (195) 
0.00622589

>  <r_epik_Ionization_Penalty_Charging>  (195) 
0.00621627

>  <r_epik_Ionization_Penalty_Neutral>  (195) 
9.61997e-06

>  <r_epik_State_Penalty>  (195) 
0.00458689

>  <r_epik_Charging_Adjusted_Penalty>  (195) 
0.0108032

>  <i_epik_Tot_Q>  (195) 
-1

>  <i_epik_Tot_abs_Q>  (195) 
1

>  <s_lp_Force_Field>  (195) 
OPLS3e

>  <r_lp_Energy>  (195) 
146.874

>  <b_lp_Chiralities_Consistent>  (195) 
1

>  <s_lp_Variant>  (195) 
53:0-1

>  <s_i_glide_gridfile>  (195) 
pfpi4k_grid

>  <i_i_glide_lignum>  (195) 
34

>  <i_i_glide_rotatable_bonds>  (195) 
5

>  <r_i_docking_score>  (195) 
-2.73847

>  <r_i_glide_ligand_efficiency>  (195) 
-0.082984

>  <r_i_glide_ligand_efficiency_sa>  (195) 
-0.266174

>  <r_i_glide_ligand_efficiency_ln>  (195) 
-0.609022

>  <r_i_glide_gscore>  (195) 
-2.73847

>  <r_i_glide_lipo>  (195) 
-0.0176246

>  <r_i_glide_hbond>  (195) 
-0.245123

>  <r_i_glide_metal>  (195) 
-0

>  <r_i_glide_rewards>  (195) 
-0.275426

>  <r_i_glide_evdw>  (195) 
-14.9964

>  <r_i_glide_ecoul>  (195) 
-10.4193

>  <r_i_glide_erotb>  (195) 
0.133343

>  <r_i_glide_esite>  (195) 
-0.0209337

>  <r_i_glide_emodel>  (195) 
-26.4449

>  <r_i_glide_energy>  (195) 
-25.4157

>  <r_i_glide_einternal>  (195) 
8.42732

>  <r_i_glide_intrahb_reward>  (195) 
-0

>  <i_i_glide_confnum>  (195) 
6

>  <i_i_glide_posenum>  (195) 
37

>  <r_i_glide_eff_state_penalty>  (195) 
0

>  <ligand_id>  (195) 
53

>  <original_smiles>  (195) 
CC1CC1C(C)C1(O)CC2(C(=O)O)CCC(=O)C3CCC4CC(O)CCC4(C)C2CCC31C

>  <smiles>  (195) 
[H]OC1([H])C([H])([H])C([H])([H])C2(C([H])([H])[H])C([H])(C([H])([H])C([H])([H])C3([H])C(=O)C([H])([H])C([H])([H])C4(C(=O)[O-])C([H])([H])C(O[H])(C([H])(C([H])([H])[H])C5([H])C([H])([H])C5([H])C([H])([H])[H])C3(C([H])([H])[H])C([H])([H])C([H])([H])C42[H])C1([H])[H]

$$$$
53:0:1
     RDKit          3D

 76 80  0  0  1  0  0  0  0  0999 V2000
    6.1002   -5.0503    5.1121 C   0  0  0  0  0  0  0  0  0  0  0  0
    6.0570   -3.8087    5.9756 C   0  0  2  0  0  0  0  0  0  0  0  0
    5.3316   -3.8532    7.3010 C   0  0  0  0  0  0  0  0  0  0  0  0
    4.7606   -3.0312    6.1541 C   0  0  1  0  0  0  0  0  0  0  0  0
    4.7119   -1.4716    6.1437 C   0  0  2  0  0  0  0  0  0  0  0  0
    5.7899   -0.9116    7.1288 C   0  0  0  0  0  0  0  0  0  0  0  0
    3.2442   -0.8276    6.2924 C   0  0  1  0  0  0  0  0  0  0  0  0
    2.6913   -1.6418    7.3087 O   0  0  0  0  0  0  0  0  0  0  0  0
    3.3972    0.6041    6.9136 C   0  0  0  0  0  0  0  0  0  0  0  0
    2.2704    1.7008    6.9753 C   0  0  2  0  0  0  0  0  0  0  0  0
    2.9913    2.8392    7.8166 C   0  0  0  0  0  0  0  0  0  0  0  0
    2.5168    3.2118    8.9135 O   0  0  0  0  0  0  0  0  0  0  0  0
    4.0608    3.3077    7.3611 O   0  0  0  0  0  0  0  0  0  0  0  0
    1.1065    1.1650    7.8908 C   0  0  0  0  0  0  0  0  0  0  0  0
   -0.1139    0.3803    7.4102 C   0  0  0  0  0  0  0  0  0  0  0  0
    0.0534   -0.8181    6.4821 C   0  0  0  0  0  0  0  0  0  0  0  0
   -0.4450   -1.8802    6.8511 O   0  0  0  0  0  0  0  0  0  0  0  0
    0.7546   -0.7445    5.1057 C   0  0  1  0  0  0  0  0  0  0  0  0
   -0.1450   -0.2586    3.9216 C   0  0  0  0  0  0  0  0  0  0  0  0
   -0.2018    1.2224    3.4790 C   0  0  0  0  0  0  0  0  0  0  0  0
   -0.5930    2.2256    4.5800 C   0  0  2  0  0  0  0  0  0  0  0  0
   -1.8336    3.0650    4.1782 C   0  0  0  0  0  0  0  0  0  0  0  0
   -1.4961    4.1060    3.1160 C   0  0  1  0  0  0  0  0  0  0  0  0
   -2.6054    4.9306    2.8777 O   0  0  0  0  0  0  0  0  0  0  0  0
   -0.3188    5.0093    3.5257 C   0  0  0  0  0  0  0  0  0  0  0  0
    0.8865    4.1787    3.9998 C   0  0  0  0  0  0  0  0  0  0  0  0
    0.5884    3.1119    5.1260 C   0  0  1  0  0  0  0  0  0  0  0  0
    0.0935    3.9156    6.3650 C   0  0  0  0  0  0  0  0  0  0  0  0
    1.9419    2.3262    5.5159 C   0  0  2  0  0  0  0  0  0  0  0  0
    2.8529    1.7714    4.3710 C   0  0  0  0  0  0  0  0  0  0  0  0
    2.8565    0.2765    3.9823 C   0  0  0  0  0  0  0  0  0  0  0  0
    2.3425   -0.8225    4.9529 C   0  0  1  0  0  0  0  0  0  0  0  0
    2.5526   -2.1283    4.1256 C   0  0  0  0  0  0  0  0  0  0  0  0
    5.1967   -5.6473    5.2296 H   0  0  0  0  0  0  0  0  0  0  0  0
    6.9596   -5.6466    5.4062 H   0  0  0  0  0  0  0  0  0  0  0  0
    6.2114   -4.7789    4.0631 H   0  0  0  0  0  0  0  0  0  0  0  0
    6.9659   -3.2211    5.8991 H   0  0  0  0  0  0  0  0  0  0  0  0
    4.7900   -4.7691    7.5514 H   0  0  0  0  0  0  0  0  0  0  0  0
    5.7745   -3.3468    8.1566 H   0  0  0  0  0  0  0  0  0  0  0  0
    3.8977   -3.5111    5.7087 H   0  0  0  0  0  0  0  0  0  0  0  0
    5.0759   -1.1672    5.1610 H   0  0  0  0  0  0  0  0  0  0  0  0
    5.4857   -1.0573    8.1641 H   0  0  0  0  0  0  0  0  0  0  0  0
    6.0129    0.1510    7.0029 H   0  0  0  0  0  0  0  0  0  0  0  0
    6.7547   -1.3989    7.0023 H   0  0  0  0  0  0  0  0  0  0  0  0
    1.8583   -1.2727    7.5609 H   0  0  0  0  0  0  0  0  0  0  0  0
    3.7528    0.4704    7.9360 H   0  0  0  0  0  0  0  0  0  0  0  0
    4.2460    1.0653    6.4140 H   0  0  0  0  0  0  0  0  0  0  0  0
    1.5632    0.5896    8.6945 H   0  0  0  0  0  0  0  0  0  0  0  0
    0.6281    1.9789    8.4344 H   0  0  0  0  0  0  0  0  0  0  0  0
   -0.5187   -0.0543    8.3262 H   0  0  0  0  0  0  0  0  0  0  0  0
   -0.9296    1.0316    7.1294 H   0  0  0  0  0  0  0  0  0  0  0  0
    0.5235   -1.7899    4.9187 H   0  0  0  0  0  0  0  0  0  0  0  0
    0.1167   -0.8392    3.0347 H   0  0  0  0  0  0  0  0  0  0  0  0
   -1.1760   -0.5554    4.1370 H   0  0  0  0  0  0  0  0  0  0  0  0
    0.6946    1.5300    2.9548 H   0  0  0  0  0  0  0  0  0  0  0  0
   -0.9529    1.2596    2.6900 H   0  0  0  0  0  0  0  0  0  0  0  0
   -0.9932    1.6251    5.3679 H   0  0  0  0  0  0  0  0  0  0  0  0
   -2.6179    2.4038    3.8093 H   0  0  0  0  0  0  0  0  0  0  0  0
   -2.2613    3.5451    5.0545 H   0  0  0  0  0  0  0  0  0  0  0  0
   -1.3285    3.5772    2.1851 H   0  0  0  0  0  0  0  0  0  0  0  0
   -3.2363    4.4326    2.3490 H   0  0  0  0  0  0  0  0  0  0  0  0
   -0.0201    5.6281    2.6813 H   0  0  0  0  0  0  0  0  0  0  0  0
   -0.6047    5.7254    4.2925 H   0  0  0  0  0  0  0  0  0  0  0  0
    1.2508    3.7013    3.0995 H   0  0  0  0  0  0  0  0  0  0  0  0
    1.6762    4.8638    4.3172 H   0  0  0  0  0  0  0  0  0  0  0  0
    0.9040    4.4690    6.8445 H   0  0  0  0  0  0  0  0  0  0  0  0
   -0.3769    3.2791    7.1106 H   0  0  0  0  0  0  0  0  0  0  0  0
   -0.6641    4.6562    6.1269 H   0  0  0  0  0  0  0  0  0  0  0  0
    2.4956    3.2587    5.5625 H   0  0  0  0  0  0  0  0  0  0  0  0
    2.7281    2.3257    3.4486 H   0  0  0  0  0  0  0  0  0  0  0  0
    3.8841    2.0326    4.6126 H   0  0  0  0  0  0  0  0  0  0  0  0
    2.3556    0.1670    3.0226 H   0  0  0  0  0  0  0  0  0  0  0  0
    3.8909    0.0400    3.7266 H   0  0  0  0  0  0  0  0  0  0  0  0
    2.0065   -2.0985    3.1805 H   0  0  0  0  0  0  0  0  0  0  0  0
    2.1885   -3.0091    4.6510 H   0  0  0  0  0  0  0  0  0  0  0  0
    3.5880   -2.2903    3.8450 H   0  0  0  0  0  0  0  0  0  0  0  0
  1  2  1  0
  1 34  1  0
  1 35  1  0
  1 36  1  0
  2  4  1  0
  2  3  1  0
  2 37  1  1
  3  4  1  0
  3 38  1  0
  3 39  1  0
  4  5  1  0
  4 40  1  6
  5  6  1  0
  5  7  1  0
  5 41  1  6
  6 42  1  0
  6 43  1  0
  6 44  1  0
  7 32  1  0
  7  8  1  1
  7  9  1  0
  8 45  1  0
  9 10  1  0
  9 46  1  0
  9 47  1  0
 10 29  1  0
 10 11  1  1
 10 14  1  0
 11 12  2  0
 11 13  1  0
 14 15  1  0
 14 48  1  0
 14 49  1  0
 15 16  1  0
 15 50  1  0
 15 51  1  0
 16 17  2  0
 16 18  1  0
 18 32  1  0
 18 19  1  0
 18 52  1  6
 19 20  1  0
 19 53  1  0
 19 54  1  0
 20 21  1  0
 20 55  1  0
 20 56  1  0
 21 27  1  0
 21 22  1  0
 21 57  1  1
 22 23  1  0
 22 58  1  0
 22 59  1  0
 23 24  1  0
 23 25  1  0
 23 60  1  6
 24 61  1  0
 25 26  1  0
 25 62  1  0
 25 63  1  0
 26 27  1  0
 26 64  1  0
 26 65  1  0
 27 28  1  1
 27 29  1  0
 28 66  1  0
 28 67  1  0
 28 68  1  0
 29 30  1  0
 29 69  1  1
 30 31  1  0
 30 70  1  0
 30 71  1  0
 31 32  1  0
 31 72  1  0
 31 73  1  0
 32 33  1  6
 33 74  1  0
 33 75  1  0
 33 76  1  0
M  CHG  1  13  -1
M  END
>  <i_m_ct_stereo_status>  (196) 
1

>  <s_m_source_file>  (196) 
/var/tmp/pbs.5076255.sched01/tmp323fbwsu/45qgza_o8k.sdf

>  <i_m_source_file_index>  (196) 
34

>  <i_lp_mmshare_version>  (196) 
48012

>  <i_f3d_flags>  (196) 
0

>  <s_epik_input>  (196) 
W0NIM11bQ0BASF0xW0NIMl1bQ0BIXTFbQ0BIXShbQ0gzXSlbQ0BAXShbT0hdKShbQ0gyXTIpW0NAXShbQ0gzXSkoW0NIMl1bQ0gyXTMpW0NAQEhdKEMoPU8pW0NIMl1bQ0gyXTQpW0NIMl1bQ0gyXVtDQEhdKFtDSDJdW0NAQEhdKFtPSF0pW0NIMl1bQ0gyXTUpW0NAQF01KFtDSDNdKVtDQEhdM1tDQF0yNEMoPU8pW09IXQ==

>  <s_epik_cmdline>  (196) 
J2VwaWtfcHl0aG9uJywgJy1waHQnLCAnMi4wJywgJy1waCcsICc3LjAnLCAnLXRuJywgJzgnLCAnLW1hJywgJzIwMCcsICctaW1hZScsICc8aW5maWxlLm1hZT4nLCAnLW9tYWUnLCAnPG91dGZpbGUubWFlPic=

>  <r_lp_tautomer_probability>  (196) 
1

>  <r_epik_Ionization_Penalty>  (196) 
0.00622589

>  <r_epik_Ionization_Penalty_Charging>  (196) 
0.00621627

>  <r_epik_Ionization_Penalty_Neutral>  (196) 
9.61997e-06

>  <r_epik_State_Penalty>  (196) 
0.00458689

>  <r_epik_Charging_Adjusted_Penalty>  (196) 
0.0108032

>  <i_epik_Tot_Q>  (196) 
-1

>  <i_epik_Tot_abs_Q>  (196) 
1

>  <s_lp_Force_Field>  (196) 
OPLS3e

>  <r_lp_Energy>  (196) 
146.874

>  <b_lp_Chiralities_Consistent>  (196) 
1

>  <s_lp_Variant>  (196) 
53:0-1

>  <s_i_glide_gridfile>  (196) 
pfpi4k_grid

>  <i_i_glide_lignum>  (196) 
34

>  <i_i_glide_rotatable_bonds>  (196) 
5

>  <r_i_docking_score>  (196) 
-1.85904

>  <r_i_glide_ligand_efficiency>  (196) 
-0.0563346

>  <r_i_glide_ligand_efficiency_sa>  (196) 
-0.180695

>  <r_i_glide_ligand_efficiency_ln>  (196) 
-0.413441

>  <r_i_glide_gscore>  (196) 
-1.85904

>  <r_i_glide_lipo>  (196) 
-0.0342964

>  <r_i_glide_hbond>  (196) 
-0.16

>  <r_i_glide_metal>  (196) 
-0

>  <r_i_glide_rewards>  (196) 
-0.275195

>  <r_i_glide_evdw>  (196) 
-12.7376

>  <r_i_glide_ecoul>  (196) 
-6.0826

>  <r_i_glide_erotb>  (196) 
0.19049

>  <r_i_glide_esite>  (196) 
-0.0307675

>  <r_i_glide_emodel>  (196) 
-18.2005

>  <r_i_glide_energy>  (196) 
-18.8202

>  <r_i_glide_einternal>  (196) 
8.12786

>  <r_i_glide_intrahb_reward>  (196) 
-0

>  <i_i_glide_confnum>  (196) 
6

>  <i_i_glide_posenum>  (196) 
10

>  <r_i_glide_eff_state_penalty>  (196) 
0

>  <ligand_id>  (196) 
53

>  <original_smiles>  (196) 
CC1CC1C(C)C1(O)CC2(C(=O)O)CCC(=O)C3CCC4CC(O)CCC4(C)C2CCC31C

>  <smiles>  (196) 
[H]OC1([H])C([H])([H])C([H])([H])C2(C([H])([H])[H])C([H])(C([H])([H])C([H])([H])C3([H])C(=O)C([H])([H])C([H])([H])C4(C(=O)[O-])C([H])([H])C(O[H])(C([H])(C([H])([H])[H])C5([H])C([H])([H])C5([H])C([H])([H])[H])C3(C([H])([H])[H])C([H])([H])C([H])([H])C42[H])C1([H])[H]

$$$$
53:0:2
     RDKit          3D

 76 80  0  0  1  0  0  0  0  0999 V2000
   -0.2674    5.6844    3.2757 C   0  0  0  0  0  0  0  0  0  0  0  0
   -0.1804    4.9018    4.5601 C   0  0  2  0  0  0  0  0  0  0  0  0
    1.1060    4.9279    5.3570 C   0  0  0  0  0  0  0  0  0  0  0  0
    0.6614    3.6431    4.6788 C   0  0  1  0  0  0  0  0  0  0  0  0
    0.1806    2.3415    5.4257 C   0  0  2  0  0  0  0  0  0  0  0  0
   -0.3286    2.7320    6.8479 C   0  0  0  0  0  0  0  0  0  0  0  0
    1.2040    1.1023    5.3771 C   0  0  1  0  0  0  0  0  0  0  0  0
    2.4364    1.7525    5.6026 O   0  0  0  0  0  0  0  0  0  0  0  0
    0.9440    0.2165    6.6481 C   0  0  0  0  0  0  0  0  0  0  0  0
    1.5099   -1.2348    6.8644 C   0  0  2  0  0  0  0  0  0  0  0  0
    1.0737   -1.5254    8.3574 C   0  0  0  0  0  0  0  0  0  0  0  0
   -0.1409   -1.6827    8.5873 O   0  0  0  0  0  0  0  0  0  0  0  0
    1.8989   -1.4989    9.2917 O   0  0  0  0  0  0  0  0  0  0  0  0
    3.0755   -1.1594    6.9306 C   0  0  0  0  0  0  0  0  0  0  0  0
    4.0316   -1.3058    5.7477 C   0  0  0  0  0  0  0  0  0  0  0  0
    3.7903   -0.5132    4.4659 C   0  0  0  0  0  0  0  0  0  0  0  0
    4.7236    0.1737    4.0403 O   0  0  0  0  0  0  0  0  0  0  0  0
    2.4837   -0.6044    3.6407 C   0  0  1  0  0  0  0  0  0  0  0  0
    2.3914   -1.8099    2.6467 C   0  0  0  0  0  0  0  0  0  0  0  0
    1.7189   -3.1505    3.0314 C   0  0  0  0  0  0  0  0  0  0  0  0
    2.2823   -3.8533    4.2728 C   0  0  2  0  0  0  0  0  0  0  0  0
    2.7500   -5.2931    3.9622 C   0  0  0  0  0  0  0  0  0  0  0  0
    1.5862   -6.2666    3.7641 C   0  0  1  0  0  0  0  0  0  0  0  0
    2.0861   -7.5694    3.6046 O   0  0  0  0  0  0  0  0  0  0  0  0
    0.6027   -6.2368    4.9393 C   0  0  0  0  0  0  0  0  0  0  0  0
    0.1901   -4.8017    5.3106 C   0  0  0  0  0  0  0  0  0  0  0  0
    1.3655   -3.7797    5.5479 C   0  0  1  0  0  0  0  0  0  0  0  0
    2.1481   -4.3160    6.7744 C   0  0  0  0  0  0  0  0  0  0  0  0
    0.7813   -2.3204    5.9000 C   0  0  2  0  0  0  0  0  0  0  0  0
   -0.3589   -1.7147    5.0291 C   0  0  0  0  0  0  0  0  0  0  0  0
   -0.0897   -0.6220    3.9751 C   0  0  0  0  0  0  0  0  0  0  0  0
    1.1907    0.2495    4.0119 C   0  0  1  0  0  0  0  0  0  0  0  0
    1.0064    1.1621    2.7589 C   0  0  0  0  0  0  0  0  0  0  0  0
    0.6937    5.7153    2.7768 H   0  0  0  0  0  0  0  0  0  0  0  0
   -0.5764    6.6964    3.5137 H   0  0  0  0  0  0  0  0  0  0  0  0
   -0.9999    5.2351    2.6096 H   0  0  0  0  0  0  0  0  0  0  0  0
   -1.1330    4.8928    5.0576 H   0  0  0  0  0  0  0  0  0  0  0  0
    1.9606    5.4361    4.9238 H   0  0  0  0  0  0  0  0  0  0  0  0
    1.0587    5.0222    6.4369 H   0  0  0  0  0  0  0  0  0  0  0  0
    1.2433    3.4787    3.7935 H   0  0  0  0  0  0  0  0  0  0  0  0
   -0.7172    2.0292    4.8974 H   0  0  0  0  0  0  0  0  0  0  0  0
    0.5002    2.9757    7.5117 H   0  0  0  0  0  0  0  0  0  0  0  0
   -0.9240    1.9703    7.3447 H   0  0  0  0  0  0  0  0  0  0  0  0
   -0.9896    3.5966    6.8535 H   0  0  0  0  0  0  0  0  0  0  0  0
    2.6504    2.2716    4.8341 H   0  0  0  0  0  0  0  0  0  0  0  0
    1.2638    0.8017    7.5123 H   0  0  0  0  0  0  0  0  0  0  0  0
   -0.1293    0.1428    6.7904 H   0  0  0  0  0  0  0  0  0  0  0  0
    3.3356   -0.2179    7.4154 H   0  0  0  0  0  0  0  0  0  0  0  0
    3.4727   -1.9049    7.6225 H   0  0  0  0  0  0  0  0  0  0  0  0
    4.9797   -0.9122    6.1180 H   0  0  0  0  0  0  0  0  0  0  0  0
    4.3052   -2.3380    5.5707 H   0  0  0  0  0  0  0  0  0  0  0  0
    2.9045    0.0554    2.8853 H   0  0  0  0  0  0  0  0  0  0  0  0
    1.9136   -1.4648    1.7277 H   0  0  0  0  0  0  0  0  0  0  0  0
    3.4067   -2.0572    2.3295 H   0  0  0  0  0  0  0  0  0  0  0  0
    0.6387   -3.0661    3.0660 H   0  0  0  0  0  0  0  0  0  0  0  0
    1.8703   -3.8006    2.1690 H   0  0  0  0  0  0  0  0  0  0  0  0
    3.2097   -3.3548    4.4616 H   0  0  0  0  0  0  0  0  0  0  0  0
    3.3842   -5.2858    3.0739 H   0  0  0  0  0  0  0  0  0  0  0  0
    3.4003   -5.6412    4.7602 H   0  0  0  0  0  0  0  0  0  0  0  0
    1.0618   -6.0035    2.8459 H   0  0  0  0  0  0  0  0  0  0  0  0
    2.5213   -7.8443    4.4097 H   0  0  0  0  0  0  0  0  0  0  0  0
   -0.2894   -6.7987    4.6617 H   0  0  0  0  0  0  0  0  0  0  0  0
    1.0063   -6.7552    5.8035 H   0  0  0  0  0  0  0  0  0  0  0  0
   -0.4044   -4.4690    4.4820 H   0  0  0  0  0  0  0  0  0  0  0  0
   -0.4791   -4.8344    6.1739 H   0  0  0  0  0  0  0  0  0  0  0  0
    1.5957   -4.1973    7.7114 H   0  0  0  0  0  0  0  0  0  0  0  0
    3.1252   -3.8506    6.8911 H   0  0  0  0  0  0  0  0  0  0  0  0
    2.3723   -5.3800    6.7133 H   0  0  0  0  0  0  0  0  0  0  0  0
    0.0716   -2.7667    6.5868 H   0  0  0  0  0  0  0  0  0  0  0  0
   -0.9384   -2.4831    4.5288 H   0  0  0  0  0  0  0  0  0  0  0  0
   -1.1211   -1.3164    5.6958 H   0  0  0  0  0  0  0  0  0  0  0  0
   -0.1518   -1.0629    2.9888 H   0  0  0  0  0  0  0  0  0  0  0  0
   -0.9576    0.0345    3.9840 H   0  0  0  0  0  0  0  0  0  0  0  0
    0.9137    0.5824    1.8399 H   0  0  0  0  0  0  0  0  0  0  0  0
    1.8605    1.8186    2.5926 H   0  0  0  0  0  0  0  0  0  0  0  0
    0.1002    1.7611    2.7904 H   0  0  0  0  0  0  0  0  0  0  0  0
  1  2  1  0
  1 34  1  0
  1 35  1  0
  1 36  1  0
  2  4  1  0
  2  3  1  0
  2 37  1  1
  3  4  1  0
  3 38  1  0
  3 39  1  0
  4  5  1  0
  4 40  1  6
  5  6  1  0
  5  7  1  0
  5 41  1  6
  6 42  1  0
  6 43  1  0
  6 44  1  0
  7 32  1  0
  7  8  1  1
  7  9  1  0
  8 45  1  0
  9 10  1  0
  9 46  1  0
  9 47  1  0
 10 29  1  0
 10 11  1  1
 10 14  1  0
 11 12  2  0
 11 13  1  0
 14 15  1  0
 14 48  1  0
 14 49  1  0
 15 16  1  0
 15 50  1  0
 15 51  1  0
 16 17  2  0
 16 18  1  0
 18 32  1  0
 18 19  1  0
 18 52  1  6
 19 20  1  0
 19 53  1  0
 19 54  1  0
 20 21  1  0
 20 55  1  0
 20 56  1  0
 21 27  1  0
 21 22  1  0
 21 57  1  1
 22 23  1  0
 22 58  1  0
 22 59  1  0
 23 24  1  0
 23 25  1  0
 23 60  1  6
 24 61  1  0
 25 26  1  0
 25 62  1  0
 25 63  1  0
 26 27  1  0
 26 64  1  0
 26 65  1  0
 27 28  1  1
 27 29  1  0
 28 66  1  0
 28 67  1  0
 28 68  1  0
 29 30  1  0
 29 69  1  1
 30 31  1  0
 30 70  1  0
 30 71  1  0
 31 32  1  0
 31 72  1  0
 31 73  1  0
 32 33  1  6
 33 74  1  0
 33 75  1  0
 33 76  1  0
M  CHG  1  13  -1
M  END
>  <i_m_ct_stereo_status>  (197) 
1

>  <s_m_source_file>  (197) 
/var/tmp/pbs.5076255.sched01/tmp323fbwsu/45qgza_o8k.sdf

>  <i_m_source_file_index>  (197) 
34

>  <i_lp_mmshare_version>  (197) 
48012

>  <i_f3d_flags>  (197) 
0

>  <s_epik_input>  (197) 
W0NIM11bQ0BASF0xW0NIMl1bQ0BIXTFbQ0BIXShbQ0gzXSlbQ0BAXShbT0hdKShbQ0gyXTIpW0NAXShbQ0gzXSkoW0NIMl1bQ0gyXTMpW0NAQEhdKEMoPU8pW0NIMl1bQ0gyXTQpW0NIMl1bQ0gyXVtDQEhdKFtDSDJdW0NAQEhdKFtPSF0pW0NIMl1bQ0gyXTUpW0NAQF01KFtDSDNdKVtDQEhdM1tDQF0yNEMoPU8pW09IXQ==

>  <s_epik_cmdline>  (197) 
J2VwaWtfcHl0aG9uJywgJy1waHQnLCAnMi4wJywgJy1waCcsICc3LjAnLCAnLXRuJywgJzgnLCAnLW1hJywgJzIwMCcsICctaW1hZScsICc8aW5maWxlLm1hZT4nLCAnLW9tYWUnLCAnPG91dGZpbGUubWFlPic=

>  <r_lp_tautomer_probability>  (197) 
1

>  <r_epik_Ionization_Penalty>  (197) 
0.00622589

>  <r_epik_Ionization_Penalty_Charging>  (197) 
0.00621627

>  <r_epik_Ionization_Penalty_Neutral>  (197) 
9.61997e-06

>  <r_epik_State_Penalty>  (197) 
0.00458689

>  <r_epik_Charging_Adjusted_Penalty>  (197) 
0.0108032

>  <i_epik_Tot_Q>  (197) 
-1

>  <i_epik_Tot_abs_Q>  (197) 
1

>  <s_lp_Force_Field>  (197) 
OPLS3e

>  <r_lp_Energy>  (197) 
146.874

>  <b_lp_Chiralities_Consistent>  (197) 
1

>  <s_lp_Variant>  (197) 
53:0-1

>  <s_i_glide_gridfile>  (197) 
pfpi4k_grid

>  <i_i_glide_lignum>  (197) 
34

>  <i_i_glide_rotatable_bonds>  (197) 
5

>  <r_i_docking_score>  (197) 
-1.64358

>  <r_i_glide_ligand_efficiency>  (197) 
-0.0498054

>  <r_i_glide_ligand_efficiency_sa>  (197) 
-0.159753

>  <r_i_glide_ligand_efficiency_ln>  (197) 
-0.365523

>  <r_i_glide_gscore>  (197) 
-1.64358

>  <r_i_glide_lipo>  (197) 
-0.0119211

>  <r_i_glide_hbond>  (197) 
-0.162401

>  <r_i_glide_metal>  (197) 
-0

>  <r_i_glide_rewards>  (197) 
-0.275195

>  <r_i_glide_evdw>  (197) 
-15.353

>  <r_i_glide_ecoul>  (197) 
-4.01389

>  <r_i_glide_erotb>  (197) 
0.19049

>  <r_i_glide_esite>  (197) 
-0.0148179

>  <r_i_glide_emodel>  (197) 
-18.3441

>  <r_i_glide_energy>  (197) 
-19.3669

>  <r_i_glide_einternal>  (197) 
8.16062

>  <r_i_glide_intrahb_reward>  (197) 
-0

>  <i_i_glide_confnum>  (197) 
6

>  <i_i_glide_posenum>  (197) 
1

>  <r_i_glide_eff_state_penalty>  (197) 
0

>  <ligand_id>  (197) 
53

>  <original_smiles>  (197) 
CC1CC1C(C)C1(O)CC2(C(=O)O)CCC(=O)C3CCC4CC(O)CCC4(C)C2CCC31C

>  <smiles>  (197) 
[H]OC1([H])C([H])([H])C([H])([H])C2(C([H])([H])[H])C([H])(C([H])([H])C([H])([H])C3([H])C(=O)C([H])([H])C([H])([H])C4(C(=O)[O-])C([H])([H])C(O[H])(C([H])(C([H])([H])[H])C5([H])C([H])([H])C5([H])C([H])([H])[H])C3(C([H])([H])[H])C([H])([H])C([H])([H])C42[H])C1([H])[H]

$$$$
54:0:0
     RDKit          3D

 23 25  0  0  1  0  0  0  0  0999 V2000
    3.2862   -3.3949   -3.6619 C   0  0  0  0  0  0  0  0  0  0  0  0
    2.8495   -2.6638   -2.5453 C   0  0  0  0  0  0  0  0  0  0  0  0
    3.8306   -2.1335   -1.6843 C   0  0  0  0  0  0  0  0  0  0  0  0
    3.4178   -1.3588   -0.5918 N   0  0  0  0  0  0  0  0  0  0  0  0
    4.0774   -1.0268    0.6055 C   0  0  0  0  0  0  0  0  0  0  0  0
    5.3486   -1.4282    0.8268 N   0  0  0  0  0  0  0  0  0  0  0  0
    5.9557   -1.0884    1.9669 C   0  0  0  0  0  0  0  0  0  0  0  0
    5.4772   -0.3838    2.9946 N   0  0  0  0  0  0  0  0  0  0  0  0
    4.1846   -0.0032    2.7783 C   0  0  0  0  0  0  0  0  0  0  0  0
    3.2594    0.9317    3.9412 S   0  0  0  0  0  0  0  0  0  0  0  0
    1.8890    0.9411    2.8667 C   0  0  0  0  0  0  0  0  0  0  0  0
    2.0803    0.2754    1.6791 C   0  0  0  0  0  0  0  0  0  0  0  0
    3.4104   -0.2800    1.6047 C   0  0  0  0  0  0  0  0  0  0  0  0
    5.1794   -2.3895   -2.0330 C   0  0  0  0  0  0  0  0  0  0  0  0
    5.5261   -3.1141   -3.1193 N   0  0  0  0  0  0  0  0  0  0  0  0
    4.5921   -3.6135   -3.9199 N   0  0  0  0  0  0  0  0  0  0  0  0
    2.5847   -3.8333   -4.3553 H   0  0  0  0  0  0  0  0  0  0  0  0
    1.7920   -2.5200   -2.3748 H   0  0  0  0  0  0  0  0  0  0  0  0
    6.9881   -1.4037    2.0516 H   0  0  0  0  0  0  0  0  0  0  0  0
    0.9941    1.4611    3.1707 H   0  0  0  0  0  0  0  0  0  0  0  0
    1.3489    0.1810    0.8878 H   0  0  0  0  0  0  0  0  0  0  0  0
    6.0329   -1.9678   -1.5193 H   0  0  0  0  0  0  0  0  0  0  0  0
    2.4105   -1.1332   -0.6130 H   0  0  0  0  0  0  0  0  0  0  0  0
  1 16  2  0
  1  2  1  0
  1 17  1  0
  2  3  2  0
  2 18  1  0
  3  4  1  0
  3 14  1  0
  4  5  1  0
  4 23  1  0
  5 13  1  0
  5  6  2  0
  6  7  1  0
  7  8  2  0
  7 19  1  0
  8  9  1  0
  9 13  2  0
  9 10  1  0
 10 11  1  0
 11 12  2  0
 11 20  1  0
 12 13  1  0
 12 21  1  0
 14 15  2  0
 14 22  1  0
 15 16  1  0
M  END
>  <i_m_ct_stereo_status>  (198) 
1

>  <s_m_source_file>  (198) 
/var/tmp/pbs.5076255.sched01/tmp323fbwsu/45qgza_o8k.sdf

>  <i_m_source_file_index>  (198) 
35

>  <i_lp_mmshare_version>  (198) 
48012

>  <i_f3d_flags>  (198) 
0

>  <s_epik_input>  (198) 
W2NIXTFubltjSF1bY0hdYzEvTj1jKFxbbkhdW2NIXW4yKWMoYzIzKVtjSF1bY0hdczM=

>  <s_epik_cmdline>  (198) 
J2VwaWtfcHl0aG9uJywgJy1waHQnLCAnMi4wJywgJy1waCcsICc3LjAnLCAnLXRuJywgJzgnLCAnLW1hJywgJzIwMCcsICctaW1hZScsICc8aW5maWxlLm1hZT4nLCAnLW9tYWUnLCAnPG91dGZpbGUubWFlPic=

>  <r_lp_tautomer_probability>  (198) 
0.999997

>  <r_epik_Ionization_Penalty>  (198) 
0.0879623

>  <r_epik_Ionization_Penalty_Charging>  (198) 
0

>  <r_epik_Ionization_Penalty_Neutral>  (198) 
0.0879623

>  <r_epik_State_Penalty>  (198) 
0.0774917

>  <r_epik_Charging_Adjusted_Penalty>  (198) 
0.0774917

>  <i_epik_Tot_Q>  (198) 
0

>  <i_epik_Tot_abs_Q>  (198) 
0

>  <s_lp_Force_Field>  (198) 
OPLS3e

>  <r_lp_Energy>  (198) 
31.096

>  <b_lp_Chiralities_Consistent>  (198) 
1

>  <s_lp_Variant>  (198) 
54:0-1

>  <s_i_glide_gridfile>  (198) 
pfpi4k_grid

>  <i_i_glide_lignum>  (198) 
35

>  <i_i_glide_rotatable_bonds>  (198) 
2

>  <r_i_docking_score>  (198) 
-4.16865

>  <r_i_glide_ligand_efficiency>  (198) 
-0.260541

>  <r_i_glide_ligand_efficiency_sa>  (198) 
-0.656521

>  <r_i_glide_ligand_efficiency_ln>  (198) 
-1.10498

>  <r_i_glide_gscore>  (198) 
-4.16865

>  <r_i_glide_lipo>  (198) 
-0.245865

>  <r_i_glide_hbond>  (198) 
-0.16

>  <r_i_glide_metal>  (198) 
-0

>  <r_i_glide_rewards>  (198) 
-2.0108

>  <r_i_glide_evdw>  (198) 
-23.2836

>  <r_i_glide_ecoul>  (198) 
-7.57949

>  <r_i_glide_erotb>  (198) 
0.649116

>  <r_i_glide_esite>  (198) 
-0.1

>  <r_i_glide_emodel>  (198) 
-38.2734

>  <r_i_glide_energy>  (198) 
-30.8631

>  <r_i_glide_einternal>  (198) 
2.45036

>  <r_i_glide_intrahb_reward>  (198) 
-0

>  <i_i_glide_confnum>  (198) 
5

>  <i_i_glide_posenum>  (198) 
16

>  <r_i_glide_eff_state_penalty>  (198) 
0

>  <ligand_id>  (198) 
54

>  <original_smiles>  (198) 
c1cc(N=c2[nH]cnc3sccc23)cnn1

>  <smiles>  (198) 
[H]c1nc(N([H])c2c([H])nnc([H])c2[H])c2c([H])c([H])sc2n1

$$$$
54:0:1
     RDKit          3D

 23 25  0  0  1  0  0  0  0  0999 V2000
    4.9268   -7.7401    1.7140 C   0  0  0  0  0  0  0  0  0  0  0  0
    4.3309   -6.8276    0.8227 C   0  0  0  0  0  0  0  0  0  0  0  0
    5.0899   -5.7203    0.4059 C   0  0  0  0  0  0  0  0  0  0  0  0
    4.5626   -4.8351   -0.5460 N   0  0  0  0  0  0  0  0  0  0  0  0
    4.7991   -3.4700   -0.7087 C   0  0  0  0  0  0  0  0  0  0  0  0
    5.4937   -2.7808    0.2245 N   0  0  0  0  0  0  0  0  0  0  0  0
    5.6737   -1.4664    0.0636 C   0  0  0  0  0  0  0  0  0  0  0  0
    5.2581   -0.6969   -0.9407 N   0  0  0  0  0  0  0  0  0  0  0  0
    4.5424   -1.3934   -1.8727 C   0  0  0  0  0  0  0  0  0  0  0  0
    3.8115   -0.6415   -3.2905 S   0  0  0  0  0  0  0  0  0  0  0  0
    3.1963   -2.1791   -3.8106 C   0  0  0  0  0  0  0  0  0  0  0  0
    3.5080   -3.2249   -2.9853 C   0  0  0  0  0  0  0  0  0  0  0  0
    4.2759   -2.7925   -1.8405 C   0  0  0  0  0  0  0  0  0  0  0  0
    6.4016   -5.6222    0.9268 C   0  0  0  0  0  0  0  0  0  0  0  0
    6.9176   -6.5349    1.7801 N   0  0  0  0  0  0  0  0  0  0  0  0
    6.1918   -7.5900    2.1684 N   0  0  0  0  0  0  0  0  0  0  0  0
    4.3840   -8.6081    2.0659 H   0  0  0  0  0  0  0  0  0  0  0  0
    3.3244   -6.9793    0.4684 H   0  0  0  0  0  0  0  0  0  0  0  0
    6.2483   -0.9593    0.8231 H   0  0  0  0  0  0  0  0  0  0  0  0
    2.6127   -2.2428   -4.7124 H   0  0  0  0  0  0  0  0  0  0  0  0
    3.2011   -4.2404   -3.1479 H   0  0  0  0  0  0  0  0  0  0  0  0
    7.0931   -4.8532    0.6249 H   0  0  0  0  0  0  0  0  0  0  0  0
    3.9330   -5.2441   -1.2347 H   0  0  0  0  0  0  0  0  0  0  0  0
  1 16  2  0
  1  2  1  0
  1 17  1  0
  2  3  2  0
  2 18  1  0
  3  4  1  0
  3 14  1  0
  4  5  1  0
  4 23  1  0
  5 13  1  0
  5  6  2  0
  6  7  1  0
  7  8  2  0
  7 19  1  0
  8  9  1  0
  9 13  2  0
  9 10  1  0
 10 11  1  0
 11 12  2  0
 11 20  1  0
 12 13  1  0
 12 21  1  0
 14 15  2  0
 14 22  1  0
 15 16  1  0
M  END
>  <i_m_ct_stereo_status>  (199) 
1

>  <s_m_source_file>  (199) 
/var/tmp/pbs.5076255.sched01/tmp323fbwsu/45qgza_o8k.sdf

>  <i_m_source_file_index>  (199) 
35

>  <i_lp_mmshare_version>  (199) 
48012

>  <i_f3d_flags>  (199) 
0

>  <s_epik_input>  (199) 
W2NIXTFubltjSF1bY0hdYzEvTj1jKFxbbkhdW2NIXW4yKWMoYzIzKVtjSF1bY0hdczM=

>  <s_epik_cmdline>  (199) 
J2VwaWtfcHl0aG9uJywgJy1waHQnLCAnMi4wJywgJy1waCcsICc3LjAnLCAnLXRuJywgJzgnLCAnLW1hJywgJzIwMCcsICctaW1hZScsICc8aW5maWxlLm1hZT4nLCAnLW9tYWUnLCAnPG91dGZpbGUubWFlPic=

>  <r_lp_tautomer_probability>  (199) 
0.999997

>  <r_epik_Ionization_Penalty>  (199) 
0.0879623

>  <r_epik_Ionization_Penalty_Charging>  (199) 
0

>  <r_epik_Ionization_Penalty_Neutral>  (199) 
0.0879623

>  <r_epik_State_Penalty>  (199) 
0.0774917

>  <r_epik_Charging_Adjusted_Penalty>  (199) 
0.0774917

>  <i_epik_Tot_Q>  (199) 
0

>  <i_epik_Tot_abs_Q>  (199) 
0

>  <s_lp_Force_Field>  (199) 
OPLS3e

>  <r_lp_Energy>  (199) 
31.096

>  <b_lp_Chiralities_Consistent>  (199) 
1

>  <s_lp_Variant>  (199) 
54:0-1

>  <s_i_glide_gridfile>  (199) 
pfpi4k_grid

>  <i_i_glide_lignum>  (199) 
35

>  <i_i_glide_rotatable_bonds>  (199) 
2

>  <r_i_docking_score>  (199) 
-4.06815

>  <r_i_glide_ligand_efficiency>  (199) 
-0.25426

>  <r_i_glide_ligand_efficiency_sa>  (199) 
-0.640694

>  <r_i_glide_ligand_efficiency_ln>  (199) 
-1.07835

>  <r_i_glide_gscore>  (199) 
-4.06815

>  <r_i_glide_lipo>  (199) 
-0.762797

>  <r_i_glide_hbond>  (199) 
-0.32

>  <r_i_glide_metal>  (199) 
-0

>  <r_i_glide_rewards>  (199) 
-1.85123

>  <r_i_glide_evdw>  (199) 
-21.1373

>  <r_i_glide_ecoul>  (199) 
-4.67996

>  <r_i_glide_erotb>  (199) 
0.649116

>  <r_i_glide_esite>  (199) 
-0.0243818

>  <r_i_glide_emodel>  (199) 
-32.8545

>  <r_i_glide_energy>  (199) 
-25.8172

>  <r_i_glide_einternal>  (199) 
2.64323

>  <r_i_glide_intrahb_reward>  (199) 
-0

>  <i_i_glide_confnum>  (199) 
5

>  <i_i_glide_posenum>  (199) 
38

>  <r_i_glide_eff_state_penalty>  (199) 
0

>  <ligand_id>  (199) 
54

>  <original_smiles>  (199) 
c1cc(N=c2[nH]cnc3sccc23)cnn1

>  <smiles>  (199) 
[H]c1nc(N([H])c2c([H])nnc([H])c2[H])c2c([H])c([H])sc2n1

$$$$
54:0:2
     RDKit          3D

 23 25  0  0  1  0  0  0  0  0999 V2000
    2.2100   -5.7032    3.3970 C   0  0  0  0  0  0  0  0  0  0  0  0
    2.8176   -4.9593    2.3632 C   0  0  0  0  0  0  0  0  0  0  0  0
    2.4392   -5.2670    1.0358 C   0  0  0  0  0  0  0  0  0  0  0  0
    2.9212   -4.6378   -0.1275 N   0  0  0  0  0  0  0  0  0  0  0  0
    3.6453   -3.4558   -0.3205 C   0  0  0  0  0  0  0  0  0  0  0  0
    4.4587   -2.9576    0.6412 N   0  0  0  0  0  0  0  0  0  0  0  0
    5.1961   -1.8781    0.3751 C   0  0  0  0  0  0  0  0  0  0  0  0
    5.2576   -1.1651   -0.7513 N   0  0  0  0  0  0  0  0  0  0  0  0
    4.4020   -1.6436   -1.6998 C   0  0  0  0  0  0  0  0  0  0  0  0
    4.2008   -0.8943   -3.2683 S   0  0  0  0  0  0  0  0  0  0  0  0
    3.0599   -2.1218   -3.7393 C   0  0  0  0  0  0  0  0  0  0  0  0
    2.7963   -3.0571   -2.7678 C   0  0  0  0  0  0  0  0  0  0  0  0
    3.5668   -2.7963   -1.5681 C   0  0  0  0  0  0  0  0  0  0  0  0
    1.4628   -6.2737    0.8831 C   0  0  0  0  0  0  0  0  0  0  0  0
    0.8822   -6.9170    1.9181 N   0  0  0  0  0  0  0  0  0  0  0  0
    1.2649   -6.6455    3.1662 N   0  0  0  0  0  0  0  0  0  0  0  0
    2.4719   -5.5502    4.4322 H   0  0  0  0  0  0  0  0  0  0  0  0
    3.5428   -4.1996    2.6060 H   0  0  0  0  0  0  0  0  0  0  0  0
    5.8519   -1.5460    1.1722 H   0  0  0  0  0  0  0  0  0  0  0  0
    2.6102   -2.0657   -4.7160 H   0  0  0  0  0  0  0  0  0  0  0  0
    2.0960   -3.8708   -2.8796 H   0  0  0  0  0  0  0  0  0  0  0  0
    1.0851   -6.5320   -0.0939 H   0  0  0  0  0  0  0  0  0  0  0  0
    2.6049   -5.0335   -1.0072 H   0  0  0  0  0  0  0  0  0  0  0  0
  1 16  2  0
  1  2  1  0
  1 17  1  0
  2  3  2  0
  2 18  1  0
  3  4  1  0
  3 14  1  0
  4  5  1  0
  4 23  1  0
  5 13  1  0
  5  6  2  0
  6  7  1  0
  7  8  2  0
  7 19  1  0
  8  9  1  0
  9 13  2  0
  9 10  1  0
 10 11  1  0
 11 12  2  0
 11 20  1  0
 12 13  1  0
 12 21  1  0
 14 15  2  0
 14 22  1  0
 15 16  1  0
M  END
>  <i_m_ct_stereo_status>  (200) 
1

>  <s_m_source_file>  (200) 
/var/tmp/pbs.5076255.sched01/tmp323fbwsu/45qgza_o8k.sdf

>  <i_m_source_file_index>  (200) 
35

>  <i_lp_mmshare_version>  (200) 
48012

>  <i_f3d_flags>  (200) 
0

>  <s_epik_input>  (200) 
W2NIXTFubltjSF1bY0hdYzEvTj1jKFxbbkhdW2NIXW4yKWMoYzIzKVtjSF1bY0hdczM=

>  <s_epik_cmdline>  (200) 
J2VwaWtfcHl0aG9uJywgJy1waHQnLCAnMi4wJywgJy1waCcsICc3LjAnLCAnLXRuJywgJzgnLCAnLW1hJywgJzIwMCcsICctaW1hZScsICc8aW5maWxlLm1hZT4nLCAnLW9tYWUnLCAnPG91dGZpbGUubWFlPic=

>  <r_lp_tautomer_probability>  (200) 
0.999997

>  <r_epik_Ionization_Penalty>  (200) 
0.0879623

>  <r_epik_Ionization_Penalty_Charging>  (200) 
0

>  <r_epik_Ionization_Penalty_Neutral>  (200) 
0.0879623

>  <r_epik_State_Penalty>  (200) 
0.0774917

>  <r_epik_Charging_Adjusted_Penalty>  (200) 
0.0774917

>  <i_epik_Tot_Q>  (200) 
0

>  <i_epik_Tot_abs_Q>  (200) 
0

>  <s_lp_Force_Field>  (200) 
OPLS3e

>  <r_lp_Energy>  (200) 
31.096

>  <b_lp_Chiralities_Consistent>  (200) 
1

>  <s_lp_Variant>  (200) 
54:0-1

>  <s_i_glide_gridfile>  (200) 
pfpi4k_grid

>  <i_i_glide_lignum>  (200) 
35

>  <i_i_glide_rotatable_bonds>  (200) 
2

>  <r_i_docking_score>  (200) 
-3.81185

>  <r_i_glide_ligand_efficiency>  (200) 
-0.23824

>  <r_i_glide_ligand_efficiency_sa>  (200) 
-0.600328

>  <r_i_glide_ligand_efficiency_ln>  (200) 
-1.01041

>  <r_i_glide_gscore>  (200) 
-3.81185

>  <r_i_glide_lipo>  (200) 
-0.37708

>  <r_i_glide_hbond>  (200) 
-0.32

>  <r_i_glide_metal>  (200) 
-0

>  <r_i_glide_rewards>  (200) 
-1.90906

>  <r_i_glide_evdw>  (200) 
-23.5391

>  <r_i_glide_ecoul>  (200) 
-3.66376

>  <r_i_glide_erotb>  (200) 
0.649116

>  <r_i_glide_esite>  (200) 
-0.128301

>  <r_i_glide_emodel>  (200) 
-34.1863

>  <r_i_glide_energy>  (200) 
-27.2029

>  <r_i_glide_einternal>  (200) 
1.53416

>  <r_i_glide_intrahb_reward>  (200) 
-0

>  <i_i_glide_confnum>  (200) 
1

>  <i_i_glide_posenum>  (200) 
33

>  <r_i_glide_eff_state_penalty>  (200) 
0

>  <ligand_id>  (200) 
54

>  <original_smiles>  (200) 
c1cc(N=c2[nH]cnc3sccc23)cnn1

>  <smiles>  (200) 
[H]c1nc(N([H])c2c([H])nnc([H])c2[H])c2c([H])c([H])sc2n1

$$$$
54:1:0
     RDKit          3D

 24 26  0  0  1  0  0  0  0  0999 V2000
    2.6536   -1.9912   -3.6415 C   0  0  0  0  0  0  0  0  0  0  0  0
    3.2832   -2.8806   -2.7639 C   0  0  0  0  0  0  0  0  0  0  0  0
    4.4201   -2.4567   -2.0549 C   0  0  0  0  0  0  0  0  0  0  0  0
    5.0149   -3.3561   -1.1570 N   0  0  0  0  0  0  0  0  0  0  0  0
    6.3038   -3.4180   -0.6093 C   0  0  0  0  0  0  0  0  0  0  0  0
    7.2614   -2.5096   -0.9240 N   0  0  0  0  0  0  0  0  0  0  0  0
    8.4845   -2.6571   -0.3871 C   0  0  0  0  0  0  0  0  0  0  0  0
    8.9252   -3.5996    0.4471 N   0  0  0  0  0  0  0  0  0  0  0  0
    7.9486   -4.5001    0.7608 C   0  0  0  0  0  0  0  0  0  0  0  0
    8.2079   -5.8657    1.8369 S   0  0  0  0  0  0  0  0  0  0  0  0
    6.5652   -6.3898    1.6077 C   0  0  0  0  0  0  0  0  0  0  0  0
    5.8240   -5.6003    0.7639 C   0  0  0  0  0  0  0  0  0  0  0  0
    6.6073   -4.4832    0.2690 C   0  0  0  0  0  0  0  0  0  0  0  0
    4.8236   -1.1222   -2.2723 C   0  0  0  0  0  0  0  0  0  0  0  0
    4.1963   -0.2721   -3.1226 N   0  0  0  0  0  0  0  0  0  0  0  0
    3.1146   -0.7283   -3.7845 N   0  0  0  0  0  0  0  0  0  0  0  0
    1.7734   -2.2507   -4.2118 H   0  0  0  0  0  0  0  0  0  0  0  0
    2.8748   -3.8660   -2.6318 H   0  0  0  0  0  0  0  0  0  0  0  0
    9.2077   -1.9040   -0.6523 H   0  0  0  0  0  0  0  0  0  0  0  0
    6.2291   -7.2811    2.1140 H   0  0  0  0  0  0  0  0  0  0  0  0
    4.7948   -5.7844    0.4902 H   0  0  0  0  0  0  0  0  0  0  0  0
    5.6540   -0.7028   -1.7338 H   0  0  0  0  0  0  0  0  0  0  0  0
    4.4553   -4.1655   -0.9183 H   0  0  0  0  0  0  0  0  0  0  0  0
    2.6050   -0.0988   -4.4084 H   0  0  0  0  0  0  0  0  0  0  0  0
  1 16  2  0
  1  2  1  0
  1 17  1  0
  2  3  2  0
  2 18  1  0
  3  4  1  0
  3 14  1  0
  4  5  1  0
  4 23  1  0
  5 13  1  0
  5  6  2  0
  6  7  1  0
  7  8  2  0
  7 19  1  0
  8  9  1  0
  9 13  2  0
  9 10  1  0
 10 11  1  0
 11 12  2  0
 11 20  1  0
 12 13  1  0
 12 21  1  0
 14 15  2  0
 14 22  1  0
 15 16  1  0
 16 24  1  0
M  CHG  1  16   1
M  END
>  <i_m_ct_stereo_status>  (201) 
1

>  <s_m_source_file>  (201) 
/var/tmp/pbs.5076255.sched01/tmp323fbwsu/45qgza_o8k.sdf

>  <i_m_source_file_index>  (201) 
36

>  <i_lp_mmshare_version>  (201) 
48012

>  <i_f3d_flags>  (201) 
0

>  <s_epik_input>  (201) 
W2NIXTFubltjSF1bY0hdYzEvTj1jKFxbbkhdW2NIXW4yKWMoYzIzKVtjSF1bY0hdczM=

>  <s_epik_cmdline>  (201) 
J2VwaWtfcHl0aG9uJywgJy1waHQnLCAnMi4wJywgJy1waCcsICc3LjAnLCAnLXRuJywgJzgnLCAnLW1hJywgJzIwMCcsICctaW1hZScsICc8aW5maWxlLm1hZT4nLCAnLW9tYWUnLCAnPG91dGZpbGUubWFlPic=

>  <r_lp_tautomer_probability>  (201) 
0.999768

>  <r_epik_Ionization_Penalty>  (201) 
1.17981

>  <r_epik_Ionization_Penalty_Charging>  (201) 
1.17972

>  <r_epik_Ionization_Penalty_Neutral>  (201) 
9.29563e-05

>  <r_epik_State_Penalty>  (201) 
1.24353

>  <r_epik_Charging_Adjusted_Penalty>  (201) 
2.42325

>  <i_epik_Tot_Q>  (201) 
1

>  <i_epik_Tot_abs_Q>  (201) 
1

>  <s_lp_Force_Field>  (201) 
OPLS3e

>  <r_lp_Energy>  (201) 
34.8779

>  <b_lp_Chiralities_Consistent>  (201) 
1

>  <s_lp_Variant>  (201) 
54:0-2

>  <s_i_glide_gridfile>  (201) 
pfpi4k_grid

>  <i_i_glide_lignum>  (201) 
36

>  <i_i_glide_rotatable_bonds>  (201) 
2

>  <r_i_docking_score>  (201) 
-4.53628

>  <r_i_glide_ligand_efficiency>  (201) 
-0.283518

>  <r_i_glide_ligand_efficiency_sa>  (201) 
-0.71442

>  <r_i_glide_ligand_efficiency_ln>  (201) 
-1.20243

>  <r_i_glide_gscore>  (201) 
-4.53628

>  <r_i_glide_lipo>  (201) 
-0.77289

>  <r_i_glide_hbond>  (201) 
-0.15409

>  <r_i_glide_metal>  (201) 
-0

>  <r_i_glide_rewards>  (201) 
-1.83907

>  <r_i_glide_evdw>  (201) 
-24.0593

>  <r_i_glide_ecoul>  (201) 
-7.81172

>  <r_i_glide_erotb>  (201) 
0.644302

>  <r_i_glide_esite>  (201) 
-0.0398175

>  <r_i_glide_emodel>  (201) 
-41.4415

>  <r_i_glide_energy>  (201) 
-31.871

>  <r_i_glide_einternal>  (201) 
0.678499

>  <r_i_glide_intrahb_reward>  (201) 
-0

>  <i_i_glide_confnum>  (201) 
5

>  <i_i_glide_posenum>  (201) 
15

>  <r_i_glide_eff_state_penalty>  (201) 
0

>  <ligand_id>  (201) 
54

>  <original_smiles>  (201) 
c1cc(N=c2[nH]cnc3sccc23)cnn1

>  <smiles>  (201) 
[H]c1nc(N([H])c2c([H])n[n+]([H])c([H])c2[H])c2c([H])c([H])sc2n1

$$$$
54:1:1
     RDKit          3D

 24 26  0  0  1  0  0  0  0  0999 V2000
    4.5898   -6.3231    3.0750 C   0  0  0  0  0  0  0  0  0  0  0  0
    4.4133   -5.3316    2.0945 C   0  0  0  0  0  0  0  0  0  0  0  0
    4.2815   -5.7544    0.7530 C   0  0  0  0  0  0  0  0  0  0  0  0
    3.9740   -4.8946   -0.3119 N   0  0  0  0  0  0  0  0  0  0  0  0
    4.4374   -3.5962   -0.5377 C   0  0  0  0  0  0  0  0  0  0  0  0
    5.3815   -3.0809    0.2946 N   0  0  0  0  0  0  0  0  0  0  0  0
    5.8316   -1.8544    0.0675 C   0  0  0  0  0  0  0  0  0  0  0  0
    5.4941   -1.0303   -0.9155 N   0  0  0  0  0  0  0  0  0  0  0  0
    4.5363   -1.5396   -1.7414 C   0  0  0  0  0  0  0  0  0  0  0  0
    3.8559   -0.6635   -3.1243 S   0  0  0  0  0  0  0  0  0  0  0  0
    2.8543   -2.0233   -3.5163 C   0  0  0  0  0  0  0  0  0  0  0  0
    2.9624   -3.0804   -2.6564 C   0  0  0  0  0  0  0  0  0  0  0  0
    3.9539   -2.8426   -1.6231 C   0  0  0  0  0  0  0  0  0  0  0  0
    4.3616   -7.1376    0.5222 C   0  0  0  0  0  0  0  0  0  0  0  0
    4.5092   -8.0760    1.4911 N   0  0  0  0  0  0  0  0  0  0  0  0
    4.6243   -7.6425    2.7546 N   0  0  0  0  0  0  0  0  0  0  0  0
    4.6702   -6.1090    4.1265 H   0  0  0  0  0  0  0  0  0  0  0  0
    4.3192   -4.2871    2.3734 H   0  0  0  0  0  0  0  0  0  0  0  0
    6.5737   -1.4775    0.7466 H   0  0  0  0  0  0  0  0  0  0  0  0
    2.1605   -1.9705   -4.3287 H   0  0  0  0  0  0  0  0  0  0  0  0
    2.3706   -3.9860   -2.7302 H   0  0  0  0  0  0  0  0  0  0  0  0
    4.2306   -7.4784   -0.4936 H   0  0  0  0  0  0  0  0  0  0  0  0
    3.5279   -5.3136   -1.1293 H   0  0  0  0  0  0  0  0  0  0  0  0
    4.7551   -8.3236    3.4970 H   0  0  0  0  0  0  0  0  0  0  0  0
  1 16  2  0
  1  2  1  0
  1 17  1  0
  2  3  2  0
  2 18  1  0
  3  4  1  0
  3 14  1  0
  4  5  1  0
  4 23  1  0
  5 13  1  0
  5  6  2  0
  6  7  1  0
  7  8  2  0
  7 19  1  0
  8  9  1  0
  9 13  2  0
  9 10  1  0
 10 11  1  0
 11 12  2  0
 11 20  1  0
 12 13  1  0
 12 21  1  0
 14 15  2  0
 14 22  1  0
 15 16  1  0
 16 24  1  0
M  CHG  1  16   1
M  END
>  <i_m_ct_stereo_status>  (202) 
1

>  <s_m_source_file>  (202) 
/var/tmp/pbs.5076255.sched01/tmp323fbwsu/45qgza_o8k.sdf

>  <i_m_source_file_index>  (202) 
36

>  <i_lp_mmshare_version>  (202) 
48012

>  <i_f3d_flags>  (202) 
0

>  <s_epik_input>  (202) 
W2NIXTFubltjSF1bY0hdYzEvTj1jKFxbbkhdW2NIXW4yKWMoYzIzKVtjSF1bY0hdczM=

>  <s_epik_cmdline>  (202) 
J2VwaWtfcHl0aG9uJywgJy1waHQnLCAnMi4wJywgJy1waCcsICc3LjAnLCAnLXRuJywgJzgnLCAnLW1hJywgJzIwMCcsICctaW1hZScsICc8aW5maWxlLm1hZT4nLCAnLW9tYWUnLCAnPG91dGZpbGUubWFlPic=

>  <r_lp_tautomer_probability>  (202) 
0.999768

>  <r_epik_Ionization_Penalty>  (202) 
1.17981

>  <r_epik_Ionization_Penalty_Charging>  (202) 
1.17972

>  <r_epik_Ionization_Penalty_Neutral>  (202) 
9.29563e-05

>  <r_epik_State_Penalty>  (202) 
1.24353

>  <r_epik_Charging_Adjusted_Penalty>  (202) 
2.42325

>  <i_epik_Tot_Q>  (202) 
1

>  <i_epik_Tot_abs_Q>  (202) 
1

>  <s_lp_Force_Field>  (202) 
OPLS3e

>  <r_lp_Energy>  (202) 
34.8779

>  <b_lp_Chiralities_Consistent>  (202) 
1

>  <s_lp_Variant>  (202) 
54:0-2

>  <s_i_glide_gridfile>  (202) 
pfpi4k_grid

>  <i_i_glide_lignum>  (202) 
36

>  <i_i_glide_rotatable_bonds>  (202) 
2

>  <r_i_docking_score>  (202) 
-4.26343

>  <r_i_glide_ligand_efficiency>  (202) 
-0.266464

>  <r_i_glide_ligand_efficiency_sa>  (202) 
-0.671448

>  <r_i_glide_ligand_efficiency_ln>  (202) 
-1.13011

>  <r_i_glide_gscore>  (202) 
-4.26343

>  <r_i_glide_lipo>  (202) 
-0.594663

>  <r_i_glide_hbond>  (202) 
-0.323127

>  <r_i_glide_metal>  (202) 
-0

>  <r_i_glide_rewards>  (202) 
-1.84867

>  <r_i_glide_evdw>  (202) 
-21.2701

>  <r_i_glide_ecoul>  (202) 
-6.95851

>  <r_i_glide_erotb>  (202) 
0.644302

>  <r_i_glide_esite>  (202) 
-0.0339948

>  <r_i_glide_emodel>  (202) 
-36.2286

>  <r_i_glide_energy>  (202) 
-28.2286

>  <r_i_glide_einternal>  (202) 
2.78213

>  <r_i_glide_intrahb_reward>  (202) 
-0

>  <i_i_glide_confnum>  (202) 
6

>  <i_i_glide_posenum>  (202) 
10

>  <r_i_glide_eff_state_penalty>  (202) 
0

>  <ligand_id>  (202) 
54

>  <original_smiles>  (202) 
c1cc(N=c2[nH]cnc3sccc23)cnn1

>  <smiles>  (202) 
[H]c1nc(N([H])c2c([H])n[n+]([H])c([H])c2[H])c2c([H])c([H])sc2n1

$$$$
54:1:2
     RDKit          3D

 24 26  0  0  1  0  0  0  0  0999 V2000
    5.7007   -7.1147    2.0547 C   0  0  0  0  0  0  0  0  0  0  0  0
    5.4740   -6.0968    1.1081 C   0  0  0  0  0  0  0  0  0  0  0  0
    4.1473   -5.8369    0.7072 C   0  0  0  0  0  0  0  0  0  0  0  0
    3.8002   -4.8721   -0.2551 N   0  0  0  0  0  0  0  0  0  0  0  0
    4.4014   -3.6436   -0.5518 C   0  0  0  0  0  0  0  0  0  0  0  0
    5.4194   -3.1763    0.2089 N   0  0  0  0  0  0  0  0  0  0  0  0
    5.9468   -1.9797   -0.0782 C   0  0  0  0  0  0  0  0  0  0  0  0
    5.6105   -1.1393   -1.0566 N   0  0  0  0  0  0  0  0  0  0  0  0
    4.5757   -1.6134   -1.8141 C   0  0  0  0  0  0  0  0  0  0  0  0
    3.8684   -0.7264   -3.1659 S   0  0  0  0  0  0  0  0  0  0  0  0
    2.7631   -2.0305   -3.4728 C   0  0  0  0  0  0  0  0  0  0  0  0
    2.8561   -3.0743   -2.5937 C   0  0  0  0  0  0  0  0  0  0  0  0
    3.9172   -2.8662   -1.6301 C   0  0  0  0  0  0  0  0  0  0  0  0
    3.1497   -6.6563    1.2777 C   0  0  0  0  0  0  0  0  0  0  0  0
    3.3929   -7.6311    2.1827 N   0  0  0  0  0  0  0  0  0  0  0  0
    4.6690   -7.8329    2.5532 N   0  0  0  0  0  0  0  0  0  0  0  0
    6.6753   -7.3889    2.4191 H   0  0  0  0  0  0  0  0  0  0  0  0
    6.3115   -5.5567    0.6905 H   0  0  0  0  0  0  0  0  0  0  0  0
    6.7594   -1.6534    0.5514 H   0  0  0  0  0  0  0  0  0  0  0  0
    2.0503   -1.9516   -4.2774 H   0  0  0  0  0  0  0  0  0  0  0  0
    2.2252   -3.9511   -2.6095 H   0  0  0  0  0  0  0  0  0  0  0  0
    2.1234   -6.5274    0.9820 H   0  0  0  0  0  0  0  0  0  0  0  0
    3.0901   -5.1418   -0.9332 H   0  0  0  0  0  0  0  0  0  0  0  0
    4.8631   -8.5643    3.2430 H   0  0  0  0  0  0  0  0  0  0  0  0
  1 16  2  0
  1  2  1  0
  1 17  1  0
  2  3  2  0
  2 18  1  0
  3  4  1  0
  3 14  1  0
  4  5  1  0
  4 23  1  0
  5 13  1  0
  5  6  2  0
  6  7  1  0
  7  8  2  0
  7 19  1  0
  8  9  1  0
  9 13  2  0
  9 10  1  0
 10 11  1  0
 11 12  2  0
 11 20  1  0
 12 13  1  0
 12 21  1  0
 14 15  2  0
 14 22  1  0
 15 16  1  0
 16 24  1  0
M  CHG  1  16   1
M  END
>  <i_m_ct_stereo_status>  (203) 
1

>  <s_m_source_file>  (203) 
/var/tmp/pbs.5076255.sched01/tmp323fbwsu/45qgza_o8k.sdf

>  <i_m_source_file_index>  (203) 
36

>  <i_lp_mmshare_version>  (203) 
48012

>  <i_f3d_flags>  (203) 
0

>  <s_epik_input>  (203) 
W2NIXTFubltjSF1bY0hdYzEvTj1jKFxbbkhdW2NIXW4yKWMoYzIzKVtjSF1bY0hdczM=

>  <s_epik_cmdline>  (203) 
J2VwaWtfcHl0aG9uJywgJy1waHQnLCAnMi4wJywgJy1waCcsICc3LjAnLCAnLXRuJywgJzgnLCAnLW1hJywgJzIwMCcsICctaW1hZScsICc8aW5maWxlLm1hZT4nLCAnLW9tYWUnLCAnPG91dGZpbGUubWFlPic=

>  <r_lp_tautomer_probability>  (203) 
0.999768

>  <r_epik_Ionization_Penalty>  (203) 
1.17981

>  <r_epik_Ionization_Penalty_Charging>  (203) 
1.17972

>  <r_epik_Ionization_Penalty_Neutral>  (203) 
9.29563e-05

>  <r_epik_State_Penalty>  (203) 
1.24353

>  <r_epik_Charging_Adjusted_Penalty>  (203) 
2.42325

>  <i_epik_Tot_Q>  (203) 
1

>  <i_epik_Tot_abs_Q>  (203) 
1

>  <s_lp_Force_Field>  (203) 
OPLS3e

>  <r_lp_Energy>  (203) 
34.8779

>  <b_lp_Chiralities_Consistent>  (203) 
1

>  <s_lp_Variant>  (203) 
54:0-2

>  <s_i_glide_gridfile>  (203) 
pfpi4k_grid

>  <i_i_glide_lignum>  (203) 
36

>  <i_i_glide_rotatable_bonds>  (203) 
2

>  <r_i_docking_score>  (203) 
-4.00776

>  <r_i_glide_ligand_efficiency>  (203) 
-0.250485

>  <r_i_glide_ligand_efficiency_sa>  (203) 
-0.631182

>  <r_i_glide_ligand_efficiency_ln>  (203) 
-1.06234

>  <r_i_glide_gscore>  (203) 
-4.00776

>  <r_i_glide_lipo>  (203) 
-0.601987

>  <r_i_glide_hbond>  (203) 
-0.277133

>  <r_i_glide_metal>  (203) 
-0

>  <r_i_glide_rewards>  (203) 
-1.83907

>  <r_i_glide_evdw>  (203) 
-21.5703

>  <r_i_glide_ecoul>  (203) 
-5.43507

>  <r_i_glide_erotb>  (203) 
0.644302

>  <r_i_glide_esite>  (203) 
-0.0400971

>  <r_i_glide_emodel>  (203) 
-34.3134

>  <r_i_glide_energy>  (203) 
-27.0054

>  <r_i_glide_einternal>  (203) 
2.69069

>  <r_i_glide_intrahb_reward>  (203) 
-0

>  <i_i_glide_confnum>  (203) 
2

>  <i_i_glide_posenum>  (203) 
25

>  <r_i_glide_eff_state_penalty>  (203) 
0

>  <ligand_id>  (203) 
54

>  <original_smiles>  (203) 
c1cc(N=c2[nH]cnc3sccc23)cnn1

>  <smiles>  (203) 
[H]c1nc(N([H])c2c([H])n[n+]([H])c([H])c2[H])c2c([H])c([H])sc2n1

$$$$
55:0:0
     RDKit          3D

 61 65  0  0  1  0  0  0  0  0999 V2000
    0.0095   -8.5781    2.5737 C   0  0  0  0  0  0  0  0  0  0  0  0
    0.8054   -7.8946    3.5325 O   0  0  0  0  0  0  0  0  0  0  0  0
    1.0323   -6.5785    3.3642 C   0  0  0  0  0  0  0  0  0  0  0  0
    0.6804   -5.9388    2.3687 O   0  0  0  0  0  0  0  0  0  0  0  0
    1.7553   -5.9059    4.5655 C   0  0  1  0  0  0  0  0  0  0  0  0
    0.8265   -6.0725    5.7866 C   0  0  0  0  0  0  0  0  0  0  0  0
    3.1320   -6.5682    4.8995 C   0  0  0  0  0  0  0  0  0  0  0  0
    4.2827   -6.2754    3.9107 C   0  0  0  0  0  0  0  0  0  0  0  0
    4.4796   -4.7600    3.6175 C   0  0  2  0  0  0  0  0  0  0  0  0
    5.1418   -4.0866    4.8480 C   0  0  0  0  0  0  0  0  0  0  0  0
    3.1211   -4.1438    3.3227 C   0  0  0  0  0  0  0  0  0  0  0  0
    3.0880   -3.6380    2.0693 C   0  0  0  0  0  0  0  0  0  0  0  0
    4.0034   -4.5894    1.2982 C   0  0  1  0  0  0  0  0  0  0  0  0
    4.1679   -4.5146   -0.2604 C   0  0  0  0  0  0  0  0  0  0  0  0
    4.4302   -3.1486   -0.8498 C   0  0  2  0  0  0  0  0  0  0  0  0
    3.2840   -2.2761   -0.4527 C   0  0  1  0  0  0  0  0  0  0  0  0
    3.6728   -1.4230    0.7305 C   0  0  1  0  0  0  0  0  0  0  0  0
    2.6163   -0.5209    0.9380 O   0  0  0  0  0  0  0  0  0  0  0  0
    3.9160   -2.3290    1.9909 C   0  0  1  0  0  0  0  0  0  0  0  0
    3.6893   -1.4920    3.1132 O   0  0  0  0  0  0  0  0  0  0  0  0
    5.3759   -2.8635    2.1225 C   0  0  0  0  0  0  0  0  0  0  0  0
    5.1901   -4.4041    2.2519 C   0  0  1  0  0  0  0  0  0  0  0  0
    6.4568   -5.2154    1.9245 C   0  0  0  0  0  0  0  0  0  0  0  0
    3.7092   -2.3131   -1.8962 C   0  0  0  0  0  0  0  0  0  0  0  0
    4.3617   -1.0856   -2.4992 C   0  0  0  0  0  0  0  0  0  0  0  0
    2.8381   -3.0002   -2.9316 C   0  0  0  0  0  0  0  0  0  0  0  0
    1.9925   -4.3894    4.3005 C   0  0  0  0  0  0  0  0  0  0  0  0
   -0.1477   -9.6146    2.8728 H   0  0  0  0  0  0  0  0  0  0  0  0
    0.4995   -8.5702    1.5993 H   0  0  0  0  0  0  0  0  0  0  0  0
   -0.9701   -8.1065    2.4665 H   0  0  0  0  0  0  0  0  0  0  0  0
    1.2311   -5.5935    6.6808 H   0  0  0  0  0  0  0  0  0  0  0  0
    0.6691   -7.1222    6.0481 H   0  0  0  0  0  0  0  0  0  0  0  0
   -0.1563   -5.6404    5.6038 H   0  0  0  0  0  0  0  0  0  0  0  0
    3.4413   -6.2551    5.9001 H   0  0  0  0  0  0  0  0  0  0  0  0
    3.0160   -7.6490    4.9687 H   0  0  0  0  0  0  0  0  0  0  0  0
    5.2133   -6.6794    4.3082 H   0  0  0  0  0  0  0  0  0  0  0  0
    4.1066   -6.8514    3.0035 H   0  0  0  0  0  0  0  0  0  0  0  0
    6.2096   -4.3111    4.8998 H   0  0  0  0  0  0  0  0  0  0  0  0
    4.6917   -4.4115    5.7855 H   0  0  0  0  0  0  0  0  0  0  0  0
    5.0312   -3.0032    4.8378 H   0  0  0  0  0  0  0  0  0  0  0  0
    3.5788   -5.5852    1.4256 H   0  0  0  0  0  0  0  0  0  0  0  0
    4.9694   -5.1778   -0.5859 H   0  0  0  0  0  0  0  0  0  0  0  0
    3.2634   -4.9127   -0.7088 H   0  0  0  0  0  0  0  0  0  0  0  0
    5.4533   -2.8097   -0.7245 H   0  0  0  0  0  0  0  0  0  0  0  0
    2.3070   -2.7301   -0.3167 H   0  0  0  0  0  0  0  0  0  0  0  0
    4.5662   -0.8372    0.4945 H   0  0  0  0  0  0  0  0  0  0  0  0
    1.9411   -0.6549    0.2529 H   0  0  0  0  0  0  0  0  0  0  0  0
    2.9369   -0.9608    2.8750 H   0  0  0  0  0  0  0  0  0  0  0  0
    5.9786   -2.6083    1.2566 H   0  0  0  0  0  0  0  0  0  0  0  0
    5.9122   -2.4091    2.9560 H   0  0  0  0  0  0  0  0  0  0  0  0
    6.8884   -4.9038    0.9741 H   0  0  0  0  0  0  0  0  0  0  0  0
    6.2467   -6.2784    1.8554 H   0  0  0  0  0  0  0  0  0  0  0  0
    7.2216   -5.0752    2.6884 H   0  0  0  0  0  0  0  0  0  0  0  0
    3.5995   -0.3777   -2.8353 H   0  0  0  0  0  0  0  0  0  0  0  0
    4.9836   -1.3762   -3.3458 H   0  0  0  0  0  0  0  0  0  0  0  0
    4.9867   -0.5881   -1.7582 H   0  0  0  0  0  0  0  0  0  0  0  0
    2.0978   -2.3125   -3.3430 H   0  0  0  0  0  0  0  0  0  0  0  0
    2.3032   -3.8362   -2.4743 H   0  0  0  0  0  0  0  0  0  0  0  0
    3.4529   -3.3919   -3.7423 H   0  0  0  0  0  0  0  0  0  0  0  0
    1.0826   -3.8898    3.9602 H   0  0  0  0  0  0  0  0  0  0  0  0
    2.2711   -3.9101    5.2454 H   0  0  0  0  0  0  0  0  0  0  0  0
  1  2  1  0
  1 28  1  0
  1 29  1  0
  1 30  1  0
  2  3  1  0
  3  4  2  0
  3  5  1  0
  5 27  1  0
  5  6  1  1
  5  7  1  0
  6 31  1  0
  6 32  1  0
  6 33  1  0
  7  8  1  0
  7 34  1  0
  7 35  1  0
  8  9  1  0
  8 36  1  0
  8 37  1  0
  9 22  1  0
  9 10  1  1
  9 11  1  0
 10 38  1  0
 10 39  1  0
 10 40  1  0
 11 12  2  0
 11 27  1  0
 12 19  1  0
 12 13  1  0
 13 22  1  0
 13 14  1  0
 13 41  1  6
 14 15  1  0
 14 42  1  0
 14 43  1  0
 15 24  1  0
 15 16  1  0
 15 44  1  1
 16 17  1  0
 16 24  1  0
 16 45  1  6
 17 18  1  0
 17 19  1  0
 17 46  1  6
 18 47  1  0
 19 20  1  1
 19 21  1  0
 20 48  1  0
 21 22  1  0
 21 49  1  0
 21 50  1  0
 22 23  1  6
 23 51  1  0
 23 52  1  0
 23 53  1  0
 24 25  1  0
 24 26  1  0
 25 54  1  0
 25 55  1  0
 25 56  1  0
 26 57  1  0
 26 58  1  0
 26 59  1  0
 27 60  1  0
 27 61  1  0
M  END
>  <i_m_ct_stereo_status>  (204) 
1

>  <s_m_source_file>  (204) 
/var/tmp/pbs.5076255.sched01/tmp323fbwsu/45qgza_o8k.sdf

>  <i_m_source_file_index>  (204) 
37

>  <i_lp_mmshare_version>  (204) 
48012

>  <i_f3d_flags>  (204) 
1

>  <s_epik_input>  (204) 
W0NIM11PQyg9TylbQ0BAXShbQ0gzXSkoW0NIMl1bQ0gyXTEpW0NIMl1DKFtDQEBdMTJbQ0gzXSk9QzNbQ0BASF00W0NAQF0yKFtDSDNdKVtDSDJdW0NAQF0zKFtPSF0pW0NASF0oW09IXSlbQ0BASF01W0NAQEhdKFtDSDJdNClDNShbQ0gzXSlbQ0gzXQ==

>  <s_epik_cmdline>  (204) 
J2VwaWtfcHl0aG9uJywgJy1waHQnLCAnMi4wJywgJy1waCcsICc3LjAnLCAnLXRuJywgJzgnLCAnLW1hJywgJzIwMCcsICctaW1hZScsICc8aW5maWxlLm1hZT4nLCAnLW9tYWUnLCAnPG91dGZpbGUubWFlPic=

>  <r_lp_tautomer_probability>  (204) 
1

>  <r_epik_Ionization_Penalty>  (204) 
5.06058e-07

>  <r_epik_Ionization_Penalty_Charging>  (204) 
0

>  <r_epik_Ionization_Penalty_Neutral>  (204) 
5.06058e-07

>  <r_epik_State_Penalty>  (204) 
-0

>  <r_epik_Charging_Adjusted_Penalty>  (204) 
0

>  <i_epik_Tot_Q>  (204) 
0

>  <i_epik_Tot_abs_Q>  (204) 
0

>  <s_epik_Chemistry_Notes>  (204) 
This compound has an ester and may undergo hydrolysis at high or low pH.

>  <s_lp_Force_Field>  (204) 
OPLS3e

>  <r_lp_Energy>  (204) 
119.409

>  <b_lp_Chiralities_Consistent>  (204) 
1

>  <s_lp_Variant>  (204) 
55:0-1

>  <s_i_glide_gridfile>  (204) 
pfpi4k_grid

>  <i_i_glide_lignum>  (204) 
37

>  <i_i_glide_rotatable_bonds>  (204) 
4

>  <r_i_docking_score>  (204) 
-3.32412

>  <r_i_glide_ligand_efficiency>  (204) 
-0.123116

>  <r_i_glide_ligand_efficiency_sa>  (204) 
-0.369347

>  <r_i_glide_ligand_efficiency_ln>  (204) 
-0.773801

>  <r_i_glide_gscore>  (204) 
-3.32412

>  <r_i_glide_lipo>  (204) 
-0.199798

>  <r_i_glide_hbond>  (204) 
-0.0985526

>  <r_i_glide_metal>  (204) 
-0

>  <r_i_glide_rewards>  (204) 
-0.855589

>  <r_i_glide_evdw>  (204) 
-24.508

>  <r_i_glide_ecoul>  (204) 
-7.05317

>  <r_i_glide_erotb>  (204) 
0.137864

>  <r_i_glide_esite>  (204) 
-0.0246741

>  <r_i_glide_emodel>  (204) 
-37.4695

>  <r_i_glide_energy>  (204) 
-31.5612

>  <r_i_glide_einternal>  (204) 
1.751

>  <r_i_glide_intrahb_reward>  (204) 
-0

>  <i_i_glide_confnum>  (204) 
6

>  <i_i_glide_posenum>  (204) 
25

>  <r_i_glide_eff_state_penalty>  (204) 
0

>  <ligand_id>  (204) 
55

>  <original_smiles>  (204) 
COC(=O)C1(C)CCC2(C)C(=C3C4CC5C(C(O)C3(O)CC42C)C5(C)C)C1

>  <smiles>  (204) 
[H]OC1([H])C2(O[H])C3=C4C([H])([H])C(C(=O)OC([H])([H])[H])(C([H])([H])[H])C([H])([H])C([H])([H])C4(C([H])([H])[H])C(C([H])([H])[H])(C2([H])[H])C3([H])C([H])([H])C2([H])C1([H])C2(C([H])([H])[H])C([H])([H])[H]

$$$$
55:0:1
     RDKit          3D

 61 65  0  0  1  0  0  0  0  0999 V2000
   -0.3984   -9.8154    2.7549 C   0  0  0  0  0  0  0  0  0  0  0  0
   -0.6567   -8.5787    2.0991 O   0  0  0  0  0  0  0  0  0  0  0  0
   -0.0466   -7.3832    2.4257 C   0  0  0  0  0  0  0  0  0  0  0  0
   -0.1282   -6.3771    1.6706 O   0  0  0  0  0  0  0  0  0  0  0  0
    0.5232   -7.2422    3.8656 C   0  0  1  0  0  0  0  0  0  0  0  0
   -0.6628   -7.4483    4.8749 C   0  0  0  0  0  0  0  0  0  0  0  0
    1.7434   -8.2036    4.1717 C   0  0  0  0  0  0  0  0  0  0  0  0
    3.0713   -7.8540    3.4062 C   0  0  0  0  0  0  0  0  0  0  0  0
    3.5251   -6.3763    3.6388 C   0  0  2  0  0  0  0  0  0  0  0  0
    4.0556   -6.2539    5.0912 C   0  0  0  0  0  0  0  0  0  0  0  0
    2.3629   -5.4722    3.3773 C   0  0  0  0  0  0  0  0  0  0  0  0
    2.6440   -4.5855    2.3897 C   0  0  0  0  0  0  0  0  0  0  0  0
    3.5114   -5.4482    1.4569 C   0  0  1  0  0  0  0  0  0  0  0  0
    3.9723   -4.9407    0.0394 C   0  0  0  0  0  0  0  0  0  0  0  0
    4.5124   -3.5450   -0.0334 C   0  0  2  0  0  0  0  0  0  0  0  0
    3.4625   -2.5912    0.4774 C   0  0  1  0  0  0  0  0  0  0  0  0
    3.7594   -2.2394    1.9009 C   0  0  1  0  0  0  0  0  0  0  0  0
    2.8500   -1.2107    2.2632 O   0  0  0  0  0  0  0  0  0  0  0  0
    3.6624   -3.5022    2.8419 C   0  0  1  0  0  0  0  0  0  0  0  0
    3.3682   -3.0208    4.1521 O   0  0  0  0  0  0  0  0  0  0  0  0
    4.9613   -4.3455    2.9566 C   0  0  0  0  0  0  0  0  0  0  0  0
    4.5298   -5.7881    2.5497 C   0  0  1  0  0  0  0  0  0  0  0  0
    5.6851   -6.7055    2.1463 C   0  0  0  0  0  0  0  0  0  0  0  0
    4.1400   -2.3164   -0.8396 C   0  0  0  0  0  0  0  0  0  0  0  0
    5.0846   -1.1319   -0.9119 C   0  0  0  0  0  0  0  0  0  0  0  0
    3.3889   -2.5047   -2.1465 C   0  0  0  0  0  0  0  0  0  0  0  0
    1.0212   -5.7733    4.0972 C   0  0  0  0  0  0  0  0  0  0  0  0
   -1.0879  -10.5315    2.3291 H   0  0  0  0  0  0  0  0  0  0  0  0
   -0.5510   -9.7503    3.8182 H   0  0  0  0  0  0  0  0  0  0  0  0
    0.6277  -10.1102    2.5428 H   0  0  0  0  0  0  0  0  0  0  0  0
   -0.3028   -7.2914    5.8890 H   0  0  0  0  0  0  0  0  0  0  0  0
   -1.1318   -8.4257    4.8256 H   0  0  0  0  0  0  0  0  0  0  0  0
   -1.4481   -6.7170    4.6614 H   0  0  0  0  0  0  0  0  0  0  0  0
    1.9466   -8.1447    5.2375 H   0  0  0  0  0  0  0  0  0  0  0  0
    1.5479   -9.2561    3.9690 H   0  0  0  0  0  0  0  0  0  0  0  0
    3.8544   -8.5309    3.7481 H   0  0  0  0  0  0  0  0  0  0  0  0
    2.9706   -8.0973    2.3477 H   0  0  0  0  0  0  0  0  0  0  0  0
    5.0426   -6.6945    5.2028 H   0  0  0  0  0  0  0  0  0  0  0  0
    3.3962   -6.7450    5.8035 H   0  0  0  0  0  0  0  0  0  0  0  0
    4.0959   -5.2176    5.4195 H   0  0  0  0  0  0  0  0  0  0  0  0
    2.9436   -6.3395    1.1823 H   0  0  0  0  0  0  0  0  0  0  0  0
    4.7144   -5.6239   -0.3724 H   0  0  0  0  0  0  0  0  0  0  0  0
    3.1158   -5.0139   -0.6404 H   0  0  0  0  0  0  0  0  0  0  0  0
    5.5567   -3.4713    0.3019 H   0  0  0  0  0  0  0  0  0  0  0  0
    2.4055   -2.8738    0.3411 H   0  0  0  0  0  0  0  0  0  0  0  0
    4.7668   -1.8125    1.9848 H   0  0  0  0  0  0  0  0  0  0  0  0
    3.0847   -0.8619    3.0852 H   0  0  0  0  0  0  0  0  0  0  0  0
    4.0732   -2.4857    4.4187 H   0  0  0  0  0  0  0  0  0  0  0  0
    5.7418   -3.9836    2.2982 H   0  0  0  0  0  0  0  0  0  0  0  0
    5.4165   -4.3140    3.9385 H   0  0  0  0  0  0  0  0  0  0  0  0
    6.3301   -6.2280    1.4054 H   0  0  0  0  0  0  0  0  0  0  0  0
    5.3321   -7.6444    1.7093 H   0  0  0  0  0  0  0  0  0  0  0  0
    6.3082   -6.9559    3.0078 H   0  0  0  0  0  0  0  0  0  0  0  0
    4.5250   -0.2171   -1.0909 H   0  0  0  0  0  0  0  0  0  0  0  0
    5.8062   -1.2654   -1.7176 H   0  0  0  0  0  0  0  0  0  0  0  0
    5.6333   -1.0056    0.0213 H   0  0  0  0  0  0  0  0  0  0  0  0
    2.8240   -1.6064   -2.4032 H   0  0  0  0  0  0  0  0  0  0  0  0
    2.6742   -3.3237   -2.0739 H   0  0  0  0  0  0  0  0  0  0  0  0
    4.0779   -2.7357   -2.9571 H   0  0  0  0  0  0  0  0  0  0  0  0
    0.2908   -5.0155    3.8226 H   0  0  0  0  0  0  0  0  0  0  0  0
    1.2277   -5.6323    5.1594 H   0  0  0  0  0  0  0  0  0  0  0  0
  1  2  1  0
  1 28  1  0
  1 29  1  0
  1 30  1  0
  2  3  1  0
  3  4  2  0
  3  5  1  0
  5 27  1  0
  5  6  1  1
  5  7  1  0
  6 31  1  0
  6 32  1  0
  6 33  1  0
  7  8  1  0
  7 34  1  0
  7 35  1  0
  8  9  1  0
  8 36  1  0
  8 37  1  0
  9 22  1  0
  9 10  1  1
  9 11  1  0
 10 38  1  0
 10 39  1  0
 10 40  1  0
 11 12  2  0
 11 27  1  0
 12 19  1  0
 12 13  1  0
 13 22  1  0
 13 14  1  0
 13 41  1  6
 14 15  1  0
 14 42  1  0
 14 43  1  0
 15 24  1  0
 15 16  1  0
 15 44  1  1
 16 17  1  0
 16 24  1  0
 16 45  1  6
 17 18  1  0
 17 19  1  0
 17 46  1  6
 18 47  1  0
 19 20  1  1
 19 21  1  0
 20 48  1  0
 21 22  1  0
 21 49  1  0
 21 50  1  0
 22 23  1  6
 23 51  1  0
 23 52  1  0
 23 53  1  0
 24 25  1  0
 24 26  1  0
 25 54  1  0
 25 55  1  0
 25 56  1  0
 26 57  1  0
 26 58  1  0
 26 59  1  0
 27 60  1  0
 27 61  1  0
M  END
>  <i_m_ct_stereo_status>  (205) 
1

>  <s_m_source_file>  (205) 
/var/tmp/pbs.5076255.sched01/tmp323fbwsu/45qgza_o8k.sdf

>  <i_m_source_file_index>  (205) 
37

>  <i_lp_mmshare_version>  (205) 
48012

>  <i_f3d_flags>  (205) 
1

>  <s_epik_input>  (205) 
W0NIM11PQyg9TylbQ0BAXShbQ0gzXSkoW0NIMl1bQ0gyXTEpW0NIMl1DKFtDQEBdMTJbQ0gzXSk9QzNbQ0BASF00W0NAQF0yKFtDSDNdKVtDSDJdW0NAQF0zKFtPSF0pW0NASF0oW09IXSlbQ0BASF01W0NAQEhdKFtDSDJdNClDNShbQ0gzXSlbQ0gzXQ==

>  <s_epik_cmdline>  (205) 
J2VwaWtfcHl0aG9uJywgJy1waHQnLCAnMi4wJywgJy1waCcsICc3LjAnLCAnLXRuJywgJzgnLCAnLW1hJywgJzIwMCcsICctaW1hZScsICc8aW5maWxlLm1hZT4nLCAnLW9tYWUnLCAnPG91dGZpbGUubWFlPic=

>  <r_lp_tautomer_probability>  (205) 
1

>  <r_epik_Ionization_Penalty>  (205) 
5.06058e-07

>  <r_epik_Ionization_Penalty_Charging>  (205) 
0

>  <r_epik_Ionization_Penalty_Neutral>  (205) 
5.06058e-07

>  <r_epik_State_Penalty>  (205) 
-0

>  <r_epik_Charging_Adjusted_Penalty>  (205) 
0

>  <i_epik_Tot_Q>  (205) 
0

>  <i_epik_Tot_abs_Q>  (205) 
0

>  <s_epik_Chemistry_Notes>  (205) 
This compound has an ester and may undergo hydrolysis at high or low pH.

>  <s_lp_Force_Field>  (205) 
OPLS3e

>  <r_lp_Energy>  (205) 
119.409

>  <b_lp_Chiralities_Consistent>  (205) 
1

>  <s_lp_Variant>  (205) 
55:0-1

>  <s_i_glide_gridfile>  (205) 
pfpi4k_grid

>  <i_i_glide_lignum>  (205) 
37

>  <i_i_glide_rotatable_bonds>  (205) 
4

>  <r_i_docking_score>  (205) 
-2.87079

>  <r_i_glide_ligand_efficiency>  (205) 
-0.106325

>  <r_i_glide_ligand_efficiency_sa>  (205) 
-0.318976

>  <r_i_glide_ligand_efficiency_ln>  (205) 
-0.668272

>  <r_i_glide_gscore>  (205) 
-2.87079

>  <r_i_glide_lipo>  (205) 
-0.0936236

>  <r_i_glide_hbond>  (205) 
-0.300953

>  <r_i_glide_metal>  (205) 
-0

>  <r_i_glide_rewards>  (205) 
-0.855589

>  <r_i_glide_evdw>  (205) 
-26.109

>  <r_i_glide_ecoul>  (205) 
-2.58636

>  <r_i_glide_erotb>  (205) 
0.137864

>  <r_i_glide_esite>  (205) 
-0.0650817

>  <r_i_glide_emodel>  (205) 
-31.5189

>  <r_i_glide_energy>  (205) 
-28.6953

>  <r_i_glide_einternal>  (205) 
5.40934

>  <r_i_glide_intrahb_reward>  (205) 
-0

>  <i_i_glide_confnum>  (205) 
1

>  <i_i_glide_posenum>  (205) 
14

>  <r_i_glide_eff_state_penalty>  (205) 
0

>  <ligand_id>  (205) 
55

>  <original_smiles>  (205) 
COC(=O)C1(C)CCC2(C)C(=C3C4CC5C(C(O)C3(O)CC42C)C5(C)C)C1

>  <smiles>  (205) 
[H]OC1([H])C2(O[H])C3=C4C([H])([H])C(C(=O)OC([H])([H])[H])(C([H])([H])[H])C([H])([H])C([H])([H])C4(C([H])([H])[H])C(C([H])([H])[H])(C2([H])[H])C3([H])C([H])([H])C2([H])C1([H])C2(C([H])([H])[H])C([H])([H])[H]

$$$$
55:0:2
     RDKit          3D

 61 65  0  0  1  0  0  0  0  0999 V2000
    2.0598   -5.2609    6.4972 C   0  0  0  0  0  0  0  0  0  0  0  0
    1.8758   -4.1383    5.6708 O   0  0  0  0  0  0  0  0  0  0  0  0
    2.8711   -3.5159    4.9848 C   0  0  0  0  0  0  0  0  0  0  0  0
    2.6611   -2.5534    4.2481 O   0  0  0  0  0  0  0  0  0  0  0  0
    4.3450   -3.9116    5.3581 C   0  0  1  0  0  0  0  0  0  0  0  0
    4.6454   -3.2554    6.7377 C   0  0  0  0  0  0  0  0  0  0  0  0
    4.6636   -5.4683    5.4059 C   0  0  0  0  0  0  0  0  0  0  0  0
    4.6075   -6.1917    4.0286 C   0  0  0  0  0  0  0  0  0  0  0  0
    5.5600   -5.5407    2.9903 C   0  0  2  0  0  0  0  0  0  0  0  0
    7.0229   -5.8740    3.3843 C   0  0  0  0  0  0  0  0  0  0  0  0
    5.3087   -4.0401    2.9762 C   0  0  0  0  0  0  0  0  0  0  0  0
    4.9329   -3.6353    1.7433 C   0  0  0  0  0  0  0  0  0  0  0  0
    4.0914   -4.8294    1.2637 C   0  0  1  0  0  0  0  0  0  0  0  0
    3.2654   -4.7672   -0.0634 C   0  0  0  0  0  0  0  0  0  0  0  0
    4.0126   -4.2208   -1.2531 C   0  0  2  0  0  0  0  0  0  0  0  0
    4.4469   -2.8074   -0.9818 C   0  0  1  0  0  0  0  0  0  0  0  0
    5.9002   -2.8543   -0.6160 C   0  0  1  0  0  0  0  0  0  0  0  0
    6.3056   -1.4985   -0.5312 O   0  0  0  0  0  0  0  0  0  0  0  0
    6.1084   -3.6666    0.7193 C   0  0  1  0  0  0  0  0  0  0  0  0
    7.3080   -3.1673    1.2795 O   0  0  0  0  0  0  0  0  0  0  0  0
    6.3108   -5.2042    0.5477 C   0  0  0  0  0  0  0  0  0  0  0  0
    5.2307   -5.8367    1.4696 C   0  0  1  0  0  0  0  0  0  0  0  0
    4.9073   -7.3030    1.1391 C   0  0  0  0  0  0  0  0  0  0  0  0
    3.6840   -3.1166   -2.2542 C   0  0  0  0  0  0  0  0  0  0  0  0
    4.4431   -3.0195   -3.5731 C   0  0  0  0  0  0  0  0  0  0  0  0
    2.2507   -2.7075   -2.4127 C   0  0  0  0  0  0  0  0  0  0  0  0
    5.3039   -3.2931    4.3155 C   0  0  0  0  0  0  0  0  0  0  0  0
    1.2133   -5.5559    7.0628 H   0  0  0  0  0  0  0  0  0  0  0  0
    2.8862   -5.0870    7.2179 H   0  0  0  0  0  0  0  0  0  0  0  0
    2.3476   -6.1131    5.8505 H   0  0  0  0  0  0  0  0  0  0  0  0
    5.6771   -3.4328    7.0514 H   0  0  0  0  0  0  0  0  0  0  0  0
    4.0084   -3.6255    7.5359 H   0  0  0  0  0  0  0  0  0  0  0  0
    4.4916   -2.1699    6.7066 H   0  0  0  0  0  0  0  0  0  0  0  0
    5.6388   -5.5937    5.8391 H   0  0  0  0  0  0  0  0  0  0  0  0
    4.1166   -6.0391    6.1218 H   0  0  0  0  0  0  0  0  0  0  0  0
    4.8876   -7.2374    4.1855 H   0  0  0  0  0  0  0  0  0  0  0  0
    3.5767   -6.2478    3.6709 H   0  0  0  0  0  0  0  0  0  0  0  0
    7.2741   -6.9047    3.1428 H   0  0  0  0  0  0  0  0  0  0  0  0
    7.2041   -5.7441    4.4475 H   0  0  0  0  0  0  0  0  0  0  0  0
    7.7443   -5.2296    2.8887 H   0  0  0  0  0  0  0  0  0  0  0  0
    3.2929   -5.0192    1.9832 H   0  0  0  0  0  0  0  0  0  0  0  0
    2.9073   -5.7693   -0.3134 H   0  0  0  0  0  0  0  0  0  0  0  0
    2.3648   -4.1808    0.0953 H   0  0  0  0  0  0  0  0  0  0  0  0
    4.6355   -4.9566   -1.7491 H   0  0  0  0  0  0  0  0  0  0  0  0
    3.8474   -2.2339   -0.2700 H   0  0  0  0  0  0  0  0  0  0  0  0
    6.4882   -3.3145   -1.4147 H   0  0  0  0  0  0  0  0  0  0  0  0
    5.7354   -1.0588    0.0822 H   0  0  0  0  0  0  0  0  0  0  0  0
    7.2049   -2.2388    1.4322 H   0  0  0  0  0  0  0  0  0  0  0  0
    6.1633   -5.5179   -0.4736 H   0  0  0  0  0  0  0  0  0  0  0  0
    7.3155   -5.5534    0.7804 H   0  0  0  0  0  0  0  0  0  0  0  0
    4.7020   -7.4301    0.0756 H   0  0  0  0  0  0  0  0  0  0  0  0
    4.0310   -7.6572    1.6827 H   0  0  0  0  0  0  0  0  0  0  0  0
    5.7463   -7.9509    1.3918 H   0  0  0  0  0  0  0  0  0  0  0  0
    4.4786   -1.9828   -3.9204 H   0  0  0  0  0  0  0  0  0  0  0  0
    3.9571   -3.6199   -4.3429 H   0  0  0  0  0  0  0  0  0  0  0  0
    5.4653   -3.3702   -3.4781 H   0  0  0  0  0  0  0  0  0  0  0  0
    2.2118   -1.6446   -2.7566 H   0  0  0  0  0  0  0  0  0  0  0  0
    1.7323   -2.6968   -1.4558 H   0  0  0  0  0  0  0  0  0  0  0  0
    1.6884   -3.3010   -3.1028 H   0  0  0  0  0  0  0  0  0  0  0  0
    5.1649   -2.2183    4.1540 H   0  0  0  0  0  0  0  0  0  0  0  0
    6.2863   -3.3772    4.7586 H   0  0  0  0  0  0  0  0  0  0  0  0
  1  2  1  0
  1 28  1  0
  1 29  1  0
  1 30  1  0
  2  3  1  0
  3  4  2  0
  3  5  1  0
  5 27  1  0
  5  6  1  1
  5  7  1  0
  6 31  1  0
  6 32  1  0
  6 33  1  0
  7  8  1  0
  7 34  1  0
  7 35  1  0
  8  9  1  0
  8 36  1  0
  8 37  1  0
  9 22  1  0
  9 10  1  1
  9 11  1  0
 10 38  1  0
 10 39  1  0
 10 40  1  0
 11 12  2  0
 11 27  1  0
 12 19  1  0
 12 13  1  0
 13 22  1  0
 13 14  1  0
 13 41  1  1
 14 15  1  0
 14 42  1  0
 14 43  1  0
 15 24  1  0
 15 16  1  0
 15 44  1  6
 16 17  1  0
 16 24  1  0
 16 45  1  1
 17 18  1  0
 17 19  1  0
 17 46  1  6
 18 47  1  0
 19 20  1  1
 19 21  1  0
 20 48  1  0
 21 22  1  0
 21 49  1  0
 21 50  1  0
 22 23  1  1
 23 51  1  0
 23 52  1  0
 23 53  1  0
 24 25  1  0
 24 26  1  0
 25 54  1  0
 25 55  1  0
 25 56  1  0
 26 57  1  0
 26 58  1  0
 26 59  1  0
 27 60  1  0
 27 61  1  0
M  END
>  <i_m_ct_stereo_status>  (206) 
1

>  <s_m_source_file>  (206) 
/var/tmp/pbs.5076255.sched01/tmp323fbwsu/45qgza_o8k.sdf

>  <i_m_source_file_index>  (206) 
37

>  <i_lp_mmshare_version>  (206) 
48012

>  <i_f3d_flags>  (206) 
1

>  <s_epik_input>  (206) 
W0NIM11PQyg9TylbQ0BAXShbQ0gzXSkoW0NIMl1bQ0gyXTEpW0NIMl1DKFtDQEBdMTJbQ0gzXSk9QzNbQ0BASF00W0NAQF0yKFtDSDNdKVtDSDJdW0NAQF0zKFtPSF0pW0NASF0oW09IXSlbQ0BASF01W0NAQEhdKFtDSDJdNClDNShbQ0gzXSlbQ0gzXQ==

>  <s_epik_cmdline>  (206) 
J2VwaWtfcHl0aG9uJywgJy1waHQnLCAnMi4wJywgJy1waCcsICc3LjAnLCAnLXRuJywgJzgnLCAnLW1hJywgJzIwMCcsICctaW1hZScsICc8aW5maWxlLm1hZT4nLCAnLW9tYWUnLCAnPG91dGZpbGUubWFlPic=

>  <r_lp_tautomer_probability>  (206) 
1

>  <r_epik_Ionization_Penalty>  (206) 
5.06058e-07

>  <r_epik_Ionization_Penalty_Charging>  (206) 
0

>  <r_epik_Ionization_Penalty_Neutral>  (206) 
5.06058e-07

>  <r_epik_State_Penalty>  (206) 
-0

>  <r_epik_Charging_Adjusted_Penalty>  (206) 
0

>  <i_epik_Tot_Q>  (206) 
0

>  <i_epik_Tot_abs_Q>  (206) 
0

>  <s_epik_Chemistry_Notes>  (206) 
This compound has an ester and may undergo hydrolysis at high or low pH.

>  <s_lp_Force_Field>  (206) 
OPLS3e

>  <r_lp_Energy>  (206) 
119.409

>  <b_lp_Chiralities_Consistent>  (206) 
1

>  <s_lp_Variant>  (206) 
55:0-1

>  <s_i_glide_gridfile>  (206) 
pfpi4k_grid

>  <i_i_glide_lignum>  (206) 
37

>  <i_i_glide_rotatable_bonds>  (206) 
4

>  <r_i_docking_score>  (206) 
-2.19138

>  <r_i_glide_ligand_efficiency>  (206) 
-0.0811622

>  <r_i_glide_ligand_efficiency_sa>  (206) 
-0.243487

>  <r_i_glide_ligand_efficiency_ln>  (206) 
-0.510117

>  <r_i_glide_gscore>  (206) 
-2.19138

>  <r_i_glide_lipo>  (206) 
-0.667867

>  <r_i_glide_hbond>  (206) 
0

>  <r_i_glide_metal>  (206) 
-0

>  <r_i_glide_rewards>  (206) 
-0.855589

>  <r_i_glide_evdw>  (206) 
-10.0617

>  <r_i_glide_ecoul>  (206) 
-2.01803

>  <r_i_glide_erotb>  (206) 
0.137864

>  <r_i_glide_esite>  (206) 
0

>  <r_i_glide_emodel>  (206) 
-12.1799

>  <r_i_glide_energy>  (206) 
-12.0797

>  <r_i_glide_einternal>  (206) 
4.37932

>  <r_i_glide_intrahb_reward>  (206) 
-0

>  <i_i_glide_confnum>  (206) 
4

>  <i_i_glide_posenum>  (206) 
11

>  <r_i_glide_eff_state_penalty>  (206) 
0

>  <ligand_id>  (206) 
55

>  <original_smiles>  (206) 
COC(=O)C1(C)CCC2(C)C(=C3C4CC5C(C(O)C3(O)CC42C)C5(C)C)C1

>  <smiles>  (206) 
[H]OC1([H])C2(O[H])C3=C4C([H])([H])C(C(=O)OC([H])([H])[H])(C([H])([H])[H])C([H])([H])C([H])([H])C4(C([H])([H])[H])C(C([H])([H])[H])(C2([H])[H])C3([H])C([H])([H])C2([H])C1([H])C2(C([H])([H])[H])C([H])([H])[H]

$$$$
56:0:0
     RDKit          3D

 69 74  0  0  1  0  0  0  0  0999 V2000
    1.3238    4.4878    3.9871 C   0  0  0  0  0  0  0  0  0  0  0  0
    1.1377    3.4885    5.0167 O   0  0  0  0  0  0  0  0  0  0  0  0
    1.5138    2.0926    4.8417 C   0  0  2  0  0  0  0  0  0  0  0  0
    1.8320    1.8124    3.3602 C   0  0  0  0  0  0  0  0  0  0  0  0
    0.7558    1.0566    2.5652 C   0  0  2  0  0  0  0  0  0  0  0  0
   -0.6478    1.4265    2.8127 O   0  0  0  0  0  0  0  0  0  0  0  0
   -1.2240    2.3717    3.7891 C   0  0  1  0  0  0  0  0  0  0  0  0
   -2.4614    2.9341    3.0970 C   0  0  0  0  0  0  0  0  0  0  0  0
   -1.5502    1.8805    5.2602 C   0  0  1  0  0  0  0  0  0  0  0  0
   -1.6525    0.4313    5.0077 C   0  0  0  0  0  0  0  0  0  0  0  0
   -0.2210    0.2875    4.8914 O   0  0  0  0  0  0  0  0  0  0  0  0
    0.7055    0.9786    5.7396 C   0  0  1  0  0  0  0  0  0  0  0  0
    1.4780   -0.3902    6.3803 C   0  0  2  0  0  0  0  0  0  0  0  0
    3.1289   -0.6753    6.4798 C   0  0  2  0  0  0  0  0  0  0  0  0
    3.7076    0.5768    6.4554 O   0  0  0  0  0  0  0  0  0  0  0  0
    4.1473    0.5958    5.1360 C   0  0  0  0  0  0  0  0  0  0  0  0
    3.5273   -0.6172    4.3258 C   0  0  1  0  0  0  0  0  0  0  0  0
    4.3552   -0.4512    2.9730 C   0  0  0  0  0  0  0  0  0  0  0  0
    4.0574   -1.5307    5.3404 C   0  0  1  0  0  0  0  0  0  0  0  0
    4.1519   -2.8958    4.4256 C   0  0  0  0  0  0  0  0  0  0  0  0
    3.2947   -3.2405    3.0685 C   0  0  0  0  0  0  0  0  0  0  0  0
    2.5143   -2.2401    2.2925 O   0  0  0  0  0  0  0  0  0  0  0  0
    1.4803   -1.4188    2.8671 C   0  0  2  0  0  0  0  0  0  0  0  0
    1.1842   -0.2485    2.0641 O   0  0  0  0  0  0  0  0  0  0  0  0
    1.9599   -1.1695    4.2936 C   0  0  2  0  0  0  0  0  0  0  0  0
    1.1093   -1.6629    5.5814 C   0  0  0  0  0  0  0  0  0  0  0  0
    1.4862   -2.9444    6.4873 C   0  0  0  0  0  0  0  0  0  0  0  0
   -0.3503   -2.2044    5.2820 C   0  0  0  0  0  0  0  0  0  0  0  0
   -0.4887    1.7386    6.4505 C   0  0  1  0  0  0  0  0  0  0  0  0
   -0.2272    3.0410    7.2618 C   0  0  0  0  0  0  0  0  0  0  0  0
   -0.9613    0.9246    7.5483 O   0  0  0  0  0  0  0  0  0  0  0  0
    0.8811    5.4374    4.3546 H   0  0  0  0  0  0  0  0  0  0  0  0
    0.7273    4.2696    3.1031 H   0  0  0  0  0  0  0  0  0  0  0  0
    2.3425    4.6599    3.6973 H   0  0  0  0  0  0  0  0  0  0  0  0
    2.3889    2.2323    5.4474 H   0  0  0  0  0  0  0  0  0  0  0  0
    2.0416    2.6980    2.7807 H   0  0  0  0  0  0  0  0  0  0  0  0
    2.7890    1.3630    3.1840 H   0  0  0  0  0  0  0  0  0  0  0  0
    0.8108    1.5320    1.5913 H   0  0  0  0  0  0  0  0  0  0  0  0
   -0.7503    3.3412    3.9286 H   0  0  0  0  0  0  0  0  0  0  0  0
   -2.9487    3.7042    3.6800 H   0  0  0  0  0  0  0  0  0  0  0  0
   -3.2398    2.1957    2.8949 H   0  0  0  0  0  0  0  0  0  0  0  0
   -2.2086    3.3609    2.1347 H   0  0  0  0  0  0  0  0  0  0  0  0
   -2.4770    2.3058    5.6521 H   0  0  0  0  0  0  0  0  0  0  0  0
   -2.1389   -0.1400    5.8185 H   0  0  0  0  0  0  0  0  0  0  0  0
   -2.1915    0.1814    4.0899 H   0  0  0  0  0  0  0  0  0  0  0  0
    1.0991   -0.5209    7.3990 H   0  0  0  0  0  0  0  0  0  0  0  0
    3.3470   -1.0316    7.4912 H   0  0  0  0  0  0  0  0  0  0  0  0
    4.1372    1.5869    4.6877 H   0  0  0  0  0  0  0  0  0  0  0  0
    5.2388    0.4595    5.2174 H   0  0  0  0  0  0  0  0  0  0  0  0
    4.8647   -1.3314    2.5975 H   0  0  0  0  0  0  0  0  0  0  0  0
    5.1482    0.2948    3.0329 H   0  0  0  0  0  0  0  0  0  0  0  0
    3.7350   -0.1155    2.1435 H   0  0  0  0  0  0  0  0  0  0  0  0
    3.6455   -2.2722    5.9793 H   0  0  0  0  0  0  0  0  0  0  0  0
    5.1902   -2.8876    4.0862 H   0  0  0  0  0  0  0  0  0  0  0  0
    4.1592   -3.8113    5.0220 H   0  0  0  0  0  0  0  0  0  0  0  0
    3.9829   -3.6808    2.3466 H   0  0  0  0  0  0  0  0  0  0  0  0
    2.6037   -4.0492    3.2989 H   0  0  0  0  0  0  0  0  0  0  0  0
    0.5657   -1.9904    2.8322 H   0  0  0  0  0  0  0  0  0  0  0  0
    1.9483   -2.2118    4.4240 H   0  0  0  0  0  0  0  0  0  0  0  0
    1.8590   -3.7849    5.8925 H   0  0  0  0  0  0  0  0  0  0  0  0
    0.6320   -3.3446    7.0418 H   0  0  0  0  0  0  0  0  0  0  0  0
    2.1882   -2.7979    7.3066 H   0  0  0  0  0  0  0  0  0  0  0  0
   -0.3761   -3.2750    5.0795 H   0  0  0  0  0  0  0  0  0  0  0  0
   -0.8303   -1.8176    4.3882 H   0  0  0  0  0  0  0  0  0  0  0  0
   -1.0146   -2.0255    6.1294 H   0  0  0  0  0  0  0  0  0  0  0  0
   -0.3527    3.9468    6.6730 H   0  0  0  0  0  0  0  0  0  0  0  0
    0.7682    3.0582    7.7125 H   0  0  0  0  0  0  0  0  0  0  0  0
   -0.9370    3.1768    8.0814 H   0  0  0  0  0  0  0  0  0  0  0  0
   -0.3149    0.9867    8.2352 H   0  0  0  0  0  0  0  0  0  0  0  0
  1  2  1  0
  1 32  1  0
  1 33  1  0
  1 34  1  0
  2  3  1  0
  3 12  1  0
  3  4  1  0
  3 35  1  1
  4  5  1  0
  4 36  1  0
  4 37  1  0
  5 24  1  0
  5  6  1  0
  5 38  1  6
  6  7  1  0
  7  8  1  0
  7  9  1  0
  7 39  1  1
  8 40  1  0
  8 41  1  0
  8 42  1  0
  9 29  1  0
  9 10  1  0
  9 43  1  1
 10 11  1  0
 10 44  1  0
 10 45  1  0
 12 11  1  6
 12 13  1  0
 12 29  1  0
 13 26  1  0
 13 14  1  0
 13 46  1  1
 14 19  1  0
 14 15  1  0
 14 47  1  1
 15 16  1  0
 16 17  1  0
 16 48  1  0
 16 49  1  0
 17 25  1  0
 17 18  1  6
 17 19  1  0
 18 50  1  0
 18 51  1  0
 18 52  1  0
 19 20  1  0
 19 53  1  1
 20 21  1  0
 20 54  1  0
 20 55  1  0
 21 22  1  0
 21 56  1  0
 21 57  1  0
 22 23  1  0
 23 24  1  0
 23 25  1  0
 23 58  1  1
 25 26  1  0
 25 59  1  1
 26 27  1  0
 26 28  1  0
 27 60  1  0
 27 61  1  0
 27 62  1  0
 28 63  1  0
 28 64  1  0
 28 65  1  0
 29 30  1  0
 29 31  1  1
 30 66  1  0
 30 67  1  0
 30 68  1  0
 31 69  1  0
M  END
>  <i_m_ct_stereo_status>  (207) 
1

>  <s_m_source_file>  (207) 
/var/tmp/pbs.5076255.sched01/tmp323fbwsu/45qgza_o8k.sdf

>  <i_m_source_file_index>  (207) 
38

>  <i_lp_mmshare_version>  (207) 
48012

>  <i_f3d_flags>  (207) 
0

>  <s_epik_input>  (207) 
TzFbQ0gyXVtDQEBIXShbQ0BAXTIoW0NIM10pW09IXSlbQ0BIXShbQ0gzXSlPW0NASF0oW0NIMl1bQ0BIXTNPW0NIM10pT1tDQEBIXShPW0NIMl1bQ0gyXTQpW0NASF0oQzUoW0NIM10pW0NIM10pW0NAXShbQ0gyXU82KShbQ0gzXSlbQ0BIXTRbQ0BASF02W0NASF01W0NAQF0xMjM=

>  <s_epik_cmdline>  (207) 
J2VwaWtfcHl0aG9uJywgJy1waHQnLCAnMi4wJywgJy1waCcsICc3LjAnLCAnLXRuJywgJzgnLCAnLW1hJywgJzIwMCcsICctaW1hZScsICc8aW5maWxlLm1hZT4nLCAnLW9tYWUnLCAnPG91dGZpbGUubWFlPic=

>  <r_lp_tautomer_probability>  (207) 
1

>  <r_epik_Ionization_Penalty>  (207) 
3.61039e-08

>  <r_epik_Ionization_Penalty_Charging>  (207) 
0

>  <r_epik_Ionization_Penalty_Neutral>  (207) 
3.61039e-08

>  <r_epik_State_Penalty>  (207) 
-0

>  <r_epik_Charging_Adjusted_Penalty>  (207) 
0

>  <i_epik_Tot_Q>  (207) 
0

>  <i_epik_Tot_abs_Q>  (207) 
0

>  <s_epik_Chemistry_Notes>  (207) 
This compound contains an acetal/aminal-like group ( X-CH(R)-Y where X, Y are N, S, or O) that may be acid/base labile, releasing an aldehyde.

>  <s_lp_Force_Field>  (207) 
OPLS3e

>  <r_lp_Energy>  (207) 
432.62

>  <b_lp_Chiralities_Consistent>  (207) 
1

>  <s_lp_Variant>  (207) 
56:0-1

>  <s_i_glide_gridfile>  (207) 
pfpi4k_grid

>  <i_i_glide_lignum>  (207) 
38

>  <i_i_glide_rotatable_bonds>  (207) 
2

>  <r_i_docking_score>  (207) 
-1.49024

>  <r_i_glide_ligand_efficiency>  (207) 
-0.0480721

>  <r_i_glide_ligand_efficiency_sa>  (207) 
-0.151013

>  <r_i_glide_ligand_efficiency_ln>  (207) 
-0.336094

>  <r_i_glide_gscore>  (207) 
-1.49024

>  <r_i_glide_lipo>  (207) 
-0.0694921

>  <r_i_glide_hbond>  (207) 
0

>  <r_i_glide_metal>  (207) 
-0

>  <r_i_glide_rewards>  (207) 
-0.418948

>  <r_i_glide_evdw>  (207) 
-19.0596

>  <r_i_glide_ecoul>  (207) 
-1.42082

>  <r_i_glide_erotb>  (207) 
0

>  <r_i_glide_esite>  (207) 
-0.0612717

>  <r_i_glide_emodel>  (207) 
2.09353

>  <r_i_glide_energy>  (207) 
-20.4804

>  <r_i_glide_einternal>  (207) 
40.0954

>  <r_i_glide_intrahb_reward>  (207) 
-0

>  <i_i_glide_confnum>  (207) 
2

>  <i_i_glide_posenum>  (207) 
1

>  <r_i_glide_eff_state_penalty>  (207) 
0

>  <ligand_id>  (207) 
56

>  <original_smiles>  (207) 
COC1CC2OC(C)C3COC1(C1C4OCC5(C)C4CCOC(O2)C5C1(C)C)C3(C)O

>  <smiles>  (207) 
[H]OC1(C([H])([H])[H])C2([H])C([H])([H])OC13C([H])(OC([H])([H])[H])C([H])([H])C([H])(OC1([H])OC([H])([H])C([H])([H])C4([H])C5([H])OC([H])([H])C4(C([H])([H])[H])C1([H])C(C([H])([H])[H])(C([H])([H])[H])C53[H])OC2([H])C([H])([H])[H]

$$$$
56:0:1
     RDKit          3D

 69 74  0  0  1  0  0  0  0  0999 V2000
    7.0864   -3.4445   -2.3161 C   0  0  0  0  0  0  0  0  0  0  0  0
    6.2102   -2.8279   -1.3985 O   0  0  0  0  0  0  0  0  0  0  0  0
    5.5559   -3.5544   -0.3682 C   0  0  2  0  0  0  0  0  0  0  0  0
    4.5176   -4.3897   -1.1716 C   0  0  0  0  0  0  0  0  0  0  0  0
    3.0454   -3.9927   -1.0735 C   0  0  2  0  0  0  0  0  0  0  0  0
    2.7421   -2.6236   -1.3090 O   0  0  0  0  0  0  0  0  0  0  0  0
    3.7312   -1.5540   -1.5550 C   0  0  1  0  0  0  0  0  0  0  0  0
    3.0098   -0.6227   -2.5228 C   0  0  0  0  0  0  0  0  0  0  0  0
    4.2502   -0.7651   -0.2248 C   0  0  1  0  0  0  0  0  0  0  0  0
    3.2601   -1.0981    0.7725 C   0  0  0  0  0  0  0  0  0  0  0  0
    3.7160   -2.4365    0.8944 O   0  0  0  0  0  0  0  0  0  0  0  0
    5.1026   -2.7571    0.9513 C   0  0  1  0  0  0  0  0  0  0  0  0
    5.1626   -3.5113    2.4357 C   0  0  2  0  0  0  0  0  0  0  0  0
    5.8634   -4.9907    2.7832 C   0  0  2  0  0  0  0  0  0  0  0  0
    6.8172   -5.1966    1.8060 O   0  0  0  0  0  0  0  0  0  0  0  0
    6.1330   -6.1038    1.0012 C   0  0  0  0  0  0  0  0  0  0  0  0
    4.6254   -6.1843    1.4414 C   0  0  1  0  0  0  0  0  0  0  0  0
    4.1903   -7.3966    0.5298 C   0  0  0  0  0  0  0  0  0  0  0  0
    5.0482   -6.4807    2.8059 C   0  0  1  0  0  0  0  0  0  0  0  0
    3.7076   -7.2842    3.3267 C   0  0  0  0  0  0  0  0  0  0  0  0
    2.1816   -7.1679    2.7271 C   0  0  0  0  0  0  0  0  0  0  0  0
    1.8408   -6.5181    1.4249 O   0  0  0  0  0  0  0  0  0  0  0  0
    2.2175   -5.1673    1.0879 C   0  0  2  0  0  0  0  0  0  0  0  0
    2.1790   -4.8976   -0.3272 O   0  0  0  0  0  0  0  0  0  0  0  0
    3.5433   -4.9658    1.7829 C   0  0  2  0  0  0  0  0  0  0  0  0
    3.7378   -3.8286    2.9263 C   0  0  0  0  0  0  0  0  0  0  0  0
    3.8285   -4.1264    4.5014 C   0  0  0  0  0  0  0  0  0  0  0  0
    2.5408   -2.7967    3.0849 C   0  0  0  0  0  0  0  0  0  0  0  0
    5.4447   -1.2556    0.7173 C   0  0  1  0  0  0  0  0  0  0  0  0
    6.8163   -0.8701    0.1976 C   0  0  0  0  0  0  0  0  0  0  0  0
    5.5349   -0.5643    1.9615 O   0  0  0  0  0  0  0  0  0  0  0  0
    7.3997   -2.6615   -2.9883 H   0  0  0  0  0  0  0  0  0  0  0  0
    6.5973   -4.2189   -2.8953 H   0  0  0  0  0  0  0  0  0  0  0  0
    7.9851   -3.8038   -1.8379 H   0  0  0  0  0  0  0  0  0  0  0  0
    6.4694   -4.0350   -0.0937 H   0  0  0  0  0  0  0  0  0  0  0  0
    4.6899   -4.3288   -2.2417 H   0  0  0  0  0  0  0  0  0  0  0  0
    4.6198   -5.4440   -1.0309 H   0  0  0  0  0  0  0  0  0  0  0  0
    2.6578   -4.2467   -2.0653 H   0  0  0  0  0  0  0  0  0  0  0  0
    4.5091   -1.8370   -2.2531 H   0  0  0  0  0  0  0  0  0  0  0  0
    3.5581    0.2867   -2.7525 H   0  0  0  0  0  0  0  0  0  0  0  0
    2.1580   -0.2439   -2.0296 H   0  0  0  0  0  0  0  0  0  0  0  0
    2.6344   -1.0771   -3.4406 H   0  0  0  0  0  0  0  0  0  0  0  0
    4.2861    0.3055   -0.3815 H   0  0  0  0  0  0  0  0  0  0  0  0
    3.2410   -0.4842    1.6523 H   0  0  0  0  0  0  0  0  0  0  0  0
    2.2331   -1.0469    0.4673 H   0  0  0  0  0  0  0  0  0  0  0  0
    5.6169   -2.7884    3.1105 H   0  0  0  0  0  0  0  0  0  0  0  0
    6.4597   -4.8704    3.6855 H   0  0  0  0  0  0  0  0  0  0  0  0
    6.3458   -6.0131   -0.0568 H   0  0  0  0  0  0  0  0  0  0  0  0
    6.6314   -7.0594    1.1996 H   0  0  0  0  0  0  0  0  0  0  0  0
    3.6556   -8.2196    0.9989 H   0  0  0  0  0  0  0  0  0  0  0  0
    4.9990   -7.8981   -0.0004 H   0  0  0  0  0  0  0  0  0  0  0  0
    3.5606   -7.0146   -0.2493 H   0  0  0  0  0  0  0  0  0  0  0  0
    4.8816   -6.0526    3.7636 H   0  0  0  0  0  0  0  0  0  0  0  0
    3.9745   -8.3282    3.1634 H   0  0  0  0  0  0  0  0  0  0  0  0
    3.6103   -7.2906    4.4167 H   0  0  0  0  0  0  0  0  0  0  0  0
    1.7690   -8.1765    2.6767 H   0  0  0  0  0  0  0  0  0  0  0  0
    1.5653   -6.6751    3.4806 H   0  0  0  0  0  0  0  0  0  0  0  0
    1.4408   -4.5489    1.5134 H   0  0  0  0  0  0  0  0  0  0  0  0
    3.0414   -5.1767    2.6836 H   0  0  0  0  0  0  0  0  0  0  0  0
    3.1377   -4.9093    4.8193 H   0  0  0  0  0  0  0  0  0  0  0  0
    3.5815   -3.2591    5.1150 H   0  0  0  0  0  0  0  0  0  0  0  0
    4.8026   -4.3704    4.9153 H   0  0  0  0  0  0  0  0  0  0  0  0
    1.7951   -3.1270    3.8077 H   0  0  0  0  0  0  0  0  0  0  0  0
    1.9188   -2.6320    2.2100 H   0  0  0  0  0  0  0  0  0  0  0  0
    2.9040   -1.8275    3.4264 H   0  0  0  0  0  0  0  0  0  0  0  0
    6.6086   -0.8154   -0.8569 H   0  0  0  0  0  0  0  0  0  0  0  0
    7.6539   -1.5314    0.4835 H   0  0  0  0  0  0  0  0  0  0  0  0
    7.0658    0.1295    0.4380 H   0  0  0  0  0  0  0  0  0  0  0  0
    4.7147   -0.6885    2.4114 H   0  0  0  0  0  0  0  0  0  0  0  0
  1  2  1  0
  1 32  1  0
  1 33  1  0
  1 34  1  0
  2  3  1  0
  3 12  1  0
  3  4  1  0
  3 35  1  1
  4  5  1  0
  4 36  1  0
  4 37  1  0
  5 24  1  0
  5  6  1  0
  5 38  1  6
  6  7  1  0
  7  8  1  0
  7  9  1  0
  7 39  1  6
  8 40  1  0
  8 41  1  0
  8 42  1  0
  9 29  1  0
  9 10  1  0
  9 43  1  6
 10 11  1  0
 10 44  1  0
 10 45  1  0
 12 11  1  6
 12 13  1  0
 12 29  1  0
 13 26  1  0
 13 14  1  0
 13 46  1  1
 14 19  1  0
 14 15  1  0
 14 47  1  1
 15 16  1  0
 16 17  1  0
 16 48  1  0
 16 49  1  0
 17 25  1  0
 17 18  1  6
 17 19  1  0
 18 50  1  0
 18 51  1  0
 18 52  1  0
 19 20  1  0
 19 53  1  6
 20 21  1  0
 20 54  1  0
 20 55  1  0
 21 22  1  0
 21 56  1  0
 21 57  1  0
 22 23  1  0
 23 24  1  0
 23 25  1  0
 23 58  1  1
 25 26  1  0
 25 59  1  6
 26 27  1  0
 26 28  1  0
 27 60  1  0
 27 61  1  0
 27 62  1  0
 28 63  1  0
 28 64  1  0
 28 65  1  0
 29 30  1  0
 29 31  1  1
 30 66  1  0
 30 67  1  0
 30 68  1  0
 31 69  1  0
M  END
>  <i_m_ct_stereo_status>  (208) 
1

>  <s_m_source_file>  (208) 
/var/tmp/pbs.5076255.sched01/tmp323fbwsu/45qgza_o8k.sdf

>  <i_m_source_file_index>  (208) 
38

>  <i_lp_mmshare_version>  (208) 
48012

>  <i_f3d_flags>  (208) 
0

>  <s_epik_input>  (208) 
TzFbQ0gyXVtDQEBIXShbQ0BAXTIoW0NIM10pW09IXSlbQ0BIXShbQ0gzXSlPW0NASF0oW0NIMl1bQ0BIXTNPW0NIM10pT1tDQEBIXShPW0NIMl1bQ0gyXTQpW0NASF0oQzUoW0NIM10pW0NIM10pW0NAXShbQ0gyXU82KShbQ0gzXSlbQ0BIXTRbQ0BASF02W0NASF01W0NAQF0xMjM=

>  <s_epik_cmdline>  (208) 
J2VwaWtfcHl0aG9uJywgJy1waHQnLCAnMi4wJywgJy1waCcsICc3LjAnLCAnLXRuJywgJzgnLCAnLW1hJywgJzIwMCcsICctaW1hZScsICc8aW5maWxlLm1hZT4nLCAnLW9tYWUnLCAnPG91dGZpbGUubWFlPic=

>  <r_lp_tautomer_probability>  (208) 
1

>  <r_epik_Ionization_Penalty>  (208) 
3.61039e-08

>  <r_epik_Ionization_Penalty_Charging>  (208) 
0

>  <r_epik_Ionization_Penalty_Neutral>  (208) 
3.61039e-08

>  <r_epik_State_Penalty>  (208) 
-0

>  <r_epik_Charging_Adjusted_Penalty>  (208) 
0

>  <i_epik_Tot_Q>  (208) 
0

>  <i_epik_Tot_abs_Q>  (208) 
0

>  <s_epik_Chemistry_Notes>  (208) 
This compound contains an acetal/aminal-like group ( X-CH(R)-Y where X, Y are N, S, or O) that may be acid/base labile, releasing an aldehyde.

>  <s_lp_Force_Field>  (208) 
OPLS3e

>  <r_lp_Energy>  (208) 
432.62

>  <b_lp_Chiralities_Consistent>  (208) 
1

>  <s_lp_Variant>  (208) 
56:0-1

>  <s_i_glide_gridfile>  (208) 
pfpi4k_grid

>  <i_i_glide_lignum>  (208) 
38

>  <i_i_glide_rotatable_bonds>  (208) 
2

>  <r_i_docking_score>  (208) 
-1.30275

>  <r_i_glide_ligand_efficiency>  (208) 
-0.0420243

>  <r_i_glide_ligand_efficiency_sa>  (208) 
-0.132014

>  <r_i_glide_ligand_efficiency_ln>  (208) 
-0.29381

>  <r_i_glide_gscore>  (208) 
-1.30275

>  <r_i_glide_lipo>  (208) 
-0.563365

>  <r_i_glide_hbond>  (208) 
0

>  <r_i_glide_metal>  (208) 
-0

>  <r_i_glide_rewards>  (208) 
-0.418948

>  <r_i_glide_evdw>  (208) 
2.51169

>  <r_i_glide_ecoul>  (208) 
-2.58309

>  <r_i_glide_erotb>  (208) 
0

>  <r_i_glide_esite>  (208) 
-0.0585595

>  <r_i_glide_emodel>  (208) 
1.38768

>  <r_i_glide_energy>  (208) 
-0.0714021

>  <r_i_glide_einternal>  (208) 
1.64213

>  <r_i_glide_intrahb_reward>  (208) 
-0

>  <i_i_glide_confnum>  (208) 
1

>  <i_i_glide_posenum>  (208) 
27

>  <r_i_glide_eff_state_penalty>  (208) 
0

>  <ligand_id>  (208) 
56

>  <original_smiles>  (208) 
COC1CC2OC(C)C3COC1(C1C4OCC5(C)C4CCOC(O2)C5C1(C)C)C3(C)O

>  <smiles>  (208) 
[H]OC1(C([H])([H])[H])C2([H])C([H])([H])OC13C([H])(OC([H])([H])[H])C([H])([H])C([H])(OC1([H])OC([H])([H])C([H])([H])C4([H])C5([H])OC([H])([H])C4(C([H])([H])[H])C1([H])C(C([H])([H])[H])(C([H])([H])[H])C53[H])OC2([H])C([H])([H])[H]

$$$$
56:0:2
     RDKit          3D

 69 74  0  0  1  0  0  0  0  0999 V2000
    7.4005   -3.3747   -2.0147 C   0  0  0  0  0  0  0  0  0  0  0  0
    6.3692   -2.8671   -1.2068 O   0  0  0  0  0  0  0  0  0  0  0  0
    5.6366   -3.6177   -0.2670 C   0  0  2  0  0  0  0  0  0  0  0  0
    4.6603   -4.3922   -1.2065 C   0  0  0  0  0  0  0  0  0  0  0  0
    3.1824   -3.9557   -1.2375 C   0  0  2  0  0  0  0  0  0  0  0  0
    2.9380   -2.5819   -1.4963 O   0  0  0  0  0  0  0  0  0  0  0  0
    3.9506   -1.5218   -1.5893 C   0  0  1  0  0  0  0  0  0  0  0  0
    3.2436   -0.6041   -2.5942 C   0  0  0  0  0  0  0  0  0  0  0  0
    4.3323   -0.8247   -0.1714 C   0  0  1  0  0  0  0  0  0  0  0  0
    3.2355   -1.2038    0.7266 C   0  0  0  0  0  0  0  0  0  0  0  0
    3.6999   -2.5426    0.8426 O   0  0  0  0  0  0  0  0  0  0  0  0
    5.0788   -2.8519    1.0190 C   0  0  1  0  0  0  0  0  0  0  0  0
    4.9531   -3.6572    2.4838 C   0  0  2  0  0  0  0  0  0  0  0  0
    5.6192   -5.1479    2.8732 C   0  0  2  0  0  0  0  0  0  0  0  0
    6.6725   -5.3018    1.9813 O   0  0  0  0  0  0  0  0  0  0  0  0
    6.0856   -6.1944    1.0853 C   0  0  0  0  0  0  0  0  0  0  0  0
    4.5421   -6.2902    1.3726 C   0  0  1  0  0  0  0  0  0  0  0  0
    4.2222   -7.4755    0.4005 C   0  0  0  0  0  0  0  0  0  0  0  0
    4.8016   -6.6335    2.7707 C   0  0  1  0  0  0  0  0  0  0  0  0
    3.3932   -7.4437    3.0873 C   0  0  0  0  0  0  0  0  0  0  0  0
    1.9470   -7.2831    2.3099 C   0  0  0  0  0  0  0  0  0  0  0  0
    1.7982   -6.5898    0.9880 O   0  0  0  0  0  0  0  0  0  0  0  0
    2.1832   -5.2258    0.7956 C   0  0  2  0  0  0  0  0  0  0  0  0
    2.1703   -4.7718   -0.5642 O   0  0  0  0  0  0  0  0  0  0  0  0
    3.4187   -5.0626    1.6014 C   0  0  2  0  0  0  0  0  0  0  0  0
    3.4762   -3.9807    2.8031 C   0  0  0  0  0  0  0  0  0  0  0  0
    3.3813   -4.3116    4.3644 C   0  0  0  0  0  0  0  0  0  0  0  0
    2.2622   -2.9532    2.8705 C   0  0  0  0  0  0  0  0  0  0  0  0
    5.4360   -1.3418    0.8489 C   0  0  1  0  0  0  0  0  0  0  0  0
    6.8374   -0.9128    0.4564 C   0  0  0  0  0  0  0  0  0  0  0  0
    5.3917   -0.7075    2.1292 O   0  0  0  0  0  0  0  0  0  0  0  0
    7.8026   -2.5293   -2.5666 H   0  0  0  0  0  0  0  0  0  0  0  0
    6.9481   -4.0189   -2.7639 H   0  0  0  0  0  0  0  0  0  0  0  0
    8.2109   -3.8416   -1.4473 H   0  0  0  0  0  0  0  0  0  0  0  0
    6.5269   -4.1138    0.0514 H   0  0  0  0  0  0  0  0  0  0  0  0
    4.9570   -4.2719   -2.2486 H   0  0  0  0  0  0  0  0  0  0  0  0
    4.7482   -5.4429   -1.1074 H   0  0  0  0  0  0  0  0  0  0  0  0
    2.8699   -4.2175   -2.2099 H   0  0  0  0  0  0  0  0  0  0  0  0
    4.7955   -1.8051   -2.2035 H   0  0  0  0  0  0  0  0  0  0  0  0
    3.7855    0.3208   -2.7337 H   0  0  0  0  0  0  0  0  0  0  0  0
    2.2695   -0.2820   -2.2229 H   0  0  0  0  0  0  0  0  0  0  0  0
    3.1234   -1.0736   -3.5799 H   0  0  0  0  0  0  0  0  0  0  0  0
    4.3884    0.2470   -0.2813 H   0  0  0  0  0  0  0  0  0  0  0  0
    3.1656   -0.6088    1.6354 H   0  0  0  0  0  0  0  0  0  0  0  0
    2.2373   -1.2027    0.3458 H   0  0  0  0  0  0  0  0  0  0  0  0
    5.3025   -2.9587    3.2420 H   0  0  0  0  0  0  0  0  0  0  0  0
    6.1038   -5.0502    3.8472 H   0  0  0  0  0  0  0  0  0  0  0  0
    6.3772   -6.0709    0.0488 H   0  0  0  0  0  0  0  0  0  0  0  0
    6.5539   -7.1652    1.3059 H   0  0  0  0  0  0  0  0  0  0  0  0
    3.5573   -8.2669    0.7258 H   0  0  0  0  0  0  0  0  0  0  0  0
    5.0536   -8.0109   -0.0294 H   0  0  0  0  0  0  0  0  0  0  0  0
    3.8191   -7.0085   -0.4691 H   0  0  0  0  0  0  0  0  0  0  0  0
    4.4966   -6.2169    3.6990 H   0  0  0  0  0  0  0  0  0  0  0  0
    3.6581   -8.4854    2.9014 H   0  0  0  0  0  0  0  0  0  0  0  0
    3.1577   -7.4673    4.1545 H   0  0  0  0  0  0  0  0  0  0  0  0
    1.5252   -8.2835    2.1871 H   0  0  0  0  0  0  0  0  0  0  0  0
    1.2458   -6.7977    2.9926 H   0  0  0  0  0  0  0  0  0  0  0  0
    1.4067   -4.6409    1.2315 H   0  0  0  0  0  0  0  0  0  0  0  0
    2.8642   -5.3276    2.4414 H   0  0  0  0  0  0  0  0  0  0  0  0
    2.6434   -5.0891    4.5636 H   0  0  0  0  0  0  0  0  0  0  0  0
    3.0766   -3.4445    4.9541 H   0  0  0  0  0  0  0  0  0  0  0  0
    4.3052   -4.5755    4.8680 H   0  0  0  0  0  0  0  0  0  0  0  0
    1.4392   -3.3082    3.4897 H   0  0  0  0  0  0  0  0  0  0  0  0
    1.7404   -2.7365    1.9461 H   0  0  0  0  0  0  0  0  0  0  0  0
    2.5845   -2.0009    3.2873 H   0  0  0  0  0  0  0  0  0  0  0  0
    6.9016   -0.9578   -0.5959 H   0  0  0  0  0  0  0  0  0  0  0  0
    7.6166   -1.5151    0.9216 H   0  0  0  0  0  0  0  0  0  0  0  0
    7.0144    0.1422    0.5564 H   0  0  0  0  0  0  0  0  0  0  0  0
    6.0905   -1.0485    2.6605 H   0  0  0  0  0  0  0  0  0  0  0  0
  1  2  1  0
  1 32  1  0
  1 33  1  0
  1 34  1  0
  2  3  1  0
  3 12  1  0
  3  4  1  0
  3 35  1  1
  4  5  1  0
  4 36  1  0
  4 37  1  0
  5 24  1  0
  5  6  1  0
  5 38  1  6
  6  7  1  0
  7  8  1  0
  7  9  1  0
  7 39  1  6
  8 40  1  0
  8 41  1  0
  8 42  1  0
  9 29  1  0
  9 10  1  0
  9 43  1  6
 10 11  1  0
 10 44  1  0
 10 45  1  0
 12 11  1  6
 12 13  1  0
 12 29  1  0
 13 26  1  0
 13 14  1  0
 13 46  1  1
 14 19  1  0
 14 15  1  0
 14 47  1  1
 15 16  1  0
 16 17  1  0
 16 48  1  0
 16 49  1  0
 17 25  1  0
 17 18  1  6
 17 19  1  0
 18 50  1  0
 18 51  1  0
 18 52  1  0
 19 20  1  0
 19 53  1  6
 20 21  1  0
 20 54  1  0
 20 55  1  0
 21 22  1  0
 21 56  1  0
 21 57  1  0
 22 23  1  0
 23 24  1  0
 23 25  1  0
 23 58  1  1
 25 26  1  0
 25 59  1  6
 26 27  1  0
 26 28  1  0
 27 60  1  0
 27 61  1  0
 27 62  1  0
 28 63  1  0
 28 64  1  0
 28 65  1  0
 29 30  1  0
 29 31  1  1
 30 66  1  0
 30 67  1  0
 30 68  1  0
 31 69  1  0
M  END
>  <i_m_ct_stereo_status>  (209) 
1

>  <s_m_source_file>  (209) 
/var/tmp/pbs.5076255.sched01/tmp323fbwsu/45qgza_o8k.sdf

>  <i_m_source_file_index>  (209) 
38

>  <i_lp_mmshare_version>  (209) 
48012

>  <i_f3d_flags>  (209) 
0

>  <s_epik_input>  (209) 
TzFbQ0gyXVtDQEBIXShbQ0BAXTIoW0NIM10pW09IXSlbQ0BIXShbQ0gzXSlPW0NASF0oW0NIMl1bQ0BIXTNPW0NIM10pT1tDQEBIXShPW0NIMl1bQ0gyXTQpW0NASF0oQzUoW0NIM10pW0NIM10pW0NAXShbQ0gyXU82KShbQ0gzXSlbQ0BIXTRbQ0BASF02W0NASF01W0NAQF0xMjM=

>  <s_epik_cmdline>  (209) 
J2VwaWtfcHl0aG9uJywgJy1waHQnLCAnMi4wJywgJy1waCcsICc3LjAnLCAnLXRuJywgJzgnLCAnLW1hJywgJzIwMCcsICctaW1hZScsICc8aW5maWxlLm1hZT4nLCAnLW9tYWUnLCAnPG91dGZpbGUubWFlPic=

>  <r_lp_tautomer_probability>  (209) 
1

>  <r_epik_Ionization_Penalty>  (209) 
3.61039e-08

>  <r_epik_Ionization_Penalty_Charging>  (209) 
0

>  <r_epik_Ionization_Penalty_Neutral>  (209) 
3.61039e-08

>  <r_epik_State_Penalty>  (209) 
-0

>  <r_epik_Charging_Adjusted_Penalty>  (209) 
0

>  <i_epik_Tot_Q>  (209) 
0

>  <i_epik_Tot_abs_Q>  (209) 
0

>  <s_epik_Chemistry_Notes>  (209) 
This compound contains an acetal/aminal-like group ( X-CH(R)-Y where X, Y are N, S, or O) that may be acid/base labile, releasing an aldehyde.

>  <s_lp_Force_Field>  (209) 
OPLS3e

>  <r_lp_Energy>  (209) 
432.62

>  <b_lp_Chiralities_Consistent>  (209) 
1

>  <s_lp_Variant>  (209) 
56:0-1

>  <s_i_glide_gridfile>  (209) 
pfpi4k_grid

>  <i_i_glide_lignum>  (209) 
38

>  <i_i_glide_rotatable_bonds>  (209) 
2

>  <r_i_docking_score>  (209) 
-1.20974

>  <r_i_glide_ligand_efficiency>  (209) 
-0.039024

>  <r_i_glide_ligand_efficiency_sa>  (209) 
-0.122589

>  <r_i_glide_ligand_efficiency_ln>  (209) 
-0.272834

>  <r_i_glide_gscore>  (209) 
-1.20974

>  <r_i_glide_lipo>  (209) 
-0.550651

>  <r_i_glide_hbond>  (209) 
0

>  <r_i_glide_metal>  (209) 
-0

>  <r_i_glide_rewards>  (209) 
-0.418948

>  <r_i_glide_evdw>  (209) 
-3.95454

>  <r_i_glide_ecoul>  (209) 
-1.46364

>  <r_i_glide_erotb>  (209) 
0

>  <r_i_glide_esite>  (209) 
-0.0612901

>  <r_i_glide_emodel>  (209) 
-1.60622

>  <r_i_glide_energy>  (209) 
-5.41818

>  <r_i_glide_einternal>  (209) 
1.72751

>  <r_i_glide_intrahb_reward>  (209) 
-0

>  <i_i_glide_confnum>  (209) 
2

>  <i_i_glide_posenum>  (209) 
26

>  <r_i_glide_eff_state_penalty>  (209) 
0

>  <ligand_id>  (209) 
56

>  <original_smiles>  (209) 
COC1CC2OC(C)C3COC1(C1C4OCC5(C)C4CCOC(O2)C5C1(C)C)C3(C)O

>  <smiles>  (209) 
[H]OC1(C([H])([H])[H])C2([H])C([H])([H])OC13C([H])(OC([H])([H])[H])C([H])([H])C([H])(OC1([H])OC([H])([H])C([H])([H])C4([H])C5([H])OC([H])([H])C4(C([H])([H])[H])C1([H])C(C([H])([H])[H])(C([H])([H])[H])C53[H])OC2([H])C([H])([H])[H]

$$$$
56:2:0
     RDKit          3D

 69 74  0  0  1  0  0  0  0  0999 V2000
    8.0545   -4.3189   -0.3479 C   0  0  0  0  0  0  0  0  0  0  0  0
    6.7210   -3.7728   -0.3998 O   0  0  0  0  0  0  0  0  0  0  0  0
    5.7653   -4.0562    0.6356 C   0  0  2  0  0  0  0  0  0  0  0  0
    4.6242   -4.8401   -0.0985 C   0  0  0  0  0  0  0  0  0  0  0  0
    3.2610   -4.1638   -0.2393 C   0  0  2  0  0  0  0  0  0  0  0  0
    3.2383   -2.8349   -0.7792 O   0  0  0  0  0  0  0  0  0  0  0  0
    4.4430   -2.0342   -1.1236 C   0  0  1  0  0  0  0  0  0  0  0  0
    3.9640   -1.1230   -2.2632 C   0  0  0  0  0  0  0  0  0  0  0  0
    5.0505   -1.1080    0.0543 C   0  0  1  0  0  0  0  0  0  0  0  0
    3.9124   -1.0114    0.9643 C   0  0  0  0  0  0  0  0  0  0  0  0
    4.0995   -2.3582    1.4369 O   0  0  0  0  0  0  0  0  0  0  0  0
    5.4057   -2.9128    1.6937 C   0  0  1  0  0  0  0  0  0  0  0  0
    5.2173   -3.3232    3.3265 C   0  0  2  0  0  0  0  0  0  0  0  0
    5.4729   -4.7944    4.0614 C   0  0  2  0  0  0  0  0  0  0  0  0
    6.3893   -5.4709    3.2620 O   0  0  0  0  0  0  0  0  0  0  0  0
    5.5723   -6.3587    2.5343 C   0  0  0  0  0  0  0  0  0  0  0  0
    4.0577   -6.0073    2.8042 C   0  0  1  0  0  0  0  0  0  0  0  0
    3.3308   -7.2796    2.2195 C   0  0  0  0  0  0  0  0  0  0  0  0
    4.2822   -5.9712    4.2346 C   0  0  2  0  0  0  0  0  0  0  0  0
    2.8034   -6.1309    4.9056 C   0  0  0  0  0  0  0  0  0  0  0  0
    1.3887   -5.9446    4.0949 C   0  0  0  0  0  0  0  0  0  0  0  0
    1.2858   -5.5956    2.6397 O   0  0  0  0  0  0  0  0  0  0  0  0
    2.0397   -4.5333    1.9986 C   0  0  2  0  0  0  0  0  0  0  0  0
    2.2149   -4.7401    0.5830 O   0  0  0  0  0  0  0  0  0  0  0  0
    3.3274   -4.5008    2.7607 C   0  0  2  0  0  0  0  0  0  0  0  0
    3.7386   -3.2412    3.7255 C   0  0  0  0  0  0  0  0  0  0  0  0
    3.6375   -3.2693    5.3326 C   0  0  0  0  0  0  0  0  0  0  0  0
    2.8918   -1.9038    3.6115 C   0  0  0  0  0  0  0  0  0  0  0  0
    6.0727   -1.5862    1.1715 C   0  0  1  0  0  0  0  0  0  0  0  0
    7.5593   -1.5298    0.6961 C   0  0  0  0  0  0  0  0  0  0  0  0
    6.1489   -0.7245    2.3079 O   0  0  0  0  0  0  0  0  0  0  0  0
    8.5371   -4.0391   -1.2965 H   0  0  0  0  0  0  0  0  0  0  0  0
    8.0492   -5.4079   -0.2740 H   0  0  0  0  0  0  0  0  0  0  0  0
    8.6539   -3.9144    0.4682 H   0  0  0  0  0  0  0  0  0  0  0  0
    6.4258   -4.6794    1.1753 H   0  0  0  0  0  0  0  0  0  0  0  0
    4.9596   -5.0924   -1.0989 H   0  0  0  0  0  0  0  0  0  0  0  0
    4.4012   -5.8139    0.3013 H   0  0  0  0  0  0  0  0  0  0  0  0
    2.8382   -4.6175   -1.1211 H   0  0  0  0  0  0  0  0  0  0  0  0
    5.1892   -2.6306   -1.6338 H   0  0  0  0  0  0  0  0  0  0  0  0
    4.7577   -0.4697   -2.6321 H   0  0  0  0  0  0  0  0  0  0  0  0
    3.1387   -0.5089   -1.9288 H   0  0  0  0  0  0  0  0  0  0  0  0
    3.5845   -1.7039   -3.1001 H   0  0  0  0  0  0  0  0  0  0  0  0
    5.3794   -0.1423   -0.3197 H   0  0  0  0  0  0  0  0  0  0  0  0
    4.0096   -0.2250    1.7082 H   0  0  0  0  0  0  0  0  0  0  0  0
    2.9591   -0.8333    0.4705 H   0  0  0  0  0  0  0  0  0  0  0  0
    5.7725   -2.5963    3.9228 H   0  0  0  0  0  0  0  0  0  0  0  0
    5.9847   -4.6390    5.0092 H   0  0  0  0  0  0  0  0  0  0  0  0
    5.8712   -6.5414    1.5074 H   0  0  0  0  0  0  0  0  0  0  0  0
    5.8309   -7.3442    2.9361 H   0  0  0  0  0  0  0  0  0  0  0  0
    2.7790   -7.0569    1.3080 H   0  0  0  0  0  0  0  0  0  0  0  0
    2.6438   -7.7759    2.9026 H   0  0  0  0  0  0  0  0  0  0  0  0
    4.0252   -8.0710    1.9303 H   0  0  0  0  0  0  0  0  0  0  0  0
    4.7929   -6.8437    4.6537 H   0  0  0  0  0  0  0  0  0  0  0  0
    2.7710   -7.1780    5.2103 H   0  0  0  0  0  0  0  0  0  0  0  0
    2.7387   -5.6506    5.8766 H   0  0  0  0  0  0  0  0  0  0  0  0
    0.8056   -6.8569    4.2247 H   0  0  0  0  0  0  0  0  0  0  0  0
    0.8109   -5.1875    4.6248 H   0  0  0  0  0  0  0  0  0  0  0  0
    1.4626   -3.6200    2.1202 H   0  0  0  0  0  0  0  0  0  0  0  0
    2.7090   -4.2996    3.5860 H   0  0  0  0  0  0  0  0  0  0  0  0
    2.6018   -3.3728    5.6714 H   0  0  0  0  0  0  0  0  0  0  0  0
    4.0079   -2.3313    5.7559 H   0  0  0  0  0  0  0  0  0  0  0  0
    4.1713   -4.0265    5.8975 H   0  0  0  0  0  0  0  0  0  0  0  0
    2.1074   -1.7952    4.3618 H   0  0  0  0  0  0  0  0  0  0  0  0
    2.3169   -1.7833    2.6989 H   0  0  0  0  0  0  0  0  0  0  0  0
    3.5393   -1.0350    3.7321 H   0  0  0  0  0  0  0  0  0  0  0  0
    7.6821   -1.7035   -0.3813 H   0  0  0  0  0  0  0  0  0  0  0  0
    8.1632   -2.2167    1.2752 H   0  0  0  0  0  0  0  0  0  0  0  0
    8.0395   -0.5769    0.8372 H   0  0  0  0  0  0  0  0  0  0  0  0
    6.8730   -1.0394    2.8380 H   0  0  0  0  0  0  0  0  0  0  0  0
  1  2  1  0
  1 32  1  0
  1 33  1  0
  1 34  1  0
  2  3  1  0
  3 12  1  0
  3  4  1  0
  3 35  1  1
  4  5  1  0
  4 36  1  0
  4 37  1  0
  5 24  1  0
  5  6  1  0
  5 38  1  6
  6  7  1  0
  7  8  1  0
  7  9  1  0
  7 39  1  6
  8 40  1  0
  8 41  1  0
  8 42  1  0
  9 29  1  0
  9 10  1  0
  9 43  1  6
 10 11  1  0
 10 44  1  0
 10 45  1  0
 12 11  1  6
 12 13  1  0
 12 29  1  0
 13 26  1  0
 13 14  1  0
 13 46  1  1
 14 19  1  0
 14 15  1  0
 14 47  1  1
 15 16  1  0
 16 17  1  0
 16 48  1  0
 16 49  1  0
 17 25  1  0
 17 18  1  1
 17 19  1  0
 18 50  1  0
 18 51  1  0
 18 52  1  0
 19 20  1  0
 19 53  1  1
 20 21  1  0
 20 54  1  0
 20 55  1  0
 21 22  1  0
 21 56  1  0
 21 57  1  0
 22 23  1  0
 23 24  1  0
 23 25  1  0
 23 58  1  6
 25 26  1  0
 25 59  1  6
 26 27  1  0
 26 28  1  0
 27 60  1  0
 27 61  1  0
 27 62  1  0
 28 63  1  0
 28 64  1  0
 28 65  1  0
 29 30  1  0
 29 31  1  1
 30 66  1  0
 30 67  1  0
 30 68  1  0
 31 69  1  0
M  END
>  <i_m_ct_stereo_status>  (210) 
1

>  <s_m_source_file>  (210) 
/var/tmp/pbs.5076255.sched01/tmp323fbwsu/45qgza_o8k.sdf

>  <i_m_source_file_index>  (210) 
40

>  <i_lp_mmshare_version>  (210) 
48012

>  <i_f3d_flags>  (210) 
0

>  <s_epik_input>  (210) 
TzFbQ0gyXVtDQEBIXShbQ0BAXTIoW0NIM10pW09IXSlbQ0BIXShbQ0gzXSlPW0NASF0oW0NIMl1bQ0BIXTNPW0NIM10pT1tDQEBIXShPW0NIMl1bQ0gyXTQpW0NASF0oQzUoW0NIM10pW0NIM10pW0NAXShbQ0gyXU82KShbQ0gzXSlbQ0BIXTRbQ0BASF02W0NASF01W0NAQF0xMjM=

>  <s_epik_cmdline>  (210) 
J2VwaWtfcHl0aG9uJywgJy1waHQnLCAnMi4wJywgJy1waCcsICc3LjAnLCAnLXRuJywgJzgnLCAnLW1hJywgJzIwMCcsICctaW1hZScsICc8aW5maWxlLm1hZT4nLCAnLW9tYWUnLCAnPG91dGZpbGUubWFlPic=

>  <r_lp_tautomer_probability>  (210) 
1

>  <r_epik_Ionization_Penalty>  (210) 
3.61039e-08

>  <r_epik_Ionization_Penalty_Charging>  (210) 
0

>  <r_epik_Ionization_Penalty_Neutral>  (210) 
3.61039e-08

>  <r_epik_State_Penalty>  (210) 
-0

>  <r_epik_Charging_Adjusted_Penalty>  (210) 
0

>  <i_epik_Tot_Q>  (210) 
0

>  <i_epik_Tot_abs_Q>  (210) 
0

>  <s_epik_Chemistry_Notes>  (210) 
This compound contains an acetal/aminal-like group ( X-CH(R)-Y where X, Y are N, S, or O) that may be acid/base labile, releasing an aldehyde.

>  <s_lp_Force_Field>  (210) 
OPLS3e

>  <r_lp_Energy>  (210) 
382.822

>  <b_lp_Chiralities_Consistent>  (210) 
1

>  <s_lp_Variant>  (210) 
56:0-3

>  <s_i_glide_gridfile>  (210) 
pfpi4k_grid

>  <i_i_glide_lignum>  (210) 
40

>  <i_i_glide_rotatable_bonds>  (210) 
2

>  <r_i_docking_score>  (210) 
-1.81102

>  <r_i_glide_ligand_efficiency>  (210) 
-0.0584202

>  <r_i_glide_ligand_efficiency_sa>  (210) 
-0.18352

>  <r_i_glide_ligand_efficiency_ln>  (210) 
-0.408442

>  <r_i_glide_gscore>  (210) 
-1.81102

>  <r_i_glide_lipo>  (210) 
-0.44109

>  <r_i_glide_hbond>  (210) 
-0.0170798

>  <r_i_glide_metal>  (210) 
-0

>  <r_i_glide_rewards>  (210) 
-0.418948

>  <r_i_glide_evdw>  (210) 
-13.236

>  <r_i_glide_ecoul>  (210) 
-1.50818

>  <r_i_glide_erotb>  (210) 
0

>  <r_i_glide_esite>  (210) 
-0.0458778

>  <r_i_glide_emodel>  (210) 
-13.007

>  <r_i_glide_energy>  (210) 
-14.7442

>  <r_i_glide_einternal>  (210) 
3.04773

>  <r_i_glide_intrahb_reward>  (210) 
-0

>  <i_i_glide_confnum>  (210) 
1

>  <i_i_glide_posenum>  (210) 
11

>  <r_i_glide_eff_state_penalty>  (210) 
0

>  <ligand_id>  (210) 
56

>  <original_smiles>  (210) 
COC1CC2OC(C)C3COC1(C1C4OCC5(C)C4CCOC(O2)C5C1(C)C)C3(C)O

>  <smiles>  (210) 
[H]OC1(C([H])([H])[H])C2([H])C([H])([H])OC13C([H])(OC([H])([H])[H])C([H])([H])C([H])(OC1([H])OC([H])([H])C([H])([H])C4([H])C5([H])OC([H])([H])C4(C([H])([H])[H])C1([H])C(C([H])([H])[H])(C([H])([H])[H])C53[H])OC2([H])C([H])([H])[H]

$$$$
56:2:1
     RDKit          3D

 69 74  0  0  1  0  0  0  0  0999 V2000
    7.0019   -3.4467   -2.1544 C   0  0  0  0  0  0  0  0  0  0  0  0
    6.1194   -2.8447   -1.2417 O   0  0  0  0  0  0  0  0  0  0  0  0
    5.4839   -3.5100   -0.1681 C   0  0  2  0  0  0  0  0  0  0  0  0
    4.4412   -4.3604   -0.9602 C   0  0  0  0  0  0  0  0  0  0  0  0
    2.9846   -3.9177   -0.8951 C   0  0  2  0  0  0  0  0  0  0  0  0
    2.7239   -2.5599   -1.1944 O   0  0  0  0  0  0  0  0  0  0  0  0
    3.7413   -1.5181   -1.4823 C   0  0  1  0  0  0  0  0  0  0  0  0
    3.0678   -0.6456   -2.5454 C   0  0  0  0  0  0  0  0  0  0  0  0
    4.2858   -0.6796   -0.1794 C   0  0  1  0  0  0  0  0  0  0  0  0
    3.2377   -0.9084    0.8209 C   0  0  0  0  0  0  0  0  0  0  0  0
    3.6712   -2.2635    1.0227 O   0  0  0  0  0  0  0  0  0  0  0  0
    5.0506   -2.6223    1.1114 C   0  0  1  0  0  0  0  0  0  0  0  0
    5.1342   -3.2679    2.6457 C   0  0  2  0  0  0  0  0  0  0  0  0
    5.7452   -4.7438    3.0893 C   0  0  2  0  0  0  0  0  0  0  0  0
    6.6820   -5.0583    2.1012 O   0  0  0  0  0  0  0  0  0  0  0  0
    5.9864   -5.9761    1.2954 C   0  0  0  0  0  0  0  0  0  0  0  0
    4.4720   -5.9885    1.7334 C   0  0  1  0  0  0  0  0  0  0  0  0
    3.9466   -7.2723    1.0001 C   0  0  0  0  0  0  0  0  0  0  0  0
    4.8152   -6.1383    3.1304 C   0  0  2  0  0  0  0  0  0  0  0  0
    3.4619   -6.6803    3.8645 C   0  0  0  0  0  0  0  0  0  0  0  0
    1.9628   -6.6533    3.1943 C   0  0  0  0  0  0  0  0  0  0  0  0
    1.6587   -6.1225    1.8271 O   0  0  0  0  0  0  0  0  0  0  0  0
    2.1157   -4.8401    1.3408 C   0  0  2  0  0  0  0  0  0  0  0  0
    2.0989   -4.7586   -0.0992 O   0  0  0  0  0  0  0  0  0  0  0  0
    3.4633   -4.6723    1.9924 C   0  0  2  0  0  0  0  0  0  0  0  0
    3.7131   -3.5244    3.1393 C   0  0  0  0  0  0  0  0  0  0  0  0
    3.7833   -3.8045    4.7128 C   0  0  0  0  0  0  0  0  0  0  0  0
    2.6281   -2.3704    3.3056 C   0  0  0  0  0  0  0  0  0  0  0  0
    5.4500   -1.1506    0.8057 C   0  0  1  0  0  0  0  0  0  0  0  0
    6.8354   -0.8702    0.2484 C   0  0  0  0  0  0  0  0  0  0  0  0
    5.5448   -0.4003    2.0208 O   0  0  0  0  0  0  0  0  0  0  0  0
    7.3854   -2.6513   -2.7684 H   0  0  0  0  0  0  0  0  0  0  0  0
    6.5176   -4.2288   -2.7197 H   0  0  0  0  0  0  0  0  0  0  0  0
    7.8704   -3.8067   -1.6304 H   0  0  0  0  0  0  0  0  0  0  0  0
    6.4096   -3.9689    0.1193 H   0  0  0  0  0  0  0  0  0  0  0  0
    4.6577   -4.3573   -2.0096 H   0  0  0  0  0  0  0  0  0  0  0  0
    4.4603   -5.4033   -0.7128 H   0  0  0  0  0  0  0  0  0  0  0  0
    2.5713   -4.2446   -1.8408 H   0  0  0  0  0  0  0  0  0  0  0  0
    4.5130   -1.8494   -2.1595 H   0  0  0  0  0  0  0  0  0  0  0  0
    3.6419    0.2467   -2.7912 H   0  0  0  0  0  0  0  0  0  0  0  0
    2.2064   -0.2650   -2.0912 H   0  0  0  0  0  0  0  0  0  0  0  0
    2.7611   -1.1682   -3.4629 H   0  0  0  0  0  0  0  0  0  0  0  0
    4.3330    0.3831   -0.3624 H   0  0  0  0  0  0  0  0  0  0  0  0
    3.2909   -0.2213    1.6813 H   0  0  0  0  0  0  0  0  0  0  0  0
    2.2123   -0.8417    0.4873 H   0  0  0  0  0  0  0  0  0  0  0  0
    5.6126   -2.5215    3.2841 H   0  0  0  0  0  0  0  0  0  0  0  0
    6.2916   -4.6577    4.0309 H   0  0  0  0  0  0  0  0  0  0  0  0
    6.2053   -5.9290    0.2322 H   0  0  0  0  0  0  0  0  0  0  0  0
    6.4613   -6.9397    1.5084 H   0  0  0  0  0  0  0  0  0  0  0  0
    3.3039   -6.9803    0.1840 H   0  0  0  0  0  0  0  0  0  0  0  0
    3.4069   -7.9896    1.6160 H   0  0  0  0  0  0  0  0  0  0  0  0
    4.7325   -7.8653    0.5293 H   0  0  0  0  0  0  0  0  0  0  0  0
    5.5195   -6.9443    3.3633 H   0  0  0  0  0  0  0  0  0  0  0  0
    3.6498   -7.7496    3.9824 H   0  0  0  0  0  0  0  0  0  0  0  0
    3.4018   -6.3675    4.9026 H   0  0  0  0  0  0  0  0  0  0  0  0
    1.5708   -7.6714    3.1998 H   0  0  0  0  0  0  0  0  0  0  0  0
    1.3073   -6.1085    3.8739 H   0  0  0  0  0  0  0  0  0  0  0  0
    1.4365   -4.0950    1.6840 H   0  0  0  0  0  0  0  0  0  0  0  0
    2.9158   -4.7324    2.8809 H   0  0  0  0  0  0  0  0  0  0  0  0
    2.8231   -4.1595    5.0886 H   0  0  0  0  0  0  0  0  0  0  0  0
    4.0137   -2.8808    5.2518 H   0  0  0  0  0  0  0  0  0  0  0  0
    4.5022   -4.5153    5.1071 H   0  0  0  0  0  0  0  0  0  0  0  0
    1.9116   -2.5386    4.1037 H   0  0  0  0  0  0  0  0  0  0  0  0
    1.9508   -2.2239    2.4709 H   0  0  0  0  0  0  0  0  0  0  0  0
    3.1134   -1.4193    3.5310 H   0  0  0  0  0  0  0  0  0  0  0  0
    6.6852   -0.8392   -0.8105 H   0  0  0  0  0  0  0  0  0  0  0  0
    7.6245   -1.5455    0.6243 H   0  0  0  0  0  0  0  0  0  0  0  0
    7.1030    0.1495    0.4405 H   0  0  0  0  0  0  0  0  0  0  0  0
    4.7161   -0.4684    2.4769 H   0  0  0  0  0  0  0  0  0  0  0  0
  1  2  1  0
  1 32  1  0
  1 33  1  0
  1 34  1  0
  2  3  1  0
  3 12  1  0
  3  4  1  0
  3 35  1  1
  4  5  1  0
  4 36  1  0
  4 37  1  0
  5 24  1  0
  5  6  1  0
  5 38  1  6
  6  7  1  0
  7  8  1  0
  7  9  1  0
  7 39  1  6
  8 40  1  0
  8 41  1  0
  8 42  1  0
  9 29  1  0
  9 10  1  0
  9 43  1  6
 10 11  1  0
 10 44  1  0
 10 45  1  0
 12 11  1  6
 12 13  1  0
 12 29  1  0
 13 26  1  0
 13 14  1  0
 13 46  1  1
 14 19  1  0
 14 15  1  0
 14 47  1  1
 15 16  1  0
 16 17  1  0
 16 48  1  0
 16 49  1  0
 17 25  1  0
 17 18  1  6
 17 19  1  0
 18 50  1  0
 18 51  1  0
 18 52  1  0
 19 20  1  0
 19 53  1  6
 20 21  1  0
 20 54  1  0
 20 55  1  0
 21 22  1  0
 21 56  1  0
 21 57  1  0
 22 23  1  0
 23 24  1  0
 23 25  1  0
 23 58  1  1
 25 26  1  0
 25 59  1  6
 26 27  1  0
 26 28  1  0
 27 60  1  0
 27 61  1  0
 27 62  1  0
 28 63  1  0
 28 64  1  0
 28 65  1  0
 29 30  1  0
 29 31  1  1
 30 66  1  0
 30 67  1  0
 30 68  1  0
 31 69  1  0
M  END
>  <i_m_ct_stereo_status>  (211) 
1

>  <s_m_source_file>  (211) 
/var/tmp/pbs.5076255.sched01/tmp323fbwsu/45qgza_o8k.sdf

>  <i_m_source_file_index>  (211) 
40

>  <i_lp_mmshare_version>  (211) 
48012

>  <i_f3d_flags>  (211) 
0

>  <s_epik_input>  (211) 
TzFbQ0gyXVtDQEBIXShbQ0BAXTIoW0NIM10pW09IXSlbQ0BIXShbQ0gzXSlPW0NASF0oW0NIMl1bQ0BIXTNPW0NIM10pT1tDQEBIXShPW0NIMl1bQ0gyXTQpW0NASF0oQzUoW0NIM10pW0NIM10pW0NAXShbQ0gyXU82KShbQ0gzXSlbQ0BIXTRbQ0BASF02W0NASF01W0NAQF0xMjM=

>  <s_epik_cmdline>  (211) 
J2VwaWtfcHl0aG9uJywgJy1waHQnLCAnMi4wJywgJy1waCcsICc3LjAnLCAnLXRuJywgJzgnLCAnLW1hJywgJzIwMCcsICctaW1hZScsICc8aW5maWxlLm1hZT4nLCAnLW9tYWUnLCAnPG91dGZpbGUubWFlPic=

>  <r_lp_tautomer_probability>  (211) 
1

>  <r_epik_Ionization_Penalty>  (211) 
3.61039e-08

>  <r_epik_Ionization_Penalty_Charging>  (211) 
0

>  <r_epik_Ionization_Penalty_Neutral>  (211) 
3.61039e-08

>  <r_epik_State_Penalty>  (211) 
-0

>  <r_epik_Charging_Adjusted_Penalty>  (211) 
0

>  <i_epik_Tot_Q>  (211) 
0

>  <i_epik_Tot_abs_Q>  (211) 
0

>  <s_epik_Chemistry_Notes>  (211) 
This compound contains an acetal/aminal-like group ( X-CH(R)-Y where X, Y are N, S, or O) that may be acid/base labile, releasing an aldehyde.

>  <s_lp_Force_Field>  (211) 
OPLS3e

>  <r_lp_Energy>  (211) 
382.822

>  <b_lp_Chiralities_Consistent>  (211) 
1

>  <s_lp_Variant>  (211) 
56:0-3

>  <s_i_glide_gridfile>  (211) 
pfpi4k_grid

>  <i_i_glide_lignum>  (211) 
40

>  <i_i_glide_rotatable_bonds>  (211) 
2

>  <r_i_docking_score>  (211) 
-1.61618

>  <r_i_glide_ligand_efficiency>  (211) 
-0.0521347

>  <r_i_glide_ligand_efficiency_sa>  (211) 
-0.163775

>  <r_i_glide_ligand_efficiency_ln>  (211) 
-0.364497

>  <r_i_glide_gscore>  (211) 
-1.61618

>  <r_i_glide_lipo>  (211) 
-0.502789

>  <r_i_glide_hbond>  (211) 
-0.0140804

>  <r_i_glide_metal>  (211) 
-0

>  <r_i_glide_rewards>  (211) 
-0.418948

>  <r_i_glide_evdw>  (211) 
-3.13815

>  <r_i_glide_ecoul>  (211) 
-3.11624

>  <r_i_glide_erotb>  (211) 
0

>  <r_i_glide_esite>  (211) 
-0.0560172

>  <r_i_glide_emodel>  (211) 
-1.56569

>  <r_i_glide_energy>  (211) 
-6.25439

>  <r_i_glide_einternal>  (211) 
4.7

>  <r_i_glide_intrahb_reward>  (211) 
-0

>  <i_i_glide_confnum>  (211) 
1

>  <i_i_glide_posenum>  (211) 
12

>  <r_i_glide_eff_state_penalty>  (211) 
0

>  <ligand_id>  (211) 
56

>  <original_smiles>  (211) 
COC1CC2OC(C)C3COC1(C1C4OCC5(C)C4CCOC(O2)C5C1(C)C)C3(C)O

>  <smiles>  (211) 
[H]OC1(C([H])([H])[H])C2([H])C([H])([H])OC13C([H])(OC([H])([H])[H])C([H])([H])C([H])(OC1([H])OC([H])([H])C([H])([H])C4([H])C5([H])OC([H])([H])C4(C([H])([H])[H])C1([H])C(C([H])([H])[H])(C([H])([H])[H])C53[H])OC2([H])C([H])([H])[H]

$$$$
58:0:0
     RDKit          3D

 46 48  0  0  1  0  0  0  0  0999 V2000
    8.1748   -5.3006    0.6156 C   0  0  0  0  0  0  0  0  0  0  0  0
    7.4924   -4.0480    0.0960 C   0  0  0  0  0  0  0  0  0  0  0  0
    6.2805   -3.5536    0.4125 C   0  0  0  0  0  0  0  0  0  0  0  0
    5.8029   -2.3159   -0.2653 C   0  0  0  0  0  0  0  0  0  0  0  0
    6.5682   -1.4640   -0.6353 O   0  0  0  0  0  0  0  0  0  0  0  0
    4.2647   -2.1406   -0.4800 C   0  0  1  0  0  0  0  0  0  0  0  0
    3.7716   -0.9658    0.4023 C   0  0  0  0  0  0  0  0  0  0  0  0
    4.0402   -1.7114   -1.8370 O   0  0  0  0  0  0  0  0  0  0  0  0
    4.3450   -2.3936   -3.0005 C   0  0  0  0  0  0  0  0  0  0  0  0
    5.0174   -3.7721   -2.8767 C   0  0  0  0  0  0  0  0  0  0  0  0
    4.1123   -1.9213   -4.1017 O   0  0  0  0  0  0  0  0  0  0  0  0
    3.4112   -3.4106   -0.1685 C   0  0  0  0  0  0  0  0  0  0  0  0
    2.2573   -3.4876   -0.6248 O   0  0  0  0  0  0  0  0  0  0  0  0
    4.0093   -4.4433    0.6969 C   0  0  0  0  0  0  0  0  0  0  0  0
    3.5216   -5.6859    0.8268 C   0  0  0  0  0  0  0  0  0  0  0  0
    4.0955   -6.6350    1.6450 N   0  0  0  0  0  0  0  0  0  0  0  0
    3.4762   -7.9775    1.6849 C   0  0  0  0  0  0  0  0  0  0  0  0
    3.2542   -8.5377    3.0987 C   0  0  0  0  0  0  0  0  0  0  0  0
    4.2188   -9.7306    3.2316 C   0  0  0  0  0  0  0  0  0  0  0  0
    5.1047   -9.7808    1.9706 C   0  0  0  0  0  0  0  0  0  0  0  0
    4.2613   -9.0611    0.9153 C   0  0  0  0  0  0  0  0  0  0  0  0
    5.2637   -6.3496    2.4106 C   0  0  0  0  0  0  0  0  0  0  0  0
    5.8152   -7.1354    3.1872 O   0  0  0  0  0  0  0  0  0  0  0  0
    5.7956   -5.1251    2.2330 O   0  0  0  0  0  0  0  0  0  0  0  0
    5.2769   -4.0745    1.4300 C   0  0  1  0  0  0  0  0  0  0  0  0
    9.0567   -5.5168    0.0176 H   0  0  0  0  0  0  0  0  0  0  0  0
    7.5242   -6.1689    0.5341 H   0  0  0  0  0  0  0  0  0  0  0  0
    8.4867   -5.1832    1.6508 H   0  0  0  0  0  0  0  0  0  0  0  0
    8.0789   -3.5042   -0.6226 H   0  0  0  0  0  0  0  0  0  0  0  0
    3.9031   -1.1591    1.4668 H   0  0  0  0  0  0  0  0  0  0  0  0
    2.7124   -0.7717    0.2431 H   0  0  0  0  0  0  0  0  0  0  0  0
    4.2924   -0.0382    0.1668 H   0  0  0  0  0  0  0  0  0  0  0  0
    4.4184   -4.4672   -2.2948 H   0  0  0  0  0  0  0  0  0  0  0  0
    5.9996   -3.6717   -2.4149 H   0  0  0  0  0  0  0  0  0  0  0  0
    5.1892   -4.2210   -3.8544 H   0  0  0  0  0  0  0  0  0  0  0  0
    2.6124   -5.9898    0.2821 H   0  0  0  0  0  0  0  0  0  0  0  0
    2.4856   -7.9188    1.2188 H   0  0  0  0  0  0  0  0  0  0  0  0
    3.4047   -7.7719    3.8656 H   0  0  0  0  0  0  0  0  0  0  0  0
    2.2249   -8.8644    3.2409 H   0  0  0  0  0  0  0  0  0  0  0  0
    4.8113   -9.6428    4.1364 H   0  0  0  0  0  0  0  0  0  0  0  0
    3.6319  -10.6429    3.3085 H   0  0  0  0  0  0  0  0  0  0  0  0
    6.0338   -9.2246    2.1198 H   0  0  0  0  0  0  0  0  0  0  0  0
    5.3411  -10.8111    1.6783 H   0  0  0  0  0  0  0  0  0  0  0  0
    3.5579   -9.7808    0.4845 H   0  0  0  0  0  0  0  0  0  0  0  0
    4.8425   -8.6591    0.0866 H   0  0  0  0  0  0  0  0  0  0  0  0
    5.0156   -3.2736    2.1307 H   0  0  0  0  0  0  0  0  0  0  0  0
  1  2  1  0
  1 26  1  0
  1 27  1  0
  1 28  1  0
  2  3  2  3
  2 29  1  0
  3 25  1  0
  3  4  1  0
  4  5  2  0
  4  6  1  0
  6  7  1  0
  6  8  1  6
  6 12  1  0
  7 30  1  0
  7 31  1  0
  7 32  1  0
  8  9  1  0
  9 10  1  0
  9 11  2  0
 10 33  1  0
 10 34  1  0
 10 35  1  0
 12 13  2  0
 12 14  1  0
 14 25  1  0
 14 15  2  0
 15 16  1  0
 15 36  1  0
 16 17  1  0
 16 22  1  0
 17 21  1  0
 17 18  1  0
 17 37  1  0
 18 19  1  0
 18 38  1  0
 18 39  1  0
 19 20  1  0
 19 40  1  0
 19 41  1  0
 20 21  1  0
 20 42  1  0
 20 43  1  0
 21 44  1  0
 21 45  1  0
 22 23  2  0
 22 24  1  0
 24 25  1  0
 25 46  1  1
M  END
>  <i_m_ct_stereo_status>  (212) 
1

>  <s_m_source_file>  (212) 
/var/tmp/pbs.5076255.sched01/tmp323fbwsu/45qgza_o8k.sdf

>  <i_m_source_file_index>  (212) 
43

>  <i_lp_mmshare_version>  (212) 
48012

>  <i_f3d_flags>  (212) 
0

>  <s_epik_input>  (212) 
W0NIM11DKD1PKU9bQ0BAXShbQ0gzXSkoQzE9TylDKD1PKVxDKD1bQ0hdXFtDSDNdKVtDQEBIXShDMT0yKU9DKD1PKU4oW0NIXTIpW0NIXTNbQ0gyXVtDSDJdW0NIMl1bQ0gyXTM=

>  <s_epik_cmdline>  (212) 
J2VwaWtfcHl0aG9uJywgJy1waHQnLCAnMi4wJywgJy1waCcsICc3LjAnLCAnLXRuJywgJzgnLCAnLW1hJywgJzIwMCcsICctaW1hZScsICc8aW5maWxlLm1hZT4nLCAnLW9tYWUnLCAnPG91dGZpbGUubWFlPic=

>  <r_lp_tautomer_probability>  (212) 
1

>  <r_epik_Ionization_Penalty>  (212) 
9.87634e-10

>  <r_epik_Ionization_Penalty_Charging>  (212) 
0

>  <r_epik_Ionization_Penalty_Neutral>  (212) 
9.87634e-10

>  <r_epik_State_Penalty>  (212) 
-0

>  <r_epik_Charging_Adjusted_Penalty>  (212) 
0

>  <i_epik_Tot_Q>  (212) 
0

>  <i_epik_Tot_abs_Q>  (212) 
0

>  <s_epik_Chemistry_Notes>  (212) 
This compound has an ester and may undergo hydrolysis at high or low pH.

>  <s_lp_Force_Field>  (212) 
OPLS3e

>  <r_lp_Energy>  (212) 
37.7313

>  <b_lp_Chiralities_Consistent>  (212) 
1

>  <s_lp_Variant>  (212) 
58:0-1

>  <s_i_glide_gridfile>  (212) 
pfpi4k_grid

>  <i_i_glide_lignum>  (212) 
43

>  <i_i_glide_rotatable_bonds>  (212) 
3

>  <r_i_docking_score>  (212) 
-4.09164

>  <r_i_glide_ligand_efficiency>  (212) 
-0.163666

>  <r_i_glide_ligand_efficiency_sa>  (212) 
-0.478561

>  <r_i_glide_ligand_efficiency_ln>  (212) 
-0.969841

>  <r_i_glide_gscore>  (212) 
-4.09164

>  <r_i_glide_lipo>  (212) 
-0.4616

>  <r_i_glide_hbond>  (212) 
-0.393733

>  <r_i_glide_metal>  (212) 
-0

>  <r_i_glide_rewards>  (212) 
-1.32929

>  <r_i_glide_evdw>  (212) 
-29.6456

>  <r_i_glide_ecoul>  (212) 
-4.87378

>  <r_i_glide_erotb>  (212) 
0.315322

>  <r_i_glide_esite>  (212) 
-0.00899033

>  <r_i_glide_emodel>  (212) 
-39.6625

>  <r_i_glide_energy>  (212) 
-34.5194

>  <r_i_glide_einternal>  (212) 
6.88172

>  <r_i_glide_intrahb_reward>  (212) 
-0

>  <i_i_glide_confnum>  (212) 
1

>  <i_i_glide_posenum>  (212) 
23

>  <r_i_glide_eff_state_penalty>  (212) 
0

>  <ligand_id>  (212) 
58

>  <original_smiles>  (212) 
CC=C1C(=O)C(C)(OC(C)=O)C(=O)C2=CN(C3CCCC3)C(=O)OC12

>  <smiles>  (212) 
[H]C1=C2C(=O)C(OC(=O)C([H])([H])[H])(C([H])([H])[H])C(=O)C(=C([H])C([H])([H])[H])C2([H])OC(=O)N1C1([H])C([H])([H])C([H])([H])C([H])([H])C1([H])[H]

$$$$
58:0:1
     RDKit          3D

 46 48  0  0  1  0  0  0  0  0999 V2000
    8.6273   -4.8739    0.1093 C   0  0  0  0  0  0  0  0  0  0  0  0
    7.6077   -3.8531   -0.3400 C   0  0  0  0  0  0  0  0  0  0  0  0
    6.4140   -3.5738    0.2265 C   0  0  0  0  0  0  0  0  0  0  0  0
    5.5498   -2.5543   -0.4092 C   0  0  0  0  0  0  0  0  0  0  0  0
    6.0175   -1.5715   -0.9937 O   0  0  0  0  0  0  0  0  0  0  0  0
    3.9962   -2.7080   -0.3157 C   0  0  1  0  0  0  0  0  0  0  0  0
    3.4444   -1.5880    0.5834 C   0  0  0  0  0  0  0  0  0  0  0  0
    3.3499   -2.5019   -1.5898 O   0  0  0  0  0  0  0  0  0  0  0  0
    3.7405   -3.0256   -2.7833 C   0  0  0  0  0  0  0  0  0  0  0  0
    2.7576   -2.6955   -3.8935 C   0  0  0  0  0  0  0  0  0  0  0  0
    4.7553   -3.6853   -3.0135 O   0  0  0  0  0  0  0  0  0  0  0  0
    3.5458   -4.0779    0.2675 C   0  0  0  0  0  0  0  0  0  0  0  0
    2.3847   -4.4573    0.0834 O   0  0  0  0  0  0  0  0  0  0  0  0
    4.5049   -4.8626    1.0783 C   0  0  0  0  0  0  0  0  0  0  0  0
    4.2834   -6.1336    1.4018 C   0  0  0  0  0  0  0  0  0  0  0  0
    5.2261   -6.9068    2.0935 N   0  0  0  0  0  0  0  0  0  0  0  0
    4.9131   -8.3228    2.3795 C   0  0  0  0  0  0  0  0  0  0  0  0
    4.2332   -9.0542    1.2025 C   0  0  0  0  0  0  0  0  0  0  0  0
    2.7961   -9.3657    1.6565 C   0  0  0  0  0  0  0  0  0  0  0  0
    2.5609   -8.5919    2.9544 C   0  0  0  0  0  0  0  0  0  0  0  0
    3.9514   -8.4591    3.5702 C   0  0  0  0  0  0  0  0  0  0  0  0
    6.4559   -6.3726    2.5348 C   0  0  0  0  0  0  0  0  0  0  0  0
    7.3115   -6.9869    3.1664 O   0  0  0  0  0  0  0  0  0  0  0  0
    6.6713   -5.0569    2.2021 O   0  0  0  0  0  0  0  0  0  0  0  0
    5.7944   -4.1978    1.4700 C   0  0  1  0  0  0  0  0  0  0  0  0
    9.3921   -4.9699   -0.6587 H   0  0  0  0  0  0  0  0  0  0  0  0
    8.1792   -5.8573    0.2404 H   0  0  0  0  0  0  0  0  0  0  0  0
    9.1038   -4.5656    1.0395 H   0  0  0  0  0  0  0  0  0  0  0  0
    7.8998   -3.3060   -1.2266 H   0  0  0  0  0  0  0  0  0  0  0  0
    3.8480   -1.6340    1.5932 H   0  0  0  0  0  0  0  0  0  0  0  0
    2.3603   -1.6446    0.6677 H   0  0  0  0  0  0  0  0  0  0  0  0
    3.6794   -0.6052    0.1756 H   0  0  0  0  0  0  0  0  0  0  0  0
    2.6530   -1.6156   -4.0077 H   0  0  0  0  0  0  0  0  0  0  0  0
    1.7803   -3.1196   -3.6600 H   0  0  0  0  0  0  0  0  0  0  0  0
    3.1017   -3.1176   -4.8352 H   0  0  0  0  0  0  0  0  0  0  0  0
    3.3664   -6.6334    1.1249 H   0  0  0  0  0  0  0  0  0  0  0  0
    5.8277   -8.8695    2.6139 H   0  0  0  0  0  0  0  0  0  0  0  0
    4.2583   -8.4977    0.2668 H   0  0  0  0  0  0  0  0  0  0  0  0
    4.7681   -9.9853    0.9880 H   0  0  0  0  0  0  0  0  0  0  0  0
    2.0672   -9.1107    0.8907 H   0  0  0  0  0  0  0  0  0  0  0  0
    2.7058  -10.4336    1.8523 H   0  0  0  0  0  0  0  0  0  0  0  0
    2.1578   -7.6023    2.7419 H   0  0  0  0  0  0  0  0  0  0  0  0
    1.8540   -9.0893    3.6163 H   0  0  0  0  0  0  0  0  0  0  0  0
    4.1811   -9.3869    4.1025 H   0  0  0  0  0  0  0  0  0  0  0  0
    4.0298   -7.6475    4.2945 H   0  0  0  0  0  0  0  0  0  0  0  0
    5.5312   -3.3890    2.1508 H   0  0  0  0  0  0  0  0  0  0  0  0
  1  2  1  0
  1 26  1  0
  1 27  1  0
  1 28  1  0
  2  3  2  3
  2 29  1  0
  3 25  1  0
  3  4  1  0
  4  5  2  0
  4  6  1  0
  6  7  1  0
  6  8  1  6
  6 12  1  0
  7 30  1  0
  7 31  1  0
  7 32  1  0
  8  9  1  0
  9 10  1  0
  9 11  2  0
 10 33  1  0
 10 34  1  0
 10 35  1  0
 12 13  2  0
 12 14  1  0
 14 25  1  0
 14 15  2  0
 15 16  1  0
 15 36  1  0
 16 17  1  0
 16 22  1  0
 17 21  1  0
 17 18  1  0
 17 37  1  0
 18 19  1  0
 18 38  1  0
 18 39  1  0
 19 20  1  0
 19 40  1  0
 19 41  1  0
 20 21  1  0
 20 42  1  0
 20 43  1  0
 21 44  1  0
 21 45  1  0
 22 23  2  0
 22 24  1  0
 24 25  1  0
 25 46  1  1
M  END
>  <i_m_ct_stereo_status>  (213) 
1

>  <s_m_source_file>  (213) 
/var/tmp/pbs.5076255.sched01/tmp323fbwsu/45qgza_o8k.sdf

>  <i_m_source_file_index>  (213) 
43

>  <i_lp_mmshare_version>  (213) 
48012

>  <i_f3d_flags>  (213) 
0

>  <s_epik_input>  (213) 
W0NIM11DKD1PKU9bQ0BAXShbQ0gzXSkoQzE9TylDKD1PKVxDKD1bQ0hdXFtDSDNdKVtDQEBIXShDMT0yKU9DKD1PKU4oW0NIXTIpW0NIXTNbQ0gyXVtDSDJdW0NIMl1bQ0gyXTM=

>  <s_epik_cmdline>  (213) 
J2VwaWtfcHl0aG9uJywgJy1waHQnLCAnMi4wJywgJy1waCcsICc3LjAnLCAnLXRuJywgJzgnLCAnLW1hJywgJzIwMCcsICctaW1hZScsICc8aW5maWxlLm1hZT4nLCAnLW9tYWUnLCAnPG91dGZpbGUubWFlPic=

>  <r_lp_tautomer_probability>  (213) 
1

>  <r_epik_Ionization_Penalty>  (213) 
9.87634e-10

>  <r_epik_Ionization_Penalty_Charging>  (213) 
0

>  <r_epik_Ionization_Penalty_Neutral>  (213) 
9.87634e-10

>  <r_epik_State_Penalty>  (213) 
-0

>  <r_epik_Charging_Adjusted_Penalty>  (213) 
0

>  <i_epik_Tot_Q>  (213) 
0

>  <i_epik_Tot_abs_Q>  (213) 
0

>  <s_epik_Chemistry_Notes>  (213) 
This compound has an ester and may undergo hydrolysis at high or low pH.

>  <s_lp_Force_Field>  (213) 
OPLS3e

>  <r_lp_Energy>  (213) 
37.7313

>  <b_lp_Chiralities_Consistent>  (213) 
1

>  <s_lp_Variant>  (213) 
58:0-1

>  <s_i_glide_gridfile>  (213) 
pfpi4k_grid

>  <i_i_glide_lignum>  (213) 
43

>  <i_i_glide_rotatable_bonds>  (213) 
3

>  <r_i_docking_score>  (213) 
-3.25697

>  <r_i_glide_ligand_efficiency>  (213) 
-0.130279

>  <r_i_glide_ligand_efficiency_sa>  (213) 
-0.380937

>  <r_i_glide_ligand_efficiency_ln>  (213) 
-0.771999

>  <r_i_glide_gscore>  (213) 
-3.25697

>  <r_i_glide_lipo>  (213) 
-0.520592

>  <r_i_glide_hbond>  (213) 
-0.0975792

>  <r_i_glide_metal>  (213) 
-0

>  <r_i_glide_rewards>  (213) 
-1.09951

>  <r_i_glide_evdw>  (213) 
-30.3139

>  <r_i_glide_ecoul>  (213) 
-2.11735

>  <r_i_glide_erotb>  (213) 
0.315322

>  <r_i_glide_esite>  (213) 
-0.0213128

>  <r_i_glide_emodel>  (213) 
-38.5675

>  <r_i_glide_energy>  (213) 
-32.4313

>  <r_i_glide_einternal>  (213) 
1.45729

>  <r_i_glide_intrahb_reward>  (213) 
-0

>  <i_i_glide_confnum>  (213) 
1

>  <i_i_glide_posenum>  (213) 
8

>  <r_i_glide_eff_state_penalty>  (213) 
0

>  <ligand_id>  (213) 
58

>  <original_smiles>  (213) 
CC=C1C(=O)C(C)(OC(C)=O)C(=O)C2=CN(C3CCCC3)C(=O)OC12

>  <smiles>  (213) 
[H]C1=C2C(=O)C(OC(=O)C([H])([H])[H])(C([H])([H])[H])C(=O)C(=C([H])C([H])([H])[H])C2([H])OC(=O)N1C1([H])C([H])([H])C([H])([H])C([H])([H])C1([H])[H]

$$$$
58:0:2
     RDKit          3D

 46 48  0  0  1  0  0  0  0  0999 V2000
    8.6123   -4.8967    0.1046 C   0  0  0  0  0  0  0  0  0  0  0  0
    7.6355   -3.8293   -0.3269 C   0  0  0  0  0  0  0  0  0  0  0  0
    6.4446   -3.4977    0.2244 C   0  0  0  0  0  0  0  0  0  0  0  0
    5.6147   -2.4759   -0.3979 C   0  0  0  0  0  0  0  0  0  0  0  0
    6.1287   -1.4581   -0.9273 O   0  0  0  0  0  0  0  0  0  0  0  0
    4.0781   -2.5790   -0.3592 C   0  0  1  0  0  0  0  0  0  0  0  0
    3.5128   -1.4292    0.5242 C   0  0  0  0  0  0  0  0  0  0  0  0
    3.4982   -2.3556   -1.6573 O   0  0  0  0  0  0  0  0  0  0  0  0
    3.8438   -2.9394   -2.8513 C   0  0  0  0  0  0  0  0  0  0  0  0
    5.0174   -3.9189   -2.8403 C   0  0  0  0  0  0  0  0  0  0  0  0
    3.2753   -2.6956   -3.9222 O   0  0  0  0  0  0  0  0  0  0  0  0
    3.5627   -3.9219    0.2311 C   0  0  0  0  0  0  0  0  0  0  0  0
    2.4076   -4.2697    0.0268 O   0  0  0  0  0  0  0  0  0  0  0  0
    4.4838   -4.7495    1.0393 C   0  0  0  0  0  0  0  0  0  0  0  0
    4.2228   -6.0127    1.3595 C   0  0  0  0  0  0  0  0  0  0  0  0
    5.1299   -6.8261    2.0569 N   0  0  0  0  0  0  0  0  0  0  0  0
    4.7740   -8.2152    2.3464 C   0  0  0  0  0  0  0  0  0  0  0  0
    4.0612   -8.9270    1.1837 C   0  0  0  0  0  0  0  0  0  0  0  0
    2.6137   -9.1899    1.6456 C   0  0  0  0  0  0  0  0  0  0  0  0
    2.4210   -8.4038    2.9466 C   0  0  0  0  0  0  0  0  0  0  0  0
    3.8227   -8.3212    3.5490 C   0  0  0  0  0  0  0  0  0  0  0  0
    6.3628   -6.3378    2.5134 C   0  0  0  0  0  0  0  0  0  0  0  0
    7.2047   -6.9539    3.1584 O   0  0  0  0  0  0  0  0  0  0  0  0
    6.6590   -5.0148    2.1955 O   0  0  0  0  0  0  0  0  0  0  0  0
    5.7870   -4.1219    1.4642 C   0  0  1  0  0  0  0  0  0  0  0  0
    9.3796   -5.0170   -0.6603 H   0  0  0  0  0  0  0  0  0  0  0  0
    8.1337   -5.8640    0.2320 H   0  0  0  0  0  0  0  0  0  0  0  0
    9.0931   -4.6054    1.0387 H   0  0  0  0  0  0  0  0  0  0  0  0
    7.9414   -3.2871   -1.2140 H   0  0  0  0  0  0  0  0  0  0  0  0
    3.8966   -1.4788    1.5422 H   0  0  0  0  0  0  0  0  0  0  0  0
    2.4242   -1.4633    0.5808 H   0  0  0  0  0  0  0  0  0  0  0  0
    3.7836   -0.4596    0.1053 H   0  0  0  0  0  0  0  0  0  0  0  0
    4.8416   -4.7101   -2.1161 H   0  0  0  0  0  0  0  0  0  0  0  0
    5.9392   -3.3869   -2.5558 H   0  0  0  0  0  0  0  0  0  0  0  0
    5.1715   -4.3998   -3.8209 H   0  0  0  0  0  0  0  0  0  0  0  0
    3.2940   -6.4747    1.0731 H   0  0  0  0  0  0  0  0  0  0  0  0
    5.6744   -8.8040    2.5746 H   0  0  0  0  0  0  0  0  0  0  0  0
    4.1082   -8.3828    0.2394 H   0  0  0  0  0  0  0  0  0  0  0  0
    4.5612   -9.8666    0.9579 H   0  0  0  0  0  0  0  0  0  0  0  0
    1.8887   -8.9107    0.8795 H   0  0  0  0  0  0  0  0  0  0  0  0
    2.4884  -10.2551    1.8448 H   0  0  0  0  0  0  0  0  0  0  0  0
    2.0556   -7.4051    2.7344 H   0  0  0  0  0  0  0  0  0  0  0  0
    1.6980   -8.8765    3.6197 H   0  0  0  0  0  0  0  0  0  0  0  0
    4.0219   -9.2544    4.0791 H   0  0  0  0  0  0  0  0  0  0  0  0
    3.9345   -7.5121    4.2728 H   0  0  0  0  0  0  0  0  0  0  0  0
    5.5389   -3.3167    2.1435 H   0  0  0  0  0  0  0  0  0  0  0  0
  1  2  1  0
  1 26  1  0
  1 27  1  0
  1 28  1  0
  2  3  2  3
  2 29  1  0
  3 25  1  0
  3  4  1  0
  4  5  2  0
  4  6  1  0
  6  7  1  0
  6  8  1  6
  6 12  1  0
  7 30  1  0
  7 31  1  0
  7 32  1  0
  8  9  1  0
  9 10  1  0
  9 11  2  0
 10 33  1  0
 10 34  1  0
 10 35  1  0
 12 13  2  0
 12 14  1  0
 14 25  1  0
 14 15  2  0
 15 16  1  0
 15 36  1  0
 16 17  1  0
 16 22  1  0
 17 21  1  0
 17 18  1  0
 17 37  1  0
 18 19  1  0
 18 38  1  0
 18 39  1  0
 19 20  1  0
 19 40  1  0
 19 41  1  0
 20 21  1  0
 20 42  1  0
 20 43  1  0
 21 44  1  0
 21 45  1  0
 22 23  2  0
 22 24  1  0
 24 25  1  0
 25 46  1  1
M  END
>  <i_m_ct_stereo_status>  (214) 
1

>  <s_m_source_file>  (214) 
/var/tmp/pbs.5076255.sched01/tmp323fbwsu/45qgza_o8k.sdf

>  <i_m_source_file_index>  (214) 
43

>  <i_lp_mmshare_version>  (214) 
48012

>  <i_f3d_flags>  (214) 
0

>  <s_epik_input>  (214) 
W0NIM11DKD1PKU9bQ0BAXShbQ0gzXSkoQzE9TylDKD1PKVxDKD1bQ0hdXFtDSDNdKVtDQEBIXShDMT0yKU9DKD1PKU4oW0NIXTIpW0NIXTNbQ0gyXVtDSDJdW0NIMl1bQ0gyXTM=

>  <s_epik_cmdline>  (214) 
J2VwaWtfcHl0aG9uJywgJy1waHQnLCAnMi4wJywgJy1waCcsICc3LjAnLCAnLXRuJywgJzgnLCAnLW1hJywgJzIwMCcsICctaW1hZScsICc8aW5maWxlLm1hZT4nLCAnLW9tYWUnLCAnPG91dGZpbGUubWFlPic=

>  <r_lp_tautomer_probability>  (214) 
1

>  <r_epik_Ionization_Penalty>  (214) 
9.87634e-10

>  <r_epik_Ionization_Penalty_Charging>  (214) 
0

>  <r_epik_Ionization_Penalty_Neutral>  (214) 
9.87634e-10

>  <r_epik_State_Penalty>  (214) 
-0

>  <r_epik_Charging_Adjusted_Penalty>  (214) 
0

>  <i_epik_Tot_Q>  (214) 
0

>  <i_epik_Tot_abs_Q>  (214) 
0

>  <s_epik_Chemistry_Notes>  (214) 
This compound has an ester and may undergo hydrolysis at high or low pH.

>  <s_lp_Force_Field>  (214) 
OPLS3e

>  <r_lp_Energy>  (214) 
37.7313

>  <b_lp_Chiralities_Consistent>  (214) 
1

>  <s_lp_Variant>  (214) 
58:0-1

>  <s_i_glide_gridfile>  (214) 
pfpi4k_grid

>  <i_i_glide_lignum>  (214) 
43

>  <i_i_glide_rotatable_bonds>  (214) 
3

>  <r_i_docking_score>  (214) 
-3.2407

>  <r_i_glide_ligand_efficiency>  (214) 
-0.129628

>  <r_i_glide_ligand_efficiency_sa>  (214) 
-0.379034

>  <r_i_glide_ligand_efficiency_ln>  (214) 
-0.768142

>  <r_i_glide_gscore>  (214) 
-3.2407

>  <r_i_glide_lipo>  (214) 
-0.378984

>  <r_i_glide_hbond>  (214) 
-0.129836

>  <r_i_glide_metal>  (214) 
-0

>  <r_i_glide_rewards>  (214) 
-1.10863

>  <r_i_glide_evdw>  (214) 
-29.3205

>  <r_i_glide_ecoul>  (214) 
-3.06714

>  <r_i_glide_erotb>  (214) 
0.315322

>  <r_i_glide_esite>  (214) 
-0.0124744

>  <r_i_glide_emodel>  (214) 
-36.1727

>  <r_i_glide_energy>  (214) 
-32.3876

>  <r_i_glide_einternal>  (214) 
5.68542

>  <r_i_glide_intrahb_reward>  (214) 
-0

>  <i_i_glide_confnum>  (214) 
1

>  <i_i_glide_posenum>  (214) 
20

>  <r_i_glide_eff_state_penalty>  (214) 
0

>  <ligand_id>  (214) 
58

>  <original_smiles>  (214) 
CC=C1C(=O)C(C)(OC(C)=O)C(=O)C2=CN(C3CCCC3)C(=O)OC12

>  <smiles>  (214) 
[H]C1=C2C(=O)C(OC(=O)C([H])([H])[H])(C([H])([H])[H])C(=O)C(=C([H])C([H])([H])[H])C2([H])OC(=O)N1C1([H])C([H])([H])C([H])([H])C([H])([H])C1([H])[H]

$$$$
58:1:0
     RDKit          3D

 46 48  0  0  1  0  0  0  0  0999 V2000
    0.6854   -2.8956    4.2930 C   0  0  0  0  0  0  0  0  0  0  0  0
    1.9036   -2.7133    3.4089 C   0  0  0  0  0  0  0  0  0  0  0  0
    2.8487   -3.6290    3.0924 C   0  0  0  0  0  0  0  0  0  0  0  0
    2.8448   -5.0215    3.6110 C   0  0  0  0  0  0  0  0  0  0  0  0
    2.5228   -5.2972    4.7682 O   0  0  0  0  0  0  0  0  0  0  0  0
    3.3538   -6.1769    2.7094 C   0  0  1  0  0  0  0  0  0  0  0  0
    4.6324   -6.7887    3.3065 C   0  0  0  0  0  0  0  0  0  0  0  0
    2.4097   -7.2703    2.7109 O   0  0  0  0  0  0  0  0  0  0  0  0
    1.1384   -7.2146    2.2382 C   0  0  0  0  0  0  0  0  0  0  0  0
    0.3834   -8.5118    2.4829 C   0  0  0  0  0  0  0  0  0  0  0  0
    0.5980   -6.2539    1.6773 O   0  0  0  0  0  0  0  0  0  0  0  0
    3.6797   -5.7137    1.2657 C   0  0  0  0  0  0  0  0  0  0  0  0
    3.8131   -6.5705    0.4009 O   0  0  0  0  0  0  0  0  0  0  0  0
    3.8819   -4.2688    0.9987 C   0  0  0  0  0  0  0  0  0  0  0  0
    3.8450   -3.7735   -0.2359 C   0  0  0  0  0  0  0  0  0  0  0  0
    3.9890   -2.4047   -0.5035 N   0  0  0  0  0  0  0  0  0  0  0  0
    3.9711   -1.9588   -1.9196 C   0  0  0  0  0  0  0  0  0  0  0  0
    2.6945   -2.3923   -2.6647 C   0  0  0  0  0  0  0  0  0  0  0  0
    3.1192   -3.3859   -3.7569 C   0  0  0  0  0  0  0  0  0  0  0  0
    4.5884   -3.7565   -3.5044 C   0  0  0  0  0  0  0  0  0  0  0  0
    5.1336   -2.5545   -2.7348 C   0  0  0  0  0  0  0  0  0  0  0  0
    4.1301   -1.4573    0.5398 C   0  0  0  0  0  0  0  0  0  0  0  0
    4.2534   -0.2341    0.3903 O   0  0  0  0  0  0  0  0  0  0  0  0
    4.1353   -1.9691    1.8103 O   0  0  0  0  0  0  0  0  0  0  0  0
    4.0255   -3.3488    2.1750 C   0  0  1  0  0  0  0  0  0  0  0  0
   -0.1748   -2.4390    3.8073 H   0  0  0  0  0  0  0  0  0  0  0  0
    0.8366   -2.4025    5.2522 H   0  0  0  0  0  0  0  0  0  0  0  0
    0.4369   -3.9400    4.4714 H   0  0  0  0  0  0  0  0  0  0  0  0
    2.0040   -1.7132    3.0084 H   0  0  0  0  0  0  0  0  0  0  0  0
    5.4432   -6.0610    3.3669 H   0  0  0  0  0  0  0  0  0  0  0  0
    4.9865   -7.6285    2.7055 H   0  0  0  0  0  0  0  0  0  0  0  0
    4.4502   -7.1716    4.3113 H   0  0  0  0  0  0  0  0  0  0  0  0
    0.3689   -8.7466    3.5455 H   0  0  0  0  0  0  0  0  0  0  0  0
    0.8771   -9.3299    1.9550 H   0  0  0  0  0  0  0  0  0  0  0  0
   -0.6426   -8.4385    2.1234 H   0  0  0  0  0  0  0  0  0  0  0  0
    3.6555   -4.4223   -1.0795 H   0  0  0  0  0  0  0  0  0  0  0  0
    4.0391   -0.8694   -1.9977 H   0  0  0  0  0  0  0  0  0  0  0  0
    1.9429   -2.8095   -1.9923 H   0  0  0  0  0  0  0  0  0  0  0  0
    2.2185   -1.5234   -3.1231 H   0  0  0  0  0  0  0  0  0  0  0  0
    2.4579   -4.2514   -3.7804 H   0  0  0  0  0  0  0  0  0  0  0  0
    3.0333   -2.8992   -4.7251 H   0  0  0  0  0  0  0  0  0  0  0  0
    4.6663   -4.6536   -2.8936 H   0  0  0  0  0  0  0  0  0  0  0  0
    5.1419   -3.9820   -4.4159 H   0  0  0  0  0  0  0  0  0  0  0  0
    5.4060   -1.8291   -3.4931 H   0  0  0  0  0  0  0  0  0  0  0  0
    6.0322   -2.7527   -2.1506 H   0  0  0  0  0  0  0  0  0  0  0  0
    4.9536   -3.6208    2.6823 H   0  0  0  0  0  0  0  0  0  0  0  0
  1  2  1  0
  1 26  1  0
  1 27  1  0
  1 28  1  0
  2  3  2  3
  2 29  1  0
  3 25  1  0
  3  4  1  0
  4  5  2  0
  4  6  1  0
  6  7  1  0
  6  8  1  6
  6 12  1  0
  7 30  1  0
  7 31  1  0
  7 32  1  0
  8  9  1  0
  9 10  1  0
  9 11  2  0
 10 33  1  0
 10 34  1  0
 10 35  1  0
 12 13  2  0
 12 14  1  0
 14 25  1  0
 14 15  2  0
 15 16  1  0
 15 36  1  0
 16 17  1  0
 16 22  1  0
 17 21  1  0
 17 18  1  0
 17 37  1  0
 18 19  1  0
 18 38  1  0
 18 39  1  0
 19 20  1  0
 19 40  1  0
 19 41  1  0
 20 21  1  0
 20 42  1  0
 20 43  1  0
 21 44  1  0
 21 45  1  0
 22 23  2  0
 22 24  1  0
 24 25  1  0
 25 46  1  1
M  END
>  <i_m_ct_stereo_status>  (215) 
1

>  <s_m_source_file>  (215) 
/var/tmp/pbs.5076255.sched01/tmp323fbwsu/45qgza_o8k.sdf

>  <i_m_source_file_index>  (215) 
44

>  <i_lp_mmshare_version>  (215) 
48012

>  <i_f3d_flags>  (215) 
0

>  <s_epik_input>  (215) 
W0NIM11DKD1PKU9bQ0BAXShbQ0gzXSkoQzE9TylDKD1PKVxDKD1bQ0hdXFtDSDNdKVtDQEBIXShDMT0yKU9DKD1PKU4oW0NIXTIpW0NIXTNbQ0gyXVtDSDJdW0NIMl1bQ0gyXTM=

>  <s_epik_cmdline>  (215) 
J2VwaWtfcHl0aG9uJywgJy1waHQnLCAnMi4wJywgJy1waCcsICc3LjAnLCAnLXRuJywgJzgnLCAnLW1hJywgJzIwMCcsICctaW1hZScsICc8aW5maWxlLm1hZT4nLCAnLW9tYWUnLCAnPG91dGZpbGUubWFlPic=

>  <r_lp_tautomer_probability>  (215) 
1

>  <r_epik_Ionization_Penalty>  (215) 
9.87634e-10

>  <r_epik_Ionization_Penalty_Charging>  (215) 
0

>  <r_epik_Ionization_Penalty_Neutral>  (215) 
9.87634e-10

>  <r_epik_State_Penalty>  (215) 
-0

>  <r_epik_Charging_Adjusted_Penalty>  (215) 
0

>  <i_epik_Tot_Q>  (215) 
0

>  <i_epik_Tot_abs_Q>  (215) 
0

>  <s_epik_Chemistry_Notes>  (215) 
This compound has an ester and may undergo hydrolysis at high or low pH.

>  <s_lp_Force_Field>  (215) 
OPLS3e

>  <r_lp_Energy>  (215) 
37.1266

>  <b_lp_Chiralities_Consistent>  (215) 
1

>  <s_lp_Variant>  (215) 
58:0-2

>  <s_i_glide_gridfile>  (215) 
pfpi4k_grid

>  <i_i_glide_lignum>  (215) 
44

>  <i_i_glide_rotatable_bonds>  (215) 
3

>  <r_i_docking_score>  (215) 
-3.33586

>  <r_i_glide_ligand_efficiency>  (215) 
-0.133434

>  <r_i_glide_ligand_efficiency_sa>  (215) 
-0.390165

>  <r_i_glide_ligand_efficiency_ln>  (215) 
-0.790699

>  <r_i_glide_gscore>  (215) 
-3.33586

>  <r_i_glide_lipo>  (215) 
-0.442884

>  <r_i_glide_hbond>  (215) 
-0.163042

>  <r_i_glide_metal>  (215) 
-0

>  <r_i_glide_rewards>  (215) 
-1.08088

>  <r_i_glide_evdw>  (215) 
-28.1203

>  <r_i_glide_ecoul>  (215) 
-3.17402

>  <r_i_glide_erotb>  (215) 
0.315322

>  <r_i_glide_esite>  (215) 
-0.0822657

>  <r_i_glide_emodel>  (215) 
-37.4255

>  <r_i_glide_energy>  (215) 
-31.2943

>  <r_i_glide_einternal>  (215) 
0.156094

>  <r_i_glide_intrahb_reward>  (215) 
-0

>  <i_i_glide_confnum>  (215) 
1

>  <i_i_glide_posenum>  (215) 
9

>  <r_i_glide_eff_state_penalty>  (215) 
0

>  <ligand_id>  (215) 
58

>  <original_smiles>  (215) 
CC=C1C(=O)C(C)(OC(C)=O)C(=O)C2=CN(C3CCCC3)C(=O)OC12

>  <smiles>  (215) 
[H]C1=C2C(=O)C(OC(=O)C([H])([H])[H])(C([H])([H])[H])C(=O)C(=C([H])C([H])([H])[H])C2([H])OC(=O)N1C1([H])C([H])([H])C([H])([H])C([H])([H])C1([H])[H]

$$$$
58:1:1
     RDKit          3D

 46 48  0  0  1  0  0  0  0  0999 V2000
    0.2139   -3.0552    4.8184 C   0  0  0  0  0  0  0  0  0  0  0  0
    1.5193   -2.8723    4.0670 C   0  0  0  0  0  0  0  0  0  0  0  0
    2.4526   -3.7998    3.7729 C   0  0  0  0  0  0  0  0  0  0  0  0
    2.3196   -5.2368    4.1687 C   0  0  0  0  0  0  0  0  0  0  0  0
    1.8613   -5.5965    5.2530 O   0  0  0  0  0  0  0  0  0  0  0  0
    2.8620   -6.3459    3.2095 C   0  0  1  0  0  0  0  0  0  0  0  0
    4.0489   -7.0703    3.8636 C   0  0  0  0  0  0  0  0  0  0  0  0
    1.8712   -7.3856    3.0388 O   0  0  0  0  0  0  0  0  0  0  0  0
    0.6859   -7.2462    2.3751 C   0  0  0  0  0  0  0  0  0  0  0  0
   -0.1777   -8.5020    2.4884 C   0  0  0  0  0  0  0  0  0  0  0  0
    0.2961   -6.2650    1.7543 O   0  0  0  0  0  0  0  0  0  0  0  0
    3.3512   -5.7757    1.8549 C   0  0  0  0  0  0  0  0  0  0  0  0
    3.4782   -6.5543    0.9023 O   0  0  0  0  0  0  0  0  0  0  0  0
    3.6614   -4.3305    1.7523 C   0  0  0  0  0  0  0  0  0  0  0  0
    3.7448   -3.7602    0.5551 C   0  0  0  0  0  0  0  0  0  0  0  0
    3.9518   -2.3810    0.3896 N   0  0  0  0  0  0  0  0  0  0  0  0
    4.0815   -1.8295   -0.9805 C   0  0  0  0  0  0  0  0  0  0  0  0
    3.4921   -2.7124   -2.1017 C   0  0  0  0  0  0  0  0  0  0  0  0
    4.6388   -3.6389   -2.5589 C   0  0  0  0  0  0  0  0  0  0  0  0
    5.9345   -2.9010   -2.2132 C   0  0  0  0  0  0  0  0  0  0  0  0
    5.5516   -1.6560   -1.4025 C   0  0  0  0  0  0  0  0  0  0  0  0
    4.0483   -1.5008    1.5020 C   0  0  0  0  0  0  0  0  0  0  0  0
    4.2366   -0.2905    1.4207 O   0  0  0  0  0  0  0  0  0  0  0  0
    3.9230   -2.0965    2.7357 O   0  0  0  0  0  0  0  0  0  0  0  0
    3.7315   -3.4972    3.0056 C   0  0  1  0  0  0  0  0  0  0  0  0
   -0.5758   -2.5146    4.2916 H   0  0  0  0  0  0  0  0  0  0  0  0
    0.3024   -2.6501    5.8255 H   0  0  0  0  0  0  0  0  0  0  0  0
   -0.0936   -4.0998    4.8819 H   0  0  0  0  0  0  0  0  0  0  0  0
    1.7033   -1.8509    3.7649 H   0  0  0  0  0  0  0  0  0  0  0  0
    4.8840   -6.3946    4.0547 H   0  0  0  0  0  0  0  0  0  0  0  0
    4.4240   -7.8773    3.2287 H   0  0  0  0  0  0  0  0  0  0  0  0
    3.7638   -7.5245    4.8151 H   0  0  0  0  0  0  0  0  0  0  0  0
   -0.3699   -8.7154    3.5345 H   0  0  0  0  0  0  0  0  0  0  0  0
    0.3444   -9.3451    2.0475 H   0  0  0  0  0  0  0  0  0  0  0  0
   -1.1241   -8.3534    1.9694 H   0  0  0  0  0  0  0  0  0  0  0  0
    3.5951   -4.3721   -0.3280 H   0  0  0  0  0  0  0  0  0  0  0  0
    3.5890   -0.8600   -1.0087 H   0  0  0  0  0  0  0  0  0  0  0  0
    2.5628   -3.2051   -1.8315 H   0  0  0  0  0  0  0  0  0  0  0  0
    3.2331   -2.0555   -2.9322 H   0  0  0  0  0  0  0  0  0  0  0  0
    4.6625   -4.5791   -2.0042 H   0  0  0  0  0  0  0  0  0  0  0  0
    4.5625   -3.9031   -3.6151 H   0  0  0  0  0  0  0  0  0  0  0  0
    6.5974   -3.5307   -1.6271 H   0  0  0  0  0  0  0  0  0  0  0  0
    6.4895   -2.6533   -3.1158 H   0  0  0  0  0  0  0  0  0  0  0  0
    5.6269   -0.7796   -2.0553 H   0  0  0  0  0  0  0  0  0  0  0  0
    6.2291   -1.4641   -0.5671 H   0  0  0  0  0  0  0  0  0  0  0  0
    4.5869   -3.8654    3.5781 H   0  0  0  0  0  0  0  0  0  0  0  0
  1  2  1  0
  1 26  1  0
  1 27  1  0
  1 28  1  0
  2  3  2  3
  2 29  1  0
  3 25  1  0
  3  4  1  0
  4  5  2  0
  4  6  1  0
  6  7  1  0
  6  8  1  6
  6 12  1  0
  7 30  1  0
  7 31  1  0
  7 32  1  0
  8  9  1  0
  9 10  1  0
  9 11  2  0
 10 33  1  0
 10 34  1  0
 10 35  1  0
 12 13  2  0
 12 14  1  0
 14 25  1  0
 14 15  2  0
 15 16  1  0
 15 36  1  0
 16 17  1  0
 16 22  1  0
 17 21  1  0
 17 18  1  0
 17 37  1  0
 18 19  1  0
 18 38  1  0
 18 39  1  0
 19 20  1  0
 19 40  1  0
 19 41  1  0
 20 21  1  0
 20 42  1  0
 20 43  1  0
 21 44  1  0
 21 45  1  0
 22 23  2  0
 22 24  1  0
 24 25  1  0
 25 46  1  1
M  END
>  <i_m_ct_stereo_status>  (216) 
1

>  <s_m_source_file>  (216) 
/var/tmp/pbs.5076255.sched01/tmp323fbwsu/45qgza_o8k.sdf

>  <i_m_source_file_index>  (216) 
44

>  <i_lp_mmshare_version>  (216) 
48012

>  <i_f3d_flags>  (216) 
0

>  <s_epik_input>  (216) 
W0NIM11DKD1PKU9bQ0BAXShbQ0gzXSkoQzE9TylDKD1PKVxDKD1bQ0hdXFtDSDNdKVtDQEBIXShDMT0yKU9DKD1PKU4oW0NIXTIpW0NIXTNbQ0gyXVtDSDJdW0NIMl1bQ0gyXTM=

>  <s_epik_cmdline>  (216) 
J2VwaWtfcHl0aG9uJywgJy1waHQnLCAnMi4wJywgJy1waCcsICc3LjAnLCAnLXRuJywgJzgnLCAnLW1hJywgJzIwMCcsICctaW1hZScsICc8aW5maWxlLm1hZT4nLCAnLW9tYWUnLCAnPG91dGZpbGUubWFlPic=

>  <r_lp_tautomer_probability>  (216) 
1

>  <r_epik_Ionization_Penalty>  (216) 
9.87634e-10

>  <r_epik_Ionization_Penalty_Charging>  (216) 
0

>  <r_epik_Ionization_Penalty_Neutral>  (216) 
9.87634e-10

>  <r_epik_State_Penalty>  (216) 
-0

>  <r_epik_Charging_Adjusted_Penalty>  (216) 
0

>  <i_epik_Tot_Q>  (216) 
0

>  <i_epik_Tot_abs_Q>  (216) 
0

>  <s_epik_Chemistry_Notes>  (216) 
This compound has an ester and may undergo hydrolysis at high or low pH.

>  <s_lp_Force_Field>  (216) 
OPLS3e

>  <r_lp_Energy>  (216) 
37.1266

>  <b_lp_Chiralities_Consistent>  (216) 
1

>  <s_lp_Variant>  (216) 
58:0-2

>  <s_i_glide_gridfile>  (216) 
pfpi4k_grid

>  <i_i_glide_lignum>  (216) 
44

>  <i_i_glide_rotatable_bonds>  (216) 
3

>  <r_i_docking_score>  (216) 
-3.08417

>  <r_i_glide_ligand_efficiency>  (216) 
-0.123367

>  <r_i_glide_ligand_efficiency_sa>  (216) 
-0.360727

>  <r_i_glide_ligand_efficiency_ln>  (216) 
-0.731042

>  <r_i_glide_gscore>  (216) 
-3.08417

>  <r_i_glide_lipo>  (216) 
-0.144572

>  <r_i_glide_hbond>  (216) 
-0.243611

>  <r_i_glide_metal>  (216) 
-0

>  <r_i_glide_rewards>  (216) 
-1.06111

>  <r_i_glide_evdw>  (216) 
-26.6478

>  <r_i_glide_ecoul>  (216) 
-3.65509

>  <r_i_glide_erotb>  (216) 
0.315322

>  <r_i_glide_esite>  (216) 
-0.0695551

>  <r_i_glide_emodel>  (216) 
-33.7816

>  <r_i_glide_energy>  (216) 
-30.3029

>  <r_i_glide_einternal>  (216) 
3.33375

>  <r_i_glide_intrahb_reward>  (216) 
-0

>  <i_i_glide_confnum>  (216) 
3

>  <i_i_glide_posenum>  (216) 
34

>  <r_i_glide_eff_state_penalty>  (216) 
0

>  <ligand_id>  (216) 
58

>  <original_smiles>  (216) 
CC=C1C(=O)C(C)(OC(C)=O)C(=O)C2=CN(C3CCCC3)C(=O)OC12

>  <smiles>  (216) 
[H]C1=C2C(=O)C(OC(=O)C([H])([H])[H])(C([H])([H])[H])C(=O)C(=C([H])C([H])([H])[H])C2([H])OC(=O)N1C1([H])C([H])([H])C([H])([H])C([H])([H])C1([H])[H]

$$$$
58:1:2
     RDKit          3D

 46 48  0  0  1  0  0  0  0  0999 V2000
    1.5995   -6.2871    0.8849 C   0  0  0  0  0  0  0  0  0  0  0  0
    1.9397   -5.1829    1.8689 C   0  0  0  0  0  0  0  0  0  0  0  0
    2.9908   -4.3307    1.8390 C   0  0  0  0  0  0  0  0  0  0  0  0
    4.0494   -4.3747    0.7981 C   0  0  0  0  0  0  0  0  0  0  0  0
    4.5029   -5.4351    0.3617 O   0  0  0  0  0  0  0  0  0  0  0  0
    4.6894   -3.0376    0.3049 C   0  0  1  0  0  0  0  0  0  0  0  0
    6.1764   -3.0091    0.6994 C   0  0  0  0  0  0  0  0  0  0  0  0
    4.7198   -2.9704   -1.1362 O   0  0  0  0  0  0  0  0  0  0  0  0
    3.6253   -3.0544   -1.9363 C   0  0  0  0  0  0  0  0  0  0  0  0
    3.9844   -2.9004   -3.4098 C   0  0  0  0  0  0  0  0  0  0  0  0
    2.4655   -3.2365   -1.5693 O   0  0  0  0  0  0  0  0  0  0  0  0
    3.9983   -1.7736    0.8939 C   0  0  0  0  0  0  0  0  0  0  0  0
    4.2099   -0.6812    0.3612 O   0  0  0  0  0  0  0  0  0  0  0  0
    3.1641   -1.9138    2.1132 C   0  0  0  0  0  0  0  0  0  0  0  0
    2.3232   -0.9612    2.5021 C   0  0  0  0  0  0  0  0  0  0  0  0
    1.4712   -1.1091    3.6074 N   0  0  0  0  0  0  0  0  0  0  0  0
    0.5782    0.0130    3.9641 C   0  0  0  0  0  0  0  0  0  0  0  0
   -0.2187    0.5522    2.7592 C   0  0  0  0  0  0  0  0  0  0  0  0
    0.2947    1.9727    2.4898 C   0  0  0  0  0  0  0  0  0  0  0  0
    1.5536    2.1702    3.3373 C   0  0  0  0  0  0  0  0  0  0  0  0
    1.3566    1.2196    4.5188 C   0  0  0  0  0  0  0  0  0  0  0  0
    1.4275   -2.2996    4.3653 C   0  0  0  0  0  0  0  0  0  0  0  0
    0.6841   -2.5047    5.3241 O   0  0  0  0  0  0  0  0  0  0  0  0
    2.2990   -3.2817    3.9585 O   0  0  0  0  0  0  0  0  0  0  0  0
    3.2147   -3.2221    2.8555 C   0  0  1  0  0  0  0  0  0  0  0  0
    0.5376   -6.2614    0.6506 H   0  0  0  0  0  0  0  0  0  0  0  0
    1.8242   -7.2600    1.3208 H   0  0  0  0  0  0  0  0  0  0  0  0
    2.1422   -6.1963   -0.0543 H   0  0  0  0  0  0  0  0  0  0  0  0
    1.2394   -5.1016    2.6879 H   0  0  0  0  0  0  0  0  0  0  0  0
    6.3115   -3.0472    1.7794 H   0  0  0  0  0  0  0  0  0  0  0  0
    6.6625   -2.1035    0.3383 H   0  0  0  0  0  0  0  0  0  0  0  0
    6.7157   -3.8534    0.2684 H   0  0  0  0  0  0  0  0  0  0  0  0
    4.6959   -3.6736   -3.7003 H   0  0  0  0  0  0  0  0  0  0  0  0
    4.4428   -1.9260   -3.5790 H   0  0  0  0  0  0  0  0  0  0  0  0
    3.0977   -2.9851   -4.0381 H   0  0  0  0  0  0  0  0  0  0  0  0
    2.2310   -0.0382    1.9509 H   0  0  0  0  0  0  0  0  0  0  0  0
   -0.1443   -0.2934    4.7209 H   0  0  0  0  0  0  0  0  0  0  0  0
   -0.1211   -0.0752    1.8734 H   0  0  0  0  0  0  0  0  0  0  0  0
   -1.2877    0.5795    2.9877 H   0  0  0  0  0  0  0  0  0  0  0  0
    0.4797    2.1392    1.4289 H   0  0  0  0  0  0  0  0  0  0  0  0
   -0.4623    2.6941    2.8007 H   0  0  0  0  0  0  0  0  0  0  0  0
    2.4457    1.8947    2.7752 H   0  0  0  0  0  0  0  0  0  0  0  0
    1.6916    3.2049    3.6431 H   0  0  0  0  0  0  0  0  0  0  0  0
    0.7291    1.7255    5.2593 H   0  0  0  0  0  0  0  0  0  0  0  0
    2.2862    0.9468    5.0189 H   0  0  0  0  0  0  0  0  0  0  0  0
    4.2183   -3.3218    3.2715 H   0  0  0  0  0  0  0  0  0  0  0  0
  1  2  1  0
  1 26  1  0
  1 27  1  0
  1 28  1  0
  2  3  2  3
  2 29  1  0
  3 25  1  0
  3  4  1  0
  4  5  2  0
  4  6  1  0
  6  7  1  0
  6  8  1  6
  6 12  1  0
  7 30  1  0
  7 31  1  0
  7 32  1  0
  8  9  1  0
  9 10  1  0
  9 11  2  0
 10 33  1  0
 10 34  1  0
 10 35  1  0
 12 13  2  0
 12 14  1  0
 14 25  1  0
 14 15  2  0
 15 16  1  0
 15 36  1  0
 16 17  1  0
 16 22  1  0
 17 21  1  0
 17 18  1  0
 17 37  1  0
 18 19  1  0
 18 38  1  0
 18 39  1  0
 19 20  1  0
 19 40  1  0
 19 41  1  0
 20 21  1  0
 20 42  1  0
 20 43  1  0
 21 44  1  0
 21 45  1  0
 22 23  2  0
 22 24  1  0
 24 25  1  0
 25 46  1  1
M  END
>  <i_m_ct_stereo_status>  (217) 
1

>  <s_m_source_file>  (217) 
/var/tmp/pbs.5076255.sched01/tmp323fbwsu/45qgza_o8k.sdf

>  <i_m_source_file_index>  (217) 
44

>  <i_lp_mmshare_version>  (217) 
48012

>  <i_f3d_flags>  (217) 
0

>  <s_epik_input>  (217) 
W0NIM11DKD1PKU9bQ0BAXShbQ0gzXSkoQzE9TylDKD1PKVxDKD1bQ0hdXFtDSDNdKVtDQEBIXShDMT0yKU9DKD1PKU4oW0NIXTIpW0NIXTNbQ0gyXVtDSDJdW0NIMl1bQ0gyXTM=

>  <s_epik_cmdline>  (217) 
J2VwaWtfcHl0aG9uJywgJy1waHQnLCAnMi4wJywgJy1waCcsICc3LjAnLCAnLXRuJywgJzgnLCAnLW1hJywgJzIwMCcsICctaW1hZScsICc8aW5maWxlLm1hZT4nLCAnLW9tYWUnLCAnPG91dGZpbGUubWFlPic=

>  <r_lp_tautomer_probability>  (217) 
1

>  <r_epik_Ionization_Penalty>  (217) 
9.87634e-10

>  <r_epik_Ionization_Penalty_Charging>  (217) 
0

>  <r_epik_Ionization_Penalty_Neutral>  (217) 
9.87634e-10

>  <r_epik_State_Penalty>  (217) 
-0

>  <r_epik_Charging_Adjusted_Penalty>  (217) 
0

>  <i_epik_Tot_Q>  (217) 
0

>  <i_epik_Tot_abs_Q>  (217) 
0

>  <s_epik_Chemistry_Notes>  (217) 
This compound has an ester and may undergo hydrolysis at high or low pH.

>  <s_lp_Force_Field>  (217) 
OPLS3e

>  <r_lp_Energy>  (217) 
37.1266

>  <b_lp_Chiralities_Consistent>  (217) 
1

>  <s_lp_Variant>  (217) 
58:0-2

>  <s_i_glide_gridfile>  (217) 
pfpi4k_grid

>  <i_i_glide_lignum>  (217) 
44

>  <i_i_glide_rotatable_bonds>  (217) 
3

>  <r_i_docking_score>  (217) 
-2.40654

>  <r_i_glide_ligand_efficiency>  (217) 
-0.0962615

>  <r_i_glide_ligand_efficiency_sa>  (217) 
-0.28147

>  <r_i_glide_ligand_efficiency_ln>  (217) 
-0.570422

>  <r_i_glide_gscore>  (217) 
-2.40654

>  <r_i_glide_lipo>  (217) 
-0.265874

>  <r_i_glide_hbond>  (217) 
0

>  <r_i_glide_metal>  (217) 
-0

>  <r_i_glide_rewards>  (217) 
-1.07031

>  <r_i_glide_evdw>  (217) 
-28.4265

>  <r_i_glide_ecoul>  (217) 
0.474147

>  <r_i_glide_erotb>  (217) 
0.315322

>  <r_i_glide_esite>  (217) 
-0.0354757

>  <r_i_glide_emodel>  (217) 
-32.4498

>  <r_i_glide_energy>  (217) 
-27.9523

>  <r_i_glide_einternal>  (217) 
0.0824551

>  <r_i_glide_intrahb_reward>  (217) 
-0

>  <i_i_glide_confnum>  (217) 
1

>  <i_i_glide_posenum>  (217) 
3

>  <r_i_glide_eff_state_penalty>  (217) 
0

>  <ligand_id>  (217) 
58

>  <original_smiles>  (217) 
CC=C1C(=O)C(C)(OC(C)=O)C(=O)C2=CN(C3CCCC3)C(=O)OC12

>  <smiles>  (217) 
[H]C1=C2C(=O)C(OC(=O)C([H])([H])[H])(C([H])([H])[H])C(=O)C(=C([H])C([H])([H])[H])C2([H])OC(=O)N1C1([H])C([H])([H])C([H])([H])C([H])([H])C1([H])[H]

$$$$
59:0:0
     RDKit          3D

 42 44  0  0  1  0  0  0  0  0999 V2000
    1.8226    1.1767    8.7324 C   0  0  0  0  0  0  0  0  0  0  0  0
    2.0233    2.0361    7.4769 C   0  0  0  0  0  0  0  0  0  0  0  0
    1.1302    3.3044    7.4165 C   0  0  2  0  0  0  0  0  0  0  0  0
   -0.3674    2.9919    7.4042 C   0  0  0  0  0  0  0  0  0  0  0  0
   -1.0522    2.5150    6.3368 C   0  0  0  0  0  0  0  0  0  0  0  0
   -2.5517    2.2726    6.4675 C   0  0  0  0  0  0  0  0  0  0  0  0
   -3.1966    2.9452    7.6905 C   0  0  0  0  0  0  0  0  0  0  0  0
   -2.3884    2.6642    8.8649 N   0  0  0  0  0  0  0  0  0  0  0  0
   -3.0509    3.1560   10.0675 C   0  0  0  0  0  0  0  0  0  0  0  0
   -1.0794    3.3043    8.7268 C   0  0  0  0  0  0  0  0  0  0  0  0
   -0.4682    2.2252    5.0030 C   0  0  0  0  0  0  0  0  0  0  0  0
   -1.0452    1.2749    4.1065 C   0  0  0  0  0  0  0  0  0  0  0  0
   -0.2618    1.2390    2.9944 C   0  0  0  0  0  0  0  0  0  0  0  0
    0.7911    2.1183    3.1650 N   0  0  0  0  0  0  0  0  0  0  0  0
    1.8210    2.3139    2.1485 C   0  0  0  0  0  0  0  0  0  0  0  0
    0.6708    2.7366    4.4201 C   0  0  0  0  0  0  0  0  0  0  0  0
    1.6475    3.7414    4.8935 C   0  0  0  0  0  0  0  0  0  0  0  0
    2.5757    4.1552    4.2041 O   0  0  0  0  0  0  0  0  0  0  0  0
    1.5416    4.3084    6.3126 C   0  0  1  0  0  0  0  0  0  0  0  0
    0.6870    5.5095    6.3012 C   0  0  0  0  0  0  0  0  0  0  0  0
    0.0110    6.4493    6.2993 N   0  0  0  0  0  0  0  0  0  0  0  0
    2.5221    0.3415    8.7375 H   0  0  0  0  0  0  0  0  0  0  0  0
    0.8173    0.7611    8.7788 H   0  0  0  0  0  0  0  0  0  0  0  0
    1.9972    1.7516    9.6408 H   0  0  0  0  0  0  0  0  0  0  0  0
    3.0668    2.3492    7.4479 H   0  0  0  0  0  0  0  0  0  0  0  0
    1.8779    1.4094    6.5963 H   0  0  0  0  0  0  0  0  0  0  0  0
    1.3171    3.8411    8.3462 H   0  0  0  0  0  0  0  0  0  0  0  0
   -3.0355    2.6742    5.5757 H   0  0  0  0  0  0  0  0  0  0  0  0
   -2.7179    1.1932    6.4907 H   0  0  0  0  0  0  0  0  0  0  0  0
   -3.2763    4.0231    7.5486 H   0  0  0  0  0  0  0  0  0  0  0  0
   -4.2090    2.5627    7.8277 H   0  0  0  0  0  0  0  0  0  0  0  0
   -2.4540    2.9287   10.9515 H   0  0  0  0  0  0  0  0  0  0  0  0
   -4.0212    2.6772   10.1961 H   0  0  0  0  0  0  0  0  0  0  0  0
   -3.2126    4.2353   10.0344 H   0  0  0  0  0  0  0  0  0  0  0  0
   -0.4522    2.9938    9.5618 H   0  0  0  0  0  0  0  0  0  0  0  0
   -1.1859    4.3902    8.7947 H   0  0  0  0  0  0  0  0  0  0  0  0
   -1.9412    0.6839    4.2428 H   0  0  0  0  0  0  0  0  0  0  0  0
   -0.3536    0.6590    2.0827 H   0  0  0  0  0  0  0  0  0  0  0  0
    2.8089    2.0900    2.5577 H   0  0  0  0  0  0  0  0  0  0  0  0
    1.8185    3.3459    1.7902 H   0  0  0  0  0  0  0  0  0  0  0  0
    1.6358    1.6483    1.3027 H   0  0  0  0  0  0  0  0  0  0  0  0
    2.5476    4.6593    6.5592 H   0  0  0  0  0  0  0  0  0  0  0  0
  1  2  1  0
  1 22  1  0
  1 23  1  0
  1 24  1  0
  2  3  1  0
  2 25  1  0
  2 26  1  0
  3 19  1  0
  3  4  1  0
  3 27  1  1
  4 10  1  0
  4  5  2  0
  5  6  1  0
  5 11  1  0
  6  7  1  0
  6 28  1  0
  6 29  1  0
  7  8  1  0
  7 30  1  0
  7 31  1  0
  8  9  1  0
  8 10  1  0
  9 32  1  0
  9 33  1  0
  9 34  1  0
 10 35  1  0
 10 36  1  0
 11 16  2  0
 11 12  1  0
 12 13  2  0
 12 37  1  0
 13 14  1  0
 13 38  1  0
 14 15  1  0
 14 16  1  0
 15 39  1  0
 15 40  1  0
 15 41  1  0
 16 17  1  0
 17 18  2  0
 17 19  1  0
 19 20  1  0
 19 42  1  1
 20 21  3  0
M  END
>  <i_m_ct_stereo_status>  (218) 
1

>  <s_m_source_file>  (218) 
/var/tmp/pbs.5076255.sched01/tmp323fbwsu/45qgza_o8k.sdf

>  <i_m_source_file_index>  (218) 
45

>  <i_lp_mmshare_version>  (218) 
48012

>  <i_f3d_flags>  (218) 
0

>  <s_epik_input>  (218) 
W0NIM11bQ0gyXVtDQEhdMVtDQEhdKEMjTilDKD1PKWMobihbQ0gzXSlbY0hdW2NIXTIpYzJDKD1DMTMpW0NIMl1bQ0gyXU4oW0NIM10pW0NIMl0z

>  <s_epik_cmdline>  (218) 
J2VwaWtfcHl0aG9uJywgJy1waHQnLCAnMi4wJywgJy1waCcsICc3LjAnLCAnLXRuJywgJzgnLCAnLW1hJywgJzIwMCcsICctaW1hZScsICc8aW5maWxlLm1hZT4nLCAnLW9tYWUnLCAnPG91dGZpbGUubWFlPic=

>  <r_epik_Ionization_Penalty>  (218) 
0.216721

>  <r_epik_Ionization_Penalty_Charging>  (218) 
0

>  <r_epik_Ionization_Penalty_Neutral>  (218) 
0.216721

>  <r_epik_State_Penalty>  (218) 
0.206954

>  <r_epik_Charging_Adjusted_Penalty>  (218) 
0.206954

>  <i_epik_Tot_Q>  (218) 
0

>  <i_epik_Tot_abs_Q>  (218) 
0

>  <s_lp_Force_Field>  (218) 
OPLS3e

>  <r_lp_Energy>  (218) 
17.5963

>  <b_lp_Chiralities_Consistent>  (218) 
1

>  <s_lp_Variant>  (218) 
59:0-1

>  <s_i_glide_gridfile>  (218) 
pfpi4k_grid

>  <i_i_glide_lignum>  (218) 
45

>  <i_i_glide_rotatable_bonds>  (218) 
2

>  <r_i_docking_score>  (218) 
-3.03258

>  <r_i_glide_ligand_efficiency>  (218) 
-0.144409

>  <r_i_glide_ligand_efficiency_sa>  (218) 
-0.398413

>  <r_i_glide_ligand_efficiency_ln>  (218) 
-0.7498

>  <r_i_glide_gscore>  (218) 
-3.03258

>  <r_i_glide_lipo>  (218) 
-0.214148

>  <r_i_glide_hbond>  (218) 
0

>  <r_i_glide_metal>  (218) 
-0

>  <r_i_glide_rewards>  (218) 
-1.47704

>  <r_i_glide_evdw>  (218) 
-18.5807

>  <r_i_glide_ecoul>  (218) 
-2.31172

>  <r_i_glide_erotb>  (218) 
0

>  <r_i_glide_esite>  (218) 
-0.0656048

>  <r_i_glide_emodel>  (218) 
-25.1655

>  <r_i_glide_energy>  (218) 
-20.8924

>  <r_i_glide_einternal>  (218) 
-0.160579

>  <r_i_glide_intrahb_reward>  (218) 
-0

>  <i_i_glide_confnum>  (218) 
1

>  <i_i_glide_posenum>  (218) 
30

>  <r_i_glide_eff_state_penalty>  (218) 
0

>  <ligand_id>  (218) 
59

>  <original_smiles>  (218) 
CCC1C2=C(CCN(C)C2)c2ccn(C)c2C(=O)C1C#N

>  <smiles>  (218) 
[H]c1c2c(n(C([H])([H])[H])c1[H])C(=O)C([H])(C#N)C([H])(C([H])([H])C([H])([H])[H])C1=C2C([H])([H])C([H])([H])N(C([H])([H])[H])C1([H])[H]

$$$$
59:0:1
     RDKit          3D

 42 44  0  0  1  0  0  0  0  0999 V2000
    1.5003    0.2536    6.4938 C   0  0  0  0  0  0  0  0  0  0  0  0
    2.0238    1.4412    7.3458 C   0  0  0  0  0  0  0  0  0  0  0  0
    1.2299    2.8060    7.3103 C   0  0  2  0  0  0  0  0  0  0  0  0
   -0.2829    2.6800    7.3521 C   0  0  0  0  0  0  0  0  0  0  0  0
   -1.0503    2.3814    6.2788 C   0  0  0  0  0  0  0  0  0  0  0  0
   -2.5628    2.2201    6.4657 C   0  0  0  0  0  0  0  0  0  0  0  0
   -3.0970    2.8825    7.7381 C   0  0  0  0  0  0  0  0  0  0  0  0
   -2.2785    2.4581    8.8749 N   0  0  0  0  0  0  0  0  0  0  0  0
   -2.8710    2.9418   10.1109 C   0  0  0  0  0  0  0  0  0  0  0  0
   -0.9244    2.9687    8.7185 C   0  0  0  0  0  0  0  0  0  0  0  0
   -0.5569    2.1209    4.9131 C   0  0  0  0  0  0  0  0  0  0  0  0
   -1.2193    1.2450    4.0023 C   0  0  0  0  0  0  0  0  0  0  0  0
   -0.4550    1.1764    2.8694 C   0  0  0  0  0  0  0  0  0  0  0  0
    0.6739    1.9493    3.0474 N   0  0  0  0  0  0  0  0  0  0  0  0
    1.7156    2.0494    2.0538 C   0  0  0  0  0  0  0  0  0  0  0  0
    0.6257    2.5309    4.3188 C   0  0  0  0  0  0  0  0  0  0  0  0
    1.7328    3.3825    4.8348 C   0  0  0  0  0  0  0  0  0  0  0  0
    2.6949    3.7082    4.1493 O   0  0  0  0  0  0  0  0  0  0  0  0
    1.7230    3.8485    6.2805 C   0  0  1  0  0  0  0  0  0  0  0  0
    0.9862    5.1317    6.3761 C   0  0  0  0  0  0  0  0  0  0  0  0
    0.4002    6.1319    6.4588 N   0  0  0  0  0  0  0  0  0  0  0  0
    2.0849   -0.6611    6.6976 H   0  0  0  0  0  0  0  0  0  0  0  0
    1.5718    0.4794    5.4158 H   0  0  0  0  0  0  0  0  0  0  0  0
    0.4743    0.0208    6.7449 H   0  0  0  0  0  0  0  0  0  0  0  0
    2.0589    1.1141    8.3892 H   0  0  0  0  0  0  0  0  0  0  0  0
    3.0492    1.6456    7.0837 H   0  0  0  0  0  0  0  0  0  0  0  0
    1.5000    3.2841    8.2593 H   0  0  0  0  0  0  0  0  0  0  0  0
   -3.0398    2.6876    5.6128 H   0  0  0  0  0  0  0  0  0  0  0  0
   -2.7831    1.1517    6.4781 H   0  0  0  0  0  0  0  0  0  0  0  0
   -3.0745    3.9674    7.6434 H   0  0  0  0  0  0  0  0  0  0  0  0
   -4.1318    2.5827    7.8877 H   0  0  0  0  0  0  0  0  0  0  0  0
   -2.2716    2.6091   10.9655 H   0  0  0  0  0  0  0  0  0  0  0  0
   -3.8741    2.5442   10.2466 H   0  0  0  0  0  0  0  0  0  0  0  0
   -2.9319    4.0329   10.1420 H   0  0  0  0  0  0  0  0  0  0  0  0
   -0.3026    2.5458    9.5218 H   0  0  0  0  0  0  0  0  0  0  0  0
   -0.9170    4.0448    8.8706 H   0  0  0  0  0  0  0  0  0  0  0  0
   -2.1130    0.6629    4.1592 H   0  0  0  0  0  0  0  0  0  0  0  0
   -0.5733    0.5713    1.9742 H   0  0  0  0  0  0  0  0  0  0  0  0
    2.6744    1.7055    2.4543 H   0  0  0  0  0  0  0  0  0  0  0  0
    1.8203    3.0814    1.6974 H   0  0  0  0  0  0  0  0  0  0  0  0
    1.4620    1.4068    1.2038 H   0  0  0  0  0  0  0  0  0  0  0  0
    2.7642    4.0774    6.5210 H   0  0  0  0  0  0  0  0  0  0  0  0
  1  2  1  0
  1 22  1  0
  1 23  1  0
  1 24  1  0
  2  3  1  0
  2 25  1  0
  2 26  1  0
  3 19  1  0
  3  4  1  0
  3 27  1  1
  4 10  1  0
  4  5  2  0
  5  6  1  0
  5 11  1  0
  6  7  1  0
  6 28  1  0
  6 29  1  0
  7  8  1  0
  7 30  1  0
  7 31  1  0
  8  9  1  0
  8 10  1  0
  9 32  1  0
  9 33  1  0
  9 34  1  0
 10 35  1  0
 10 36  1  0
 11 16  2  0
 11 12  1  0
 12 13  2  0
 12 37  1  0
 13 14  1  0
 13 38  1  0
 14 15  1  0
 14 16  1  0
 15 39  1  0
 15 40  1  0
 15 41  1  0
 16 17  1  0
 17 18  2  0
 17 19  1  0
 19 20  1  0
 19 42  1  1
 20 21  3  0
M  END
>  <i_m_ct_stereo_status>  (219) 
1

>  <s_m_source_file>  (219) 
/var/tmp/pbs.5076255.sched01/tmp323fbwsu/45qgza_o8k.sdf

>  <i_m_source_file_index>  (219) 
45

>  <i_lp_mmshare_version>  (219) 
48012

>  <i_f3d_flags>  (219) 
0

>  <s_epik_input>  (219) 
W0NIM11bQ0gyXVtDQEhdMVtDQEhdKEMjTilDKD1PKWMobihbQ0gzXSlbY0hdW2NIXTIpYzJDKD1DMTMpW0NIMl1bQ0gyXU4oW0NIM10pW0NIMl0z

>  <s_epik_cmdline>  (219) 
J2VwaWtfcHl0aG9uJywgJy1waHQnLCAnMi4wJywgJy1waCcsICc3LjAnLCAnLXRuJywgJzgnLCAnLW1hJywgJzIwMCcsICctaW1hZScsICc8aW5maWxlLm1hZT4nLCAnLW9tYWUnLCAnPG91dGZpbGUubWFlPic=

>  <r_epik_Ionization_Penalty>  (219) 
0.216721

>  <r_epik_Ionization_Penalty_Charging>  (219) 
0

>  <r_epik_Ionization_Penalty_Neutral>  (219) 
0.216721

>  <r_epik_State_Penalty>  (219) 
0.206954

>  <r_epik_Charging_Adjusted_Penalty>  (219) 
0.206954

>  <i_epik_Tot_Q>  (219) 
0

>  <i_epik_Tot_abs_Q>  (219) 
0

>  <s_lp_Force_Field>  (219) 
OPLS3e

>  <r_lp_Energy>  (219) 
17.5963

>  <b_lp_Chiralities_Consistent>  (219) 
1

>  <s_lp_Variant>  (219) 
59:0-1

>  <s_i_glide_gridfile>  (219) 
pfpi4k_grid

>  <i_i_glide_lignum>  (219) 
45

>  <i_i_glide_rotatable_bonds>  (219) 
2

>  <r_i_docking_score>  (219) 
-2.97212

>  <r_i_glide_ligand_efficiency>  (219) 
-0.141529

>  <r_i_glide_ligand_efficiency_sa>  (219) 
-0.390469

>  <r_i_glide_ligand_efficiency_ln>  (219) 
-0.73485

>  <r_i_glide_gscore>  (219) 
-2.97212

>  <r_i_glide_lipo>  (219) 
-0.212561

>  <r_i_glide_hbond>  (219) 
0

>  <r_i_glide_metal>  (219) 
-0

>  <r_i_glide_rewards>  (219) 
-1.47704

>  <r_i_glide_evdw>  (219) 
-18.6353

>  <r_i_glide_ecoul>  (219) 
-1.93165

>  <r_i_glide_erotb>  (219) 
0

>  <r_i_glide_esite>  (219) 
-0.0610097

>  <r_i_glide_emodel>  (219) 
-22.1805

>  <r_i_glide_energy>  (219) 
-20.5669

>  <r_i_glide_einternal>  (219) 
3.84401

>  <r_i_glide_intrahb_reward>  (219) 
-0

>  <i_i_glide_confnum>  (219) 
2

>  <i_i_glide_posenum>  (219) 
14

>  <r_i_glide_eff_state_penalty>  (219) 
0

>  <ligand_id>  (219) 
59

>  <original_smiles>  (219) 
CCC1C2=C(CCN(C)C2)c2ccn(C)c2C(=O)C1C#N

>  <smiles>  (219) 
[H]c1c2c(n(C([H])([H])[H])c1[H])C(=O)C([H])(C#N)C([H])(C([H])([H])C([H])([H])[H])C1=C2C([H])([H])C([H])([H])N(C([H])([H])[H])C1([H])[H]

$$$$
59:0:2
     RDKit          3D

 42 44  0  0  1  0  0  0  0  0999 V2000
    3.9491    2.4050    5.9753 C   0  0  0  0  0  0  0  0  0  0  0  0
    2.5981    1.8454    6.4398 C   0  0  0  0  0  0  0  0  0  0  0  0
    2.2239    0.4710    5.8242 C   0  0  2  0  0  0  0  0  0  0  0  0
    2.1076    0.4991    4.2997 C   0  0  0  0  0  0  0  0  0  0  0  0
    1.0776    1.0395    3.6042 C   0  0  0  0  0  0  0  0  0  0  0  0
    1.0940    0.9777    2.0811 C   0  0  0  0  0  0  0  0  0  0  0  0
    2.1041   -0.0322    1.5168 C   0  0  0  0  0  0  0  0  0  0  0  0
    3.3892    0.1476    2.1704 N   0  0  0  0  0  0  0  0  0  0  0  0
    4.4118   -0.6679    1.5299 C   0  0  0  0  0  0  0  0  0  0  0  0
    3.2766   -0.1907    3.5854 C   0  0  0  0  0  0  0  0  0  0  0  0
   -0.1173    1.6831    4.2017 C   0  0  0  0  0  0  0  0  0  0  0  0
   -0.8893    2.6609    3.5080 C   0  0  0  0  0  0  0  0  0  0  0  0
   -1.8922    3.0510    4.3410 C   0  0  0  0  0  0  0  0  0  0  0  0
   -1.7694    2.3700    5.5372 N   0  0  0  0  0  0  0  0  0  0  0  0
   -2.6846    2.5699    6.6561 C   0  0  0  0  0  0  0  0  0  0  0  0
   -0.6577    1.5150    5.4563 C   0  0  0  0  0  0  0  0  0  0  0  0
   -0.2631    0.6476    6.5795 C   0  0  0  0  0  0  0  0  0  0  0  0
   -0.9300    0.5462    7.6104 O   0  0  0  0  0  0  0  0  0  0  0  0
    1.0095   -0.1996    6.5021 C   0  0  1  0  0  0  0  0  0  0  0  0
    0.6928   -1.5156    5.9210 C   0  0  0  0  0  0  0  0  0  0  0  0
    0.4446   -2.5493    5.4659 N   0  0  0  0  0  0  0  0  0  0  0  0
    4.1728    3.3376    6.4926 H   0  0  0  0  0  0  0  0  0  0  0  0
    3.9484    2.6168    4.9066 H   0  0  0  0  0  0  0  0  0  0  0  0
    4.7614    1.7112    6.1875 H   0  0  0  0  0  0  0  0  0  0  0  0
    2.6338    1.7379    7.5238 H   0  0  0  0  0  0  0  0  0  0  0  0
    1.8272    2.5910    6.2423 H   0  0  0  0  0  0  0  0  0  0  0  0
    3.0605   -0.1903    6.0493 H   0  0  0  0  0  0  0  0  0  0  0  0
    0.1079    0.6795    1.7220 H   0  0  0  0  0  0  0  0  0  0  0  0
    1.2893    1.9811    1.6911 H   0  0  0  0  0  0  0  0  0  0  0  0
    1.7498   -1.0576    1.6379 H   0  0  0  0  0  0  0  0  0  0  0  0
    2.2165    0.1422    0.4523 H   0  0  0  0  0  0  0  0  0  0  0  0
    5.3768   -0.5094    2.0100 H   0  0  0  0  0  0  0  0  0  0  0  0
    4.5197   -0.3966    0.4793 H   0  0  0  0  0  0  0  0  0  0  0  0
    4.1736   -1.7308    1.5822 H   0  0  0  0  0  0  0  0  0  0  0  0
    4.2136    0.0656    4.0774 H   0  0  0  0  0  0  0  0  0  0  0  0
    3.1409   -1.2684    3.6919 H   0  0  0  0  0  0  0  0  0  0  0  0
   -0.7322    3.0434    2.5070 H   0  0  0  0  0  0  0  0  0  0  0  0
   -2.6871    3.7699    4.1895 H   0  0  0  0  0  0  0  0  0  0  0  0
   -2.1414    2.8888    7.5487 H   0  0  0  0  0  0  0  0  0  0  0  0
   -3.2253    1.6469    6.8779 H   0  0  0  0  0  0  0  0  0  0  0  0
   -3.4093    3.3432    6.4007 H   0  0  0  0  0  0  0  0  0  0  0  0
    1.2948   -0.4016    7.5377 H   0  0  0  0  0  0  0  0  0  0  0  0
  1  2  1  0
  1 22  1  0
  1 23  1  0
  1 24  1  0
  2  3  1  0
  2 25  1  0
  2 26  1  0
  3 19  1  0
  3  4  1  0
  3 27  1  6
  4 10  1  0
  4  5  2  0
  5  6  1  0
  5 11  1  0
  6  7  1  0
  6 28  1  0
  6 29  1  0
  7  8  1  0
  7 30  1  0
  7 31  1  0
  8  9  1  0
  8 10  1  0
  9 32  1  0
  9 33  1  0
  9 34  1  0
 10 35  1  0
 10 36  1  0
 11 16  2  0
 11 12  1  0
 12 13  2  0
 12 37  1  0
 13 14  1  0
 13 38  1  0
 14 15  1  0
 14 16  1  0
 15 39  1  0
 15 40  1  0
 15 41  1  0
 16 17  1  0
 17 18  2  0
 17 19  1  0
 19 20  1  0
 19 42  1  1
 20 21  3  0
M  END
>  <i_m_ct_stereo_status>  (220) 
1

>  <s_m_source_file>  (220) 
/var/tmp/pbs.5076255.sched01/tmp323fbwsu/45qgza_o8k.sdf

>  <i_m_source_file_index>  (220) 
45

>  <i_lp_mmshare_version>  (220) 
48012

>  <i_f3d_flags>  (220) 
0

>  <s_epik_input>  (220) 
W0NIM11bQ0gyXVtDQEhdMVtDQEhdKEMjTilDKD1PKWMobihbQ0gzXSlbY0hdW2NIXTIpYzJDKD1DMTMpW0NIMl1bQ0gyXU4oW0NIM10pW0NIMl0z

>  <s_epik_cmdline>  (220) 
J2VwaWtfcHl0aG9uJywgJy1waHQnLCAnMi4wJywgJy1waCcsICc3LjAnLCAnLXRuJywgJzgnLCAnLW1hJywgJzIwMCcsICctaW1hZScsICc8aW5maWxlLm1hZT4nLCAnLW9tYWUnLCAnPG91dGZpbGUubWFlPic=

>  <r_epik_Ionization_Penalty>  (220) 
0.216721

>  <r_epik_Ionization_Penalty_Charging>  (220) 
0

>  <r_epik_Ionization_Penalty_Neutral>  (220) 
0.216721

>  <r_epik_State_Penalty>  (220) 
0.206954

>  <r_epik_Charging_Adjusted_Penalty>  (220) 
0.206954

>  <i_epik_Tot_Q>  (220) 
0

>  <i_epik_Tot_abs_Q>  (220) 
0

>  <s_lp_Force_Field>  (220) 
OPLS3e

>  <r_lp_Energy>  (220) 
17.5963

>  <b_lp_Chiralities_Consistent>  (220) 
1

>  <s_lp_Variant>  (220) 
59:0-1

>  <s_i_glide_gridfile>  (220) 
pfpi4k_grid

>  <i_i_glide_lignum>  (220) 
45

>  <i_i_glide_rotatable_bonds>  (220) 
2

>  <r_i_docking_score>  (220) 
-2.86155

>  <r_i_glide_ligand_efficiency>  (220) 
-0.136264

>  <r_i_glide_ligand_efficiency_sa>  (220) 
-0.375943

>  <r_i_glide_ligand_efficiency_ln>  (220) 
-0.707514

>  <r_i_glide_gscore>  (220) 
-2.86155

>  <r_i_glide_lipo>  (220) 
-0.25677

>  <r_i_glide_hbond>  (220) 
-0.0996238

>  <r_i_glide_metal>  (220) 
-0

>  <r_i_glide_rewards>  (220) 
-1.50226

>  <r_i_glide_evdw>  (220) 
-17.9008

>  <r_i_glide_ecoul>  (220) 
-0.481189

>  <r_i_glide_erotb>  (220) 
0

>  <r_i_glide_esite>  (220) 
-0.0356835

>  <r_i_glide_emodel>  (220) 
-22.4169

>  <r_i_glide_energy>  (220) 
-18.382

>  <r_i_glide_einternal>  (220) 
-0.158066

>  <r_i_glide_intrahb_reward>  (220) 
-0

>  <i_i_glide_confnum>  (220) 
1

>  <i_i_glide_posenum>  (220) 
13

>  <r_i_glide_eff_state_penalty>  (220) 
0

>  <ligand_id>  (220) 
59

>  <original_smiles>  (220) 
CCC1C2=C(CCN(C)C2)c2ccn(C)c2C(=O)C1C#N

>  <smiles>  (220) 
[H]c1c2c(n(C([H])([H])[H])c1[H])C(=O)C([H])(C#N)C([H])(C([H])([H])C([H])([H])[H])C1=C2C([H])([H])C([H])([H])N(C([H])([H])[H])C1([H])[H]

$$$$
59:1:0
     RDKit          3D

 43 45  0  0  1  0  0  0  0  0999 V2000
    1.1981    5.6509    5.6745 C   0  0  0  0  0  0  0  0  0  0  0  0
    1.0258    4.6693    6.8406 C   0  0  0  0  0  0  0  0  0  0  0  0
    1.3130    3.1940    6.4711 C   0  0  2  0  0  0  0  0  0  0  0  0
    0.4025    2.6426    5.3697 C   0  0  0  0  0  0  0  0  0  0  0  0
   -0.9168    2.3810    5.5315 C   0  0  0  0  0  0  0  0  0  0  0  0
   -1.7259    1.7623    4.3869 C   0  0  0  0  0  0  0  0  0  0  0  0
   -1.0449    1.8717    3.0112 C   0  0  0  0  0  0  0  0  0  0  0  0
    0.3744    1.4889    3.1275 N   0  0  1  0  0  0  0  0  0  0  0  0
    1.0283    1.3202    1.8105 C   0  0  0  0  0  0  0  0  0  0  0  0
    1.1019    2.4283    4.0182 C   0  0  0  0  0  0  0  0  0  0  0  0
   -1.6427    2.5615    6.8133 C   0  0  0  0  0  0  0  0  0  0  0  0
   -3.0106    2.9411    6.8796 C   0  0  0  0  0  0  0  0  0  0  0  0
   -3.3530    3.0140    8.1946 C   0  0  0  0  0  0  0  0  0  0  0  0
   -2.2379    2.7299    8.9603 N   0  0  0  0  0  0  0  0  0  0  0  0
   -2.2613    2.7513   10.4217 C   0  0  0  0  0  0  0  0  0  0  0  0
   -1.1600    2.4649    8.0978 C   0  0  0  0  0  0  0  0  0  0  0  0
    0.1797    2.1457    8.6075 C   0  0  0  0  0  0  0  0  0  0  0  0
    0.3796    1.7912    9.7679 O   0  0  0  0  0  0  0  0  0  0  0  0
    1.4067    2.2504    7.6970 C   0  0  1  0  0  0  0  0  0  0  0  0
    1.8336    0.8947    7.3188 C   0  0  0  0  0  0  0  0  0  0  0  0
    2.1636   -0.1708    7.0153 N   0  0  0  0  0  0  0  0  0  0  0  0
    1.0612    6.6777    6.0138 H   0  0  0  0  0  0  0  0  0  0  0  0
    0.4702    5.4669    4.8847 H   0  0  0  0  0  0  0  0  0  0  0  0
    2.1953    5.5811    5.2394 H   0  0  0  0  0  0  0  0  0  0  0  0
    1.7128    4.9638    7.6352 H   0  0  0  0  0  0  0  0  0  0  0  0
    0.0272    4.7900    7.2578 H   0  0  0  0  0  0  0  0  0  0  0  0
    2.3236    3.1955    6.0605 H   0  0  0  0  0  0  0  0  0  0  0  0
   -1.9146    0.7170    4.6374 H   0  0  0  0  0  0  0  0  0  0  0  0
   -2.6952    2.2461    4.2836 H   0  0  0  0  0  0  0  0  0  0  0  0
   -1.5588    1.2274    2.2935 H   0  0  0  0  0  0  0  0  0  0  0  0
   -1.1130    2.8888    2.6194 H   0  0  0  0  0  0  0  0  0  0  0  0
    1.0296    2.2675    1.2814 H   0  0  0  0  0  0  0  0  0  0  0  0
    0.5090    0.5772    1.2025 H   0  0  0  0  0  0  0  0  0  0  0  0
    2.0626    0.9949    1.9229 H   0  0  0  0  0  0  0  0  0  0  0  0
    1.1996    3.3938    3.5177 H   0  0  0  0  0  0  0  0  0  0  0  0
    2.1100    2.0381    4.1701 H   0  0  0  0  0  0  0  0  0  0  0  0
   -3.6896    3.1319    6.0607 H   0  0  0  0  0  0  0  0  0  0  0  0
   -4.2968    3.2620    8.6625 H   0  0  0  0  0  0  0  0  0  0  0  0
   -1.4911    3.4184   10.8113 H   0  0  0  0  0  0  0  0  0  0  0  0
   -2.1006    1.7497   10.8205 H   0  0  0  0  0  0  0  0  0  0  0  0
   -3.2287    3.1065   10.7822 H   0  0  0  0  0  0  0  0  0  0  0  0
    2.2050    2.6297    8.3377 H   0  0  0  0  0  0  0  0  0  0  0  0
    0.3968    0.5808    3.5678 H   0  0  0  0  0  0  0  0  0  0  0  0
  1  2  1  0
  1 22  1  0
  1 23  1  0
  1 24  1  0
  2  3  1  0
  2 25  1  0
  2 26  1  0
  3 19  1  0
  3  4  1  0
  3 27  1  6
  4 10  1  0
  4  5  2  0
  5  6  1  0
  5 11  1  0
  6  7  1  0
  6 28  1  0
  6 29  1  0
  7  8  1  0
  7 30  1  0
  7 31  1  0
  8  9  1  0
  8 10  1  0
  8 43  1  1
  9 32  1  0
  9 33  1  0
  9 34  1  0
 10 35  1  0
 10 36  1  0
 11 16  2  0
 11 12  1  0
 12 13  2  0
 12 37  1  0
 13 14  1  0
 13 38  1  0
 14 15  1  0
 14 16  1  0
 15 39  1  0
 15 40  1  0
 15 41  1  0
 16 17  1  0
 17 18  2  0
 17 19  1  0
 19 20  1  0
 19 42  1  1
 20 21  3  0
M  CHG  1   8   1
M  END
>  <i_m_ct_stereo_status>  (221) 
1

>  <s_m_source_file>  (221) 
/var/tmp/pbs.5076255.sched01/tmp361ftg5n/90jpawypyp.sdf

>  <i_m_source_file_index>  (221) 
1

>  <i_lp_mmshare_version>  (221) 
48012

>  <i_f3d_flags>  (221) 
0

>  <s_epik_input>  (221) 
W0NIM11bQ0gyXVtDQEhdMVtDQEhdKEMjTilDKD1PKWMobihbQ0gzXSlbY0hdW2NIXTIpYzJDKD1DMTMpW0NIMl1bQ0gyXU4oW0NIM10pW0NIMl0z

>  <s_epik_cmdline>  (221) 
J2VwaWtfcHl0aG9uJywgJy1waHQnLCAnMi4wJywgJy1waCcsICc3LjAnLCAnLXRuJywgJzgnLCAnLW1hJywgJzIwMCcsICctaW1hZScsICc8aW5maWxlLm1hZT4nLCAnLW9tYWUnLCAnPG91dGZpbGUubWFlPic=

>  <r_epik_Ionization_Penalty>  (221) 
0.701052

>  <r_epik_Ionization_Penalty_Charging>  (221) 
0.700943

>  <r_epik_Ionization_Penalty_Neutral>  (221) 
0.00010848

>  <r_epik_State_Penalty>  (221) 
0.723663

>  <r_epik_Charging_Adjusted_Penalty>  (221) 
1.42461

>  <i_epik_Tot_Q>  (221) 
1

>  <i_epik_Tot_abs_Q>  (221) 
1

>  <s_lp_Force_Field>  (221) 
OPLS3e

>  <r_lp_Energy>  (221) 
31.3903

>  <b_lp_Chiralities_Consistent>  (221) 
1

>  <s_lp_Variant>  (221) 
59:0-2

>  <s_i_glide_gridfile>  (221) 
pfpi4k_grid

>  <i_i_glide_lignum>  (221) 
1

>  <i_i_glide_rotatable_bonds>  (221) 
2

>  <r_i_docking_score>  (221) 
-3.29033

>  <r_i_glide_ligand_efficiency>  (221) 
-0.156682

>  <r_i_glide_ligand_efficiency_sa>  (221) 
-0.432275

>  <r_i_glide_ligand_efficiency_ln>  (221) 
-0.813528

>  <r_i_glide_gscore>  (221) 
-3.29033

>  <r_i_glide_lipo>  (221) 
-0.245422

>  <r_i_glide_hbond>  (221) 
0

>  <r_i_glide_metal>  (221) 
-0

>  <r_i_glide_rewards>  (221) 
-1.47016

>  <r_i_glide_evdw>  (221) 
-17.2839

>  <r_i_glide_ecoul>  (221) 
-4.32909

>  <r_i_glide_erotb>  (221) 
0

>  <r_i_glide_esite>  (221) 
-0.0611882

>  <r_i_glide_emodel>  (221) 
-27.3016

>  <r_i_glide_energy>  (221) 
-21.613

>  <r_i_glide_einternal>  (221) 
-0.138374

>  <r_i_glide_intrahb_reward>  (221) 
-0

>  <i_i_glide_confnum>  (221) 
1

>  <i_i_glide_posenum>  (221) 
22

>  <r_i_glide_eff_state_penalty>  (221) 
0

>  <ligand_id>  (221) 
59

>  <original_smiles>  (221) 
CCC1C2=C(CCN(C)C2)c2ccn(C)c2C(=O)C1C#N

>  <smiles>  (221) 
[H]c1c2c(n(C([H])([H])[H])c1[H])C(=O)C([H])(C#N)C([H])(C([H])([H])C([H])([H])[H])C1=C2C([H])([H])C([H])([H])[N+]([H])(C([H])([H])[H])C1([H])[H]

$$$$
59:1:1
     RDKit          3D

 43 45  0  0  1  0  0  0  0  0999 V2000
    1.9340    5.5676    7.7649 C   0  0  0  0  0  0  0  0  0  0  0  0
    0.9024    4.8779    6.8556 C   0  0  0  0  0  0  0  0  0  0  0  0
    1.2919    3.4272    6.4779 C   0  0  2  0  0  0  0  0  0  0  0  0
    0.4126    2.8287    5.3726 C   0  0  0  0  0  0  0  0  0  0  0  0
   -0.8868    2.4820    5.5362 C   0  0  0  0  0  0  0  0  0  0  0  0
   -1.6576    1.8105    4.3925 C   0  0  0  0  0  0  0  0  0  0  0  0
   -0.9913    1.9634    3.0143 C   0  0  0  0  0  0  0  0  0  0  0  0
    0.4503    1.6744    3.1258 N   0  0  1  0  0  0  0  0  0  0  0  0
    1.1100    1.5507    1.8067 C   0  0  0  0  0  0  0  0  0  0  0  0
    1.1188    2.6583    4.0174 C   0  0  0  0  0  0  0  0  0  0  0  0
   -1.6211    2.6077    6.8191 C   0  0  0  0  0  0  0  0  0  0  0  0
   -3.0117    2.8972    6.8890 C   0  0  0  0  0  0  0  0  0  0  0  0
   -3.3544    2.9449    8.2049 C   0  0  0  0  0  0  0  0  0  0  0  0
   -2.2209    2.7296    8.9663 N   0  0  0  0  0  0  0  0  0  0  0  0
   -2.2408    2.7439   10.4271 C   0  0  0  0  0  0  0  0  0  0  0  0
   -1.1308    2.5333    8.1014 C   0  0  0  0  0  0  0  0  0  0  0  0
    0.2287    2.2926    8.6053 C   0  0  0  0  0  0  0  0  0  0  0  0
    0.4525    1.9540    9.7657 O   0  0  0  0  0  0  0  0  0  0  0  0
    1.4457    2.4743    7.6916 C   0  0  1  0  0  0  0  0  0  0  0  0
    1.9618    1.1544    7.3024 C   0  0  0  0  0  0  0  0  0  0  0  0
    2.3657    0.1172    6.9914 N   0  0  0  0  0  0  0  0  0  0  0  0
    1.6008    6.5671    8.0381 H   0  0  0  0  0  0  0  0  0  0  0  0
    2.8994    5.6635    7.2682 H   0  0  0  0  0  0  0  0  0  0  0  0
    2.0891    5.0261    8.6968 H   0  0  0  0  0  0  0  0  0  0  0  0
   -0.0708    4.9164    7.3443 H   0  0  0  0  0  0  0  0  0  0  0  0
    0.7940    5.4669    5.9451 H   0  0  0  0  0  0  0  0  0  0  0  0
    2.2935    3.5005    6.0496 H   0  0  0  0  0  0  0  0  0  0  0  0
   -1.7765    0.7533    4.6419 H   0  0  0  0  0  0  0  0  0  0  0  0
   -2.6561    2.2298    4.2912 H   0  0  0  0  0  0  0  0  0  0  0  0
   -1.4649    1.2865    2.2979 H   0  0  0  0  0  0  0  0  0  0  0  0
   -1.1283    2.9735    2.6233 H   0  0  0  0  0  0  0  0  0  0  0  0
    1.0617    2.5039    1.2809 H   0  0  0  0  0  0  0  0  0  0  0  0
    0.6323    0.7846    1.1900 H   0  0  0  0  0  0  0  0  0  0  0  0
    2.1619    1.2872    1.9152 H   0  0  0  0  0  0  0  0  0  0  0  0
    1.1548    3.6296    3.5201 H   0  0  0  0  0  0  0  0  0  0  0  0
    2.1485    2.3285    4.1661 H   0  0  0  0  0  0  0  0  0  0  0  0
   -3.7021    3.0540    6.0737 H   0  0  0  0  0  0  0  0  0  0  0  0
   -4.3116    3.1338    8.6741 H   0  0  0  0  0  0  0  0  0  0  0  0
   -1.5119    3.4580   10.8167 H   0  0  0  0  0  0  0  0  0  0  0  0
   -2.0142    1.7522   10.8211 H   0  0  0  0  0  0  0  0  0  0  0  0
   -3.2283    3.0335   10.7917 H   0  0  0  0  0  0  0  0  0  0  0  0
    2.2248    2.8813    8.3367 H   0  0  0  0  0  0  0  0  0  0  0  0
    0.5320    0.7675    3.5626 H   0  0  0  0  0  0  0  0  0  0  0  0
  1  2  1  0
  1 22  1  0
  1 23  1  0
  1 24  1  0
  2  3  1  0
  2 25  1  0
  2 26  1  0
  3 19  1  0
  3  4  1  0
  3 27  1  6
  4 10  1  0
  4  5  2  0
  5  6  1  0
  5 11  1  0
  6  7  1  0
  6 28  1  0
  6 29  1  0
  7  8  1  0
  7 30  1  0
  7 31  1  0
  8  9  1  0
  8 10  1  0
  8 43  1  1
  9 32  1  0
  9 33  1  0
  9 34  1  0
 10 35  1  0
 10 36  1  0
 11 16  2  0
 11 12  1  0
 12 13  2  0
 12 37  1  0
 13 14  1  0
 13 38  1  0
 14 15  1  0
 14 16  1  0
 15 39  1  0
 15 40  1  0
 15 41  1  0
 16 17  1  0
 17 18  2  0
 17 19  1  0
 19 20  1  0
 19 42  1  1
 20 21  3  0
M  CHG  1   8   1
M  END
>  <i_m_ct_stereo_status>  (222) 
1

>  <s_m_source_file>  (222) 
/var/tmp/pbs.5076255.sched01/tmp361ftg5n/90jpawypyp.sdf

>  <i_m_source_file_index>  (222) 
1

>  <i_lp_mmshare_version>  (222) 
48012

>  <i_f3d_flags>  (222) 
0

>  <s_epik_input>  (222) 
W0NIM11bQ0gyXVtDQEhdMVtDQEhdKEMjTilDKD1PKWMobihbQ0gzXSlbY0hdW2NIXTIpYzJDKD1DMTMpW0NIMl1bQ0gyXU4oW0NIM10pW0NIMl0z

>  <s_epik_cmdline>  (222) 
J2VwaWtfcHl0aG9uJywgJy1waHQnLCAnMi4wJywgJy1waCcsICc3LjAnLCAnLXRuJywgJzgnLCAnLW1hJywgJzIwMCcsICctaW1hZScsICc8aW5maWxlLm1hZT4nLCAnLW9tYWUnLCAnPG91dGZpbGUubWFlPic=

>  <r_epik_Ionization_Penalty>  (222) 
0.701052

>  <r_epik_Ionization_Penalty_Charging>  (222) 
0.700943

>  <r_epik_Ionization_Penalty_Neutral>  (222) 
0.00010848

>  <r_epik_State_Penalty>  (222) 
0.723663

>  <r_epik_Charging_Adjusted_Penalty>  (222) 
1.42461

>  <i_epik_Tot_Q>  (222) 
1

>  <i_epik_Tot_abs_Q>  (222) 
1

>  <s_lp_Force_Field>  (222) 
OPLS3e

>  <r_lp_Energy>  (222) 
31.3903

>  <b_lp_Chiralities_Consistent>  (222) 
1

>  <s_lp_Variant>  (222) 
59:0-2

>  <s_i_glide_gridfile>  (222) 
pfpi4k_grid

>  <i_i_glide_lignum>  (222) 
1

>  <i_i_glide_rotatable_bonds>  (222) 
2

>  <r_i_docking_score>  (222) 
-3.24593

>  <r_i_glide_ligand_efficiency>  (222) 
-0.154568

>  <r_i_glide_ligand_efficiency_sa>  (222) 
-0.426441

>  <r_i_glide_ligand_efficiency_ln>  (222) 
-0.802549

>  <r_i_glide_gscore>  (222) 
-3.24593

>  <r_i_glide_lipo>  (222) 
-0.253019

>  <r_i_glide_hbond>  (222) 
0

>  <r_i_glide_metal>  (222) 
-0

>  <r_i_glide_rewards>  (222) 
-1.47016

>  <r_i_glide_evdw>  (222) 
-16.6367

>  <r_i_glide_ecoul>  (222) 
-4.1845

>  <r_i_glide_erotb>  (222) 
0

>  <r_i_glide_esite>  (222) 
-0.0632336

>  <r_i_glide_emodel>  (222) 
-26.2293

>  <r_i_glide_energy>  (222) 
-20.8212

>  <r_i_glide_einternal>  (222) 
0.190674

>  <r_i_glide_intrahb_reward>  (222) 
-0

>  <i_i_glide_confnum>  (222) 
2

>  <i_i_glide_posenum>  (222) 
15

>  <r_i_glide_eff_state_penalty>  (222) 
0

>  <ligand_id>  (222) 
59

>  <original_smiles>  (222) 
CCC1C2=C(CCN(C)C2)c2ccn(C)c2C(=O)C1C#N

>  <smiles>  (222) 
[H]c1c2c(n(C([H])([H])[H])c1[H])C(=O)C([H])(C#N)C([H])(C([H])([H])C([H])([H])[H])C1=C2C([H])([H])C([H])([H])[N+]([H])(C([H])([H])[H])C1([H])[H]

$$$$
59:1:2
     RDKit          3D

 43 45  0  0  1  0  0  0  0  0999 V2000
    3.3939    3.6868    5.4201 C   0  0  0  0  0  0  0  0  0  0  0  0
    2.3822    2.8746    6.2380 C   0  0  0  0  0  0  0  0  0  0  0  0
    2.1813    1.4259    5.7322 C   0  0  2  0  0  0  0  0  0  0  0  0
    1.6584    1.3385    4.2978 C   0  0  0  0  0  0  0  0  0  0  0  0
    0.4019    1.6806    3.9196 C   0  0  0  0  0  0  0  0  0  0  0  0
   -0.0457    1.4812    2.4697 C   0  0  0  0  0  0  0  0  0  0  0  0
    1.1139    1.2943    1.4844 C   0  0  0  0  0  0  0  0  0  0  0  0
    2.0908    0.3326    2.0285 N   0  0  1  0  0  0  0  0  0  0  0  0
    3.1043   -0.0914    1.0327 C   0  0  0  0  0  0  0  0  0  0  0  0
    2.6982    0.8498    3.2810 C   0  0  0  0  0  0  0  0  0  0  0  0
   -0.6457    2.1575    4.8527 C   0  0  0  0  0  0  0  0  0  0  0  0
   -1.6534    3.0915    4.4793 C   0  0  0  0  0  0  0  0  0  0  0  0
   -2.4322    3.2935    5.5768 C   0  0  0  0  0  0  0  0  0  0  0  0
   -1.9294    2.5544    6.6296 N   0  0  0  0  0  0  0  0  0  0  0  0
   -2.5314    2.5718    7.9572 C   0  0  0  0  0  0  0  0  0  0  0  0
   -0.8017    1.8496    6.1830 C   0  0  0  0  0  0  0  0  0  0  0  0
   -0.0378    0.9613    7.0693 C   0  0  0  0  0  0  0  0  0  0  0  0
   -0.5062    0.5277    8.1233 O   0  0  0  0  0  0  0  0  0  0  0  0
    1.3859    0.5275    6.7125 C   0  0  1  0  0  0  0  0  0  0  0  0
    1.3515   -0.8760    6.2722 C   0  0  0  0  0  0  0  0  0  0  0  0
    1.3210   -1.9775    5.9225 N   0  0  0  0  0  0  0  0  0  0  0  0
    3.5475    4.6673    5.8704 H   0  0  0  0  0  0  0  0  0  0  0  0
    3.0473    3.8474    4.3990 H   0  0  0  0  0  0  0  0  0  0  0  0
    4.3629    3.1894    5.3775 H   0  0  0  0  0  0  0  0  0  0  0  0
    2.7340    2.8324    7.2681 H   0  0  0  0  0  0  0  0  0  0  0  0
    1.4395    3.4185    6.2709 H   0  0  0  0  0  0  0  0  0  0  0  0
    3.1811    0.9876    5.7217 H   0  0  0  0  0  0  0  0  0  0  0  0
   -0.7205    0.6216    2.4353 H   0  0  0  0  0  0  0  0  0  0  0  0
   -0.6026    2.3436    2.1073 H   0  0  0  0  0  0  0  0  0  0  0  0
    0.7224    0.9464    0.5324 H   0  0  0  0  0  0  0  0  0  0  0  0
    1.6094    2.2462    1.2885 H   0  0  0  0  0  0  0  0  0  0  0  0
    3.7173    0.7535    0.7126 H   0  0  0  0  0  0  0  0  0  0  0  0
    2.6291   -0.5305    0.1532 H   0  0  0  0  0  0  0  0  0  0  0  0
    3.7701   -0.8468    1.4514 H   0  0  0  0  0  0  0  0  0  0  0  0
    3.3644    1.6790    3.0399 H   0  0  0  0  0  0  0  0  0  0  0  0
    3.3084    0.0563    3.7098 H   0  0  0  0  0  0  0  0  0  0  0  0
   -1.8001    3.5656    3.5201 H   0  0  0  0  0  0  0  0  0  0  0  0
   -3.3093    3.9041    5.7166 H   0  0  0  0  0  0  0  0  0  0  0  0
   -1.7926    2.8233    8.7211 H   0  0  0  0  0  0  0  0  0  0  0  0
   -2.9579    1.5961    8.1816 H   0  0  0  0  0  0  0  0  0  0  0  0
   -3.3368    3.3089    8.0022 H   0  0  0  0  0  0  0  0  0  0  0  0
    1.9329    0.5144    7.6555 H   0  0  0  0  0  0  0  0  0  0  0  0
    1.5623   -0.4978    2.2587 H   0  0  0  0  0  0  0  0  0  0  0  0
  1  2  1  0
  1 22  1  0
  1 23  1  0
  1 24  1  0
  2  3  1  0
  2 25  1  0
  2 26  1  0
  3 19  1  0
  3  4  1  0
  3 27  1  6
  4 10  1  0
  4  5  2  0
  5  6  1  0
  5 11  1  0
  6  7  1  0
  6 28  1  0
  6 29  1  0
  7  8  1  0
  7 30  1  0
  7 31  1  0
  8  9  1  0
  8 10  1  0
  8 43  1  1
  9 32  1  0
  9 33  1  0
  9 34  1  0
 10 35  1  0
 10 36  1  0
 11 16  2  0
 11 12  1  0
 12 13  2  0
 12 37  1  0
 13 14  1  0
 13 38  1  0
 14 15  1  0
 14 16  1  0
 15 39  1  0
 15 40  1  0
 15 41  1  0
 16 17  1  0
 17 18  2  0
 17 19  1  0
 19 20  1  0
 19 42  1  1
 20 21  3  0
M  CHG  1   8   1
M  END
>  <i_m_ct_stereo_status>  (223) 
1

>  <s_m_source_file>  (223) 
/var/tmp/pbs.5076255.sched01/tmp361ftg5n/90jpawypyp.sdf

>  <i_m_source_file_index>  (223) 
1

>  <i_lp_mmshare_version>  (223) 
48012

>  <i_f3d_flags>  (223) 
0

>  <s_epik_input>  (223) 
W0NIM11bQ0gyXVtDQEhdMVtDQEhdKEMjTilDKD1PKWMobihbQ0gzXSlbY0hdW2NIXTIpYzJDKD1DMTMpW0NIMl1bQ0gyXU4oW0NIM10pW0NIMl0z

>  <s_epik_cmdline>  (223) 
J2VwaWtfcHl0aG9uJywgJy1waHQnLCAnMi4wJywgJy1waCcsICc3LjAnLCAnLXRuJywgJzgnLCAnLW1hJywgJzIwMCcsICctaW1hZScsICc8aW5maWxlLm1hZT4nLCAnLW9tYWUnLCAnPG91dGZpbGUubWFlPic=

>  <r_epik_Ionization_Penalty>  (223) 
0.701052

>  <r_epik_Ionization_Penalty_Charging>  (223) 
0.700943

>  <r_epik_Ionization_Penalty_Neutral>  (223) 
0.00010848

>  <r_epik_State_Penalty>  (223) 
0.723663

>  <r_epik_Charging_Adjusted_Penalty>  (223) 
1.42461

>  <i_epik_Tot_Q>  (223) 
1

>  <i_epik_Tot_abs_Q>  (223) 
1

>  <s_lp_Force_Field>  (223) 
OPLS3e

>  <r_lp_Energy>  (223) 
31.3903

>  <b_lp_Chiralities_Consistent>  (223) 
1

>  <s_lp_Variant>  (223) 
59:0-2

>  <s_i_glide_gridfile>  (223) 
pfpi4k_grid

>  <i_i_glide_lignum>  (223) 
1

>  <i_i_glide_rotatable_bonds>  (223) 
2

>  <r_i_docking_score>  (223) 
-3.03598

>  <r_i_glide_ligand_efficiency>  (223) 
-0.14457

>  <r_i_glide_ligand_efficiency_sa>  (223) 
-0.398859

>  <r_i_glide_ligand_efficiency_ln>  (223) 
-0.75064

>  <r_i_glide_gscore>  (223) 
-3.03598

>  <r_i_glide_lipo>  (223) 
-0.0707315

>  <r_i_glide_hbond>  (223) 
-0.00855937

>  <r_i_glide_metal>  (223) 
-0

>  <r_i_glide_rewards>  (223) 
-1.54284

>  <r_i_glide_evdw>  (223) 
-15.8505

>  <r_i_glide_ecoul>  (223) 
-3.77069

>  <r_i_glide_erotb>  (223) 
0

>  <r_i_glide_esite>  (223) 
-0.055721

>  <r_i_glide_emodel>  (223) 
-24.8743

>  <r_i_glide_energy>  (223) 
-19.6212

>  <r_i_glide_einternal>  (223) 
-0.138718

>  <r_i_glide_intrahb_reward>  (223) 
-0

>  <i_i_glide_confnum>  (223) 
1

>  <i_i_glide_posenum>  (223) 
12

>  <r_i_glide_eff_state_penalty>  (223) 
0

>  <ligand_id>  (223) 
59

>  <original_smiles>  (223) 
CCC1C2=C(CCN(C)C2)c2ccn(C)c2C(=O)C1C#N

>  <smiles>  (223) 
[H]c1c2c(n(C([H])([H])[H])c1[H])C(=O)C([H])(C#N)C([H])(C([H])([H])C([H])([H])[H])C1=C2C([H])([H])C([H])([H])[N+]([H])(C([H])([H])[H])C1([H])[H]

$$$$
60:0:0
     RDKit          3D

 46 50  0  0  1  0  0  0  0  0999 V2000
    5.0147   -5.6772    2.4543 C   0  0  0  0  0  0  0  0  0  0  0  0
    4.9940   -4.6441    1.3143 C   0  0  2  0  0  0  0  0  0  0  0  0
    6.3715   -4.6864    0.5707 C   0  0  0  0  0  0  0  0  0  0  0  0
    6.7580   -3.4625   -0.3120 C   0  0  0  0  0  0  0  0  0  0  0  0
    5.4938   -2.6643   -0.5846 C   0  0  1  0  0  0  0  0  0  0  0  0
    4.5623   -3.5475   -1.1638 O   0  0  0  0  0  0  0  0  0  0  0  0
    3.9528   -2.8678   -2.2306 C   0  0  1  0  0  0  0  0  0  0  0  0
    2.4308   -3.1423   -2.3151 C   0  0  0  0  0  0  0  0  0  0  0  0
    4.3069   -1.4407   -1.9027 C   0  0  1  0  0  0  0  0  0  0  0  0
    4.2072   -0.4422   -3.0593 C   0  0  0  0  0  0  0  0  0  0  0  0
    3.4149   -1.0618   -0.8808 O   0  0  0  0  0  0  0  0  0  0  0  0
    4.0219   -0.8767    0.3430 C   0  0  1  0  0  0  0  0  0  0  0  0
    3.2021   -0.4356    1.3586 O   0  0  0  0  0  0  0  0  0  0  0  0
    3.8078   -0.5414    2.6319 C   0  0  1  0  0  0  0  0  0  0  0  0
    3.3915    0.7200    3.4100 C   0  0  0  0  0  0  0  0  0  0  0  0
    3.1648   -1.7891    3.2682 C   0  0  0  0  0  0  0  0  0  0  0  0
    3.1897   -3.0247    2.3584 C   0  0  0  0  0  0  0  0  0  0  0  0
    4.5824   -3.2006    1.7570 C   0  0  2  0  0  0  0  0  0  0  0  0
    4.9535   -2.0549    0.7435 C   0  0  1  0  0  0  0  0  0  0  0  0
    5.9349   -1.3360    1.4580 O   0  0  0  0  0  0  0  0  0  0  0  0
    5.2714   -0.5652    2.6423 O   0  0  0  0  0  0  0  0  0  0  0  0
    5.6314   -1.6108   -1.4782 O   0  0  0  0  0  0  0  0  0  0  0  0
    5.7490   -5.4060    3.2163 H   0  0  0  0  0  0  0  0  0  0  0  0
    5.2912   -6.6594    2.0662 H   0  0  0  0  0  0  0  0  0  0  0  0
    4.0411   -5.7844    2.9320 H   0  0  0  0  0  0  0  0  0  0  0  0
    4.2240   -5.0007    0.6291 H   0  0  0  0  0  0  0  0  0  0  0  0
    7.1840   -4.8832    1.2720 H   0  0  0  0  0  0  0  0  0  0  0  0
    6.3359   -5.5594   -0.0795 H   0  0  0  0  0  0  0  0  0  0  0  0
    7.4894   -2.8260    0.1891 H   0  0  0  0  0  0  0  0  0  0  0  0
    7.1818   -3.7758   -1.2627 H   0  0  0  0  0  0  0  0  0  0  0  0
    4.4653   -3.1577   -3.1475 H   0  0  0  0  0  0  0  0  0  0  0  0
    1.9544   -2.5459   -3.0930 H   0  0  0  0  0  0  0  0  0  0  0  0
    1.9236   -2.9561   -1.3671 H   0  0  0  0  0  0  0  0  0  0  0  0
    2.2184   -4.1836   -2.5545 H   0  0  0  0  0  0  0  0  0  0  0  0
    4.5561    0.5392   -2.7341 H   0  0  0  0  0  0  0  0  0  0  0  0
    3.1804   -0.3537   -3.3877 H   0  0  0  0  0  0  0  0  0  0  0  0
    4.8172   -0.7824   -3.8976 H   0  0  0  0  0  0  0  0  0  0  0  0
    4.6526   -0.0008    0.1600 H   0  0  0  0  0  0  0  0  0  0  0  0
    3.7920    1.6160    2.9407 H   0  0  0  0  0  0  0  0  0  0  0  0
    3.7522    0.6979    4.4391 H   0  0  0  0  0  0  0  0  0  0  0  0
    2.3073    0.8448    3.4376 H   0  0  0  0  0  0  0  0  0  0  0  0
    3.6561   -1.9947    4.2168 H   0  0  0  0  0  0  0  0  0  0  0  0
    2.1230   -1.5753    3.5086 H   0  0  0  0  0  0  0  0  0  0  0  0
    2.8987   -3.8870    2.9499 H   0  0  0  0  0  0  0  0  0  0  0  0
    2.4541   -2.9349    1.5563 H   0  0  0  0  0  0  0  0  0  0  0  0
    5.2480   -3.0643    2.6107 H   0  0  0  0  0  0  0  0  0  0  0  0
  1  2  1  0
  1 23  1  0
  1 24  1  0
  1 25  1  0
  2 18  1  0
  2  3  1  0
  2 26  1  6
  3  4  1  0
  3 27  1  0
  3 28  1  0
  4  5  1  0
  4 29  1  0
  4 30  1  0
  5 19  1  0
  5 22  1  0
  5  6  1  6
  6  7  1  0
  7  8  1  0
  7  9  1  0
  7 31  1  6
  8 32  1  0
  8 33  1  0
  8 34  1  0
  9 10  1  6
  9 11  1  0
  9 22  1  0
 10 35  1  0
 10 36  1  0
 10 37  1  0
 11 12  1  0
 12 19  1  0
 12 13  1  0
 12 38  1  6
 13 14  1  0
 14 21  1  0
 14 15  1  1
 14 16  1  0
 15 39  1  0
 15 40  1  0
 15 41  1  0
 16 17  1  0
 16 42  1  0
 16 43  1  0
 17 18  1  0
 17 44  1  0
 17 45  1  0
 18 19  1  0
 18 46  1  1
 19 20  1  1
 20 21  1  0
M  END
>  <i_m_ct_stereo_status>  (224) 
1

>  <s_m_source_file>  (224) 
/var/tmp/pbs.5076255.sched01/tmp361ftg5n/90jpawypyp.sdf

>  <i_m_source_file_index>  (224) 
2

>  <i_lp_mmshare_version>  (224) 
48012

>  <i_f3d_flags>  (224) 
0

>  <s_epik_input>  (224) 
W0NIMl0xW0NIMl1bQ0BASF0oW0NIM10pW0NAQEhdMltDSDJdW0NIMl1bQ0BAXShbQ0gzXSkoT08zKU9bQ0BASF0oW0NAXTIzW0NAQF0xNDUpT1tDQF0oTzUpKFtDSDNdKVtDQEBIXShPNClbQ0gzXQ==

>  <s_epik_cmdline>  (224) 
J2VwaWtfcHl0aG9uJywgJy1waHQnLCAnMi4wJywgJy1waCcsICc3LjAnLCAnLXRuJywgJzgnLCAnLW1hJywgJzIwMCcsICctaW1hZScsICc8aW5maWxlLm1hZT4nLCAnLW9tYWUnLCAnPG91dGZpbGUubWFlPic=

>  <r_lp_tautomer_probability>  (224) 
1

>  <r_epik_Ionization_Penalty>  (224) 
7.8935e-16

>  <r_epik_Ionization_Penalty_Charging>  (224) 
0

>  <r_epik_Ionization_Penalty_Neutral>  (224) 
7.8935e-16

>  <r_epik_State_Penalty>  (224) 
-0

>  <r_epik_Charging_Adjusted_Penalty>  (224) 
0

>  <i_epik_Tot_Q>  (224) 
0

>  <i_epik_Tot_abs_Q>  (224) 
0

>  <s_epik_Chemistry_Notes>  (224) 
This compound contains an acetal/aminal-like group ( X-CH(R)-Y where X, Y are N, S, or O) that may be acid/base labile, releasing an aldehyde.

>  <s_lp_Force_Field>  (224) 
OPLS3e

>  <r_lp_Energy>  (224) 
75.8745

>  <b_lp_Chiralities_Consistent>  (224) 
1

>  <s_lp_Variant>  (224) 
60:0-1

>  <s_i_glide_gridfile>  (224) 
pfpi4k_grid

>  <i_i_glide_lignum>  (224) 
2

>  <i_i_glide_rotatable_bonds>  (224) 
0

>  <r_i_docking_score>  (224) 
-3.16895

>  <r_i_glide_ligand_efficiency>  (224) 
-0.144043

>  <r_i_glide_ligand_efficiency_sa>  (224) 
-0.403614

>  <r_i_glide_ligand_efficiency_ln>  (224) 
-0.774607

>  <r_i_glide_gscore>  (224) 
-3.16895

>  <r_i_glide_lipo>  (224) 
-0.600894

>  <r_i_glide_hbond>  (224) 
-0.0211252

>  <r_i_glide_metal>  (224) 
-0

>  <r_i_glide_rewards>  (224) 
-1.31331

>  <r_i_glide_evdw>  (224) 
-23.6575

>  <r_i_glide_ecoul>  (224) 
0.00178469

>  <r_i_glide_erotb>  (224) 
0

>  <r_i_glide_esite>  (224) 
-0.0510171

>  <r_i_glide_emodel>  (224) 
-27.4703

>  <r_i_glide_energy>  (224) 
-23.6557

>  <r_i_glide_einternal>  (224) 
0

>  <r_i_glide_intrahb_reward>  (224) 
-0

>  <i_i_glide_confnum>  (224) 
2

>  <i_i_glide_posenum>  (224) 
35

>  <r_i_glide_eff_state_penalty>  (224) 
0

>  <ligand_id>  (224) 
60

>  <original_smiles>  (224) 
CC1CCC23OC(C)C(C)(OC4OC5(C)CCC1C42OO5)O3

>  <smiles>  (224) 
[H]C([H])([H])C1([H])OC23OC1(C([H])([H])[H])OC1([H])OC4(C([H])([H])[H])OOC12C([H])(C([H])([H])C4([H])[H])C([H])(C([H])([H])[H])C([H])([H])C3([H])[H]

$$$$
60:0:1
     RDKit          3D

 46 50  0  0  1  0  0  0  0  0999 V2000
    4.7793   -0.2604    2.5813 C   0  0  0  0  0  0  0  0  0  0  0  0
    4.3876   -1.0074    1.3066 C   0  0  2  0  0  0  0  0  0  0  0  0
    3.0589   -1.7866    1.5690 C   0  0  0  0  0  0  0  0  0  0  0  0
    2.7453   -2.9509    0.5972 C   0  0  0  0  0  0  0  0  0  0  0  0
    3.5931   -2.7850   -0.6552 C   0  0  1  0  0  0  0  0  0  0  0  0
    3.4102   -1.4945   -1.1753 O   0  0  0  0  0  0  0  0  0  0  0  0
    3.1484   -1.6330   -2.5420 C   0  0  1  0  0  0  0  0  0  0  0  0
    3.7657   -0.4767   -3.3502 C   0  0  0  0  0  0  0  0  0  0  0  0
    3.7625   -2.9739   -2.7897 C   0  0  1  0  0  0  0  0  0  0  0  0
    3.3501   -3.6619   -4.0750 C   0  0  0  0  0  0  0  0  0  0  0  0
    5.1594   -2.7644   -2.8044 O   0  0  0  0  0  0  0  0  0  0  0  0
    5.7835   -3.3213   -1.6906 C   0  0  1  0  0  0  0  0  0  0  0  0
    7.1444   -3.1917   -1.6615 O   0  0  0  0  0  0  0  0  0  0  0  0
    7.6822   -3.5408   -0.4054 C   0  0  1  0  0  0  0  0  0  0  0  0
    9.0199   -4.3205   -0.6077 C   0  0  0  0  0  0  0  0  0  0  0  0
    7.9655   -2.1843    0.2381 C   0  0  0  0  0  0  0  0  0  0  0  0
    6.7728   -1.2113    0.2615 C   0  0  0  0  0  0  0  0  0  0  0  0
    5.5210   -1.9107    0.7200 C   0  0  2  0  0  0  0  0  0  0  0  0
    5.0750   -2.9956   -0.3409 C   0  0  1  0  0  0  0  0  0  0  0  0
    5.3291   -4.1994    0.3518 O   0  0  0  0  0  0  0  0  0  0  0  0
    6.8713   -4.4045    0.4478 O   0  0  0  0  0  0  0  0  0  0  0  0
    3.2818   -3.6520   -1.6857 O   0  0  0  0  0  0  0  0  0  0  0  0
    5.0346   -0.9543    3.3864 H   0  0  0  0  0  0  0  0  0  0  0  0
    3.9506    0.3646    2.9223 H   0  0  0  0  0  0  0  0  0  0  0  0
    5.6364    0.3929    2.4182 H   0  0  0  0  0  0  0  0  0  0  0  0
    4.1739   -0.2206    0.5791 H   0  0  0  0  0  0  0  0  0  0  0  0
    3.0415   -2.1705    2.5891 H   0  0  0  0  0  0  0  0  0  0  0  0
    2.2361   -1.0780    1.5076 H   0  0  0  0  0  0  0  0  0  0  0  0
    2.9460   -3.9192    1.0551 H   0  0  0  0  0  0  0  0  0  0  0  0
    1.7169   -2.9252    0.2874 H   0  0  0  0  0  0  0  0  0  0  0  0
    2.0695   -1.7366   -2.7068 H   0  0  0  0  0  0  0  0  0  0  0  0
    3.6969   -0.6440   -4.4230 H   0  0  0  0  0  0  0  0  0  0  0  0
    4.8036   -0.3289   -3.0677 H   0  0  0  0  0  0  0  0  0  0  0  0
    3.2418    0.4505   -3.1335 H   0  0  0  0  0  0  0  0  0  0  0  0
    3.8386   -4.6315   -4.1382 H   0  0  0  0  0  0  0  0  0  0  0  0
    3.6621   -3.0630   -4.9233 H   0  0  0  0  0  0  0  0  0  0  0  0
    2.2673   -3.8021   -4.1197 H   0  0  0  0  0  0  0  0  0  0  0  0
    5.6317   -4.3809   -1.8848 H   0  0  0  0  0  0  0  0  0  0  0  0
    8.9048   -5.3007   -1.0940 H   0  0  0  0  0  0  0  0  0  0  0  0
    9.4788   -4.4188    0.3699 H   0  0  0  0  0  0  0  0  0  0  0  0
    9.6639   -3.8628   -1.3064 H   0  0  0  0  0  0  0  0  0  0  0  0
    8.2868   -2.4004    1.2515 H   0  0  0  0  0  0  0  0  0  0  0  0
    8.8071   -1.6878   -0.2584 H   0  0  0  0  0  0  0  0  0  0  0  0
    7.0010   -0.3645    0.8864 H   0  0  0  0  0  0  0  0  0  0  0  0
    6.5614   -0.7978   -0.7233 H   0  0  0  0  0  0  0  0  0  0  0  0
    5.8249   -2.4576    1.6093 H   0  0  0  0  0  0  0  0  0  0  0  0
  1  2  1  0
  1 23  1  0
  1 24  1  0
  1 25  1  0
  2 18  1  0
  2  3  1  0
  2 26  1  6
  3  4  1  0
  3 27  1  0
  3 28  1  0
  4  5  1  0
  4 29  1  0
  4 30  1  0
  5 19  1  0
  5 22  1  0
  5  6  1  6
  6  7  1  0
  7  8  1  0
  7  9  1  0
  7 31  1  1
  8 32  1  0
  8 33  1  0
  8 34  1  0
  9 10  1  6
  9 11  1  0
  9 22  1  0
 10 35  1  0
 10 36  1  0
 10 37  1  0
 11 12  1  0
 12 19  1  0
 12 13  1  0
 12 38  1  6
 13 14  1  0
 14 21  1  0
 14 15  1  6
 14 16  1  0
 15 39  1  0
 15 40  1  0
 15 41  1  0
 16 17  1  0
 16 42  1  0
 16 43  1  0
 17 18  1  0
 17 44  1  0
 17 45  1  0
 18 19  1  0
 18 46  1  1
 19 20  1  1
 20 21  1  0
M  END
>  <i_m_ct_stereo_status>  (225) 
1

>  <s_m_source_file>  (225) 
/var/tmp/pbs.5076255.sched01/tmp361ftg5n/90jpawypyp.sdf

>  <i_m_source_file_index>  (225) 
2

>  <i_lp_mmshare_version>  (225) 
48012

>  <i_f3d_flags>  (225) 
0

>  <s_epik_input>  (225) 
W0NIMl0xW0NIMl1bQ0BASF0oW0NIM10pW0NAQEhdMltDSDJdW0NIMl1bQ0BAXShbQ0gzXSkoT08zKU9bQ0BASF0oW0NAXTIzW0NAQF0xNDUpT1tDQF0oTzUpKFtDSDNdKVtDQEBIXShPNClbQ0gzXQ==

>  <s_epik_cmdline>  (225) 
J2VwaWtfcHl0aG9uJywgJy1waHQnLCAnMi4wJywgJy1waCcsICc3LjAnLCAnLXRuJywgJzgnLCAnLW1hJywgJzIwMCcsICctaW1hZScsICc8aW5maWxlLm1hZT4nLCAnLW9tYWUnLCAnPG91dGZpbGUubWFlPic=

>  <r_lp_tautomer_probability>  (225) 
1

>  <r_epik_Ionization_Penalty>  (225) 
7.8935e-16

>  <r_epik_Ionization_Penalty_Charging>  (225) 
0

>  <r_epik_Ionization_Penalty_Neutral>  (225) 
7.8935e-16

>  <r_epik_State_Penalty>  (225) 
-0

>  <r_epik_Charging_Adjusted_Penalty>  (225) 
0

>  <i_epik_Tot_Q>  (225) 
0

>  <i_epik_Tot_abs_Q>  (225) 
0

>  <s_epik_Chemistry_Notes>  (225) 
This compound contains an acetal/aminal-like group ( X-CH(R)-Y where X, Y are N, S, or O) that may be acid/base labile, releasing an aldehyde.

>  <s_lp_Force_Field>  (225) 
OPLS3e

>  <r_lp_Energy>  (225) 
75.8745

>  <b_lp_Chiralities_Consistent>  (225) 
1

>  <s_lp_Variant>  (225) 
60:0-1

>  <s_i_glide_gridfile>  (225) 
pfpi4k_grid

>  <i_i_glide_lignum>  (225) 
2

>  <i_i_glide_rotatable_bonds>  (225) 
0

>  <r_i_docking_score>  (225) 
-2.83467

>  <r_i_glide_ligand_efficiency>  (225) 
-0.128849

>  <r_i_glide_ligand_efficiency_sa>  (225) 
-0.361039

>  <r_i_glide_ligand_efficiency_ln>  (225) 
-0.692897

>  <r_i_glide_gscore>  (225) 
-2.83467

>  <r_i_glide_lipo>  (225) 
-0.552233

>  <r_i_glide_hbond>  (225) 
0

>  <r_i_glide_metal>  (225) 
-0

>  <r_i_glide_rewards>  (225) 
-1.71902

>  <r_i_glide_evdw>  (225) 
-15.1495

>  <r_i_glide_ecoul>  (225) 
1.48669

>  <r_i_glide_erotb>  (225) 
0

>  <r_i_glide_esite>  (225) 
-0.0289476

>  <r_i_glide_emodel>  (225) 
-15.9414

>  <r_i_glide_energy>  (225) 
-13.6629

>  <r_i_glide_einternal>  (225) 
0

>  <r_i_glide_intrahb_reward>  (225) 
-0

>  <i_i_glide_confnum>  (225) 
1

>  <i_i_glide_posenum>  (225) 
2

>  <r_i_glide_eff_state_penalty>  (225) 
0

>  <ligand_id>  (225) 
60

>  <original_smiles>  (225) 
CC1CCC23OC(C)C(C)(OC4OC5(C)CCC1C42OO5)O3

>  <smiles>  (225) 
[H]C([H])([H])C1([H])OC23OC1(C([H])([H])[H])OC1([H])OC4(C([H])([H])[H])OOC12C([H])(C([H])([H])C4([H])[H])C([H])(C([H])([H])[H])C([H])([H])C3([H])[H]

$$$$
60:0:2
     RDKit          3D

 46 50  0  0  1  0  0  0  0  0999 V2000
    3.6688   -0.8100   -1.9943 C   0  0  0  0  0  0  0  0  0  0  0  0
    3.7098   -1.5059   -0.6074 C   0  0  2  0  0  0  0  0  0  0  0  0
    3.2760   -0.5594    0.6014 C   0  0  0  0  0  0  0  0  0  0  0  0
    3.5840   -1.0192    2.0542 C   0  0  0  0  0  0  0  0  0  0  0  0
    4.0135   -2.4705    1.9890 C   0  0  1  0  0  0  0  0  0  0  0  0
    2.9675   -3.2227    1.4216 O   0  0  0  0  0  0  0  0  0  0  0  0
    2.8644   -4.4124    2.1744 C   0  0  1  0  0  0  0  0  0  0  0  0
    2.6307   -5.6329    1.2779 C   0  0  0  0  0  0  0  0  0  0  0  0
    4.1988   -4.4155    2.9024 C   0  0  1  0  0  0  0  0  0  0  0  0
    4.2519   -5.2496    4.1880 C   0  0  0  0  0  0  0  0  0  0  0  0
    5.1673   -4.8987    1.9870 O   0  0  0  0  0  0  0  0  0  0  0  0
    6.0208   -3.8865    1.5374 C   0  0  1  0  0  0  0  0  0  0  0  0
    7.0125   -4.2600    0.6658 O   0  0  0  0  0  0  0  0  0  0  0  0
    7.6976   -3.1444    0.1380 C   0  0  1  0  0  0  0  0  0  0  0  0
    9.1573   -3.5275    0.1777 C   0  0  0  0  0  0  0  0  0  0  0  0
    7.1973   -3.0203   -1.2958 C   0  0  0  0  0  0  0  0  0  0  0  0
    5.6669   -3.0771   -1.3594 C   0  0  0  0  0  0  0  0  0  0  0  0
    5.0892   -2.1105   -0.3343 C   0  0  2  0  0  0  0  0  0  0  0  0
    5.2995   -2.5815    1.1556 C   0  0  1  0  0  0  0  0  0  0  0  0
    6.2599   -1.6483    1.6094 O   0  0  0  0  0  0  0  0  0  0  0  0
    7.5896   -1.8793    0.8669 O   0  0  0  0  0  0  0  0  0  0  0  0
    4.2920   -3.0693    3.2135 O   0  0  0  0  0  0  0  0  0  0  0  0
    4.3237    0.0666   -1.9789 H   0  0  0  0  0  0  0  0  0  0  0  0
    2.6471   -0.4902   -2.1994 H   0  0  0  0  0  0  0  0  0  0  0  0
    3.9279   -1.4470   -2.8434 H   0  0  0  0  0  0  0  0  0  0  0  0
    2.9918   -2.3253   -0.6913 H   0  0  0  0  0  0  0  0  0  0  0  0
    3.6177    0.4739    0.4809 H   0  0  0  0  0  0  0  0  0  0  0  0
    2.1972   -0.5208    0.6457 H   0  0  0  0  0  0  0  0  0  0  0  0
    4.3508   -0.4032    2.5359 H   0  0  0  0  0  0  0  0  0  0  0  0
    2.6859   -0.9712    2.6719 H   0  0  0  0  0  0  0  0  0  0  0  0
    2.0644   -4.2516    2.8955 H   0  0  0  0  0  0  0  0  0  0  0  0
    2.6221   -6.5439    1.8808 H   0  0  0  0  0  0  0  0  0  0  0  0
    3.3938   -5.7491    0.5025 H   0  0  0  0  0  0  0  0  0  0  0  0
    1.6684   -5.5559    0.7692 H   0  0  0  0  0  0  0  0  0  0  0  0
    5.2118   -5.1042    4.6832 H   0  0  0  0  0  0  0  0  0  0  0  0
    4.1272   -6.2999    3.9515 H   0  0  0  0  0  0  0  0  0  0  0  0
    3.4643   -4.9375    4.8676 H   0  0  0  0  0  0  0  0  0  0  0  0
    6.5817   -3.6798    2.4400 H   0  0  0  0  0  0  0  0  0  0  0  0
    9.5092   -3.6846    1.2020 H   0  0  0  0  0  0  0  0  0  0  0  0
    9.7552   -2.7724   -0.3348 H   0  0  0  0  0  0  0  0  0  0  0  0
    9.3016   -4.4685   -0.3540 H   0  0  0  0  0  0  0  0  0  0  0  0
    7.5641   -2.0859   -1.7037 H   0  0  0  0  0  0  0  0  0  0  0  0
    7.6045   -3.8485   -1.9283 H   0  0  0  0  0  0  0  0  0  0  0  0
    5.3591   -2.8361   -2.3721 H   0  0  0  0  0  0  0  0  0  0  0  0
    5.2880   -4.0692   -1.1524 H   0  0  0  0  0  0  0  0  0  0  0  0
    5.6880   -1.2087   -0.4477 H   0  0  0  0  0  0  0  0  0  0  0  0
  1  2  1  0
  1 23  1  0
  1 24  1  0
  1 25  1  0
  2 18  1  0
  2  3  1  0
  2 26  1  6
  3  4  1  0
  3 27  1  0
  3 28  1  0
  4  5  1  0
  4 29  1  0
  4 30  1  0
  5 19  1  0
  5 22  1  0
  5  6  1  6
  6  7  1  0
  7  8  1  0
  7  9  1  0
  7 31  1  1
  8 32  1  0
  8 33  1  0
  8 34  1  0
  9 10  1  1
  9 11  1  0
  9 22  1  0
 10 35  1  0
 10 36  1  0
 10 37  1  0
 11 12  1  0
 12 19  1  0
 12 13  1  0
 12 38  1  1
 13 14  1  0
 14 21  1  0
 14 15  1  6
 14 16  1  0
 15 39  1  0
 15 40  1  0
 15 41  1  0
 16 17  1  0
 16 42  1  0
 16 43  1  0
 17 18  1  0
 17 44  1  0
 17 45  1  0
 18 19  1  0
 18 46  1  1
 19 20  1  1
 20 21  1  0
M  END
>  <i_m_ct_stereo_status>  (226) 
1

>  <s_m_source_file>  (226) 
/var/tmp/pbs.5076255.sched01/tmp361ftg5n/90jpawypyp.sdf

>  <i_m_source_file_index>  (226) 
2

>  <i_lp_mmshare_version>  (226) 
48012

>  <i_f3d_flags>  (226) 
0

>  <s_epik_input>  (226) 
W0NIMl0xW0NIMl1bQ0BASF0oW0NIM10pW0NAQEhdMltDSDJdW0NIMl1bQ0BAXShbQ0gzXSkoT08zKU9bQ0BASF0oW0NAXTIzW0NAQF0xNDUpT1tDQF0oTzUpKFtDSDNdKVtDQEBIXShPNClbQ0gzXQ==

>  <s_epik_cmdline>  (226) 
J2VwaWtfcHl0aG9uJywgJy1waHQnLCAnMi4wJywgJy1waCcsICc3LjAnLCAnLXRuJywgJzgnLCAnLW1hJywgJzIwMCcsICctaW1hZScsICc8aW5maWxlLm1hZT4nLCAnLW9tYWUnLCAnPG91dGZpbGUubWFlPic=

>  <r_lp_tautomer_probability>  (226) 
1

>  <r_epik_Ionization_Penalty>  (226) 
7.8935e-16

>  <r_epik_Ionization_Penalty_Charging>  (226) 
0

>  <r_epik_Ionization_Penalty_Neutral>  (226) 
7.8935e-16

>  <r_epik_State_Penalty>  (226) 
-0

>  <r_epik_Charging_Adjusted_Penalty>  (226) 
0

>  <i_epik_Tot_Q>  (226) 
0

>  <i_epik_Tot_abs_Q>  (226) 
0

>  <s_epik_Chemistry_Notes>  (226) 
This compound contains an acetal/aminal-like group ( X-CH(R)-Y where X, Y are N, S, or O) that may be acid/base labile, releasing an aldehyde.

>  <s_lp_Force_Field>  (226) 
OPLS3e

>  <r_lp_Energy>  (226) 
75.8745

>  <b_lp_Chiralities_Consistent>  (226) 
1

>  <s_lp_Variant>  (226) 
60:0-1

>  <s_i_glide_gridfile>  (226) 
pfpi4k_grid

>  <i_i_glide_lignum>  (226) 
2

>  <i_i_glide_rotatable_bonds>  (226) 
0

>  <r_i_docking_score>  (226) 
-2.41179

>  <r_i_glide_ligand_efficiency>  (226) 
-0.109627

>  <r_i_glide_ligand_efficiency_sa>  (226) 
-0.307179

>  <r_i_glide_ligand_efficiency_ln>  (226) 
-0.589529

>  <r_i_glide_gscore>  (226) 
-2.41179

>  <r_i_glide_lipo>  (226) 
-0.13403

>  <r_i_glide_hbond>  (226) 
0

>  <r_i_glide_metal>  (226) 
-0

>  <r_i_glide_rewards>  (226) 
-1.62928

>  <r_i_glide_evdw>  (226) 
-15.3164

>  <r_i_glide_ecoul>  (226) 
0.784658

>  <r_i_glide_erotb>  (226) 
0

>  <r_i_glide_esite>  (226) 
-0.000363339

>  <r_i_glide_emodel>  (226) 
-17.1873

>  <r_i_glide_energy>  (226) 
-14.5317

>  <r_i_glide_einternal>  (226) 
0

>  <r_i_glide_intrahb_reward>  (226) 
-0

>  <i_i_glide_confnum>  (226) 
2

>  <i_i_glide_posenum>  (226) 
14

>  <r_i_glide_eff_state_penalty>  (226) 
0

>  <ligand_id>  (226) 
60

>  <original_smiles>  (226) 
CC1CCC23OC(C)C(C)(OC4OC5(C)CCC1C42OO5)O3

>  <smiles>  (226) 
[H]C([H])([H])C1([H])OC23OC1(C([H])([H])[H])OC1([H])OC4(C([H])([H])[H])OOC12C([H])(C([H])([H])C4([H])[H])C([H])(C([H])([H])[H])C([H])([H])C3([H])[H]

$$$$
61:0:0
     RDKit          3D

 24 25  0  0  1  0  0  0  0  0999 V2000
   -5.4202  -11.3598   -7.9164 N   0  0  0  0  0  0  0  0  0  0  0  0
   -5.6018  -10.3386   -7.4040 C   0  0  0  0  0  0  0  0  0  0  0  0
   -5.8243   -9.0801   -6.7659 C   0  0  0  0  0  0  0  0  0  0  0  0
   -5.0639   -8.7333   -5.6973 C   0  0  0  0  0  0  0  0  0  0  0  0
   -4.0572   -9.4891   -5.1424 N   0  0  0  0  0  0  0  0  0  0  0  0
   -5.2172   -7.5565   -5.0191 O   0  0  0  0  0  0  0  0  0  0  0  0
   -6.1698   -6.6589   -5.4140 C   0  0  0  0  0  0  0  0  0  0  0  0
   -6.9851   -6.8609   -6.4680 C   0  0  0  0  0  0  0  0  0  0  0  0
   -8.0232   -5.8332   -6.9202 C   0  0  0  0  0  0  0  0  0  0  0  0
   -7.8147   -4.4597   -6.2444 C   0  0  0  0  0  0  0  0  0  0  0  0
   -7.4596   -4.5870   -4.7539 C   0  0  0  0  0  0  0  0  0  0  0  0
   -6.1930   -5.4263   -4.5411 C   0  0  0  0  0  0  0  0  0  0  0  0
   -6.8552   -8.1241   -7.2225 C   0  0  0  0  0  0  0  0  0  0  0  0
   -7.5798   -8.3691   -8.1902 O   0  0  0  0  0  0  0  0  0  0  0  0
   -3.7707  -10.4037   -5.4667 H   0  0  0  0  0  0  0  0  0  0  0  0
   -7.9924   -5.7133   -8.0079 H   0  0  0  0  0  0  0  0  0  0  0  0
   -9.0138   -6.2257   -6.6916 H   0  0  0  0  0  0  0  0  0  0  0  0
   -6.9885   -3.9424   -6.7325 H   0  0  0  0  0  0  0  0  0  0  0  0
   -8.7027   -3.8347   -6.3774 H   0  0  0  0  0  0  0  0  0  0  0  0
   -7.3079   -3.5996   -4.3217 H   0  0  0  0  0  0  0  0  0  0  0  0
   -8.2960   -5.0452   -4.2317 H   0  0  0  0  0  0  0  0  0  0  0  0
   -6.1370   -5.7455   -3.5059 H   0  0  0  0  0  0  0  0  0  0  0  0
   -5.3009   -4.8403   -4.7571 H   0  0  0  0  0  0  0  0  0  0  0  0
   -3.5344   -9.1332   -4.3532 H   0  0  0  0  0  0  0  0  0  0  0  0
  1  2  3  0
  2  3  1  0
  3 13  1  0
  3  4  2  0
  4  5  1  0
  4  6  1  0
  5 15  1  0
  5 24  1  0
  6  7  1  0
  7 12  1  0
  7  8  2  0
  8  9  1  0
  8 13  1  0
  9 10  1  0
  9 16  1  0
  9 17  1  0
 10 11  1  0
 10 18  1  0
 10 19  1  0
 11 12  1  0
 11 20  1  0
 11 21  1  0
 12 22  1  0
 12 23  1  0
 13 14  2  0
M  END
>  <i_m_ct_stereo_status>  (227) 
1

>  <s_m_source_file>  (227) 
/var/tmp/pbs.5076255.sched01/tmp361ftg5n/90jpawypyp.sdf

>  <i_m_source_file_index>  (227) 
3

>  <i_lp_mmshare_version>  (227) 
48012

>  <i_f3d_flags>  (227) 
0

>  <s_epik_input>  (227) 
W0hdXE49QyhPMSlcW0NAQEhdKEMjTilDKD1PKUMoPUMxMilbQ0gyXVtDSDJdW0NIMl1bQ0gyXTI=

>  <s_epik_cmdline>  (227) 
J2VwaWtfcHl0aG9uJywgJy1waHQnLCAnMi4wJywgJy1waCcsICc3LjAnLCAnLXRuJywgJzgnLCAnLW1hJywgJzIwMCcsICctaW1hZScsICc8aW5maWxlLm1hZT4nLCAnLW9tYWUnLCAnPG91dGZpbGUubWFlPic=

>  <r_epik_Ionization_Penalty>  (227) 
0.0698746

>  <r_epik_Ionization_Penalty_Charging>  (227) 
0.0698746

>  <r_epik_Ionization_Penalty_Neutral>  (227) 
0

>  <r_epik_State_Penalty>  (227) 
0.0611941

>  <r_epik_Charging_Adjusted_Penalty>  (227) 
0.131069

>  <i_epik_Tot_Q>  (227) 
0

>  <i_epik_Tot_abs_Q>  (227) 
0

>  <s_epik_Chemistry_Notes>  (227) 
This compound has an imine and may undergo hydrolysis.

>  <s_lp_Force_Field>  (227) 
OPLS3e

>  <r_lp_Energy>  (227) 
1.96969

>  <b_lp_Chiralities_Consistent>  (227) 
1

>  <s_lp_Variant>  (227) 
61:0-1

>  <s_i_glide_gridfile>  (227) 
pfpi4k_grid

>  <i_i_glide_lignum>  (227) 
3

>  <i_i_glide_rotatable_bonds>  (227) 
1

>  <r_i_docking_score>  (227) 
-5.84919

>  <r_i_glide_ligand_efficiency>  (227) 
-0.4178

>  <r_i_glide_ligand_efficiency_sa>  (227) 
-1.00696

>  <r_i_glide_ligand_efficiency_ln>  (227) 
-1.60734

>  <r_i_glide_gscore>  (227) 
-5.84919

>  <r_i_glide_lipo>  (227) 
-2.38165

>  <r_i_glide_hbond>  (227) 
-0.32

>  <r_i_glide_metal>  (227) 
-0

>  <r_i_glide_rewards>  (227) 
-1.47281

>  <r_i_glide_evdw>  (227) 
-24.8953

>  <r_i_glide_ecoul>  (227) 
-2.8665

>  <r_i_glide_erotb>  (227) 
0

>  <r_i_glide_esite>  (227) 
0

>  <r_i_glide_emodel>  (227) 
-37.4825

>  <r_i_glide_energy>  (227) 
-27.7618

>  <r_i_glide_einternal>  (227) 
0.3104

>  <r_i_glide_intrahb_reward>  (227) 
-0

>  <i_i_glide_confnum>  (227) 
1

>  <i_i_glide_posenum>  (227) 
38

>  <r_i_glide_eff_state_penalty>  (227) 
0

>  <ligand_id>  (227) 
61

>  <original_smiles>  (227) 
N#CC1C(=N)OC2=C(CCCC2)C1=O

>  <smiles>  (227) 
[H]N([H])c1oc2c(c(=O)c1C#N)C([H])([H])C([H])([H])C([H])([H])C2([H])[H]

$$$$
61:0:1
     RDKit          3D

 24 25  0  0  1  0  0  0  0  0999 V2000
    1.7261   -3.3825    4.9678 N   0  0  0  0  0  0  0  0  0  0  0  0
    1.2332   -2.3660    4.7115 C   0  0  0  0  0  0  0  0  0  0  0  0
    0.5951   -1.1241    4.3976 C   0  0  0  0  0  0  0  0  0  0  0  0
    0.7089   -0.6076    3.1452 C   0  0  0  0  0  0  0  0  0  0  0  0
    1.4171   -1.1622    2.0911 N   0  0  0  0  0  0  0  0  0  0  0  0
    0.0924    0.5553    2.7640 O   0  0  0  0  0  0  0  0  0  0  0  0
   -0.6386    1.2750    3.6719 C   0  0  0  0  0  0  0  0  0  0  0  0
   -0.8229    0.8923    4.9480 C   0  0  0  0  0  0  0  0  0  0  0  0
   -1.6510    1.6992    5.9523 C   0  0  0  0  0  0  0  0  0  0  0  0
   -1.9544    3.1268    5.4356 C   0  0  0  0  0  0  0  0  0  0  0  0
   -2.3461    3.1290    3.9443 C   0  0  0  0  0  0  0  0  0  0  0  0
   -1.2286    2.5344    3.0759 C   0  0  0  0  0  0  0  0  0  0  0  0
   -0.2104   -0.3763    5.3900 C   0  0  0  0  0  0  0  0  0  0  0  0
   -0.3842   -0.7930    6.5398 O   0  0  0  0  0  0  0  0  0  0  0  0
    1.8830   -2.0560    2.1189 H   0  0  0  0  0  0  0  0  0  0  0  0
   -2.5817    1.1586    6.1291 H   0  0  0  0  0  0  0  0  0  0  0  0
   -1.1430    1.7579    6.9237 H   0  0  0  0  0  0  0  0  0  0  0  0
   -2.7390    3.5854    6.0439 H   0  0  0  0  0  0  0  0  0  0  0  0
   -1.0569    3.7348    5.5656 H   0  0  0  0  0  0  0  0  0  0  0  0
   -3.2549    2.5431    3.8083 H   0  0  0  0  0  0  0  0  0  0  0  0
   -2.5750    4.1402    3.6053 H   0  0  0  0  0  0  0  0  0  0  0  0
   -0.4255    3.2558    2.9429 H   0  0  0  0  0  0  0  0  0  0  0  0
   -1.6133    2.3029    2.0853 H   0  0  0  0  0  0  0  0  0  0  0  0
    1.3309   -0.7610    1.1585 H   0  0  0  0  0  0  0  0  0  0  0  0
  1  2  3  0
  2  3  1  0
  3 13  1  0
  3  4  2  0
  4  5  1  0
  4  6  1  0
  5 15  1  0
  5 24  1  0
  6  7  1  0
  7 12  1  0
  7  8  2  0
  8  9  1  0
  8 13  1  0
  9 10  1  0
  9 16  1  0
  9 17  1  0
 10 11  1  0
 10 18  1  0
 10 19  1  0
 11 12  1  0
 11 20  1  0
 11 21  1  0
 12 22  1  0
 12 23  1  0
 13 14  2  0
M  END
>  <i_m_ct_stereo_status>  (228) 
1

>  <s_m_source_file>  (228) 
/var/tmp/pbs.5076255.sched01/tmp361ftg5n/90jpawypyp.sdf

>  <i_m_source_file_index>  (228) 
3

>  <i_lp_mmshare_version>  (228) 
48012

>  <i_f3d_flags>  (228) 
0

>  <s_epik_input>  (228) 
W0hdXE49QyhPMSlcW0NAQEhdKEMjTilDKD1PKUMoPUMxMilbQ0gyXVtDSDJdW0NIMl1bQ0gyXTI=

>  <s_epik_cmdline>  (228) 
J2VwaWtfcHl0aG9uJywgJy1waHQnLCAnMi4wJywgJy1waCcsICc3LjAnLCAnLXRuJywgJzgnLCAnLW1hJywgJzIwMCcsICctaW1hZScsICc8aW5maWxlLm1hZT4nLCAnLW9tYWUnLCAnPG91dGZpbGUubWFlPic=

>  <r_epik_Ionization_Penalty>  (228) 
0.0698746

>  <r_epik_Ionization_Penalty_Charging>  (228) 
0.0698746

>  <r_epik_Ionization_Penalty_Neutral>  (228) 
0

>  <r_epik_State_Penalty>  (228) 
0.0611941

>  <r_epik_Charging_Adjusted_Penalty>  (228) 
0.131069

>  <i_epik_Tot_Q>  (228) 
0

>  <i_epik_Tot_abs_Q>  (228) 
0

>  <s_epik_Chemistry_Notes>  (228) 
This compound has an imine and may undergo hydrolysis.

>  <s_lp_Force_Field>  (228) 
OPLS3e

>  <r_lp_Energy>  (228) 
1.96969

>  <b_lp_Chiralities_Consistent>  (228) 
1

>  <s_lp_Variant>  (228) 
61:0-1

>  <s_i_glide_gridfile>  (228) 
pfpi4k_grid

>  <i_i_glide_lignum>  (228) 
3

>  <i_i_glide_rotatable_bonds>  (228) 
1

>  <r_i_docking_score>  (228) 
-3.61295

>  <r_i_glide_ligand_efficiency>  (228) 
-0.258068

>  <r_i_glide_ligand_efficiency_sa>  (228) 
-0.62198

>  <r_i_glide_ligand_efficiency_ln>  (228) 
-0.992825

>  <r_i_glide_gscore>  (228) 
-3.61295

>  <r_i_glide_lipo>  (228) 
0

>  <r_i_glide_hbond>  (228) 
-0.152291

>  <r_i_glide_metal>  (228) 
-0

>  <r_i_glide_rewards>  (228) 
-2.11249

>  <r_i_glide_evdw>  (228) 
-15.255

>  <r_i_glide_ecoul>  (228) 
-3.45503

>  <r_i_glide_erotb>  (228) 
0

>  <r_i_glide_esite>  (228) 
-0.067165

>  <r_i_glide_emodel>  (228) 
-24.598

>  <r_i_glide_energy>  (228) 
-18.71

>  <r_i_glide_einternal>  (228) 
0.310516

>  <r_i_glide_intrahb_reward>  (228) 
-0

>  <i_i_glide_confnum>  (228) 
2

>  <i_i_glide_posenum>  (228) 
37

>  <r_i_glide_eff_state_penalty>  (228) 
0

>  <ligand_id>  (228) 
61

>  <original_smiles>  (228) 
N#CC1C(=N)OC2=C(CCCC2)C1=O

>  <smiles>  (228) 
[H]N([H])c1oc2c(c(=O)c1C#N)C([H])([H])C([H])([H])C([H])([H])C2([H])[H]

$$$$
61:0:2
     RDKit          3D

 24 25  0  0  1  0  0  0  0  0999 V2000
    0.8890   -3.5842    4.5977 N   0  0  0  0  0  0  0  0  0  0  0  0
    0.6126   -2.4699    4.4387 C   0  0  0  0  0  0  0  0  0  0  0  0
    0.2491   -1.1037    4.2398 C   0  0  0  0  0  0  0  0  0  0  0  0
    0.6669   -0.4549    3.1234 C   0  0  0  0  0  0  0  0  0  0  0  0
    1.4447   -0.9904    2.1156 N   0  0  0  0  0  0  0  0  0  0  0  0
    0.3449    0.8487    2.8546 O   0  0  0  0  0  0  0  0  0  0  0  0
   -0.4212    1.5660    3.7362 C   0  0  0  0  0  0  0  0  0  0  0  0
   -0.8980    1.0524    4.8846 C   0  0  0  0  0  0  0  0  0  0  0  0
   -1.7425    1.8587    5.8723 C   0  0  0  0  0  0  0  0  0  0  0  0
   -2.2656    3.1741    5.2461 C   0  0  0  0  0  0  0  0  0  0  0  0
   -1.1783    3.8890    4.4200 C   0  0  0  0  0  0  0  0  0  0  0  0
   -0.6511    2.9910    3.2879 C   0  0  0  0  0  0  0  0  0  0  0  0
   -0.5851   -0.3578    5.2045 C   0  0  0  0  0  0  0  0  0  0  0  0
   -0.9936   -0.8825    6.2437 O   0  0  0  0  0  0  0  0  0  0  0  0
    1.7329   -1.9539    2.0497 H   0  0  0  0  0  0  0  0  0  0  0  0
   -2.5851    1.2540    6.2240 H   0  0  0  0  0  0  0  0  0  0  0  0
   -1.1381    2.0737    6.7577 H   0  0  0  0  0  0  0  0  0  0  0  0
   -3.1041    2.9418    4.5823 H   0  0  0  0  0  0  0  0  0  0  0  0
   -2.6618    3.8230    6.0312 H   0  0  0  0  0  0  0  0  0  0  0  0
   -1.5528    4.8169    3.9904 H   0  0  0  0  0  0  0  0  0  0  0  0
   -0.3551    4.1557    5.0806 H   0  0  0  0  0  0  0  0  0  0  0  0
    0.2854    3.3864    2.9085 H   0  0  0  0  0  0  0  0  0  0  0  0
   -1.3501    2.9757    2.4550 H   0  0  0  0  0  0  0  0  0  0  0  0
    1.5671   -0.4544    1.2599 H   0  0  0  0  0  0  0  0  0  0  0  0
  1  2  3  0
  2  3  1  0
  3 13  1  0
  3  4  2  0
  4  5  1  0
  4  6  1  0
  5 15  1  0
  5 24  1  0
  6  7  1  0
  7 12  1  0
  7  8  2  0
  8  9  1  0
  8 13  1  0
  9 10  1  0
  9 16  1  0
  9 17  1  0
 10 11  1  0
 10 18  1  0
 10 19  1  0
 11 12  1  0
 11 20  1  0
 11 21  1  0
 12 22  1  0
 12 23  1  0
 13 14  2  0
M  END
>  <i_m_ct_stereo_status>  (229) 
1

>  <s_m_source_file>  (229) 
/var/tmp/pbs.5076255.sched01/tmp361ftg5n/90jpawypyp.sdf

>  <i_m_source_file_index>  (229) 
3

>  <i_lp_mmshare_version>  (229) 
48012

>  <i_f3d_flags>  (229) 
0

>  <s_epik_input>  (229) 
W0hdXE49QyhPMSlcW0NAQEhdKEMjTilDKD1PKUMoPUMxMilbQ0gyXVtDSDJdW0NIMl1bQ0gyXTI=

>  <s_epik_cmdline>  (229) 
J2VwaWtfcHl0aG9uJywgJy1waHQnLCAnMi4wJywgJy1waCcsICc3LjAnLCAnLXRuJywgJzgnLCAnLW1hJywgJzIwMCcsICctaW1hZScsICc8aW5maWxlLm1hZT4nLCAnLW9tYWUnLCAnPG91dGZpbGUubWFlPic=

>  <r_epik_Ionization_Penalty>  (229) 
0.0698746

>  <r_epik_Ionization_Penalty_Charging>  (229) 
0.0698746

>  <r_epik_Ionization_Penalty_Neutral>  (229) 
0

>  <r_epik_State_Penalty>  (229) 
0.0611941

>  <r_epik_Charging_Adjusted_Penalty>  (229) 
0.131069

>  <i_epik_Tot_Q>  (229) 
0

>  <i_epik_Tot_abs_Q>  (229) 
0

>  <s_epik_Chemistry_Notes>  (229) 
This compound has an imine and may undergo hydrolysis.

>  <s_lp_Force_Field>  (229) 
OPLS3e

>  <r_lp_Energy>  (229) 
1.96969

>  <b_lp_Chiralities_Consistent>  (229) 
1

>  <s_lp_Variant>  (229) 
61:0-1

>  <s_i_glide_gridfile>  (229) 
pfpi4k_grid

>  <i_i_glide_lignum>  (229) 
3

>  <i_i_glide_rotatable_bonds>  (229) 
1

>  <r_i_docking_score>  (229) 
-3.58726

>  <r_i_glide_ligand_efficiency>  (229) 
-0.256233

>  <r_i_glide_ligand_efficiency_sa>  (229) 
-0.617558

>  <r_i_glide_ligand_efficiency_ln>  (229) 
-0.985767

>  <r_i_glide_gscore>  (229) 
-3.58726

>  <r_i_glide_lipo>  (229) 
0

>  <r_i_glide_hbond>  (229) 
-0.0696563

>  <r_i_glide_metal>  (229) 
-0

>  <r_i_glide_rewards>  (229) 
-2.16571

>  <r_i_glide_evdw>  (229) 
-14.9135

>  <r_i_glide_ecoul>  (229) 
-3.61032

>  <r_i_glide_erotb>  (229) 
0

>  <r_i_glide_esite>  (229) 
-0.0646731

>  <r_i_glide_emodel>  (229) 
-24.3953

>  <r_i_glide_energy>  (229) 
-18.5239

>  <r_i_glide_einternal>  (229) 
0.291992

>  <r_i_glide_intrahb_reward>  (229) 
-0

>  <i_i_glide_confnum>  (229) 
3

>  <i_i_glide_posenum>  (229) 
39

>  <r_i_glide_eff_state_penalty>  (229) 
0

>  <ligand_id>  (229) 
61

>  <original_smiles>  (229) 
N#CC1C(=N)OC2=C(CCCC2)C1=O

>  <smiles>  (229) 
[H]N([H])c1oc2c(c(=O)c1C#N)C([H])([H])C([H])([H])C([H])([H])C2([H])[H]

$$$$
61:1:0
     RDKit          3D

 25 26  0  0  1  0  0  0  0  0999 V2000
   -4.5963  -11.0331   -6.4045 N   0  0  0  0  0  0  0  0  0  0  0  0
   -5.2405  -10.0754   -6.4318 C   0  0  0  0  0  0  0  0  0  0  0  0
   -6.0270   -8.8921   -6.5100 C   0  0  0  0  0  0  0  0  0  0  0  0
   -7.0803   -8.8853   -7.4586 C   0  0  0  0  0  0  0  0  0  0  0  0
   -7.4048   -9.8403   -8.2583 N   0  0  0  0  0  0  0  0  0  0  0  0
   -7.8548   -7.7821   -7.5818 O   0  0  0  0  0  0  0  0  0  0  0  0
   -7.6460   -6.6780   -6.7919 C   0  0  0  0  0  0  0  0  0  0  0  0
   -6.6578   -6.6316   -5.8611 C   0  0  0  0  0  0  0  0  0  0  0  0
   -6.4493   -5.3855   -5.0046 C   0  0  0  0  0  0  0  0  0  0  0  0
   -7.6344   -4.4031   -5.0708 C   0  0  0  0  0  0  0  0  0  0  0  0
   -8.1758   -4.2213   -6.4949 C   0  0  0  0  0  0  0  0  0  0  0  0
   -8.6139   -5.5532   -7.1032 C   0  0  0  0  0  0  0  0  0  0  0  0
   -5.8000   -7.8081   -5.7340 C   0  0  0  0  0  0  0  0  0  0  0  0
   -4.7929   -7.7990   -4.8440 O   0  0  0  0  0  0  0  0  0  0  0  0
   -6.9197  -10.7305   -8.2766 H   0  0  0  0  0  0  0  0  0  0  0  0
   -6.2614   -5.6688   -3.9672 H   0  0  0  0  0  0  0  0  0  0  0  0
   -5.5448   -4.8846   -5.3505 H   0  0  0  0  0  0  0  0  0  0  0  0
   -8.4377   -4.7608   -4.4255 H   0  0  0  0  0  0  0  0  0  0  0  0
   -7.3197   -3.4442   -4.6640 H   0  0  0  0  0  0  0  0  0  0  0  0
   -9.0022   -3.5101   -6.5039 H   0  0  0  0  0  0  0  0  0  0  0  0
   -7.3881   -3.7912   -7.1115 H   0  0  0  0  0  0  0  0  0  0  0  0
   -8.7133   -5.4495   -8.1827 H   0  0  0  0  0  0  0  0  0  0  0  0
   -9.5934   -5.8355   -6.7202 H   0  0  0  0  0  0  0  0  0  0  0  0
   -8.1957   -9.6875   -8.8769 H   0  0  0  0  0  0  0  0  0  0  0  0
   -4.3681   -8.6430   -4.8347 H   0  0  0  0  0  0  0  0  0  0  0  0
  1  2  3  0
  2  3  1  0
  3 13  2  0
  3  4  1  0
  4  5  2  3
  4  6  1  0
  5 15  1  0
  5 24  1  0
  6  7  1  0
  7 12  1  0
  7  8  2  0
  8  9  1  0
  8 13  1  0
  9 10  1  0
  9 16  1  0
  9 17  1  0
 10 11  1  0
 10 18  1  0
 10 19  1  0
 11 12  1  0
 11 20  1  0
 11 21  1  0
 12 22  1  0
 12 23  1  0
 13 14  1  0
 14 25  1  0
M  CHG  1   5   1
M  END
>  <i_m_ct_stereo_status>  (230) 
1

>  <s_m_source_file>  (230) 
/var/tmp/pbs.5076255.sched01/tmp361ftg5n/90jpawypyp.sdf

>  <i_m_source_file_index>  (230) 
4

>  <i_lp_mmshare_version>  (230) 
48012

>  <i_f3d_flags>  (230) 
0

>  <s_epik_input>  (230) 
W0hdXE49QyhPMSlcW0NAQEhdKEMjTilDKD1PKUMoPUMxMilbQ0gyXVtDSDJdW0NIMl1bQ0gyXTI=

>  <s_epik_cmdline>  (230) 
J2VwaWtfcHl0aG9uJywgJy1waHQnLCAnMi4wJywgJy1waCcsICc3LjAnLCAnLXRuJywgJzgnLCAnLW1hJywgJzIwMCcsICctaW1hZScsICc8aW5maWxlLm1hZT4nLCAnLW9tYWUnLCAnPG91dGZpbGUubWFlPic=

>  <r_epik_Ionization_Penalty>  (230) 
1.30177

>  <r_epik_Ionization_Penalty_Charging>  (230) 
0.000310304

>  <r_epik_Ionization_Penalty_Neutral>  (230) 
1.30146

>  <r_epik_State_Penalty>  (230) 
1.37544

>  <r_epik_Charging_Adjusted_Penalty>  (230) 
1.37575

>  <i_epik_Tot_Q>  (230) 
1

>  <i_epik_Tot_abs_Q>  (230) 
1

>  <s_epik_Chemistry_Notes>  (230) 
This compound has an imine and may undergo hydrolysis.

>  <s_lp_Force_Field>  (230) 
OPLS3e

>  <r_lp_Energy>  (230) 
12.544

>  <b_lp_Chiralities_Consistent>  (230) 
1

>  <s_lp_Variant>  (230) 
61:0-2

>  <s_i_glide_gridfile>  (230) 
pfpi4k_grid

>  <i_i_glide_lignum>  (230) 
4

>  <i_i_glide_rotatable_bonds>  (230) 
2

>  <r_i_docking_score>  (230) 
-6.64175

>  <r_i_glide_ligand_efficiency>  (230) 
-0.474411

>  <r_i_glide_ligand_efficiency_sa>  (230) 
-1.1434

>  <r_i_glide_ligand_efficiency_ln>  (230) 
-1.82513

>  <r_i_glide_gscore>  (230) 
-6.64175

>  <r_i_glide_lipo>  (230) 
-2.27232

>  <r_i_glide_hbond>  (230) 
0

>  <r_i_glide_metal>  (230) 
-0

>  <r_i_glide_rewards>  (230) 
-2.99621

>  <r_i_glide_evdw>  (230) 
-24.4836

>  <r_i_glide_ecoul>  (230) 
-0.993547

>  <r_i_glide_erotb>  (230) 
0

>  <r_i_glide_esite>  (230) 
0

>  <r_i_glide_emodel>  (230) 
-38.6294

>  <r_i_glide_energy>  (230) 
-25.4771

>  <r_i_glide_einternal>  (230) 
0.719889

>  <r_i_glide_intrahb_reward>  (230) 
-0

>  <i_i_glide_confnum>  (230) 
2

>  <i_i_glide_posenum>  (230) 
7

>  <r_i_glide_eff_state_penalty>  (230) 
0

>  <ligand_id>  (230) 
61

>  <original_smiles>  (230) 
N#CC1C(=N)OC2=C(CCCC2)C1=O

>  <smiles>  (230) 
[H]Oc1c2c(oc(=[N+]([H])[H])c1C#N)C([H])([H])C([H])([H])C([H])([H])C2([H])[H]

$$$$
61:1:1
     RDKit          3D

 25 26  0  0  1  0  0  0  0  0999 V2000
    5.1641   -0.2767    3.4055 N   0  0  0  0  0  0  0  0  0  0  0  0
    4.0914    0.1507    3.3652 C   0  0  0  0  0  0  0  0  0  0  0  0
    2.7814    0.7093    3.3393 C   0  0  0  0  0  0  0  0  0  0  0  0
    1.9361    0.3256    2.2506 C   0  0  0  0  0  0  0  0  0  0  0  0
    2.2326   -0.4709    1.2835 N   0  0  0  0  0  0  0  0  0  0  0  0
    0.6727    0.8114    2.1914 O   0  0  0  0  0  0  0  0  0  0  0  0
    0.2029    1.6731    3.1628 C   0  0  0  0  0  0  0  0  0  0  0  0
    0.9609    2.0696    4.2149 C   0  0  0  0  0  0  0  0  0  0  0  0
    0.3915    3.0107    5.2801 C   0  0  0  0  0  0  0  0  0  0  0  0
   -0.9223    3.6912    4.8447 C   0  0  0  0  0  0  0  0  0  0  0  0
   -1.8880    2.7055    4.1675 C   0  0  0  0  0  0  0  0  0  0  0  0
   -1.2395    2.0847    2.9241 C   0  0  0  0  0  0  0  0  0  0  0  0
    2.3251    1.5502    4.3013 C   0  0  0  0  0  0  0  0  0  0  0  0
    3.1015    1.9008    5.3378 O   0  0  0  0  0  0  0  0  0  0  0  0
    3.1544   -0.8913    1.1834 H   0  0  0  0  0  0  0  0  0  0  0  0
    0.2145    2.4329    6.1856 H   0  0  0  0  0  0  0  0  0  0  0  0
    1.1296    3.7655    5.5457 H   0  0  0  0  0  0  0  0  0  0  0  0
   -1.4049    4.1539    5.7078 H   0  0  0  0  0  0  0  0  0  0  0  0
   -0.6851    4.4972    4.1492 H   0  0  0  0  0  0  0  0  0  0  0  0
   -2.1514    1.9147    4.8751 H   0  0  0  0  0  0  0  0  0  0  0  0
   -2.8187    3.2027    3.8815 H   0  0  0  0  0  0  0  0  0  0  0  0
   -1.2407    2.7944    2.0967 H   0  0  0  0  0  0  0  0  0  0  0  0
   -1.8052    1.2114    2.6051 H   0  0  0  0  0  0  0  0  0  0  0  0
    1.5374   -0.6426    0.5294 H   0  0  0  0  0  0  0  0  0  0  0  0
    3.9586    1.5143    5.2305 H   0  0  0  0  0  0  0  0  0  0  0  0
  1  2  3  0
  2  3  1  0
  3 13  2  0
  3  4  1  0
  4  5  2  3
  4  6  1  0
  5 15  1  0
  5 24  1  0
  6  7  1  0
  7 12  1  0
  7  8  2  0
  8  9  1  0
  8 13  1  0
  9 10  1  0
  9 16  1  0
  9 17  1  0
 10 11  1  0
 10 18  1  0
 10 19  1  0
 11 12  1  0
 11 20  1  0
 11 21  1  0
 12 22  1  0
 12 23  1  0
 13 14  1  0
 14 25  1  0
M  CHG  1   5   1
M  END
>  <i_m_ct_stereo_status>  (231) 
1

>  <s_m_source_file>  (231) 
/var/tmp/pbs.5076255.sched01/tmp361ftg5n/90jpawypyp.sdf

>  <i_m_source_file_index>  (231) 
4

>  <i_lp_mmshare_version>  (231) 
48012

>  <i_f3d_flags>  (231) 
0

>  <s_epik_input>  (231) 
W0hdXE49QyhPMSlcW0NAQEhdKEMjTilDKD1PKUMoPUMxMilbQ0gyXVtDSDJdW0NIMl1bQ0gyXTI=

>  <s_epik_cmdline>  (231) 
J2VwaWtfcHl0aG9uJywgJy1waHQnLCAnMi4wJywgJy1waCcsICc3LjAnLCAnLXRuJywgJzgnLCAnLW1hJywgJzIwMCcsICctaW1hZScsICc8aW5maWxlLm1hZT4nLCAnLW9tYWUnLCAnPG91dGZpbGUubWFlPic=

>  <r_epik_Ionization_Penalty>  (231) 
1.30177

>  <r_epik_Ionization_Penalty_Charging>  (231) 
0.000310304

>  <r_epik_Ionization_Penalty_Neutral>  (231) 
1.30146

>  <r_epik_State_Penalty>  (231) 
1.37544

>  <r_epik_Charging_Adjusted_Penalty>  (231) 
1.37575

>  <i_epik_Tot_Q>  (231) 
1

>  <i_epik_Tot_abs_Q>  (231) 
1

>  <s_epik_Chemistry_Notes>  (231) 
This compound has an imine and may undergo hydrolysis.

>  <s_lp_Force_Field>  (231) 
OPLS3e

>  <r_lp_Energy>  (231) 
12.544

>  <b_lp_Chiralities_Consistent>  (231) 
1

>  <s_lp_Variant>  (231) 
61:0-2

>  <s_i_glide_gridfile>  (231) 
pfpi4k_grid

>  <i_i_glide_lignum>  (231) 
4

>  <i_i_glide_rotatable_bonds>  (231) 
2

>  <r_i_docking_score>  (231) 
-4.47166

>  <r_i_glide_ligand_efficiency>  (231) 
-0.319405

>  <r_i_glide_ligand_efficiency_sa>  (231) 
-0.76981

>  <r_i_glide_ligand_efficiency_ln>  (231) 
-1.2288

>  <r_i_glide_gscore>  (231) 
-4.47166

>  <r_i_glide_lipo>  (231) 
0

>  <r_i_glide_hbond>  (231) 
-0.2

>  <r_i_glide_metal>  (231) 
-0

>  <r_i_glide_rewards>  (231) 
-2.10541

>  <r_i_glide_evdw>  (231) 
-14.0974

>  <r_i_glide_ecoul>  (231) 
-9.13721

>  <r_i_glide_erotb>  (231) 
0

>  <r_i_glide_esite>  (231) 
-0.0908036

>  <r_i_glide_emodel>  (231) 
-31.9207

>  <r_i_glide_energy>  (231) 
-23.2346

>  <r_i_glide_einternal>  (231) 
0.710287

>  <r_i_glide_intrahb_reward>  (231) 
-0

>  <i_i_glide_confnum>  (231) 
1

>  <i_i_glide_posenum>  (231) 
5

>  <r_i_glide_eff_state_penalty>  (231) 
0

>  <ligand_id>  (231) 
61

>  <original_smiles>  (231) 
N#CC1C(=N)OC2=C(CCCC2)C1=O

>  <smiles>  (231) 
[H]Oc1c2c(oc(=[N+]([H])[H])c1C#N)C([H])([H])C([H])([H])C([H])([H])C2([H])[H]

$$$$
61:1:2
     RDKit          3D

 25 26  0  0  1  0  0  0  0  0999 V2000
    5.1503   -0.2811    3.4179 N   0  0  0  0  0  0  0  0  0  0  0  0
    4.0799    0.1520    3.4135 C   0  0  0  0  0  0  0  0  0  0  0  0
    2.7587    0.6836    3.3615 C   0  0  0  0  0  0  0  0  0  0  0  0
    1.9290    0.3040    2.2605 C   0  0  0  0  0  0  0  0  0  0  0  0
    2.2377   -0.4794    1.2854 N   0  0  0  0  0  0  0  0  0  0  0  0
    0.6609    0.7786    2.1947 O   0  0  0  0  0  0  0  0  0  0  0  0
    0.1771    1.6319    3.1681 C   0  0  0  0  0  0  0  0  0  0  0  0
    0.9224    2.0240    4.2297 C   0  0  0  0  0  0  0  0  0  0  0  0
    0.3371    2.9514    5.2954 C   0  0  0  0  0  0  0  0  0  0  0  0
   -0.9796    3.6265    4.8516 C   0  0  0  0  0  0  0  0  0  0  0  0
   -1.9308    2.6387    4.1569 C   0  0  0  0  0  0  0  0  0  0  0  0
   -1.2648    2.0353    2.9165 C   0  0  0  0  0  0  0  0  0  0  0  0
    2.2853    1.5104    4.3205 C   0  0  0  0  0  0  0  0  0  0  0  0
    3.0643    1.8478    5.3541 O   0  0  0  0  0  0  0  0  0  0  0  0
    3.1601   -0.8973    1.1940 H   0  0  0  0  0  0  0  0  0  0  0  0
    0.1504    2.3655    6.1949 H   0  0  0  0  0  0  0  0  0  0  0  0
    1.0607    3.7165    5.5707 H   0  0  0  0  0  0  0  0  0  0  0  0
   -1.4741    4.0827    5.7140 H   0  0  0  0  0  0  0  0  0  0  0  0
   -0.7408    4.4395    4.1638 H   0  0  0  0  0  0  0  0  0  0  0  0
   -2.1930    1.8408    4.8555 H   0  0  0  0  0  0  0  0  0  0  0  0
   -2.8613    3.1311    3.8675 H   0  0  0  0  0  0  0  0  0  0  0  0
   -1.2651    2.7467    2.0909 H   0  0  0  0  0  0  0  0  0  0  0  0
   -1.8088    1.1537    2.5827 H   0  0  0  0  0  0  0  0  0  0  0  0
    1.5460   -0.6550    0.5286 H   0  0  0  0  0  0  0  0  0  0  0  0
    2.5779    2.4472    5.9021 H   0  0  0  0  0  0  0  0  0  0  0  0
  1  2  3  0
  2  3  1  0
  3 13  2  0
  3  4  1  0
  4  5  2  3
  4  6  1  0
  5 15  1  0
  5 24  1  0
  6  7  1  0
  7 12  1  0
  7  8  2  0
  8  9  1  0
  8 13  1  0
  9 10  1  0
  9 16  1  0
  9 17  1  0
 10 11  1  0
 10 18  1  0
 10 19  1  0
 11 12  1  0
 11 20  1  0
 11 21  1  0
 12 22  1  0
 12 23  1  0
 13 14  1  0
 14 25  1  0
M  CHG  1   5   1
M  END
>  <i_m_ct_stereo_status>  (232) 
1

>  <s_m_source_file>  (232) 
/var/tmp/pbs.5076255.sched01/tmp361ftg5n/90jpawypyp.sdf

>  <i_m_source_file_index>  (232) 
4

>  <i_lp_mmshare_version>  (232) 
48012

>  <i_f3d_flags>  (232) 
0

>  <s_epik_input>  (232) 
W0hdXE49QyhPMSlcW0NAQEhdKEMjTilDKD1PKUMoPUMxMilbQ0gyXVtDSDJdW0NIMl1bQ0gyXTI=

>  <s_epik_cmdline>  (232) 
J2VwaWtfcHl0aG9uJywgJy1waHQnLCAnMi4wJywgJy1waCcsICc3LjAnLCAnLXRuJywgJzgnLCAnLW1hJywgJzIwMCcsICctaW1hZScsICc8aW5maWxlLm1hZT4nLCAnLW9tYWUnLCAnPG91dGZpbGUubWFlPic=

>  <r_epik_Ionization_Penalty>  (232) 
1.30177

>  <r_epik_Ionization_Penalty_Charging>  (232) 
0.000310304

>  <r_epik_Ionization_Penalty_Neutral>  (232) 
1.30146

>  <r_epik_State_Penalty>  (232) 
1.37544

>  <r_epik_Charging_Adjusted_Penalty>  (232) 
1.37575

>  <i_epik_Tot_Q>  (232) 
1

>  <i_epik_Tot_abs_Q>  (232) 
1

>  <s_epik_Chemistry_Notes>  (232) 
This compound has an imine and may undergo hydrolysis.

>  <s_lp_Force_Field>  (232) 
OPLS3e

>  <r_lp_Energy>  (232) 
12.544

>  <b_lp_Chiralities_Consistent>  (232) 
1

>  <s_lp_Variant>  (232) 
61:0-2

>  <s_i_glide_gridfile>  (232) 
pfpi4k_grid

>  <i_i_glide_lignum>  (232) 
4

>  <i_i_glide_rotatable_bonds>  (232) 
2

>  <r_i_docking_score>  (232) 
-4.45023

>  <r_i_glide_ligand_efficiency>  (232) 
-0.317873

>  <r_i_glide_ligand_efficiency_sa>  (232) 
-0.76612

>  <r_i_glide_ligand_efficiency_ln>  (232) 
-1.22291

>  <r_i_glide_gscore>  (232) 
-4.45023

>  <r_i_glide_lipo>  (232) 
0

>  <r_i_glide_hbond>  (232) 
-0.2

>  <r_i_glide_metal>  (232) 
-0

>  <r_i_glide_rewards>  (232) 
-2.10541

>  <r_i_glide_evdw>  (232) 
-14.066

>  <r_i_glide_ecoul>  (232) 
-9.00637

>  <r_i_glide_erotb>  (232) 
0

>  <r_i_glide_esite>  (232) 
-0.0905592

>  <r_i_glide_emodel>  (232) 
-31.7176

>  <r_i_glide_energy>  (232) 
-23.0724

>  <r_i_glide_einternal>  (232) 
0.708306

>  <r_i_glide_intrahb_reward>  (232) 
-0

>  <i_i_glide_confnum>  (232) 
1

>  <i_i_glide_posenum>  (232) 
9

>  <r_i_glide_eff_state_penalty>  (232) 
0

>  <ligand_id>  (232) 
61

>  <original_smiles>  (232) 
N#CC1C(=N)OC2=C(CCCC2)C1=O

>  <smiles>  (232) 
[H]Oc1c2c(oc(=[N+]([H])[H])c1C#N)C([H])([H])C([H])([H])C([H])([H])C2([H])[H]

$$$$
62:0:0
     RDKit          3D

 72 77  0  0  1  0  0  0  0  0999 V2000
    6.8588   -3.5490    0.8619 C   0  0  0  0  0  0  0  0  0  0  0  0
    5.5470   -3.2658    1.0244 C   0  0  0  0  0  0  0  0  0  0  0  0
    4.7899   -2.7266   -0.2523 C   0  0  1  0  0  0  0  0  0  0  0  0
    4.9441   -3.6131   -1.5116 C   0  0  0  0  0  0  0  0  0  0  0  0
    3.3141   -2.2377   -0.1365 C   0  0  0  0  0  0  0  0  0  0  0  0
    2.7770   -2.0161    1.2968 C   0  0  2  0  0  0  0  0  0  0  0  0
    3.8014   -1.0578    1.8309 C   0  0  0  0  0  0  0  0  0  0  0  0
    3.7162    0.1504    1.6125 O   0  0  0  0  0  0  0  0  0  0  0  0
    4.9628   -1.7069    2.5970 C   0  0  1  0  0  0  0  0  0  0  0  0
    6.1856   -1.0992    2.1488 O   0  0  0  0  0  0  0  0  0  0  0  0
    4.9528   -1.0092    4.0039 C   0  0  1  0  0  0  0  0  0  0  0  0
    5.2217    0.3917    3.9864 O   0  0  0  0  0  0  0  0  0  0  0  0
    3.6117   -1.2745    4.7221 C   0  0  2  0  0  0  0  0  0  0  0  0
    3.2949   -0.3546    5.9658 C   0  0  0  0  0  0  0  0  0  0  0  0
    4.4409   -0.1003    6.9871 C   0  0  0  0  0  0  0  0  0  0  0  0
    2.7044    1.0095    5.5091 C   0  0  0  0  0  0  0  0  0  0  0  0
    2.2044   -0.8567    6.7189 O   0  0  0  0  0  0  0  0  0  0  0  0
    2.1692   -2.1277    7.0817 C   0  0  0  0  0  0  0  0  0  0  0  0
    1.8778   -2.4919    8.2194 O   0  0  0  0  0  0  0  0  0  0  0  0
    2.3776   -3.1389    5.9487 C   0  0  1  0  0  0  0  0  0  0  0  0
    1.0511   -3.7017    5.3904 C   0  0  0  0  0  0  0  0  0  0  0  0
    0.1091   -4.2430    6.5027 C   0  0  0  0  0  0  0  0  0  0  0  0
    0.2429   -2.6144    4.6430 C   0  0  0  0  0  0  0  0  0  0  0  0
    1.4519   -4.9255    4.5341 C   0  0  0  0  0  0  0  0  0  0  0  0
    2.9540   -5.0005    4.1199 C   0  0  1  0  0  0  0  0  0  0  0  0
    3.0053   -6.3335    3.6193 O   0  0  0  0  0  0  0  0  0  0  0  0
    3.5106   -3.5949    3.4157 C   0  0  2  0  0  0  0  0  0  0  0  0
    2.5292   -3.2915    2.1998 C   0  0  2  0  0  0  0  0  0  0  0  0
    2.8588   -4.5422    1.3868 C   0  0  0  0  0  0  0  0  0  0  0  0
    4.3611   -4.6907    1.7289 C   0  0  1  0  0  0  0  0  0  0  0  0
    4.9464   -5.6910    0.8681 O   0  0  0  0  0  0  0  0  0  0  0  0
    4.9627   -3.3952    2.5244 C   0  0  2  0  0  0  0  0  0  0  0  0
    3.5368   -2.8115    4.8905 C   0  0  1  0  0  0  0  0  0  0  0  0
    4.8398   -3.2871    5.6637 C   0  0  0  0  0  0  0  0  0  0  0  0
    7.4524   -3.9045    1.6904 H   0  0  0  0  0  0  0  0  0  0  0  0
    7.3573   -3.4586   -0.0899 H   0  0  0  0  0  0  0  0  0  0  0  0
    5.3535   -1.8234   -0.4977 H   0  0  0  0  0  0  0  0  0  0  0  0
    5.9848   -3.8241   -1.7633 H   0  0  0  0  0  0  0  0  0  0  0  0
    4.5096   -3.1161   -2.3803 H   0  0  0  0  0  0  0  0  0  0  0  0
    4.4213   -4.5653   -1.4146 H   0  0  0  0  0  0  0  0  0  0  0  0
    3.2726   -1.2776   -0.6593 H   0  0  0  0  0  0  0  0  0  0  0  0
    2.6236   -2.8172   -0.7512 H   0  0  0  0  0  0  0  0  0  0  0  0
    1.8362   -1.4697    1.2235 H   0  0  0  0  0  0  0  0  0  0  0  0
    6.3238   -1.3423    1.2479 H   0  0  0  0  0  0  0  0  0  0  0  0
    5.8082   -1.3670    4.5670 H   0  0  0  0  0  0  0  0  0  0  0  0
    4.5591    0.8165    3.4553 H   0  0  0  0  0  0  0  0  0  0  0  0
    2.7730   -1.0350    4.0805 H   0  0  0  0  0  0  0  0  0  0  0  0
    5.3906    0.1479    6.5185 H   0  0  0  0  0  0  0  0  0  0  0  0
    4.6095   -0.9500    7.6460 H   0  0  0  0  0  0  0  0  0  0  0  0
    4.1863    0.7297    7.6465 H   0  0  0  0  0  0  0  0  0  0  0  0
    3.4282    1.6703    5.0325 H   0  0  0  0  0  0  0  0  0  0  0  0
    2.3003    1.5658    6.3580 H   0  0  0  0  0  0  0  0  0  0  0  0
    1.8784    0.8699    4.8072 H   0  0  0  0  0  0  0  0  0  0  0  0
    2.7302   -3.9793    6.5419 H   0  0  0  0  0  0  0  0  0  0  0  0
   -0.7373   -4.7839    6.0713 H   0  0  0  0  0  0  0  0  0  0  0  0
   -0.3084   -3.4487    7.1234 H   0  0  0  0  0  0  0  0  0  0  0  0
    0.6355   -4.9355    7.1661 H   0  0  0  0  0  0  0  0  0  0  0  0
   -0.5621   -3.0577    4.0643 H   0  0  0  0  0  0  0  0  0  0  0  0
    0.8466   -2.0051    3.9796 H   0  0  0  0  0  0  0  0  0  0  0  0
   -0.2301   -1.9218    5.3369 H   0  0  0  0  0  0  0  0  0  0  0  0
    1.2347   -5.8321    5.1114 H   0  0  0  0  0  0  0  0  0  0  0  0
    0.7977   -5.0106    3.6634 H   0  0  0  0  0  0  0  0  0  0  0  0
    3.5267   -5.2364    5.0039 H   0  0  0  0  0  0  0  0  0  0  0  0
    2.8268   -6.9381    4.3214 H   0  0  0  0  0  0  0  0  0  0  0  0
    1.4764   -3.3199    2.4584 H   0  0  0  0  0  0  0  0  0  0  0  0
    2.2436   -5.3890    1.6601 H   0  0  0  0  0  0  0  0  0  0  0  0
    2.6512   -4.5181    0.3255 H   0  0  0  0  0  0  0  0  0  0  0  0
    4.6474   -5.3987    2.4849 H   0  0  0  0  0  0  0  0  0  0  0  0
    4.8074   -5.4188   -0.0289 H   0  0  0  0  0  0  0  0  0  0  0  0
    4.7255   -4.1909    6.2631 H   0  0  0  0  0  0  0  0  0  0  0  0
    5.1901   -2.5601    6.3884 H   0  0  0  0  0  0  0  0  0  0  0  0
    5.6806   -3.5051    5.0025 H   0  0  0  0  0  0  0  0  0  0  0  0
  1  2  2  0
  1 35  1  0
  1 36  1  0
 32  2  1  6
  2  3  1  0
  3  4  1  0
  3  5  1  0
  3 37  1  6
  4 38  1  0
  4 39  1  0
  4 40  1  0
  5  6  1  0
  5 41  1  0
  5 42  1  0
  6 28  1  0
  6  7  1  0
  6 43  1  6
  7  8  2  0
  7  9  1  0
  9 32  1  0
  9 10  1  6
  9 11  1  0
 10 44  1  0
 11 12  1  0
 11 13  1  0
 11 45  1  1
 12 46  1  0
 13 33  1  0
 13 14  1  0
 13 47  1  6
 14 15  1  0
 14 16  1  0
 14 17  1  0
 15 48  1  0
 15 49  1  0
 15 50  1  0
 16 51  1  0
 16 52  1  0
 16 53  1  0
 17 18  1  0
 18 19  2  0
 18 20  1  0
 20 33  1  0
 20 21  1  0
 20 54  1  1
 21 22  1  0
 21 23  1  0
 21 24  1  0
 22 55  1  0
 22 56  1  0
 22 57  1  0
 23 58  1  0
 23 59  1  0
 23 60  1  0
 24 25  1  0
 24 61  1  0
 24 62  1  0
 25 26  1  0
 25 27  1  0
 25 63  1  1
 26 64  1  0
 27 32  1  0
 27 28  1  0
 27 33  1  1
 28 29  1  0
 28 65  1  1
 29 30  1  0
 29 66  1  0
 29 67  1  0
 30 31  1  0
 30 32  1  0
 30 68  1  1
 31 69  1  0
 33 34  1  1
 34 70  1  0
 34 71  1  0
 34 72  1  0
M  END
>  <i_m_ct_stereo_status>  (233) 
1

>  <s_m_source_file>  (233) 
/var/tmp/pbs.5076255.sched01/tmp361ftg5n/90jpawypyp.sdf

>  <i_m_source_file_index>  (233) 
5

>  <i_lp_mmshare_version>  (233) 
48012

>  <i_f3d_flags>  (233) 
0

>  <s_epik_input>  (233) 
W0NIMl09QzFbQ0BASF0oW0NIM10pW0NIMl1bQ0BASF0oW0NASF0yW0NIMl1bQ0BIXTNbT0hdKUMoPU8pW0NAXShbT0hdKShDMTNDMjQ1KVtDQEBIXShbT0hdKVtDQEhdNltDQEBdNShbQ0gzXSlbQ0BASF0oQyg9TylPQzYoW0NIM10pW0NIM10pQyhbQ0gzXSkoW0NIM10pW0NIMl1bQ0BIXTRbT0hd

>  <s_epik_cmdline>  (233) 
J2VwaWtfcHl0aG9uJywgJy1waHQnLCAnMi4wJywgJy1waCcsICc3LjAnLCAnLXRuJywgJzgnLCAnLW1hJywgJzIwMCcsICctaW1hZScsICc8aW5maWxlLm1hZT4nLCAnLW9tYWUnLCAnPG91dGZpbGUubWFlPic=

>  <r_lp_tautomer_probability>  (233) 
1

>  <r_epik_Ionization_Penalty>  (233) 
3.06167e-07

>  <r_epik_Ionization_Penalty_Charging>  (233) 
0

>  <r_epik_Ionization_Penalty_Neutral>  (233) 
3.06167e-07

>  <r_epik_State_Penalty>  (233) 
-0

>  <r_epik_Charging_Adjusted_Penalty>  (233) 
0

>  <i_epik_Tot_Q>  (233) 
0

>  <i_epik_Tot_abs_Q>  (233) 
0

>  <s_epik_Chemistry_Notes>  (233) 
This compound has an ester and may undergo hydrolysis at high or low pH.

>  <s_lp_Force_Field>  (233) 
OPLS3e

>  <r_lp_Energy>  (233) 
347.397

>  <b_lp_Chiralities_Consistent>  (233) 
1

>  <s_lp_Variant>  (233) 
62:0-1

>  <s_i_glide_gridfile>  (233) 
pfpi4k_grid

>  <i_i_glide_lignum>  (233) 
5

>  <i_i_glide_rotatable_bonds>  (233) 
4

>  <r_i_docking_score>  (233) 
-2.72979

>  <r_i_glide_ligand_efficiency>  (233) 
-0.0802878

>  <r_i_glide_ligand_efficiency_sa>  (233) 
-0.260101

>  <r_i_glide_ligand_efficiency_ln>  (233) 
-0.603086

>  <r_i_glide_gscore>  (233) 
-2.72979

>  <r_i_glide_lipo>  (233) 
-0.415747

>  <r_i_glide_hbond>  (233) 
0

>  <r_i_glide_metal>  (233) 
-0

>  <r_i_glide_rewards>  (233) 
-0.673274

>  <r_i_glide_evdw>  (233) 
-25.0683

>  <r_i_glide_ecoul>  (233) 
-2.56113

>  <r_i_glide_erotb>  (233) 
0

>  <r_i_glide_esite>  (233) 
-0.00318054

>  <r_i_glide_emodel>  (233) 
-37.2258

>  <r_i_glide_energy>  (233) 
-27.6294

>  <r_i_glide_einternal>  (233) 
2.04937

>  <r_i_glide_intrahb_reward>  (233) 
-0.5

>  <i_i_glide_confnum>  (233) 
1

>  <i_i_glide_posenum>  (233) 
31

>  <r_i_glide_eff_state_penalty>  (233) 
0

>  <ligand_id>  (233) 
62

>  <original_smiles>  (233) 
C=C1C(C)CC2C(=O)C3(O)C(O)C4C(C)(C)OC(=O)C5C(C)(C)CC(O)C6(C2CC(O)C136)C54C

>  <smiles>  (233) 
[H]OC1([H])C2(O[H])C(=O)C3([H])C([H])([H])C([H])(C([H])([H])[H])C(=C([H])[H])C24C([H])(O[H])C([H])([H])C3([H])C42C([H])(O[H])C([H])([H])C(C([H])([H])[H])(C([H])([H])[H])C3([H])C(=O)OC(C([H])([H])[H])(C([H])([H])[H])C1([H])C32C([H])([H])[H]

$$$$
62:0:1
     RDKit          3D

 72 77  0  0  1  0  0  0  0  0999 V2000
    2.5247   -2.7988    3.8343 C   0  0  0  0  0  0  0  0  0  0  0  0
    2.9845   -3.7567    2.9925 C   0  0  0  0  0  0  0  0  0  0  0  0
    2.9062   -3.4332    1.4484 C   0  0  1  0  0  0  0  0  0  0  0  0
    3.5459   -2.0850    1.0387 C   0  0  0  0  0  0  0  0  0  0  0  0
    3.2663   -4.5328    0.3934 C   0  0  0  0  0  0  0  0  0  0  0  0
    3.3974   -5.9752    0.9353 C   0  0  2  0  0  0  0  0  0  0  0  0
    2.0470   -6.1386    1.5777 C   0  0  0  0  0  0  0  0  0  0  0  0
    1.0466   -6.3871    0.8956 O   0  0  0  0  0  0  0  0  0  0  0  0
    2.0082   -5.8216    3.0849 C   0  0  1  0  0  0  0  0  0  0  0  0
    0.8370   -5.0297    3.3420 O   0  0  0  0  0  0  0  0  0  0  0  0
    1.4503   -7.1201    3.7668 C   0  0  1  0  0  0  0  0  0  0  0  0
    0.1164   -7.4526    3.3811 O   0  0  0  0  0  0  0  0  0  0  0  0
    2.3995   -8.3092    3.5074 C   0  0  2  0  0  0  0  0  0  0  0  0
    1.8169   -9.7506    3.7955 C   0  0  0  0  0  0  0  0  0  0  0  0
    1.0168   -9.9571    5.1119 C   0  0  0  0  0  0  0  0  0  0  0  0
    0.9617  -10.2455    2.5991 C   0  0  0  0  0  0  0  0  0  0  0  0
    2.8392  -10.7330    3.7933 O   0  0  0  0  0  0  0  0  0  0  0  0
    3.9487  -10.5479    4.4891 C   0  0  0  0  0  0  0  0  0  0  0  0
    4.4335  -11.4115    5.2229 O   0  0  0  0  0  0  0  0  0  0  0  0
    4.6673   -9.2187    4.2381 C   0  0  1  0  0  0  0  0  0  0  0  0
    5.8422   -9.3323    3.2362 C   0  0  0  0  0  0  0  0  0  0  0  0
    6.8194  -10.4871    3.5959 C   0  0  0  0  0  0  0  0  0  0  0  0
    5.3462   -9.6148    1.7983 C   0  0  0  0  0  0  0  0  0  0  0  0
    6.6470   -8.0223    3.3828 C   0  0  0  0  0  0  0  0  0  0  0  0
    5.9017   -6.8491    4.0884 C   0  0  1  0  0  0  0  0  0  0  0  0
    6.9873   -5.9488    4.3008 O   0  0  0  0  0  0  0  0  0  0  0  0
    4.3975   -6.5416    3.4316 C   0  0  2  0  0  0  0  0  0  0  0  0
    4.6306   -6.3040    1.8730 C   0  0  2  0  0  0  0  0  0  0  0  0
    5.4953   -5.0520    2.0144 C   0  0  0  0  0  0  0  0  0  0  0  0
    4.8359   -4.4111    3.2572 C   0  0  1  0  0  0  0  0  0  0  0  0
    5.3502   -3.0718    3.4292 O   0  0  0  0  0  0  0  0  0  0  0  0
    3.4379   -5.1434    3.6789 C   0  0  2  0  0  0  0  0  0  0  0  0
    3.7502   -7.9059    4.1471 C   0  0  1  0  0  0  0  0  0  0  0  0
    3.4828   -7.5722    5.6769 C   0  0  0  0  0  0  0  0  0  0  0  0
    2.5226   -2.9548    4.9030 H   0  0  0  0  0  0  0  0  0  0  0  0
    2.1556   -1.8519    3.4757 H   0  0  0  0  0  0  0  0  0  0  0  0
    1.8341   -3.2610    1.3128 H   0  0  0  0  0  0  0  0  0  0  0  0
    3.1607   -1.2406    1.6125 H   0  0  0  0  0  0  0  0  0  0  0  0
    3.3233   -1.8662   -0.0061 H   0  0  0  0  0  0  0  0  0  0  0  0
    4.6332   -2.0910    1.1289 H   0  0  0  0  0  0  0  0  0  0  0  0
    2.4645   -4.5166   -0.3488 H   0  0  0  0  0  0  0  0  0  0  0  0
    4.1124   -4.2540   -0.2340 H   0  0  0  0  0  0  0  0  0  0  0  0
    3.4352   -6.6499    0.0819 H   0  0  0  0  0  0  0  0  0  0  0  0
    0.7875   -4.8560    4.2694 H   0  0  0  0  0  0  0  0  0  0  0  0
    1.3129   -6.9335    4.8290 H   0  0  0  0  0  0  0  0  0  0  0  0
   -0.1242   -8.2619    3.8087 H   0  0  0  0  0  0  0  0  0  0  0  0
    2.6232   -8.3930    2.4521 H   0  0  0  0  0  0  0  0  0  0  0  0
    0.2916   -9.1719    5.3128 H   0  0  0  0  0  0  0  0  0  0  0  0
    1.6657  -10.0430    5.9825 H   0  0  0  0  0  0  0  0  0  0  0  0
    0.4630  -10.8973    5.0766 H   0  0  0  0  0  0  0  0  0  0  0  0
    0.0110   -9.7272    2.4736 H   0  0  0  0  0  0  0  0  0  0  0  0
    0.7214  -11.3073    2.6949 H   0  0  0  0  0  0  0  0  0  0  0  0
    1.5135  -10.1357    1.6637 H   0  0  0  0  0  0  0  0  0  0  0  0
    5.2038   -9.1476    5.1815 H   0  0  0  0  0  0  0  0  0  0  0  0
    7.7177  -10.4473    2.9750 H   0  0  0  0  0  0  0  0  0  0  0  0
    6.3773  -11.4735    3.4454 H   0  0  0  0  0  0  0  0  0  0  0  0
    7.1385  -10.4279    4.6407 H   0  0  0  0  0  0  0  0  0  0  0  0
    6.1281   -9.4478    1.0569 H   0  0  0  0  0  0  0  0  0  0  0  0
    4.4783   -9.0305    1.5179 H   0  0  0  0  0  0  0  0  0  0  0  0
    5.0321  -10.6557    1.6964 H   0  0  0  0  0  0  0  0  0  0  0  0
    7.5393   -8.2360    3.9828 H   0  0  0  0  0  0  0  0  0  0  0  0
    7.0517   -7.7126    2.4159 H   0  0  0  0  0  0  0  0  0  0  0  0
    5.8174   -7.0982    5.1356 H   0  0  0  0  0  0  0  0  0  0  0  0
    7.6828   -6.4022    4.7528 H   0  0  0  0  0  0  0  0  0  0  0  0
    5.2278   -7.0641    1.3828 H   0  0  0  0  0  0  0  0  0  0  0  0
    6.5450   -5.2832    2.1311 H   0  0  0  0  0  0  0  0  0  0  0  0
    5.5587   -4.3898    1.1626 H   0  0  0  0  0  0  0  0  0  0  0  0
    5.3000   -4.5410    4.2191 H   0  0  0  0  0  0  0  0  0  0  0  0
    4.9834   -2.5335    2.7415 H   0  0  0  0  0  0  0  0  0  0  0  0
    4.3234   -7.7437    6.3494 H   0  0  0  0  0  0  0  0  0  0  0  0
    2.6971   -8.1818    6.1122 H   0  0  0  0  0  0  0  0  0  0  0  0
    3.2072   -6.5304    5.8497 H   0  0  0  0  0  0  0  0  0  0  0  0
  1  2  2  0
  1 35  1  0
  1 36  1  0
 32  2  1  6
  2  3  1  0
  3  4  1  0
  3  5  1  0
  3 37  1  6
  4 38  1  0
  4 39  1  0
  4 40  1  0
  5  6  1  0
  5 41  1  0
  5 42  1  0
  6 28  1  0
  6  7  1  0
  6 43  1  6
  7  8  2  0
  7  9  1  0
  9 32  1  0
  9 10  1  6
  9 11  1  0
 10 44  1  0
 11 12  1  0
 11 13  1  0
 11 45  1  1
 12 46  1  0
 13 33  1  0
 13 14  1  0
 13 47  1  6
 14 15  1  0
 14 16  1  0
 14 17  1  0
 15 48  1  0
 15 49  1  0
 15 50  1  0
 16 51  1  0
 16 52  1  0
 16 53  1  0
 17 18  1  0
 18 19  2  0
 18 20  1  0
 20 33  1  0
 20 21  1  0
 20 54  1  1
 21 22  1  0
 21 23  1  0
 21 24  1  0
 22 55  1  0
 22 56  1  0
 22 57  1  0
 23 58  1  0
 23 59  1  0
 23 60  1  0
 24 25  1  0
 24 61  1  0
 24 62  1  0
 25 26  1  0
 25 27  1  0
 25 63  1  1
 26 64  1  0
 27 32  1  0
 27 28  1  0
 27 33  1  6
 28 29  1  0
 28 65  1  6
 29 30  1  0
 29 66  1  0
 29 67  1  0
 30 31  1  0
 30 32  1  0
 30 68  1  1
 31 69  1  0
 33 34  1  1
 34 70  1  0
 34 71  1  0
 34 72  1  0
M  END
>  <i_m_ct_stereo_status>  (234) 
1

>  <s_m_source_file>  (234) 
/var/tmp/pbs.5076255.sched01/tmp361ftg5n/90jpawypyp.sdf

>  <i_m_source_file_index>  (234) 
5

>  <i_lp_mmshare_version>  (234) 
48012

>  <i_f3d_flags>  (234) 
0

>  <s_epik_input>  (234) 
W0NIMl09QzFbQ0BASF0oW0NIM10pW0NIMl1bQ0BASF0oW0NASF0yW0NIMl1bQ0BIXTNbT0hdKUMoPU8pW0NAXShbT0hdKShDMTNDMjQ1KVtDQEBIXShbT0hdKVtDQEhdNltDQEBdNShbQ0gzXSlbQ0BASF0oQyg9TylPQzYoW0NIM10pW0NIM10pQyhbQ0gzXSkoW0NIM10pW0NIMl1bQ0BIXTRbT0hd

>  <s_epik_cmdline>  (234) 
J2VwaWtfcHl0aG9uJywgJy1waHQnLCAnMi4wJywgJy1waCcsICc3LjAnLCAnLXRuJywgJzgnLCAnLW1hJywgJzIwMCcsICctaW1hZScsICc8aW5maWxlLm1hZT4nLCAnLW9tYWUnLCAnPG91dGZpbGUubWFlPic=

>  <r_lp_tautomer_probability>  (234) 
1

>  <r_epik_Ionization_Penalty>  (234) 
3.06167e-07

>  <r_epik_Ionization_Penalty_Charging>  (234) 
0

>  <r_epik_Ionization_Penalty_Neutral>  (234) 
3.06167e-07

>  <r_epik_State_Penalty>  (234) 
-0

>  <r_epik_Charging_Adjusted_Penalty>  (234) 
0

>  <i_epik_Tot_Q>  (234) 
0

>  <i_epik_Tot_abs_Q>  (234) 
0

>  <s_epik_Chemistry_Notes>  (234) 
This compound has an ester and may undergo hydrolysis at high or low pH.

>  <s_lp_Force_Field>  (234) 
OPLS3e

>  <r_lp_Energy>  (234) 
347.397

>  <b_lp_Chiralities_Consistent>  (234) 
1

>  <s_lp_Variant>  (234) 
62:0-1

>  <s_i_glide_gridfile>  (234) 
pfpi4k_grid

>  <i_i_glide_lignum>  (234) 
5

>  <i_i_glide_rotatable_bonds>  (234) 
4

>  <r_i_docking_score>  (234) 
-2.50166

>  <r_i_glide_ligand_efficiency>  (234) 
-0.0735783

>  <r_i_glide_ligand_efficiency_sa>  (234) 
-0.238365

>  <r_i_glide_ligand_efficiency_ln>  (234) 
-0.552687

>  <r_i_glide_gscore>  (234) 
-2.50166

>  <r_i_glide_lipo>  (234) 
-0.277464

>  <r_i_glide_hbond>  (234) 
-0.142668

>  <r_i_glide_metal>  (234) 
-0

>  <r_i_glide_rewards>  (234) 
-0.173274

>  <r_i_glide_evdw>  (234) 
-27.6402

>  <r_i_glide_ecoul>  (234) 
-3.25225

>  <r_i_glide_erotb>  (234) 
0

>  <r_i_glide_esite>  (234) 
-0.0384073

>  <r_i_glide_emodel>  (234) 
-35.7578

>  <r_i_glide_energy>  (234) 
-30.8924

>  <r_i_glide_einternal>  (234) 
0.760856

>  <r_i_glide_intrahb_reward>  (234) 
-0

>  <i_i_glide_confnum>  (234) 
1

>  <i_i_glide_posenum>  (234) 
24

>  <r_i_glide_eff_state_penalty>  (234) 
0

>  <ligand_id>  (234) 
62

>  <original_smiles>  (234) 
C=C1C(C)CC2C(=O)C3(O)C(O)C4C(C)(C)OC(=O)C5C(C)(C)CC(O)C6(C2CC(O)C136)C54C

>  <smiles>  (234) 
[H]OC1([H])C2(O[H])C(=O)C3([H])C([H])([H])C([H])(C([H])([H])[H])C(=C([H])[H])C24C([H])(O[H])C([H])([H])C3([H])C42C([H])(O[H])C([H])([H])C(C([H])([H])[H])(C([H])([H])[H])C3([H])C(=O)OC(C([H])([H])[H])(C([H])([H])[H])C1([H])C32C([H])([H])[H]

$$$$
62:0:2
     RDKit          3D

 72 77  0  0  1  0  0  0  0  0999 V2000
    6.1515   -1.0547    1.7260 C   0  0  0  0  0  0  0  0  0  0  0  0
    5.3268   -2.0989    1.4664 C   0  0  0  0  0  0  0  0  0  0  0  0
    4.2968   -1.8771    0.2951 C   0  0  1  0  0  0  0  0  0  0  0  0
    4.9244   -1.3943   -1.0339 C   0  0  0  0  0  0  0  0  0  0  0  0
    3.1999   -2.9546    0.0053 C   0  0  0  0  0  0  0  0  0  0  0  0
    3.0135   -4.0302    1.0943 C   0  0  2  0  0  0  0  0  0  0  0  0
    2.7589   -3.1649    2.3057 C   0  0  0  0  0  0  0  0  0  0  0  0
    1.6415   -2.7255    2.5592 O   0  0  0  0  0  0  0  0  0  0  0  0
    3.9965   -2.8510    3.1580 C   0  0  1  0  0  0  0  0  0  0  0  0
    3.9776   -1.4499    3.4892 O   0  0  0  0  0  0  0  0  0  0  0  0
    3.6190   -3.3531    4.5957 C   0  0  1  0  0  0  0  0  0  0  0  0
    2.5148   -2.6705    5.1953 O   0  0  0  0  0  0  0  0  0  0  0  0
    3.3483   -4.8730    4.5787 C   0  0  2  0  0  0  0  0  0  0  0  0
    2.6088   -5.4676    5.8435 C   0  0  0  0  0  0  0  0  0  0  0  0
    3.0928   -4.9983    7.2459 C   0  0  0  0  0  0  0  0  0  0  0  0
    1.0715   -5.2602    5.7358 C   0  0  0  0  0  0  0  0  0  0  0  0
    2.6688   -6.8833    5.8579 O   0  0  0  0  0  0  0  0  0  0  0  0
    3.8213   -7.5095    5.6772 C   0  0  0  0  0  0  0  0  0  0  0  0
    4.2118   -8.4151    6.4066 O   0  0  0  0  0  0  0  0  0  0  0  0
    4.5959   -7.0929    4.4204 C   0  0  1  0  0  0  0  0  0  0  0  0
    4.3808   -8.0459    3.2212 C   0  0  0  0  0  0  0  0  0  0  0  0
    4.6060   -9.5373    3.5953 C   0  0  0  0  0  0  0  0  0  0  0  0
    2.9398   -7.9523    2.6657 C   0  0  0  0  0  0  0  0  0  0  0  0
    5.4885   -7.6841    2.2002 C   0  0  0  0  0  0  0  0  0  0  0  0
    6.1801   -6.3019    2.4104 C   0  0  1  0  0  0  0  0  0  0  0  0
    7.3119   -6.4155    1.5438 O   0  0  0  0  0  0  0  0  0  0  0  0
    5.0914   -5.0448    2.5685 C   0  0  2  0  0  0  0  0  0  0  0  0
    4.1598   -5.1072    1.2751 C   0  0  2  0  0  0  0  0  0  0  0  0
    5.2635   -4.8379    0.2536 C   0  0  0  0  0  0  0  0  0  0  0  0
    6.1438   -3.8574    1.0718 C   0  0  1  0  0  0  0  0  0  0  0  0
    7.1227   -3.2651    0.1867 O   0  0  0  0  0  0  0  0  0  0  0  0
    5.4364   -3.3682    2.4577 C   0  0  2  0  0  0  0  0  0  0  0  0
    4.6703   -5.5253    4.1131 C   0  0  1  0  0  0  0  0  0  0  0  0
    5.8110   -5.0457    5.1048 C   0  0  0  0  0  0  0  0  0  0  0  0
    6.8694   -1.0901    2.5248 H   0  0  0  0  0  0  0  0  0  0  0  0
    6.1340   -0.1469    1.1354 H   0  0  0  0  0  0  0  0  0  0  0  0
    3.7328   -1.0084    0.6413 H   0  0  0  0  0  0  0  0  0  0  0  0
    5.5408   -0.5033   -0.9069 H   0  0  0  0  0  0  0  0  0  0  0  0
    4.1444   -1.1292   -1.7504 H   0  0  0  0  0  0  0  0  0  0  0  0
    5.5387   -2.1659   -1.5014 H   0  0  0  0  0  0  0  0  0  0  0  0
    2.2602   -2.4074   -0.0808 H   0  0  0  0  0  0  0  0  0  0  0  0
    3.2798   -3.3767   -0.9994 H   0  0  0  0  0  0  0  0  0  0  0  0
    2.0920   -4.5637    0.8690 H   0  0  0  0  0  0  0  0  0  0  0  0
    4.0094   -0.9589    2.6832 H   0  0  0  0  0  0  0  0  0  0  0  0
    4.4202   -3.0739    5.2739 H   0  0  0  0  0  0  0  0  0  0  0  0
    1.7792   -2.7300    4.5965 H   0  0  0  0  0  0  0  0  0  0  0  0
    2.6412   -5.1339    3.8002 H   0  0  0  0  0  0  0  0  0  0  0  0
    3.2391   -3.9219    7.3122 H   0  0  0  0  0  0  0  0  0  0  0  0
    4.0219   -5.4789    7.5488 H   0  0  0  0  0  0  0  0  0  0  0  0
    2.3667   -5.2708    8.0119 H   0  0  0  0  0  0  0  0  0  0  0  0
    0.7537   -4.2266    5.8644 H   0  0  0  0  0  0  0  0  0  0  0  0
    0.5463   -5.8379    6.4989 H   0  0  0  0  0  0  0  0  0  0  0  0
    0.6930   -5.6038    4.7705 H   0  0  0  0  0  0  0  0  0  0  0  0
    5.5902   -7.3900    4.7467 H   0  0  0  0  0  0  0  0  0  0  0  0
    4.6052  -10.1695    2.7027 H   0  0  0  0  0  0  0  0  0  0  0  0
    3.8276   -9.9286    4.2560 H   0  0  0  0  0  0  0  0  0  0  0  0
    5.5651   -9.6825    4.1005 H   0  0  0  0  0  0  0  0  0  0  0  0
    2.8569   -8.4163    1.6821 H   0  0  0  0  0  0  0  0  0  0  0  0
    2.5721   -6.9362    2.5926 H   0  0  0  0  0  0  0  0  0  0  0  0
    2.2366   -8.4682    3.3190 H   0  0  0  0  0  0  0  0  0  0  0  0
    6.2814   -8.4375    2.2742 H   0  0  0  0  0  0  0  0  0  0  0  0
    5.1127   -7.7940    1.1804 H   0  0  0  0  0  0  0  0  0  0  0  0
    6.7842   -6.3750    3.3011 H   0  0  0  0  0  0  0  0  0  0  0  0
    7.0118   -6.4472    0.6488 H   0  0  0  0  0  0  0  0  0  0  0  0
    3.7417   -6.0839    1.0579 H   0  0  0  0  0  0  0  0  0  0  0  0
    5.7509   -5.7474   -0.0741 H   0  0  0  0  0  0  0  0  0  0  0  0
    4.9662   -4.4439   -0.7085 H   0  0  0  0  0  0  0  0  0  0  0  0
    7.0265   -4.2312    1.5613 H   0  0  0  0  0  0  0  0  0  0  0  0
    7.6169   -3.9668   -0.2066 H   0  0  0  0  0  0  0  0  0  0  0  0
    6.6577   -5.7254    5.2137 H   0  0  0  0  0  0  0  0  0  0  0  0
    5.4669   -4.9176    6.1239 H   0  0  0  0  0  0  0  0  0  0  0  0
    6.2479   -4.0933    4.8145 H   0  0  0  0  0  0  0  0  0  0  0  0
  1  2  2  0
  1 35  1  0
  1 36  1  0
 32  2  1  6
  2  3  1  0
  3  4  1  0
  3  5  1  0
  3 37  1  1
  4 38  1  0
  4 39  1  0
  4 40  1  0
  5  6  1  0
  5 41  1  0
  5 42  1  0
  6 28  1  0
  6  7  1  0
  6 43  1  6
  7  8  2  0
  7  9  1  0
  9 32  1  0
  9 10  1  1
  9 11  1  0
 10 44  1  0
 11 12  1  0
 11 13  1  0
 11 45  1  1
 12 46  1  0
 13 33  1  0
 13 14  1  0
 13 47  1  6
 14 15  1  0
 14 16  1  0
 14 17  1  0
 15 48  1  0
 15 49  1  0
 15 50  1  0
 16 51  1  0
 16 52  1  0
 16 53  1  0
 17 18  1  0
 18 19  2  0
 18 20  1  0
 20 33  1  0
 20 21  1  0
 20 54  1  1
 21 22  1  0
 21 23  1  0
 21 24  1  0
 22 55  1  0
 22 56  1  0
 22 57  1  0
 23 58  1  0
 23 59  1  0
 23 60  1  0
 24 25  1  0
 24 61  1  0
 24 62  1  0
 25 26  1  0
 25 27  1  0
 25 63  1  1
 26 64  1  0
 27 32  1  0
 27 28  1  0
 27 33  1  1
 28 29  1  0
 28 65  1  6
 29 30  1  0
 29 66  1  0
 29 67  1  0
 30 31  1  0
 30 32  1  0
 30 68  1  1
 31 69  1  0
 33 34  1  1
 34 70  1  0
 34 71  1  0
 34 72  1  0
M  END
>  <i_m_ct_stereo_status>  (235) 
1

>  <s_m_source_file>  (235) 
/var/tmp/pbs.5076255.sched01/tmp361ftg5n/90jpawypyp.sdf

>  <i_m_source_file_index>  (235) 
5

>  <i_lp_mmshare_version>  (235) 
48012

>  <i_f3d_flags>  (235) 
0

>  <s_epik_input>  (235) 
W0NIMl09QzFbQ0BASF0oW0NIM10pW0NIMl1bQ0BASF0oW0NASF0yW0NIMl1bQ0BIXTNbT0hdKUMoPU8pW0NAXShbT0hdKShDMTNDMjQ1KVtDQEBIXShbT0hdKVtDQEhdNltDQEBdNShbQ0gzXSlbQ0BASF0oQyg9TylPQzYoW0NIM10pW0NIM10pQyhbQ0gzXSkoW0NIM10pW0NIMl1bQ0BIXTRbT0hd

>  <s_epik_cmdline>  (235) 
J2VwaWtfcHl0aG9uJywgJy1waHQnLCAnMi4wJywgJy1waCcsICc3LjAnLCAnLXRuJywgJzgnLCAnLW1hJywgJzIwMCcsICctaW1hZScsICc8aW5maWxlLm1hZT4nLCAnLW9tYWUnLCAnPG91dGZpbGUubWFlPic=

>  <r_lp_tautomer_probability>  (235) 
1

>  <r_epik_Ionization_Penalty>  (235) 
3.06167e-07

>  <r_epik_Ionization_Penalty_Charging>  (235) 
0

>  <r_epik_Ionization_Penalty_Neutral>  (235) 
3.06167e-07

>  <r_epik_State_Penalty>  (235) 
-0

>  <r_epik_Charging_Adjusted_Penalty>  (235) 
0

>  <i_epik_Tot_Q>  (235) 
0

>  <i_epik_Tot_abs_Q>  (235) 
0

>  <s_epik_Chemistry_Notes>  (235) 
This compound has an ester and may undergo hydrolysis at high or low pH.

>  <s_lp_Force_Field>  (235) 
OPLS3e

>  <r_lp_Energy>  (235) 
347.397

>  <b_lp_Chiralities_Consistent>  (235) 
1

>  <s_lp_Variant>  (235) 
62:0-1

>  <s_i_glide_gridfile>  (235) 
pfpi4k_grid

>  <i_i_glide_lignum>  (235) 
5

>  <i_i_glide_rotatable_bonds>  (235) 
4

>  <r_i_docking_score>  (235) 
-2.11883

>  <r_i_glide_ligand_efficiency>  (235) 
-0.0623185

>  <r_i_glide_ligand_efficiency_sa>  (235) 
-0.201888

>  <r_i_glide_ligand_efficiency_ln>  (235) 
-0.468109

>  <r_i_glide_gscore>  (235) 
-2.11883

>  <r_i_glide_lipo>  (235) 
-0.462279

>  <r_i_glide_hbond>  (235) 
0

>  <r_i_glide_metal>  (235) 
-0

>  <r_i_glide_rewards>  (235) 
-0.673274

>  <r_i_glide_evdw>  (235) 
-23.9268

>  <r_i_glide_ecoul>  (235) 
1.43893

>  <r_i_glide_erotb>  (235) 
0

>  <r_i_glide_esite>  (235) 
-0.00277797

>  <r_i_glide_emodel>  (235) 
-30.7934

>  <r_i_glide_energy>  (235) 
-22.4878

>  <r_i_glide_einternal>  (235) 
1.89556

>  <r_i_glide_intrahb_reward>  (235) 
-0.5

>  <i_i_glide_confnum>  (235) 
2

>  <i_i_glide_posenum>  (235) 
20

>  <r_i_glide_eff_state_penalty>  (235) 
0

>  <ligand_id>  (235) 
62

>  <original_smiles>  (235) 
C=C1C(C)CC2C(=O)C3(O)C(O)C4C(C)(C)OC(=O)C5C(C)(C)CC(O)C6(C2CC(O)C136)C54C

>  <smiles>  (235) 
[H]OC1([H])C2(O[H])C(=O)C3([H])C([H])([H])C([H])(C([H])([H])[H])C(=C([H])[H])C24C([H])(O[H])C([H])([H])C3([H])C42C([H])(O[H])C([H])([H])C(C([H])([H])[H])(C([H])([H])[H])C3([H])C(=O)OC(C([H])([H])[H])(C([H])([H])[H])C1([H])C32C([H])([H])[H]

$$$$
63:0:0
     RDKit          3D

 66 72  0  0  1  0  0  0  0  0999 V2000
    0.1582   -7.9494    2.3237 C   0  0  0  0  0  0  0  0  0  0  0  0
    1.3220   -8.5045    3.1922 C   0  0  0  0  0  0  0  0  0  0  0  0
    1.1252  -10.0398    3.0001 C   0  0  0  0  0  0  0  0  0  0  0  0
    2.6953   -8.0168    2.5308 C   0  0  2  0  0  0  0  0  0  0  0  0
    3.8855   -9.0194    2.7971 C   0  0  1  0  0  0  0  0  0  0  0  0
    5.0103   -9.0251    1.7198 C   0  0  0  0  0  0  0  0  0  0  0  0
    6.1607   -9.9600    2.0795 C   0  0  0  0  0  0  0  0  0  0  0  0
    6.6202  -10.7702    1.2840 O   0  0  0  0  0  0  0  0  0  0  0  0
    6.7116   -9.7886    3.4903 C   0  0  0  0  0  0  0  0  0  0  0  0
    5.5807   -9.9292    4.5220 C   0  0  0  0  0  0  0  0  0  0  0  0
    4.3971   -8.9984    4.2381 C   0  0  0  0  0  0  0  0  0  0  0  0
    3.8264   -8.2895    5.2301 C   0  0  0  0  0  0  0  0  0  0  0  0
    2.5779   -7.4183    5.1842 C   0  0  1  0  0  0  0  0  0  0  0  0
    2.6198   -6.1441    4.3412 C   0  0  2  0  0  0  0  0  0  0  0  0
    1.1900   -5.6018    4.5912 C   0  0  0  0  0  0  0  0  0  0  0  0
    0.3171   -6.8200    4.9318 C   0  0  0  0  0  0  0  0  0  0  0  0
    1.2356   -8.0587    4.7330 C   0  0  1  0  0  0  0  0  0  0  0  0
    0.8407   -9.1685    5.6332 N   0  0  0  0  0  0  0  0  0  0  0  0
    0.7037   -9.1906    6.9727 C   0  0  0  0  0  0  0  0  0  0  0  0
    0.8658   -8.2248    7.7192 O   0  0  0  0  0  0  0  0  0  0  0  0
    3.0009   -6.4798    2.8555 C   0  0  2  0  0  0  0  0  0  0  0  0
    2.3487   -5.5827    1.7953 C   0  0  0  0  0  0  0  0  0  0  0  0
    3.2156   -5.1439    0.8817 C   0  0  0  0  0  0  0  0  0  0  0  0
    2.9699   -4.2396   -0.2554 C   0  0  0  0  0  0  0  0  0  0  0  0
    1.8353   -4.0079   -0.6944 O   0  0  0  0  0  0  0  0  0  0  0  0
    4.2180   -3.6804   -0.8518 C   0  0  0  0  0  0  0  0  0  0  0  0
    4.2058   -2.9406   -2.0630 C   0  0  0  0  0  0  0  0  0  0  0  0
    3.0578   -2.6588   -2.7488 O   0  0  0  0  0  0  0  0  0  0  0  0
    5.4139   -2.4674   -2.6073 C   0  0  0  0  0  0  0  0  0  0  0  0
    6.6361   -2.7030   -1.9547 C   0  0  0  0  0  0  0  0  0  0  0  0
    6.6643   -3.4209   -0.7488 C   0  0  0  0  0  0  0  0  0  0  0  0
    5.4689   -3.9128   -0.2059 C   0  0  0  0  0  0  0  0  0  0  0  0
    5.5829   -4.6099    0.9726 O   0  0  0  0  0  0  0  0  0  0  0  0
    4.6060   -5.6173    1.1546 C   0  0  1  0  0  0  0  0  0  0  0  0
    4.4801   -6.0247    2.6343 C   0  0  0  0  0  0  0  0  0  0  0  0
    0.2964   -8.2206    1.2774 H   0  0  0  0  0  0  0  0  0  0  0  0
    0.0592   -6.8714    2.3418 H   0  0  0  0  0  0  0  0  0  0  0  0
   -0.8063   -8.3629    2.6240 H   0  0  0  0  0  0  0  0  0  0  0  0
    1.7513  -10.6503    3.6565 H   0  0  0  0  0  0  0  0  0  0  0  0
    1.3676  -10.3051    1.9696 H   0  0  0  0  0  0  0  0  0  0  0  0
    0.0951  -10.3551    3.1659 H   0  0  0  0  0  0  0  0  0  0  0  0
    2.5663   -8.0840    1.4488 H   0  0  0  0  0  0  0  0  0  0  0  0
    3.5261  -10.0331    2.6803 H   0  0  0  0  0  0  0  0  0  0  0  0
    4.6016   -9.3126    0.7519 H   0  0  0  0  0  0  0  0  0  0  0  0
    5.4847   -8.0645    1.5866 H   0  0  0  0  0  0  0  0  0  0  0  0
    7.5106  -10.5071    3.6776 H   0  0  0  0  0  0  0  0  0  0  0  0
    7.1523   -8.7939    3.5629 H   0  0  0  0  0  0  0  0  0  0  0  0
    5.2177  -10.9594    4.5163 H   0  0  0  0  0  0  0  0  0  0  0  0
    5.9738   -9.7477    5.5256 H   0  0  0  0  0  0  0  0  0  0  0  0
    4.2593   -8.3799    6.2142 H   0  0  0  0  0  0  0  0  0  0  0  0
    2.5023   -7.0806    6.2148 H   0  0  0  0  0  0  0  0  0  0  0  0
    3.3250   -5.4455    4.7912 H   0  0  0  0  0  0  0  0  0  0  0  0
    1.2103   -4.9555    5.4688 H   0  0  0  0  0  0  0  0  0  0  0  0
    0.7695   -4.9952    3.7930 H   0  0  0  0  0  0  0  0  0  0  0  0
    0.0297   -6.6984    5.9732 H   0  0  0  0  0  0  0  0  0  0  0  0
   -0.6385   -6.8576    4.4077 H   0  0  0  0  0  0  0  0  0  0  0  0
    0.6752  -10.0549    5.1795 H   0  0  0  0  0  0  0  0  0  0  0  0
    0.4235  -10.2023    7.3180 H   0  0  0  0  0  0  0  0  0  0  0  0
    1.3107   -5.3060    1.7945 H   0  0  0  0  0  0  0  0  0  0  0  0
    2.2704   -2.8916   -2.2696 H   0  0  0  0  0  0  0  0  0  0  0  0
    5.4045   -1.9175   -3.5345 H   0  0  0  0  0  0  0  0  0  0  0  0
    7.5623   -2.3531   -2.3839 H   0  0  0  0  0  0  0  0  0  0  0  0
    7.6100   -3.6212   -0.2672 H   0  0  0  0  0  0  0  0  0  0  0  0
    4.7913   -6.4691    0.5033 H   0  0  0  0  0  0  0  0  0  0  0  0
    4.6361   -5.0935    3.1915 H   0  0  0  0  0  0  0  0  0  0  0  0
    5.2568   -6.6795    3.0305 H   0  0  0  0  0  0  0  0  0  0  0  0
  1  2  1  0
  1 36  1  0
  1 37  1  0
  1 38  1  0
  2 17  1  0
  2  3  1  0
  2  4  1  0
  3 39  1  0
  3 40  1  0
  3 41  1  0
  4 21  1  0
  4  5  1  0
  4 42  1  6
  5 11  1  0
  5  6  1  0
  5 43  1  1
  6  7  1  0
  6 44  1  0
  6 45  1  0
  7  8  2  0
  7  9  1  0
  9 10  1  0
  9 46  1  0
  9 47  1  0
 10 11  1  0
 10 48  1  0
 10 49  1  0
 11 12  2  0
 12 13  1  0
 12 50  1  0
 13 17  1  0
 13 14  1  0
 13 51  1  1
 14 15  1  0
 14 21  1  0
 14 52  1  1
 15 16  1  0
 15 53  1  0
 15 54  1  0
 16 17  1  0
 16 55  1  0
 16 56  1  0
 17 18  1  1
 18 19  1  0
 18 57  1  0
 19 20  2  0
 19 58  1  0
 21 35  1  1
 21 22  1  0
 22 23  2  0
 22 59  1  0
 23 34  1  0
 23 24  1  0
 24 25  2  0
 24 26  1  0
 26 32  2  0
 26 27  1  0
 27 28  1  0
 27 29  2  0
 28 60  1  0
 29 30  1  0
 29 61  1  0
 30 31  2  0
 30 62  1  0
 31 32  1  0
 31 63  1  0
 32 33  1  0
 33 34  1  0
 34 35  1  0
 34 64  1  6
 35 65  1  0
 35 66  1  0
M  END
>  <i_m_ct_stereo_status>  (236) 
1

>  <s_m_source_file>  (236) 
/var/tmp/pbs.5076255.sched01/tmp361ftg5n/90jpawypyp.sdf

>  <i_m_source_file_index>  (236) 
6

>  <i_lp_mmshare_version>  (236) 
48012

>  <i_f3d_flags>  (236) 
0

>  <s_epik_input>  (236) 
Tz1bQ0hdW05IXVtDQEBdMShDMihbQ0gzXSlbQ0gzXSlbQ0gyXVtDSDJdW0NASF0zW0NAQEhdMVtDSF09QyhbQ0gyXVtDSDJdQyg9TylbQ0gyXTQpW0NASF00W0NAQEhdMltDQEBdMzVbQ0hdPUM2W0NASF0oW0NIMl01KU9jN2MoQzY9TyljKFtPSF0pW2NIXVtjSF1bY0hdNw==

>  <s_epik_cmdline>  (236) 
J2VwaWtfcHl0aG9uJywgJy1waHQnLCAnMi4wJywgJy1waCcsICc3LjAnLCAnLXRuJywgJzgnLCAnLW1hJywgJzIwMCcsICctaW1hZScsICc8aW5maWxlLm1hZT4nLCAnLW9tYWUnLCAnPG91dGZpbGUubWFlPic=

>  <r_lp_tautomer_probability>  (236) 
1

>  <r_epik_Ionization_Penalty>  (236) 
0.0031064

>  <r_epik_Ionization_Penalty_Charging>  (236) 
0

>  <r_epik_Ionization_Penalty_Neutral>  (236) 
0.0031064

>  <r_epik_State_Penalty>  (236) 
0.00218623

>  <r_epik_Charging_Adjusted_Penalty>  (236) 
0.00218623

>  <i_epik_Tot_Q>  (236) 
0

>  <i_epik_Tot_abs_Q>  (236) 
0

>  <s_lp_Force_Field>  (236) 
OPLS3e

>  <r_lp_Energy>  (236) 
72.5423

>  <b_lp_Chiralities_Consistent>  (236) 
1

>  <s_lp_Variant>  (236) 
63:0-1

>  <s_i_glide_gridfile>  (236) 
pfpi4k_grid

>  <i_i_glide_lignum>  (236) 
6

>  <i_i_glide_rotatable_bonds>  (236) 
3

>  <r_i_docking_score>  (236) 
-3.71855

>  <r_i_glide_ligand_efficiency>  (236) 
-0.106244

>  <r_i_glide_ligand_efficiency_sa>  (236) 
-0.347532

>  <r_i_glide_ligand_efficiency_ln>  (236) 
-0.816305

>  <r_i_glide_gscore>  (236) 
-3.71855

>  <r_i_glide_lipo>  (236) 
-0.490793

>  <r_i_glide_hbond>  (236) 
-0.0856199

>  <r_i_glide_metal>  (236) 
-0

>  <r_i_glide_rewards>  (236) 
-0.680272

>  <r_i_glide_evdw>  (236) 
-35.7342

>  <r_i_glide_ecoul>  (236) 
-3.92325

>  <r_i_glide_erotb>  (236) 
0.0902011

>  <r_i_glide_esite>  (236) 
-0.176873

>  <r_i_glide_emodel>  (236) 
-52.0339

>  <r_i_glide_energy>  (236) 
-39.6575

>  <r_i_glide_einternal>  (236) 
3.00244

>  <r_i_glide_intrahb_reward>  (236) 
-0.5

>  <i_i_glide_confnum>  (236) 
4

>  <i_i_glide_posenum>  (236) 
24

>  <r_i_glide_eff_state_penalty>  (236) 
0

>  <ligand_id>  (236) 
63

>  <original_smiles>  (236) 
CC1(C)C2C3CC(=O)CCC3=CC3C(CCC31NC=O)C21C=C2C(=O)c3c(O)cccc3OC2C1

>  <smiles>  (236) 
[H]Oc1c([H])c([H])c([H])c2c1C(=O)C1=C([H])C3(C([H])([H])C1([H])O2)C1([H])C([H])([H])C([H])([H])C2(N([H])C([H])=O)C1([H])C([H])=C1C([H])([H])C([H])([H])C(=O)C([H])([H])C1([H])C3([H])C2(C([H])([H])[H])C([H])([H])[H]

$$$$
63:0:1
     RDKit          3D

 66 72  0  0  1  0  0  0  0  0999 V2000
    3.4186   -2.2711    6.4269 C   0  0  0  0  0  0  0  0  0  0  0  0
    3.5806   -1.9005    4.9238 C   0  0  0  0  0  0  0  0  0  0  0  0
    5.0139   -1.2903    4.9193 C   0  0  0  0  0  0  0  0  0  0  0  0
    3.5275   -3.2397    4.0724 C   0  0  2  0  0  0  0  0  0  0  0  0
    4.3514   -3.1330    2.7295 C   0  0  1  0  0  0  0  0  0  0  0  0
    4.9373   -4.4743    2.1980 C   0  0  0  0  0  0  0  0  0  0  0  0
    5.6597   -4.3026    0.8675 C   0  0  0  0  0  0  0  0  0  0  0  0
    6.7870   -4.7440    0.6712 O   0  0  0  0  0  0  0  0  0  0  0  0
    4.8798   -3.5606   -0.2047 C   0  0  0  0  0  0  0  0  0  0  0  0
    4.4485   -2.1848    0.3276 C   0  0  0  0  0  0  0  0  0  0  0  0
    3.6978   -2.2626    1.6582 C   0  0  0  0  0  0  0  0  0  0  0  0
    2.5785   -1.5460    1.8565 C   0  0  0  0  0  0  0  0  0  0  0  0
    1.7646   -1.3877    3.1355 C   0  0  1  0  0  0  0  0  0  0  0  0
    1.0261   -2.6155    3.6698 C   0  0  2  0  0  0  0  0  0  0  0  0
    0.3340   -2.0047    4.9057 C   0  0  0  0  0  0  0  0  0  0  0  0
    1.2035   -0.8008    5.3098 C   0  0  0  0  0  0  0  0  0  0  0  0
    2.4729   -0.8648    4.4124 C   0  0  1  0  0  0  0  0  0  0  0  0
    2.9876    0.4848    4.1249 N   0  0  0  0  0  0  0  0  0  0  0  0
    3.3333    1.4296    5.0138 C   0  0  0  0  0  0  0  0  0  0  0  0
    3.2587    1.3007    6.2349 O   0  0  0  0  0  0  0  0  0  0  0  0
    2.0370   -3.7930    3.9210 C   0  0  2  0  0  0  0  0  0  0  0  0
    1.7073   -4.7061    5.1068 C   0  0  0  0  0  0  0  0  0  0  0  0
    1.8053   -6.0045    4.8024 C   0  0  0  0  0  0  0  0  0  0  0  0
    1.4969   -7.1593    5.6589 C   0  0  0  0  0  0  0  0  0  0  0  0
    1.3311   -7.0175    6.8718 O   0  0  0  0  0  0  0  0  0  0  0  0
    1.3962   -8.4675    4.9300 C   0  0  0  0  0  0  0  0  0  0  0  0
    1.3192   -9.7309    5.5890 C   0  0  0  0  0  0  0  0  0  0  0  0
    1.3338   -9.8474    6.9526 O   0  0  0  0  0  0  0  0  0  0  0  0
    1.2314  -10.9162    4.8292 C   0  0  0  0  0  0  0  0  0  0  0  0
    1.2224  -10.8767    3.4255 C   0  0  0  0  0  0  0  0  0  0  0  0
    1.2930   -9.6397    2.7632 C   0  0  0  0  0  0  0  0  0  0  0  0
    1.3848   -8.4430    3.5010 C   0  0  0  0  0  0  0  0  0  0  0  0
    1.4354   -7.2756    2.7744 O   0  0  0  0  0  0  0  0  0  0  0  0
    2.1745   -6.2329    3.3819 C   0  0  1  0  0  0  0  0  0  0  0  0
    1.8334   -4.8552    2.7847 C   0  0  0  0  0  0  0  0  0  0  0  0
    4.1508   -3.0213    6.7298 H   0  0  0  0  0  0  0  0  0  0  0  0
    2.4443   -2.6742    6.6810 H   0  0  0  0  0  0  0  0  0  0  0  0
    3.5675   -1.4060    7.0741 H   0  0  0  0  0  0  0  0  0  0  0  0
    5.2620   -0.7828    3.9846 H   0  0  0  0  0  0  0  0  0  0  0  0
    5.7694   -2.0598    5.0944 H   0  0  0  0  0  0  0  0  0  0  0  0
    5.1573   -0.5538    5.7108 H   0  0  0  0  0  0  0  0  0  0  0  0
    4.0827   -3.9883    4.6381 H   0  0  0  0  0  0  0  0  0  0  0  0
    5.2802   -2.6086    2.9234 H   0  0  0  0  0  0  0  0  0  0  0  0
    5.6157   -4.9066    2.9299 H   0  0  0  0  0  0  0  0  0  0  0  0
    4.1828   -5.2197    1.9989 H   0  0  0  0  0  0  0  0  0  0  0  0
    5.4752   -3.4684   -1.1138 H   0  0  0  0  0  0  0  0  0  0  0  0
    3.9980   -4.1507   -0.4567 H   0  0  0  0  0  0  0  0  0  0  0  0
    5.3369   -1.5651    0.4767 H   0  0  0  0  0  0  0  0  0  0  0  0
    3.8427   -1.6731   -0.4238 H   0  0  0  0  0  0  0  0  0  0  0  0
    2.2157   -0.9602    1.0219 H   0  0  0  0  0  0  0  0  0  0  0  0
    1.0070   -0.6602    2.8369 H   0  0  0  0  0  0  0  0  0  0  0  0
    0.2458   -2.9057    2.9714 H   0  0  0  0  0  0  0  0  0  0  0  0
   -0.6579   -1.6438    4.6203 H   0  0  0  0  0  0  0  0  0  0  0  0
    0.1637   -2.6929    5.7279 H   0  0  0  0  0  0  0  0  0  0  0  0
    0.6384    0.1025    5.0747 H   0  0  0  0  0  0  0  0  0  0  0  0
    1.3864   -0.7401    6.3811 H   0  0  0  0  0  0  0  0  0  0  0  0
    3.1028    0.7204    3.1492 H   0  0  0  0  0  0  0  0  0  0  0  0
    3.7157    2.3285    4.5027 H   0  0  0  0  0  0  0  0  0  0  0  0
    1.3953   -4.3677    6.0814 H   0  0  0  0  0  0  0  0  0  0  0  0
    1.3656  -10.7792    7.2465 H   0  0  0  0  0  0  0  0  0  0  0  0
    1.1689  -11.8765    5.3100 H   0  0  0  0  0  0  0  0  0  0  0  0
    1.1621  -11.7976    2.8647 H   0  0  0  0  0  0  0  0  0  0  0  0
    1.2960   -9.6092    1.6844 H   0  0  0  0  0  0  0  0  0  0  0  0
    3.2436   -6.4490    3.3550 H   0  0  0  0  0  0  0  0  0  0  0  0
    0.7654   -4.9236    2.5742 H   0  0  0  0  0  0  0  0  0  0  0  0
    2.2721   -4.6246    1.8186 H   0  0  0  0  0  0  0  0  0  0  0  0
  1  2  1  0
  1 36  1  0
  1 37  1  0
  1 38  1  0
  2 17  1  0
  2  3  1  0
  2  4  1  0
  3 39  1  0
  3 40  1  0
  3 41  1  0
  4 21  1  0
  4  5  1  0
  4 42  1  1
  5 11  1  0
  5  6  1  0
  5 43  1  1
  6  7  1  0
  6 44  1  0
  6 45  1  0
  7  8  2  0
  7  9  1  0
  9 10  1  0
  9 46  1  0
  9 47  1  0
 10 11  1  0
 10 48  1  0
 10 49  1  0
 11 12  2  0
 12 13  1  0
 12 50  1  0
 13 17  1  0
 13 14  1  0
 13 51  1  6
 14 15  1  0
 14 21  1  0
 14 52  1  6
 15 16  1  0
 15 53  1  0
 15 54  1  0
 16 17  1  0
 16 55  1  0
 16 56  1  0
 17 18  1  6
 18 19  1  0
 18 57  1  0
 19 20  2  0
 19 58  1  0
 21 35  1  6
 21 22  1  0
 22 23  2  0
 22 59  1  0
 23 34  1  0
 23 24  1  0
 24 25  2  0
 24 26  1  0
 26 32  2  0
 26 27  1  0
 27 28  1  0
 27 29  2  0
 28 60  1  0
 29 30  1  0
 29 61  1  0
 30 31  2  0
 30 62  1  0
 31 32  1  0
 31 63  1  0
 32 33  1  0
 33 34  1  0
 34 35  1  0
 34 64  1  1
 35 65  1  0
 35 66  1  0
M  END
>  <i_m_ct_stereo_status>  (237) 
1

>  <s_m_source_file>  (237) 
/var/tmp/pbs.5076255.sched01/tmp361ftg5n/90jpawypyp.sdf

>  <i_m_source_file_index>  (237) 
6

>  <i_lp_mmshare_version>  (237) 
48012

>  <i_f3d_flags>  (237) 
0

>  <s_epik_input>  (237) 
Tz1bQ0hdW05IXVtDQEBdMShDMihbQ0gzXSlbQ0gzXSlbQ0gyXVtDSDJdW0NASF0zW0NAQEhdMVtDSF09QyhbQ0gyXVtDSDJdQyg9TylbQ0gyXTQpW0NASF00W0NAQEhdMltDQEBdMzVbQ0hdPUM2W0NASF0oW0NIMl01KU9jN2MoQzY9TyljKFtPSF0pW2NIXVtjSF1bY0hdNw==

>  <s_epik_cmdline>  (237) 
J2VwaWtfcHl0aG9uJywgJy1waHQnLCAnMi4wJywgJy1waCcsICc3LjAnLCAnLXRuJywgJzgnLCAnLW1hJywgJzIwMCcsICctaW1hZScsICc8aW5maWxlLm1hZT4nLCAnLW9tYWUnLCAnPG91dGZpbGUubWFlPic=

>  <r_lp_tautomer_probability>  (237) 
1

>  <r_epik_Ionization_Penalty>  (237) 
0.0031064

>  <r_epik_Ionization_Penalty_Charging>  (237) 
0

>  <r_epik_Ionization_Penalty_Neutral>  (237) 
0.0031064

>  <r_epik_State_Penalty>  (237) 
0.00218623

>  <r_epik_Charging_Adjusted_Penalty>  (237) 
0.00218623

>  <i_epik_Tot_Q>  (237) 
0

>  <i_epik_Tot_abs_Q>  (237) 
0

>  <s_lp_Force_Field>  (237) 
OPLS3e

>  <r_lp_Energy>  (237) 
72.5423

>  <b_lp_Chiralities_Consistent>  (237) 
1

>  <s_lp_Variant>  (237) 
63:0-1

>  <s_i_glide_gridfile>  (237) 
pfpi4k_grid

>  <i_i_glide_lignum>  (237) 
6

>  <i_i_glide_rotatable_bonds>  (237) 
3

>  <r_i_docking_score>  (237) 
-3.33586

>  <r_i_glide_ligand_efficiency>  (237) 
-0.0953103

>  <r_i_glide_ligand_efficiency_sa>  (237) 
-0.311766

>  <r_i_glide_ligand_efficiency_ln>  (237) 
-0.732296

>  <r_i_glide_gscore>  (237) 
-3.33586

>  <r_i_glide_lipo>  (237) 
-0.431204

>  <r_i_glide_hbond>  (237) 
0

>  <r_i_glide_metal>  (237) 
-0

>  <r_i_glide_rewards>  (237) 
-0.273573

>  <r_i_glide_evdw>  (237) 
-26.5226

>  <r_i_glide_ecoul>  (237) 
-9.265

>  <r_i_glide_erotb>  (237) 
0.0902011

>  <r_i_glide_esite>  (237) 
-0.00540617

>  <r_i_glide_emodel>  (237) 
-43.7748

>  <r_i_glide_energy>  (237) 
-35.7876

>  <r_i_glide_einternal>  (237) 
0.0749007

>  <r_i_glide_intrahb_reward>  (237) 
-0

>  <i_i_glide_confnum>  (237) 
6

>  <i_i_glide_posenum>  (237) 
14

>  <r_i_glide_eff_state_penalty>  (237) 
0

>  <ligand_id>  (237) 
63

>  <original_smiles>  (237) 
CC1(C)C2C3CC(=O)CCC3=CC3C(CCC31NC=O)C21C=C2C(=O)c3c(O)cccc3OC2C1

>  <smiles>  (237) 
[H]Oc1c([H])c([H])c([H])c2c1C(=O)C1=C([H])C3(C([H])([H])C1([H])O2)C1([H])C([H])([H])C([H])([H])C2(N([H])C([H])=O)C1([H])C([H])=C1C([H])([H])C([H])([H])C(=O)C([H])([H])C1([H])C3([H])C2(C([H])([H])[H])C([H])([H])[H]

$$$$
63:0:2
     RDKit          3D

 66 72  0  0  1  0  0  0  0  0999 V2000
    0.0661   -7.8370    2.1642 C   0  0  0  0  0  0  0  0  0  0  0  0
    1.2219   -8.4440    3.0136 C   0  0  0  0  0  0  0  0  0  0  0  0
    1.0181   -9.9880    2.7468 C   0  0  0  0  0  0  0  0  0  0  0  0
    2.5967   -7.9345    2.4022 C   0  0  2  0  0  0  0  0  0  0  0  0
    3.7920   -8.9135    2.7067 C   0  0  1  0  0  0  0  0  0  0  0  0
    4.9272   -8.9508    1.6417 C   0  0  0  0  0  0  0  0  0  0  0  0
    6.0821   -9.8748    2.0360 C   0  0  0  0  0  0  0  0  0  0  0  0
    6.5923  -10.6729    1.2527 O   0  0  0  0  0  0  0  0  0  0  0  0
    6.6037   -9.6960    3.4531 C   0  0  0  0  0  0  0  0  0  0  0  0
    5.4550   -9.8110    4.4592 C   0  0  0  0  0  0  0  0  0  0  0  0
    4.3046   -8.8586    4.1463 C   0  0  0  0  0  0  0  0  0  0  0  0
    3.7378   -8.1312    5.1227 C   0  0  0  0  0  0  0  0  0  0  0  0
    2.4584   -7.3182    5.0594 C   0  0  1  0  0  0  0  0  0  0  0  0
    2.4908   -6.0398    4.2277 C   0  0  2  0  0  0  0  0  0  0  0  0
    1.0603   -5.5227    4.4695 C   0  0  0  0  0  0  0  0  0  0  0  0
    0.2206   -6.7737    4.7997 C   0  0  0  0  0  0  0  0  0  0  0  0
    1.1561   -8.0136    4.5600 C   0  0  1  0  0  0  0  0  0  0  0  0
    0.7522   -9.0577    5.5015 N   0  0  0  0  0  0  0  0  0  0  0  0
    1.3049  -10.2404    5.7869 C   0  0  0  0  0  0  0  0  0  0  0  0
    2.3834  -10.6559    5.3453 O   0  0  0  0  0  0  0  0  0  0  0  0
    2.8920   -6.3912    2.7478 C   0  0  2  0  0  0  0  0  0  0  0  0
    2.2638   -5.4928    1.6792 C   0  0  0  0  0  0  0  0  0  0  0  0
    3.1692   -5.0621    0.7841 C   0  0  0  0  0  0  0  0  0  0  0  0
    2.9337   -4.1361   -0.3406 C   0  0  0  0  0  0  0  0  0  0  0  0
    1.8091   -3.8624   -0.7520 O   0  0  0  0  0  0  0  0  0  0  0  0
    4.1981   -3.6084   -0.9470 C   0  0  0  0  0  0  0  0  0  0  0  0
    4.1887   -2.8802   -2.1715 C   0  0  0  0  0  0  0  0  0  0  0  0
    3.0484   -2.5997   -2.8655 O   0  0  0  0  0  0  0  0  0  0  0  0
    5.4048   -2.4211   -2.7137 C   0  0  0  0  0  0  0  0  0  0  0  0
    6.6157   -2.6646   -2.0383 C   0  0  0  0  0  0  0  0  0  0  0  0
    6.6346   -3.3543   -0.8287 C   0  0  0  0  0  0  0  0  0  0  0  0
    5.4314   -3.8490   -0.2839 C   0  0  0  0  0  0  0  0  0  0  0  0
    5.5315   -4.5340    0.9008 O   0  0  0  0  0  0  0  0  0  0  0  0
    4.5389   -5.5416    1.0763 C   0  0  1  0  0  0  0  0  0  0  0  0
    4.3788   -5.9362    2.5539 C   0  0  0  0  0  0  0  0  0  0  0  0
    0.1942   -8.0834    1.1069 H   0  0  0  0  0  0  0  0  0  0  0  0
   -0.0447   -6.7522    2.1920 H   0  0  0  0  0  0  0  0  0  0  0  0
   -0.9101   -8.2493    2.4472 H   0  0  0  0  0  0  0  0  0  0  0  0
    1.6389  -10.6260    3.3225 H   0  0  0  0  0  0  0  0  0  0  0  0
    1.1583  -10.1372    1.6746 H   0  0  0  0  0  0  0  0  0  0  0  0
   -0.0335  -10.2470    2.9289 H   0  0  0  0  0  0  0  0  0  0  0  0
    2.4958   -7.9909    1.3167 H   0  0  0  0  0  0  0  0  0  0  0  0
    3.4289   -9.9244    2.6183 H   0  0  0  0  0  0  0  0  0  0  0  0
    4.5272   -9.2391    0.6683 H   0  0  0  0  0  0  0  0  0  0  0  0
    5.3976   -7.9894    1.5168 H   0  0  0  0  0  0  0  0  0  0  0  0
    7.3950  -10.4205    3.6564 H   0  0  0  0  0  0  0  0  0  0  0  0
    7.0407   -8.7009    3.5196 H   0  0  0  0  0  0  0  0  0  0  0  0
    5.0715  -10.8324    4.4458 H   0  0  0  0  0  0  0  0  0  0  0  0
    5.8322   -9.6468    5.4698 H   0  0  0  0  0  0  0  0  0  0  0  0
    4.1504   -8.2292    6.1152 H   0  0  0  0  0  0  0  0  0  0  0  0
    2.3073   -7.0355    6.1030 H   0  0  0  0  0  0  0  0  0  0  0  0
    3.1846   -5.3361    4.6872 H   0  0  0  0  0  0  0  0  0  0  0  0
    1.0584   -4.8567    5.3338 H   0  0  0  0  0  0  0  0  0  0  0  0
    0.6408   -4.9319    3.6633 H   0  0  0  0  0  0  0  0  0  0  0  0
   -0.0536   -6.7070    5.8550 H   0  0  0  0  0  0  0  0  0  0  0  0
   -0.7445   -6.7895    4.2907 H   0  0  0  0  0  0  0  0  0  0  0  0
   -0.0910   -8.9046    6.0070 H   0  0  0  0  0  0  0  0  0  0  0  0
    0.6444  -10.7453    6.4907 H   0  0  0  0  0  0  0  0  0  0  0  0
    1.2359   -5.2156    1.6673 H   0  0  0  0  0  0  0  0  0  0  0  0
    2.2497   -2.8151   -2.4000 H   0  0  0  0  0  0  0  0  0  0  0  0
    5.3790   -1.8739   -3.6385 H   0  0  0  0  0  0  0  0  0  0  0  0
    7.5431   -2.3011   -2.4528 H   0  0  0  0  0  0  0  0  0  0  0  0
    7.5694   -3.5606   -0.3221 H   0  0  0  0  0  0  0  0  0  0  0  0
    4.7246   -6.3954    0.4175 H   0  0  0  0  0  0  0  0  0  0  0  0
    4.5259   -4.9977    3.0955 H   0  0  0  0  0  0  0  0  0  0  0  0
    5.1516   -6.5882    2.9522 H   0  0  0  0  0  0  0  0  0  0  0  0
  1  2  1  0
  1 36  1  0
  1 37  1  0
  1 38  1  0
  2 17  1  0
  2  3  1  0
  2  4  1  0
  3 39  1  0
  3 40  1  0
  3 41  1  0
  4 21  1  0
  4  5  1  0
  4 42  1  6
  5 11  1  0
  5  6  1  0
  5 43  1  1
  6  7  1  0
  6 44  1  0
  6 45  1  0
  7  8  2  0
  7  9  1  0
  9 10  1  0
  9 46  1  0
  9 47  1  0
 10 11  1  0
 10 48  1  0
 10 49  1  0
 11 12  2  0
 12 13  1  0
 12 50  1  0
 13 17  1  0
 13 14  1  0
 13 51  1  1
 14 15  1  0
 14 21  1  0
 14 52  1  1
 15 16  1  0
 15 53  1  0
 15 54  1  0
 16 17  1  0
 16 55  1  0
 16 56  1  0
 17 18  1  1
 18 19  1  0
 18 57  1  0
 19 20  2  0
 19 58  1  0
 21 35  1  1
 21 22  1  0
 22 23  2  0
 22 59  1  0
 23 34  1  0
 23 24  1  0
 24 25  2  0
 24 26  1  0
 26 32  2  0
 26 27  1  0
 27 28  1  0
 27 29  2  0
 28 60  1  0
 29 30  1  0
 29 61  1  0
 30 31  2  0
 30 62  1  0
 31 32  1  0
 31 63  1  0
 32 33  1  0
 33 34  1  0
 34 35  1  0
 34 64  1  6
 35 65  1  0
 35 66  1  0
M  END
>  <i_m_ct_stereo_status>  (238) 
1

>  <s_m_source_file>  (238) 
/var/tmp/pbs.5076255.sched01/tmp361ftg5n/90jpawypyp.sdf

>  <i_m_source_file_index>  (238) 
6

>  <i_lp_mmshare_version>  (238) 
48012

>  <i_f3d_flags>  (238) 
0

>  <s_epik_input>  (238) 
Tz1bQ0hdW05IXVtDQEBdMShDMihbQ0gzXSlbQ0gzXSlbQ0gyXVtDSDJdW0NASF0zW0NAQEhdMVtDSF09QyhbQ0gyXVtDSDJdQyg9TylbQ0gyXTQpW0NASF00W0NAQEhdMltDQEBdMzVbQ0hdPUM2W0NASF0oW0NIMl01KU9jN2MoQzY9TyljKFtPSF0pW2NIXVtjSF1bY0hdNw==

>  <s_epik_cmdline>  (238) 
J2VwaWtfcHl0aG9uJywgJy1waHQnLCAnMi4wJywgJy1waCcsICc3LjAnLCAnLXRuJywgJzgnLCAnLW1hJywgJzIwMCcsICctaW1hZScsICc8aW5maWxlLm1hZT4nLCAnLW9tYWUnLCAnPG91dGZpbGUubWFlPic=

>  <r_lp_tautomer_probability>  (238) 
1

>  <r_epik_Ionization_Penalty>  (238) 
0.0031064

>  <r_epik_Ionization_Penalty_Charging>  (238) 
0

>  <r_epik_Ionization_Penalty_Neutral>  (238) 
0.0031064

>  <r_epik_State_Penalty>  (238) 
0.00218623

>  <r_epik_Charging_Adjusted_Penalty>  (238) 
0.00218623

>  <i_epik_Tot_Q>  (238) 
0

>  <i_epik_Tot_abs_Q>  (238) 
0

>  <s_lp_Force_Field>  (238) 
OPLS3e

>  <r_lp_Energy>  (238) 
72.5423

>  <b_lp_Chiralities_Consistent>  (238) 
1

>  <s_lp_Variant>  (238) 
63:0-1

>  <s_i_glide_gridfile>  (238) 
pfpi4k_grid

>  <i_i_glide_lignum>  (238) 
6

>  <i_i_glide_rotatable_bonds>  (238) 
3

>  <r_i_docking_score>  (238) 
-3.25085

>  <r_i_glide_ligand_efficiency>  (238) 
-0.0928813

>  <r_i_glide_ligand_efficiency_sa>  (238) 
-0.303821

>  <r_i_glide_ligand_efficiency_ln>  (238) 
-0.713633

>  <r_i_glide_gscore>  (238) 
-3.25085

>  <r_i_glide_lipo>  (238) 
-0.483831

>  <r_i_glide_hbond>  (238) 
-0.0766473

>  <r_i_glide_metal>  (238) 
-0

>  <r_i_glide_rewards>  (238) 
-0.680272

>  <r_i_glide_evdw>  (238) 
-31.9429

>  <r_i_glide_ecoul>  (238) 
-2.02417

>  <r_i_glide_erotb>  (238) 
0.0902011

>  <r_i_glide_esite>  (238) 
-0.199529

>  <r_i_glide_emodel>  (238) 
-43.211

>  <r_i_glide_energy>  (238) 
-33.9671

>  <r_i_glide_einternal>  (238) 
4.77426

>  <r_i_glide_intrahb_reward>  (238) 
-0.5

>  <i_i_glide_confnum>  (238) 
5

>  <i_i_glide_posenum>  (238) 
4

>  <r_i_glide_eff_state_penalty>  (238) 
0

>  <ligand_id>  (238) 
63

>  <original_smiles>  (238) 
CC1(C)C2C3CC(=O)CCC3=CC3C(CCC31NC=O)C21C=C2C(=O)c3c(O)cccc3OC2C1

>  <smiles>  (238) 
[H]Oc1c([H])c([H])c([H])c2c1C(=O)C1=C([H])C3(C([H])([H])C1([H])O2)C1([H])C([H])([H])C([H])([H])C2(N([H])C([H])=O)C1([H])C([H])=C1C([H])([H])C([H])([H])C(=O)C([H])([H])C1([H])C3([H])C2(C([H])([H])[H])C([H])([H])[H]

$$$$
64:0:0
     RDKit          3D

 52 56  0  0  1  0  0  0  0  0999 V2000
    5.4608   -3.5634   -1.3342 C   0  0  0  0  0  0  0  0  0  0  0  0
    4.0887   -2.8526   -1.1938 C   0  0  2  0  0  0  0  0  0  0  0  0
    3.2210   -3.1120   -2.4530 C   0  0  0  0  0  0  0  0  0  0  0  0
    3.7068   -2.4743   -3.7656 C   0  0  0  0  0  0  0  0  0  0  0  0
    3.8958   -0.9657   -3.6189 C   0  0  1  0  0  0  0  0  0  0  0  0
    2.6555   -0.3049   -3.5180 O   0  0  0  0  0  0  0  0  0  0  0  0
    4.7600   -0.6683   -2.3914 C   0  0  0  0  0  0  0  0  0  0  0  0
    4.3244   -1.3481   -1.1027 C   0  0  0  0  0  0  0  0  0  0  0  0
    4.1884   -0.6455    0.0349 C   0  0  0  0  0  0  0  0  0  0  0  0
    3.7841   -1.2353    1.3638 C   0  0  0  0  0  0  0  0  0  0  0  0
    3.8580   -2.7760    1.4092 C   0  0  2  0  0  0  0  0  0  0  0  0
    3.3220   -3.3665    0.0880 C   0  0  2  0  0  0  0  0  0  0  0  0
    3.2793   -4.9038    0.2166 C   0  0  0  0  0  0  0  0  0  0  0  0
    2.3605   -5.3541    1.3399 C   0  0  0  0  0  0  0  0  0  0  0  0
    2.7107   -4.8023    2.7277 C   0  0  2  0  0  0  0  0  0  0  0  0
    1.4660   -4.9190    3.6436 C   0  0  0  0  0  0  0  0  0  0  0  0
    3.1596   -3.3007    2.7115 C   0  0  1  0  0  0  0  0  0  0  0  0
    4.1640   -3.1908    3.8925 C   0  0  0  0  0  0  0  0  0  0  0  0
    4.7592   -4.5681    4.0534 C   0  0  2  0  0  0  0  0  0  0  0  0
    5.1920   -5.2506    2.8577 O   0  0  0  0  0  0  0  0  0  0  0  0
    3.8836   -5.5366    3.3579 C   0  0  2  0  0  0  0  0  0  0  0  0
    3.6739   -6.9722    3.8007 C   0  0  0  0  0  0  0  0  0  0  0  0
    5.3499   -4.6384   -1.4900 H   0  0  0  0  0  0  0  0  0  0  0  0
    6.0809   -3.4175   -0.4481 H   0  0  0  0  0  0  0  0  0  0  0  0
    6.0367   -3.1969   -2.1832 H   0  0  0  0  0  0  0  0  0  0  0  0
    3.2170   -4.1758   -2.6262 H   0  0  0  0  0  0  0  0  0  0  0  0
    2.1875   -2.8071   -2.2773 H   0  0  0  0  0  0  0  0  0  0  0  0
    4.6516   -2.9362   -4.0586 H   0  0  0  0  0  0  0  0  0  0  0  0
    3.0048   -2.7010   -4.5713 H   0  0  0  0  0  0  0  0  0  0  0  0
    4.3733   -0.5758   -4.5213 H   0  0  0  0  0  0  0  0  0  0  0  0
    2.7691    0.5828   -3.1961 H   0  0  0  0  0  0  0  0  0  0  0  0
    5.7669   -1.0274   -2.5572 H   0  0  0  0  0  0  0  0  0  0  0  0
    4.7922    0.4085   -2.2971 H   0  0  0  0  0  0  0  0  0  0  0  0
    4.3439    0.4133    0.0539 H   0  0  0  0  0  0  0  0  0  0  0  0
    4.4208   -0.7944    2.1327 H   0  0  0  0  0  0  0  0  0  0  0  0
    2.7648   -0.8847    1.5317 H   0  0  0  0  0  0  0  0  0  0  0  0
    4.9122   -3.0562    1.4616 H   0  0  0  0  0  0  0  0  0  0  0  0
    2.2952   -3.0147   -0.0117 H   0  0  0  0  0  0  0  0  0  0  0  0
    2.8826   -5.3177   -0.7114 H   0  0  0  0  0  0  0  0  0  0  0  0
    4.2703   -5.3301    0.3832 H   0  0  0  0  0  0  0  0  0  0  0  0
    1.4040   -4.9572    1.0742 H   0  0  0  0  0  0  0  0  0  0  0  0
    2.2519   -6.4390    1.3489 H   0  0  0  0  0  0  0  0  0  0  0  0
    1.6917   -4.6207    4.6686 H   0  0  0  0  0  0  0  0  0  0  0  0
    1.0685   -5.9324    3.6786 H   0  0  0  0  0  0  0  0  0  0  0  0
    0.6603   -4.2732    3.2986 H   0  0  0  0  0  0  0  0  0  0  0  0
    2.2911   -2.6664    2.8976 H   0  0  0  0  0  0  0  0  0  0  0  0
    4.9473   -2.4383    3.7580 H   0  0  0  0  0  0  0  0  0  0  0  0
    3.6373   -2.9447    4.8120 H   0  0  0  0  0  0  0  0  0  0  0  0
    5.2428   -4.8383    4.9905 H   0  0  0  0  0  0  0  0  0  0  0  0
    2.9456   -7.0414    4.6165 H   0  0  0  0  0  0  0  0  0  0  0  0
    4.6209   -7.3845    4.1540 H   0  0  0  0  0  0  0  0  0  0  0  0
    3.3313   -7.5917    2.9649 H   0  0  0  0  0  0  0  0  0  0  0  0
  2  1  1  6
  1 23  1  0
  1 24  1  0
  1 25  1  0
  2  8  1  0
  2 12  1  0
  2  3  1  0
  3  4  1  0
  3 26  1  0
  3 27  1  0
  4  5  1  0
  4 28  1  0
  4 29  1  0
  5  6  1  0
  5  7  1  0
  5 30  1  6
  6 31  1  0
  7  8  1  0
  7 32  1  0
  7 33  1  0
  8  9  2  0
  9 10  1  0
  9 34  1  0
 10 11  1  0
 10 35  1  0
 10 36  1  0
 11 17  1  0
 11 12  1  0
 11 37  1  1
 12 13  1  0
 12 38  1  6
 13 14  1  0
 13 39  1  0
 13 40  1  0
 14 15  1  0
 14 41  1  0
 14 42  1  0
 15 21  1  0
 15 16  1  1
 15 17  1  0
 16 43  1  0
 16 44  1  0
 16 45  1  0
 17 18  1  0
 17 46  1  1
 18 19  1  0
 18 47  1  0
 18 48  1  0
 19 21  1  0
 19 20  1  0
 19 49  1  1
 20 21  1  0
 21 22  1  1
 22 50  1  0
 22 51  1  0
 22 52  1  0
M  END
>  <i_m_ct_stereo_status>  (239) 
1

>  <s_m_source_file>  (239) 
/var/tmp/pbs.5076255.sched01/tmp361ftg5n/90jpawypyp.sdf

>  <i_m_source_file_index>  (239) 
7

>  <i_lp_mmshare_version>  (239) 
48012

>  <i_f3d_flags>  (239) 
0

>  <s_epik_input>  (239) 
W0NIMl0xW0NIMl1bQ0BASF0oW09IXSlbQ0gyXUMoW0NAXTEyW0NIM10pPVtDSF1bQ0gyXVtDQEBIXTNbQ0BASF0yW0NIMl1bQ0gyXVtDQF00KFtDSDNdKVtDQEhdM1tDSDJdW0NASF01W0NAQF00KE81KVtDSDNd

>  <s_epik_cmdline>  (239) 
J2VwaWtfcHl0aG9uJywgJy1waHQnLCAnMi4wJywgJy1waCcsICc3LjAnLCAnLXRuJywgJzgnLCAnLW1hJywgJzIwMCcsICctaW1hZScsICc8aW5maWxlLm1hZT4nLCAnLW9tYWUnLCAnPG91dGZpbGUubWFlPic=

>  <r_lp_tautomer_probability>  (239) 
1

>  <r_epik_Ionization_Penalty>  (239) 
1.23176e-06

>  <r_epik_Ionization_Penalty_Charging>  (239) 
0

>  <r_epik_Ionization_Penalty_Neutral>  (239) 
1.23176e-06

>  <r_epik_State_Penalty>  (239) 
-0

>  <r_epik_Charging_Adjusted_Penalty>  (239) 
0

>  <i_epik_Tot_Q>  (239) 
0

>  <i_epik_Tot_abs_Q>  (239) 
0

>  <s_lp_Force_Field>  (239) 
OPLS3e

>  <r_lp_Energy>  (239) 
33.1672

>  <b_lp_Chiralities_Consistent>  (239) 
1

>  <s_lp_Variant>  (239) 
64:0-1

>  <s_i_glide_gridfile>  (239) 
pfpi4k_grid

>  <i_i_glide_lignum>  (239) 
7

>  <i_i_glide_rotatable_bonds>  (239) 
1

>  <r_i_docking_score>  (239) 
-3.25319

>  <r_i_glide_ligand_efficiency>  (239) 
-0.147872

>  <r_i_glide_ligand_efficiency_sa>  (239) 
-0.414344

>  <r_i_glide_ligand_efficiency_ln>  (239) 
-0.795198

>  <r_i_glide_gscore>  (239) 
-3.25319

>  <r_i_glide_lipo>  (239) 
-0.494319

>  <r_i_glide_hbond>  (239) 
-0.32

>  <r_i_glide_metal>  (239) 
-0

>  <r_i_glide_rewards>  (239) 
-1.34692

>  <r_i_glide_evdw>  (239) 
-15.5802

>  <r_i_glide_ecoul>  (239) 
-2.08625

>  <r_i_glide_erotb>  (239) 
0

>  <r_i_glide_esite>  (239) 
0

>  <r_i_glide_emodel>  (239) 
-21.8448

>  <r_i_glide_energy>  (239) 
-17.6664

>  <r_i_glide_einternal>  (239) 
0.471124

>  <r_i_glide_intrahb_reward>  (239) 
-0

>  <i_i_glide_confnum>  (239) 
1

>  <i_i_glide_posenum>  (239) 
1

>  <r_i_glide_eff_state_penalty>  (239) 
0

>  <ligand_id>  (239) 
64

>  <original_smiles>  (239) 
CC12CCC(O)CC1=CCC1C2CCC2(C)C1CC1OC12C

>  <smiles>  (239) 
[H]OC1([H])C([H])([H])C2=C([H])C([H])([H])C3([H])C([H])(C([H])([H])C([H])([H])C4(C([H])([H])[H])C3([H])C([H])([H])C3([H])OC34C([H])([H])[H])C2(C([H])([H])[H])C([H])([H])C1([H])[H]

$$$$
64:0:1
     RDKit          3D

 52 56  0  0  1  0  0  0  0  0999 V2000
    5.1570   -4.1821   -0.2216 C   0  0  0  0  0  0  0  0  0  0  0  0
    4.0767   -3.0769   -0.1207 C   0  0  2  0  0  0  0  0  0  0  0  0
    2.9744   -3.3286   -1.1902 C   0  0  0  0  0  0  0  0  0  0  0  0
    3.3988   -3.0907   -2.6539 C   0  0  0  0  0  0  0  0  0  0  0  0
    4.0119   -1.7092   -2.8599 C   0  0  1  0  0  0  0  0  0  0  0  0
    3.0151   -0.7198   -2.7379 O   0  0  0  0  0  0  0  0  0  0  0  0
    5.1439   -1.4629   -1.8612 C   0  0  0  0  0  0  0  0  0  0  0  0
    4.7422   -1.7256   -0.4145 C   0  0  0  0  0  0  0  0  0  0  0  0
    4.9700   -0.8014    0.5338 C   0  0  0  0  0  0  0  0  0  0  0  0
    4.6432   -0.9637    2.0021 C   0  0  0  0  0  0  0  0  0  0  0  0
    4.2925   -2.4155    2.4008 C   0  0  2  0  0  0  0  0  0  0  0  0
    3.4050   -3.0628    1.3080 C   0  0  2  0  0  0  0  0  0  0  0  0
    2.9222   -4.4445    1.7872 C   0  0  0  0  0  0  0  0  0  0  0  0
    2.0837   -4.3105    3.0584 C   0  0  0  0  0  0  0  0  0  0  0  0
    2.8406   -3.6982    4.2545 C   0  0  2  0  0  0  0  0  0  0  0  0
    1.7896   -3.2572    5.3013 C   0  0  0  0  0  0  0  0  0  0  0  0
    3.6990   -2.4457    3.8540 C   0  0  1  0  0  0  0  0  0  0  0  0
    4.8607   -2.4365    4.8850 C   0  0  0  0  0  0  0  0  0  0  0  0
    5.0497   -3.8739    5.2943 C   0  0  2  0  0  0  0  0  0  0  0  0
    5.0974   -4.8659    4.2425 O   0  0  0  0  0  0  0  0  0  0  0  0
    3.8452   -4.6445    4.9111 C   0  0  2  0  0  0  0  0  0  0  0  0
    3.3270   -5.8381    5.7017 C   0  0  0  0  0  0  0  0  0  0  0  0
    4.7299   -5.1796   -0.1177 H   0  0  0  0  0  0  0  0  0  0  0  0
    5.9249   -4.0617    0.5435 H   0  0  0  0  0  0  0  0  0  0  0  0
    5.6666   -4.1688   -1.1849 H   0  0  0  0  0  0  0  0  0  0  0  0
    2.5893   -4.3428   -1.1098 H   0  0  0  0  0  0  0  0  0  0  0  0
    2.1319   -2.6748   -0.9839 H   0  0  0  0  0  0  0  0  0  0  0  0
    4.1266   -3.8490   -2.9436 H   0  0  0  0  0  0  0  0  0  0  0  0
    2.5432   -3.2288   -3.3184 H   0  0  0  0  0  0  0  0  0  0  0  0
    4.4032   -1.6329   -3.8756 H   0  0  0  0  0  0  0  0  0  0  0  0
    2.4652   -0.9113   -1.9834 H   0  0  0  0  0  0  0  0  0  0  0  0
    5.9744   -2.1229   -2.1067 H   0  0  0  0  0  0  0  0  0  0  0  0
    5.5113   -0.4441   -1.9744 H   0  0  0  0  0  0  0  0  0  0  0  0
    5.4141    0.1452    0.2636 H   0  0  0  0  0  0  0  0  0  0  0  0
    5.4986   -0.6098    2.5793 H   0  0  0  0  0  0  0  0  0  0  0  0
    3.8135   -0.2867    2.2151 H   0  0  0  0  0  0  0  0  0  0  0  0
    5.2223   -2.9864    2.4126 H   0  0  0  0  0  0  0  0  0  0  0  0
    2.5209   -2.4275    1.2297 H   0  0  0  0  0  0  0  0  0  0  0  0
    2.3155   -4.9250    1.0225 H   0  0  0  0  0  0  0  0  0  0  0  0
    3.7648   -5.1075    1.9823 H   0  0  0  0  0  0  0  0  0  0  0  0
    1.2217   -3.6819    2.8321 H   0  0  0  0  0  0  0  0  0  0  0  0
    1.6778   -5.2856    3.3273 H   0  0  0  0  0  0  0  0  0  0  0  0
    2.2607   -2.8610    6.2012 H   0  0  0  0  0  0  0  0  0  0  0  0
    1.1389   -4.0779    5.6041 H   0  0  0  0  0  0  0  0  0  0  0  0
    1.1456   -2.4713    4.9045 H   0  0  0  0  0  0  0  0  0  0  0  0
    3.0868   -1.5500    3.9789 H   0  0  0  0  0  0  0  0  0  0  0  0
    5.7904   -2.0141    4.5096 H   0  0  0  0  0  0  0  0  0  0  0  0
    4.5792   -1.8675    5.7700 H   0  0  0  0  0  0  0  0  0  0  0  0
    5.6036   -4.1079    6.2041 H   0  0  0  0  0  0  0  0  0  0  0  0
    2.7630   -5.5192    6.5806 H   0  0  0  0  0  0  0  0  0  0  0  0
    4.1686   -6.4403    6.0489 H   0  0  0  0  0  0  0  0  0  0  0  0
    2.6966   -6.4728    5.0792 H   0  0  0  0  0  0  0  0  0  0  0  0
  2  1  1  1
  1 23  1  0
  1 24  1  0
  1 25  1  0
  2  8  1  0
  2 12  1  0
  2  3  1  0
  3  4  1  0
  3 26  1  0
  3 27  1  0
  4  5  1  0
  4 28  1  0
  4 29  1  0
  5  6  1  0
  5  7  1  0
  5 30  1  6
  6 31  1  0
  7  8  1  0
  7 32  1  0
  7 33  1  0
  8  9  2  0
  9 10  1  0
  9 34  1  0
 10 11  1  0
 10 35  1  0
 10 36  1  0
 11 17  1  0
 11 12  1  0
 11 37  1  1
 12 13  1  0
 12 38  1  6
 13 14  1  0
 13 39  1  0
 13 40  1  0
 14 15  1  0
 14 41  1  0
 14 42  1  0
 15 21  1  0
 15 16  1  1
 15 17  1  0
 16 43  1  0
 16 44  1  0
 16 45  1  0
 17 18  1  0
 17 46  1  1
 18 19  1  0
 18 47  1  0
 18 48  1  0
 19 21  1  0
 19 20  1  0
 19 49  1  1
 20 21  1  0
 21 22  1  1
 22 50  1  0
 22 51  1  0
 22 52  1  0
M  END
>  <i_m_ct_stereo_status>  (240) 
1

>  <s_m_source_file>  (240) 
/var/tmp/pbs.5076255.sched01/tmp361ftg5n/90jpawypyp.sdf

>  <i_m_source_file_index>  (240) 
7

>  <i_lp_mmshare_version>  (240) 
48012

>  <i_f3d_flags>  (240) 
0

>  <s_epik_input>  (240) 
W0NIMl0xW0NIMl1bQ0BASF0oW09IXSlbQ0gyXUMoW0NAXTEyW0NIM10pPVtDSF1bQ0gyXVtDQEBIXTNbQ0BASF0yW0NIMl1bQ0gyXVtDQF00KFtDSDNdKVtDQEhdM1tDSDJdW0NASF01W0NAQF00KE81KVtDSDNd

>  <s_epik_cmdline>  (240) 
J2VwaWtfcHl0aG9uJywgJy1waHQnLCAnMi4wJywgJy1waCcsICc3LjAnLCAnLXRuJywgJzgnLCAnLW1hJywgJzIwMCcsICctaW1hZScsICc8aW5maWxlLm1hZT4nLCAnLW9tYWUnLCAnPG91dGZpbGUubWFlPic=

>  <r_lp_tautomer_probability>  (240) 
1

>  <r_epik_Ionization_Penalty>  (240) 
1.23176e-06

>  <r_epik_Ionization_Penalty_Charging>  (240) 
0

>  <r_epik_Ionization_Penalty_Neutral>  (240) 
1.23176e-06

>  <r_epik_State_Penalty>  (240) 
-0

>  <r_epik_Charging_Adjusted_Penalty>  (240) 
0

>  <i_epik_Tot_Q>  (240) 
0

>  <i_epik_Tot_abs_Q>  (240) 
0

>  <s_lp_Force_Field>  (240) 
OPLS3e

>  <r_lp_Energy>  (240) 
33.1672

>  <b_lp_Chiralities_Consistent>  (240) 
1

>  <s_lp_Variant>  (240) 
64:0-1

>  <s_i_glide_gridfile>  (240) 
pfpi4k_grid

>  <i_i_glide_lignum>  (240) 
7

>  <i_i_glide_rotatable_bonds>  (240) 
1

>  <r_i_docking_score>  (240) 
-3.24319

>  <r_i_glide_ligand_efficiency>  (240) 
-0.147418

>  <r_i_glide_ligand_efficiency_sa>  (240) 
-0.41307

>  <r_i_glide_ligand_efficiency_ln>  (240) 
-0.792753

>  <r_i_glide_gscore>  (240) 
-3.24319

>  <r_i_glide_lipo>  (240) 
-0.407288

>  <r_i_glide_hbond>  (240) 
-0.142265

>  <r_i_glide_metal>  (240) 
-0

>  <r_i_glide_rewards>  (240) 
-1.34692

>  <r_i_glide_evdw>  (240) 
-22.1514

>  <r_i_glide_ecoul>  (240) 
-1.59428

>  <r_i_glide_erotb>  (240) 
0

>  <r_i_glide_esite>  (240) 
0

>  <r_i_glide_emodel>  (240) 
-28.2993

>  <r_i_glide_energy>  (240) 
-23.7456

>  <r_i_glide_einternal>  (240) 
0.329201

>  <r_i_glide_intrahb_reward>  (240) 
-0

>  <i_i_glide_confnum>  (240) 
1

>  <i_i_glide_posenum>  (240) 
39

>  <r_i_glide_eff_state_penalty>  (240) 
0

>  <ligand_id>  (240) 
64

>  <original_smiles>  (240) 
CC12CCC(O)CC1=CCC1C2CCC2(C)C1CC1OC12C

>  <smiles>  (240) 
[H]OC1([H])C([H])([H])C2=C([H])C([H])([H])C3([H])C([H])(C([H])([H])C([H])([H])C4(C([H])([H])[H])C3([H])C([H])([H])C3([H])OC34C([H])([H])[H])C2(C([H])([H])[H])C([H])([H])C1([H])[H]

$$$$
64:0:2
     RDKit          3D

 52 56  0  0  1  0  0  0  0  0999 V2000
    5.3027   -3.7725    0.5140 C   0  0  0  0  0  0  0  0  0  0  0  0
    4.0438   -2.8902    0.3155 C   0  0  2  0  0  0  0  0  0  0  0  0
    3.1813   -3.4634   -0.8486 C   0  0  0  0  0  0  0  0  0  0  0  0
    3.7943   -3.3142   -2.2538 C   0  0  0  0  0  0  0  0  0  0  0  0
    4.1717   -1.8657   -2.5672 C   0  0  1  0  0  0  0  0  0  0  0  0
    3.0144   -1.0733   -2.7206 O   0  0  0  0  0  0  0  0  0  0  0  0
    5.0811   -1.3066   -1.4684 C   0  0  0  0  0  0  0  0  0  0  0  0
    4.5065   -1.4788   -0.0684 C   0  0  0  0  0  0  0  0  0  0  0  0
    4.4147   -0.4310    0.7714 C   0  0  0  0  0  0  0  0  0  0  0  0
    3.8927   -0.4902    2.1853 C   0  0  0  0  0  0  0  0  0  0  0  0
    3.7420   -1.9280    2.7281 C   0  0  2  0  0  0  0  0  0  0  0  0
    3.1638   -2.8479    1.6243 C   0  0  2  0  0  0  0  0  0  0  0  0
    2.8583   -4.2351    2.2185 C   0  0  0  0  0  0  0  0  0  0  0  0
    1.8195   -4.1241    3.3331 C   0  0  0  0  0  0  0  0  0  0  0  0
    2.2594   -3.2492    4.5255 C   0  0  2  0  0  0  0  0  0  0  0  0
    0.9947   -2.9049    5.3490 C   0  0  0  0  0  0  0  0  0  0  0  0
    2.9414   -1.9083    4.0758 C   0  0  1  0  0  0  0  0  0  0  0  0
    3.9090   -1.5629    5.2419 C   0  0  0  0  0  0  0  0  0  0  0  0
    4.2767   -2.8840    5.8680 C   0  0  2  0  0  0  0  0  0  0  0  0
    4.6562   -3.9577    4.9813 O   0  0  0  0  0  0  0  0  0  0  0  0
    3.2967   -3.9079    5.4365 C   0  0  2  0  0  0  0  0  0  0  0  0
    2.8729   -5.0833    6.3070 C   0  0  0  0  0  0  0  0  0  0  0  0
    5.0443   -4.8147    0.6982 H   0  0  0  0  0  0  0  0  0  0  0  0
    5.9072   -3.4227    1.3516 H   0  0  0  0  0  0  0  0  0  0  0  0
    5.9496   -3.7685   -0.3627 H   0  0  0  0  0  0  0  0  0  0  0  0
    2.9811   -4.5203   -0.6846 H   0  0  0  0  0  0  0  0  0  0  0  0
    2.2087   -2.9733   -0.8575 H   0  0  0  0  0  0  0  0  0  0  0  0
    4.6794   -3.9481   -2.3354 H   0  0  0  0  0  0  0  0  0  0  0  0
    3.0956   -3.6846   -3.0061 H   0  0  0  0  0  0  0  0  0  0  0  0
    4.7003   -1.8366   -3.5215 H   0  0  0  0  0  0  0  0  0  0  0  0
    2.4694   -1.1389   -1.9438 H   0  0  0  0  0  0  0  0  0  0  0  0
    6.0403   -1.8218   -1.5097 H   0  0  0  0  0  0  0  0  0  0  0  0
    5.2944   -0.2567   -1.6740 H   0  0  0  0  0  0  0  0  0  0  0  0
    4.7221    0.5443    0.4429 H   0  0  0  0  0  0  0  0  0  0  0  0
    4.5705    0.0847    2.8179 H   0  0  0  0  0  0  0  0  0  0  0  0
    2.9357    0.0355    2.1860 H   0  0  0  0  0  0  0  0  0  0  0  0
    4.7435   -2.3046    2.9432 H   0  0  0  0  0  0  0  0  0  0  0  0
    2.2082   -2.4041    1.3406 H   0  0  0  0  0  0  0  0  0  0  0  0
    2.4723   -4.9045    1.4525 H   0  0  0  0  0  0  0  0  0  0  0  0
    3.7613   -4.6989    2.6160 H   0  0  0  0  0  0  0  0  0  0  0  0
    0.9122   -3.7005    2.9014 H   0  0  0  0  0  0  0  0  0  0  0  0
    1.5493   -5.1234    3.6764 H   0  0  0  0  0  0  0  0  0  0  0  0
    1.2423   -2.3293    6.2406 H   0  0  0  0  0  0  0  0  0  0  0  0
    0.4562   -3.7969    5.6707 H   0  0  0  0  0  0  0  0  0  0  0  0
    0.2960   -2.3064    4.7633 H   0  0  0  0  0  0  0  0  0  0  0  0
    2.1721   -1.1383    3.9928 H   0  0  0  0  0  0  0  0  0  0  0  0
    4.8000   -1.0123    4.9411 H   0  0  0  0  0  0  0  0  0  0  0  0
    3.3962   -0.9632    5.9943 H   0  0  0  0  0  0  0  0  0  0  0  0
    4.7069   -2.9043    6.8689 H   0  0  0  0  0  0  0  0  0  0  0  0
    2.1303   -4.7827    7.0484 H   0  0  0  0  0  0  0  0  0  0  0  0
    3.7397   -5.4704    6.8437 H   0  0  0  0  0  0  0  0  0  0  0  0
    2.4685   -5.8902    5.6977 H   0  0  0  0  0  0  0  0  0  0  0  0
  2  1  1  1
  1 23  1  0
  1 24  1  0
  1 25  1  0
  2  8  1  0
  2 12  1  0
  2  3  1  0
  3  4  1  0
  3 26  1  0
  3 27  1  0
  4  5  1  0
  4 28  1  0
  4 29  1  0
  5  6  1  0
  5  7  1  0
  5 30  1  6
  6 31  1  0
  7  8  1  0
  7 32  1  0
  7 33  1  0
  8  9  2  0
  9 10  1  0
  9 34  1  0
 10 11  1  0
 10 35  1  0
 10 36  1  0
 11 17  1  0
 11 12  1  0
 11 37  1  1
 12 13  1  0
 12 38  1  6
 13 14  1  0
 13 39  1  0
 13 40  1  0
 14 15  1  0
 14 41  1  0
 14 42  1  0
 15 21  1  0
 15 16  1  1
 15 17  1  0
 16 43  1  0
 16 44  1  0
 16 45  1  0
 17 18  1  0
 17 46  1  6
 18 19  1  0
 18 47  1  0
 18 48  1  0
 19 21  1  0
 19 20  1  0
 19 49  1  1
 20 21  1  0
 21 22  1  1
 22 50  1  0
 22 51  1  0
 22 52  1  0
M  END
>  <i_m_ct_stereo_status>  (241) 
1

>  <s_m_source_file>  (241) 
/var/tmp/pbs.5076255.sched01/tmp361ftg5n/90jpawypyp.sdf

>  <i_m_source_file_index>  (241) 
7

>  <i_lp_mmshare_version>  (241) 
48012

>  <i_f3d_flags>  (241) 
0

>  <s_epik_input>  (241) 
W0NIMl0xW0NIMl1bQ0BASF0oW09IXSlbQ0gyXUMoW0NAXTEyW0NIM10pPVtDSF1bQ0gyXVtDQEBIXTNbQ0BASF0yW0NIMl1bQ0gyXVtDQF00KFtDSDNdKVtDQEhdM1tDSDJdW0NASF01W0NAQF00KE81KVtDSDNd

>  <s_epik_cmdline>  (241) 
J2VwaWtfcHl0aG9uJywgJy1waHQnLCAnMi4wJywgJy1waCcsICc3LjAnLCAnLXRuJywgJzgnLCAnLW1hJywgJzIwMCcsICctaW1hZScsICc8aW5maWxlLm1hZT4nLCAnLW9tYWUnLCAnPG91dGZpbGUubWFlPic=

>  <r_lp_tautomer_probability>  (241) 
1

>  <r_epik_Ionization_Penalty>  (241) 
1.23176e-06

>  <r_epik_Ionization_Penalty_Charging>  (241) 
0

>  <r_epik_Ionization_Penalty_Neutral>  (241) 
1.23176e-06

>  <r_epik_State_Penalty>  (241) 
-0

>  <r_epik_Charging_Adjusted_Penalty>  (241) 
0

>  <i_epik_Tot_Q>  (241) 
0

>  <i_epik_Tot_abs_Q>  (241) 
0

>  <s_lp_Force_Field>  (241) 
OPLS3e

>  <r_lp_Energy>  (241) 
33.1672

>  <b_lp_Chiralities_Consistent>  (241) 
1

>  <s_lp_Variant>  (241) 
64:0-1

>  <s_i_glide_gridfile>  (241) 
pfpi4k_grid

>  <i_i_glide_lignum>  (241) 
7

>  <i_i_glide_rotatable_bonds>  (241) 
1

>  <r_i_docking_score>  (241) 
-3.17852

>  <r_i_glide_ligand_efficiency>  (241) 
-0.144478

>  <r_i_glide_ligand_efficiency_sa>  (241) 
-0.404834

>  <r_i_glide_ligand_efficiency_ln>  (241) 
-0.776947

>  <r_i_glide_gscore>  (241) 
-3.17852

>  <r_i_glide_lipo>  (241) 
-0.286194

>  <r_i_glide_hbond>  (241) 
-0.147286

>  <r_i_glide_metal>  (241) 
-0

>  <r_i_glide_rewards>  (241) 
-1.34692

>  <r_i_glide_evdw>  (241) 
-21.9426

>  <r_i_glide_ecoul>  (241) 
-2.00661

>  <r_i_glide_erotb>  (241) 
0

>  <r_i_glide_esite>  (241) 
0

>  <r_i_glide_emodel>  (241) 
-28.6203

>  <r_i_glide_energy>  (241) 
-23.9492

>  <r_i_glide_einternal>  (241) 
0.052748

>  <r_i_glide_intrahb_reward>  (241) 
-0

>  <i_i_glide_confnum>  (241) 
1

>  <i_i_glide_posenum>  (241) 
34

>  <r_i_glide_eff_state_penalty>  (241) 
0

>  <ligand_id>  (241) 
64

>  <original_smiles>  (241) 
CC12CCC(O)CC1=CCC1C2CCC2(C)C1CC1OC12C

>  <smiles>  (241) 
[H]OC1([H])C([H])([H])C2=C([H])C([H])([H])C3([H])C([H])(C([H])([H])C([H])([H])C4(C([H])([H])[H])C3([H])C([H])([H])C3([H])OC34C([H])([H])[H])C2(C([H])([H])[H])C([H])([H])C1([H])[H]

$$$$
65:1:0
     RDKit          3D

 68 76  0  0  1  0  0  0  0  0999 V2000
    3.5463   -5.5206   -0.1614 C   0  0  0  0  0  0  0  0  0  0  0  0
    3.2069   -4.2100    0.5122 C   0  0  1  0  0  0  0  0  0  0  0  0
    2.2183   -4.3777    1.6650 C   0  0  0  0  0  0  0  0  0  0  0  0
    1.6482   -5.3591    2.1475 O   0  0  0  0  0  0  0  0  0  0  0  0
    1.9919   -2.9267    2.1148 C   0  0  1  0  0  0  0  0  0  0  0  0
    2.2043   -2.5615    3.5676 O   0  0  0  0  0  0  0  0  0  0  0  0
    2.5601   -3.2850    4.8273 C   0  0  2  0  0  0  0  0  0  0  0  0
    3.5537   -2.5618    5.8318 C   0  0  0  0  0  0  0  0  0  0  0  0
    4.7701   -3.5222    5.5609 C   0  0  2  0  0  0  0  0  0  0  0  0
    5.7897   -3.2265    4.5016 O   0  0  0  0  0  0  0  0  0  0  0  0
    5.1901   -2.7712    3.3182 C   0  0  2  0  0  0  0  0  0  0  0  0
    4.9328   -1.2441    3.7485 C   0  0  0  0  0  0  0  0  0  0  0  0
    5.7128   -0.3959    4.6017 C   0  0  0  0  0  0  0  0  0  0  0  0
    5.3414    0.9448    4.8593 C   0  0  0  0  0  0  0  0  0  0  0  0
    4.1975    1.5265    4.2761 C   0  0  0  0  0  0  0  0  0  0  0  0
    3.4552    0.7655    3.3977 C   0  0  0  0  0  0  0  0  0  0  0  0
    3.8788   -0.5368    3.2140 C   0  0  0  0  0  0  0  0  0  0  0  0
    4.2652   -3.8124    3.1568 O   0  0  0  0  0  0  0  0  0  0  0  0
    4.3097   -5.1403    3.7814 C   0  0  2  0  0  0  0  0  0  0  0  0
    5.5347   -6.0539    3.8479 C   0  0  0  0  0  0  0  0  0  0  0  0
    3.3161   -5.6510    4.7018 O   0  0  0  0  0  0  0  0  0  0  0  0
    3.6933   -4.3215    4.8525 C   0  0  2  0  0  0  0  0  0  0  0  0
    5.5972   -2.8629    1.7391 C   0  0  2  0  0  0  0  0  0  0  0  0
    6.6699   -3.9810    1.4572 C   0  0  1  0  0  0  0  0  0  0  0  0
    6.2753   -5.0115    0.6045 O   0  0  0  0  0  0  0  0  0  0  0  0
    7.8350   -3.3213    0.8213 C   0  0  0  0  0  0  0  0  0  0  0  0
    7.6688   -2.0075    0.7103 C   0  0  0  0  0  0  0  0  0  0  0  0
    6.3708   -1.5425    1.2836 C   0  0  1  0  0  0  0  0  0  0  0  0
    5.7439   -0.7531    0.3103 O   0  0  0  0  0  0  0  0  0  0  0  0
    4.2660   -3.0290    0.7371 C   0  0  2  0  0  0  0  0  0  0  0  0
    2.8447   -2.3039    0.8729 C   0  0  2  0  0  0  0  0  0  0  0  0
    2.6158   -0.7705    0.5679 C   0  0  0  0  0  0  0  0  0  0  0  0
    2.5372   -3.1483   -0.3829 C   0  0  1  0  0  0  0  0  0  0  0  0
    2.8589   -2.7780   -1.8364 C   0  0  0  0  0  0  0  0  0  0  0  0
    2.3981   -3.4310   -2.9793 C   0  0  0  0  0  0  0  0  0  0  0  0
    2.9345   -2.7650   -4.0164 C   0  0  0  0  0  0  0  0  0  0  0  0
    3.6310   -1.6778   -3.6118 O   0  0  0  0  0  0  0  0  0  0  0  0
    3.5978   -1.7062   -2.2648 C   0  0  0  0  0  0  0  0  0  0  0  0
    4.3185   -5.3953   -0.9217 H   0  0  0  0  0  0  0  0  0  0  0  0
    2.6562   -5.8889   -0.6633 H   0  0  0  0  0  0  0  0  0  0  0  0
    3.8669   -6.2809    0.5481 H   0  0  0  0  0  0  0  0  0  0  0  0
    0.9636   -2.6291    2.0297 H   0  0  0  0  0  0  0  0  0  0  0  0
    1.6467   -3.5677    5.3530 H   0  0  0  0  0  0  0  0  0  0  0  0
    3.6803   -1.4840    5.7654 H   0  0  0  0  0  0  0  0  0  0  0  0
    3.2280   -2.7222    6.8640 H   0  0  0  0  0  0  0  0  0  0  0  0
    5.2114   -3.9438    6.4718 H   0  0  0  0  0  0  0  0  0  0  0  0
    6.5918   -0.6544    5.1065 H   0  0  0  0  0  0  0  0  0  0  0  0
    5.9613    1.5663    5.4718 H   0  0  0  0  0  0  0  0  0  0  0  0
    3.9173    2.5623    4.3746 H   0  0  0  0  0  0  0  0  0  0  0  0
    2.5933    1.0985    2.8299 H   0  0  0  0  0  0  0  0  0  0  0  0
    3.3239   -1.0881    2.6166 H   0  0  0  0  0  0  0  0  0  0  0  0
    5.4889   -6.7373    2.9920 H   0  0  0  0  0  0  0  0  0  0  0  0
    5.5059   -6.6507    4.7704 H   0  0  0  0  0  0  0  0  0  0  0  0
    6.4853   -5.5398    3.9097 H   0  0  0  0  0  0  0  0  0  0  0  0
    7.0549   -4.4165    2.3672 H   0  0  0  0  0  0  0  0  0  0  0  0
    5.8146   -4.5859   -0.1033 H   0  0  0  0  0  0  0  0  0  0  0  0
    8.7689   -3.8546    0.6663 H   0  0  0  0  0  0  0  0  0  0  0  0
    8.4473   -1.3020    0.4769 H   0  0  0  0  0  0  0  0  0  0  0  0
    6.6207   -0.8471    2.0807 H   0  0  0  0  0  0  0  0  0  0  0  0
    4.8223   -0.7723    0.5162 H   0  0  0  0  0  0  0  0  0  0  0  0
    4.7183   -2.9013   -0.2485 H   0  0  0  0  0  0  0  0  0  0  0  0
    2.6275   -0.5182   -0.4647 H   0  0  0  0  0  0  0  0  0  0  0  0
    3.4178   -0.0922    0.8408 H   0  0  0  0  0  0  0  0  0  0  0  0
    1.6874   -0.3823    0.9825 H   0  0  0  0  0  0  0  0  0  0  0  0
    1.4776   -3.3022   -0.4191 H   0  0  0  0  0  0  0  0  0  0  0  0
    1.8083   -4.3712   -3.0685 H   0  0  0  0  0  0  0  0  0  0  0  0
    2.9580   -2.9035   -5.0724 H   0  0  0  0  0  0  0  0  0  0  0  0
    4.1253   -0.9080   -1.7715 H   0  0  0  0  0  0  0  0  0  0  0  0
  2  1  1  6
  1 39  1  0
  1 40  1  0
  1 41  1  0
  2 30  1  0
  2 33  1  0
  2  3  1  0
  3  4  2  0
  3  5  1  0
  5 31  1  0
  5  6  1  0
  5 42  1  6
  6  7  1  0
  7 22  1  0
  7  8  1  0
  7 43  1  1
  8  9  1  0
  8 44  1  0
  8 45  1  0
  9 22  1  0
  9 10  1  0
  9 46  1  1
 10 11  1  0
 11 12  1  1
 11 18  1  0
 23 11  1  1
 12 17  1  0
 12 13  2  0
 13 14  1  0
 13 47  1  0
 14 15  2  0
 14 48  1  0
 15 16  1  0
 15 49  1  0
 16 17  2  0
 16 50  1  0
 17 51  1  0
 18 19  1  0
 19 22  1  0
 19 20  1  1
 19 21  1  0
 20 52  1  0
 20 53  1  0
 20 54  1  0
 22 21  1  1
 23 28  1  0
 23 24  1  0
 23 30  1  0
 24 25  1  0
 24 26  1  0
 24 55  1  1
 25 56  1  0
 26 27  2  0
 26 57  1  0
 27 28  1  0
 27 58  1  0
 28 29  1  0
 28 59  1  1
 29 60  1  0
 30 31  1  0
 30 61  1  6
 31 32  1  6
 31 33  1  0
 32 62  1  0
 32 63  1  0
 32 64  1  0
 33 34  1  0
 33 65  1  6
 34 38  2  0
 34 35  1  0
 35 36  2  0
 35 66  1  0
 36 37  1  0
 36 67  1  0
 37 38  1  0
 38 68  1  0
M  END
>  <i_m_ct_stereo_status>  (242) 
1

>  <s_m_source_file>  (242) 
/var/tmp/pbs.5076255.sched01/tmp361ftg5n/90jpawypyp.sdf

>  <i_m_source_file_index>  (242) 
9

>  <i_lp_mmshare_version>  (242) 
48012

>  <i_f3d_flags>  (242) 
0

>  <s_epik_input>  (242) 
W2NIXTFvW2NIXVtjSF1jMVtDQEhdMltDQF0oW0NIM10pKEMzPU8pW0NAQEhdKFtDQF0yKFtDSDNdKVtDQEBIXTNPW0NASF00QzU2NylbQ0BdOChbQ0BASF0oW09IXSlbQ0hdPVtDSF1bQ0BIXThbT0hdKVtDQF0oT1tDQEhdNVtDSDJdNCkoT1tDQEBdNihPNylbQ0gzXSljOVtjSF1bY0hdW2NIXVtjSF1bY0hdOQ==

>  <s_epik_cmdline>  (242) 
J2VwaWtfcHl0aG9uJywgJy1waHQnLCAnMi4wJywgJy1waCcsICc3LjAnLCAnLXRuJywgJzgnLCAnLW1hJywgJzIwMCcsICctaW1hZScsICc8aW5maWxlLm1hZT4nLCAnLW9tYWUnLCAnPG91dGZpbGUubWFlPic=

>  <r_lp_tautomer_probability>  (242) 
1

>  <r_epik_Ionization_Penalty>  (242) 
5.11792e-06

>  <r_epik_Ionization_Penalty_Charging>  (242) 
0

>  <r_epik_Ionization_Penalty_Neutral>  (242) 
5.11792e-06

>  <r_epik_State_Penalty>  (242) 
-0

>  <r_epik_Charging_Adjusted_Penalty>  (242) 
0

>  <i_epik_Tot_Q>  (242) 
0

>  <i_epik_Tot_abs_Q>  (242) 
0

>  <s_lp_Force_Field>  (242) 
OPLS3e

>  <r_lp_Energy>  (242) 
273.379

>  <b_lp_Chiralities_Consistent>  (242) 
1

>  <s_lp_Variant>  (242) 
65:0-2

>  <s_i_glide_gridfile>  (242) 
pfpi4k_grid

>  <i_i_glide_lignum>  (242) 
9

>  <i_i_glide_rotatable_bonds>  (242) 
4

>  <r_i_docking_score>  (242) 
1.97515

>  <r_i_glide_ligand_efficiency>  (242) 
0.0519775

>  <r_i_glide_ligand_efficiency_sa>  (242) 
0.174747

>  <r_i_glide_ligand_efficiency_ln>  (242) 
0.4259

>  <r_i_glide_gscore>  (242) 
1.97515

>  <r_i_glide_lipo>  (242) 
-0.902904

>  <r_i_glide_hbond>  (242) 
-0.0179906

>  <r_i_glide_metal>  (242) 
-0

>  <r_i_glide_rewards>  (242) 
-0.0732174

>  <r_i_glide_evdw>  (242) 
2.11487

>  <r_i_glide_ecoul>  (242) 
-2.9696

>  <r_i_glide_erotb>  (242) 
0.152765

>  <r_i_glide_esite>  (242) 
-0.025322

>  <r_i_glide_emodel>  (242) 
15.6751

>  <r_i_glide_energy>  (242) 
-0.854728

>  <r_i_glide_einternal>  (242) 
1.72856

>  <r_i_glide_intrahb_reward>  (242) 
-0

>  <i_i_glide_confnum>  (242) 
3

>  <i_i_glide_posenum>  (242) 
21

>  <r_i_glide_eff_state_penalty>  (242) 
0

>  <ligand_id>  (242) 
65

>  <original_smiles>  (242) 
CC12C(=O)C3OC4CC5OC(c6ccccc6)(OC6(C)OC456)C4(C(O)C=CC4O)C1C3(C)C2c1ccoc1

>  <smiles>  (242) 
[H]OC1([H])C([H])=C([H])C([H])(O[H])C12C1(c3c([H])c([H])c([H])c([H])c3[H])OC3([H])C([H])([H])C([H])(OC4([H])C(=O)C5(C([H])([H])[H])C([H])(c6c([H])oc([H])c6[H])C4(C([H])([H])[H])C52[H])C32OC2(C([H])([H])[H])O1

$$$$
66:0:0
     RDKit          3D

 21 21  0  0  1  0  0  0  0  0999 V2000
    5.7445   -3.0621   -2.4202 C   0  0  0  0  0  0  0  0  0  0  0  0
    4.5585   -2.0887   -2.3396 C   0  0  2  0  0  0  0  0  0  0  0  0
    3.4742   -2.6018   -1.3723 C   0  0  0  0  0  0  0  0  0  0  0  0
    2.4544   -3.1138   -2.3188 C   0  0  0  0  0  0  0  0  0  0  0  0
    1.4155   -3.8542   -1.9190 N   0  0  0  0  0  0  0  0  0  0  0  0
    2.6780   -2.7573   -3.5866 N   0  0  0  0  0  0  0  0  0  0  0  0
    3.8607   -1.9186   -3.7041 C   0  0  1  0  0  0  0  0  0  0  0  0
    3.4591   -0.4675   -4.0110 C   0  0  0  0  0  0  0  0  0  0  0  0
    5.4238   -4.0305   -2.8104 H   0  0  0  0  0  0  0  0  0  0  0  0
    6.1868   -3.2269   -1.4359 H   0  0  0  0  0  0  0  0  0  0  0  0
    6.5320   -2.6881   -3.0768 H   0  0  0  0  0  0  0  0  0  0  0  0
    4.9085   -1.1277   -1.9758 H   0  0  0  0  0  0  0  0  0  0  0  0
    3.8318   -3.3937   -0.7123 H   0  0  0  0  0  0  0  0  0  0  0  0
    3.0448   -1.7969   -0.7670 H   0  0  0  0  0  0  0  0  0  0  0  0
    0.7614   -4.2233   -2.6133 H   0  0  0  0  0  0  0  0  0  0  0  0
    2.0875   -2.9719   -4.3753 H   0  0  0  0  0  0  0  0  0  0  0  0
    4.4831   -2.3071   -4.5072 H   0  0  0  0  0  0  0  0  0  0  0  0
    4.3365    0.1815   -4.0356 H   0  0  0  0  0  0  0  0  0  0  0  0
    2.7908   -0.0709   -3.2397 H   0  0  0  0  0  0  0  0  0  0  0  0
    2.9536   -0.3790   -4.9790 H   0  0  0  0  0  0  0  0  0  0  0  0
    1.3758   -4.1399   -0.9535 H   0  0  0  0  0  0  0  0  0  0  0  0
  1  2  1  0
  1  9  1  0
  1 10  1  0
  1 11  1  0
  2  7  1  0
  2  3  1  0
  2 12  1  1
  3  4  1  0
  3 13  1  0
  3 14  1  0
  4  5  1  0
  4  6  2  0
  5 15  1  0
  5 21  1  0
  6  7  1  0
  6 16  1  0
  7  8  1  0
  7 17  1  6
  8 18  1  0
  8 19  1  0
  8 20  1  0
M  CHG  1   6   1
M  END
>  <i_m_ct_stereo_status>  (243) 
1

>  <s_m_source_file>  (243) 
/var/tmp/pbs.5076255.sched01/tmp361ftg5n/90jpawypyp.sdf

>  <i_m_source_file_index>  (243) 
12

>  <i_lp_mmshare_version>  (243) 
48012

>  <i_f3d_flags>  (243) 
0

>  <s_epik_input>  (243) 
W0NIM11bQ0BASF0xW0NIMl0vQyg9TlxbSF0pW05IXVtDQEhdMVtDSDNd

>  <s_epik_cmdline>  (243) 
J2VwaWtfcHl0aG9uJywgJy1waHQnLCAnMi4wJywgJy1waCcsICc3LjAnLCAnLXRuJywgJzgnLCAnLW1hJywgJzIwMCcsICctaW1hZScsICc8aW5maWxlLm1hZT4nLCAnLW9tYWUnLCAnPG91dGZpbGUubWFlPic=

>  <r_lp_tautomer_probability>  (243) 
1

>  <r_epik_Ionization_Penalty>  (243) 
3.16319e-06

>  <r_epik_Ionization_Penalty_Charging>  (243) 
3.16318e-06

>  <r_epik_Ionization_Penalty_Neutral>  (243) 
1.27702e-11

>  <r_epik_State_Penalty>  (243) 
-0

>  <r_epik_Charging_Adjusted_Penalty>  (243) 
3.16318e-06

>  <i_epik_Tot_Q>  (243) 
1

>  <i_epik_Tot_abs_Q>  (243) 
1

>  <s_epik_Chemistry_Notes>  (243) 
This compound has an imine and may undergo hydrolysis.

>  <s_lp_Force_Field>  (243) 
OPLS3e

>  <r_lp_Energy>  (243) 
2.27641

>  <b_lp_Chiralities_Consistent>  (243) 
1

>  <s_lp_Variant>  (243) 
66:0-1

>  <s_i_glide_gridfile>  (243) 
pfpi4k_grid

>  <i_i_glide_lignum>  (243) 
12

>  <i_i_glide_rotatable_bonds>  (243) 
0

>  <r_i_docking_score>  (243) 
-4.43453

>  <r_i_glide_ligand_efficiency>  (243) 
-0.554316

>  <r_i_glide_ligand_efficiency_sa>  (243) 
-1.10863

>  <r_i_glide_ligand_efficiency_ln>  (243) 
-1.44004

>  <r_i_glide_gscore>  (243) 
-4.43453

>  <r_i_glide_lipo>  (243) 
-0.664097

>  <r_i_glide_hbond>  (243) 
0

>  <r_i_glide_metal>  (243) 
-0

>  <r_i_glide_rewards>  (243) 
-2.33434

>  <r_i_glide_evdw>  (243) 
-13.0659

>  <r_i_glide_ecoul>  (243) 
-4.88378

>  <r_i_glide_erotb>  (243) 
0

>  <r_i_glide_esite>  (243) 
-0.0502255

>  <r_i_glide_emodel>  (243) 
-23.7141

>  <r_i_glide_energy>  (243) 
-17.9496

>  <r_i_glide_einternal>  (243) 
0

>  <r_i_glide_intrahb_reward>  (243) 
-0

>  <i_i_glide_confnum>  (243) 
2

>  <i_i_glide_posenum>  (243) 
10

>  <r_i_glide_eff_state_penalty>  (243) 
0

>  <ligand_id>  (243) 
66

>  <original_smiles>  (243) 
CC1CC(=N)NC1C

>  <smiles>  (243) 
[H]N([H])C1=[N+]([H])C([H])(C([H])([H])[H])C([H])(C([H])([H])[H])C1([H])[H]

$$$$
66:0:1
     RDKit          3D

 21 21  0  0  1  0  0  0  0  0999 V2000
   -0.1744    2.1237    5.7704 C   0  0  0  0  0  0  0  0  0  0  0  0
   -1.1235    1.7437    4.6265 C   0  0  2  0  0  0  0  0  0  0  0  0
   -0.5566    0.5751    3.7963 C   0  0  0  0  0  0  0  0  0  0  0  0
   -0.0379    1.2632    2.5823 C   0  0  0  0  0  0  0  0  0  0  0  0
    0.7528    0.6601    1.6849 N   0  0  0  0  0  0  0  0  0  0  0  0
   -0.4522    2.5390    2.4971 N   0  0  0  0  0  0  0  0  0  0  0  0
   -1.3039    2.9080    3.6262 C   0  0  1  0  0  0  0  0  0  0  0  0
   -2.7535    3.0792    3.1699 C   0  0  0  0  0  0  0  0  0  0  0  0
    0.7871    2.4564    5.3803 H   0  0  0  0  0  0  0  0  0  0  0  0
    0.0097    1.2732    6.4265 H   0  0  0  0  0  0  0  0  0  0  0  0
   -0.5868    2.9271    6.3794 H   0  0  0  0  0  0  0  0  0  0  0  0
   -2.0836    1.4467    5.0482 H   0  0  0  0  0  0  0  0  0  0  0  0
    0.2360    0.0352    4.3088 H   0  0  0  0  0  0  0  0  0  0  0  0
   -1.3380   -0.1319    3.5201 H   0  0  0  0  0  0  0  0  0  0  0  0
    0.9703    1.1102    0.8134 H   0  0  0  0  0  0  0  0  0  0  0  0
   -0.1982    3.2244    1.7675 H   0  0  0  0  0  0  0  0  0  0  0  0
   -0.9483    3.8500    4.0493 H   0  0  0  0  0  0  0  0  0  0  0  0
   -3.4127    3.2761    4.0132 H   0  0  0  0  0  0  0  0  0  0  0  0
   -3.0954    2.1721    2.6793 H   0  0  0  0  0  0  0  0  0  0  0  0
   -2.8565    3.8964    2.4565 H   0  0  0  0  0  0  0  0  0  0  0  0
    1.0104   -0.3114    1.7778 H   0  0  0  0  0  0  0  0  0  0  0  0
  1  2  1  0
  1  9  1  0
  1 10  1  0
  1 11  1  0
  2  7  1  0
  2  3  1  0
  2 12  1  1
  3  4  1  0
  3 13  1  0
  3 14  1  0
  4  5  1  0
  4  6  2  0
  5 15  1  0
  5 21  1  0
  6  7  1  0
  6 16  1  0
  7  8  1  0
  7 17  1  1
  8 18  1  0
  8 19  1  0
  8 20  1  0
M  CHG  1   6   1
M  END
>  <i_m_ct_stereo_status>  (244) 
1

>  <s_m_source_file>  (244) 
/var/tmp/pbs.5076255.sched01/tmp361ftg5n/90jpawypyp.sdf

>  <i_m_source_file_index>  (244) 
12

>  <i_lp_mmshare_version>  (244) 
48012

>  <i_f3d_flags>  (244) 
0

>  <s_epik_input>  (244) 
W0NIM11bQ0BASF0xW0NIMl0vQyg9TlxbSF0pW05IXVtDQEhdMVtDSDNd

>  <s_epik_cmdline>  (244) 
J2VwaWtfcHl0aG9uJywgJy1waHQnLCAnMi4wJywgJy1waCcsICc3LjAnLCAnLXRuJywgJzgnLCAnLW1hJywgJzIwMCcsICctaW1hZScsICc8aW5maWxlLm1hZT4nLCAnLW9tYWUnLCAnPG91dGZpbGUubWFlPic=

>  <r_lp_tautomer_probability>  (244) 
1

>  <r_epik_Ionization_Penalty>  (244) 
3.16319e-06

>  <r_epik_Ionization_Penalty_Charging>  (244) 
3.16318e-06

>  <r_epik_Ionization_Penalty_Neutral>  (244) 
1.27702e-11

>  <r_epik_State_Penalty>  (244) 
-0

>  <r_epik_Charging_Adjusted_Penalty>  (244) 
3.16318e-06

>  <i_epik_Tot_Q>  (244) 
1

>  <i_epik_Tot_abs_Q>  (244) 
1

>  <s_epik_Chemistry_Notes>  (244) 
This compound has an imine and may undergo hydrolysis.

>  <s_lp_Force_Field>  (244) 
OPLS3e

>  <r_lp_Energy>  (244) 
2.27641

>  <b_lp_Chiralities_Consistent>  (244) 
1

>  <s_lp_Variant>  (244) 
66:0-1

>  <s_i_glide_gridfile>  (244) 
pfpi4k_grid

>  <i_i_glide_lignum>  (244) 
12

>  <i_i_glide_rotatable_bonds>  (244) 
0

>  <r_i_docking_score>  (244) 
-3.9492

>  <r_i_glide_ligand_efficiency>  (244) 
-0.49365

>  <r_i_glide_ligand_efficiency_sa>  (244) 
-0.987301

>  <r_i_glide_ligand_efficiency_ln>  (244) 
-1.28244

>  <r_i_glide_gscore>  (244) 
-3.9492

>  <r_i_glide_lipo>  (244) 
0

>  <r_i_glide_hbond>  (244) 
-0.195185

>  <r_i_glide_metal>  (244) 
-0

>  <r_i_glide_rewards>  (244) 
-2.25

>  <r_i_glide_evdw>  (244) 
-6.82486

>  <r_i_glide_ecoul>  (244) 
-6.15435

>  <r_i_glide_erotb>  (244) 
0

>  <r_i_glide_esite>  (244) 
-0.239622

>  <r_i_glide_emodel>  (244) 
-18.0696

>  <r_i_glide_energy>  (244) 
-12.9792

>  <r_i_glide_einternal>  (244) 
0

>  <r_i_glide_intrahb_reward>  (244) 
-0

>  <i_i_glide_confnum>  (244) 
1

>  <i_i_glide_posenum>  (244) 
5

>  <r_i_glide_eff_state_penalty>  (244) 
0

>  <ligand_id>  (244) 
66

>  <original_smiles>  (244) 
CC1CC(=N)NC1C

>  <smiles>  (244) 
[H]N([H])C1=[N+]([H])C([H])(C([H])([H])[H])C([H])(C([H])([H])[H])C1([H])[H]

$$$$
66:0:2
     RDKit          3D

 21 21  0  0  1  0  0  0  0  0999 V2000
    0.1656    0.8724    5.7766 C   0  0  0  0  0  0  0  0  0  0  0  0
   -0.9722    1.2201    4.8115 C   0  0  2  0  0  0  0  0  0  0  0  0
   -0.7172    0.6252    3.4153 C   0  0  0  0  0  0  0  0  0  0  0  0
   -0.2441    1.8036    2.6571 C   0  0  0  0  0  0  0  0  0  0  0  0
    0.3123    1.7300    1.4454 N   0  0  0  0  0  0  0  0  0  0  0  0
   -0.4515    2.9514    3.2984 N   0  0  0  0  0  0  0  0  0  0  0  0
   -1.0919    2.7464    4.5963 C   0  0  1  0  0  0  0  0  0  0  0  0
   -2.5446    3.2306    4.5786 C   0  0  0  0  0  0  0  0  0  0  0  0
    1.1117    1.2894    5.4300 H   0  0  0  0  0  0  0  0  0  0  0  0
    0.2901   -0.2069    5.8550 H   0  0  0  0  0  0  0  0  0  0  0  0
   -0.0242    1.2584    6.7776 H   0  0  0  0  0  0  0  0  0  0  0  0
   -1.9077    0.8197    5.1956 H   0  0  0  0  0  0  0  0  0  0  0  0
    0.0327   -0.1660    3.4074 H   0  0  0  0  0  0  0  0  0  0  0  0
   -1.6373    0.2513    2.9666 H   0  0  0  0  0  0  0  0  0  0  0  0
    0.4430    2.6365    0.9675 H   0  0  0  0  0  0  0  0  0  0  0  0
   -0.2115    3.8642    2.9212 H   0  0  0  0  0  0  0  0  0  0  0  0
   -0.5403    3.3006    5.3629 H   0  0  0  0  0  0  0  0  0  0  0  0
   -3.0447    3.0179    5.5221 H   0  0  0  0  0  0  0  0  0  0  0  0
   -3.1148    2.7450    3.7902 H   0  0  0  0  0  0  0  0  0  0  0  0
   -2.5837    4.3045    4.4152 H   0  0  0  0  0  0  0  0  0  0  0  0
    0.3532    0.8804    0.9045 H   0  0  0  0  0  0  0  0  0  0  0  0
  1  2  1  0
  1  9  1  0
  1 10  1  0
  1 11  1  0
  2  7  1  0
  2  3  1  0
  2 12  1  1
  3  4  1  0
  3 13  1  0
  3 14  1  0
  4  5  1  0
  4  6  2  0
  5 15  1  0
  5 21  1  0
  6  7  1  0
  6 16  1  0
  7  8  1  0
  7 17  1  1
  8 18  1  0
  8 19  1  0
  8 20  1  0
M  CHG  1   6   1
M  END
>  <i_m_ct_stereo_status>  (245) 
1

>  <s_m_source_file>  (245) 
/var/tmp/pbs.5076255.sched01/tmp361ftg5n/90jpawypyp.sdf

>  <i_m_source_file_index>  (245) 
12

>  <i_lp_mmshare_version>  (245) 
48012

>  <i_f3d_flags>  (245) 
0

>  <s_epik_input>  (245) 
W0NIM11bQ0BASF0xW0NIMl0vQyg9TlxbSF0pW05IXVtDQEhdMVtDSDNd

>  <s_epik_cmdline>  (245) 
J2VwaWtfcHl0aG9uJywgJy1waHQnLCAnMi4wJywgJy1waCcsICc3LjAnLCAnLXRuJywgJzgnLCAnLW1hJywgJzIwMCcsICctaW1hZScsICc8aW5maWxlLm1hZT4nLCAnLW9tYWUnLCAnPG91dGZpbGUubWFlPic=

>  <r_lp_tautomer_probability>  (245) 
1

>  <r_epik_Ionization_Penalty>  (245) 
3.16319e-06

>  <r_epik_Ionization_Penalty_Charging>  (245) 
3.16318e-06

>  <r_epik_Ionization_Penalty_Neutral>  (245) 
1.27702e-11

>  <r_epik_State_Penalty>  (245) 
-0

>  <r_epik_Charging_Adjusted_Penalty>  (245) 
3.16318e-06

>  <i_epik_Tot_Q>  (245) 
1

>  <i_epik_Tot_abs_Q>  (245) 
1

>  <s_epik_Chemistry_Notes>  (245) 
This compound has an imine and may undergo hydrolysis.

>  <s_lp_Force_Field>  (245) 
OPLS3e

>  <r_lp_Energy>  (245) 
2.27641

>  <b_lp_Chiralities_Consistent>  (245) 
1

>  <s_lp_Variant>  (245) 
66:0-1

>  <s_i_glide_gridfile>  (245) 
pfpi4k_grid

>  <i_i_glide_lignum>  (245) 
12

>  <i_i_glide_rotatable_bonds>  (245) 
0

>  <r_i_docking_score>  (245) 
-3.94298

>  <r_i_glide_ligand_efficiency>  (245) 
-0.492872

>  <r_i_glide_ligand_efficiency_sa>  (245) 
-0.985744

>  <r_i_glide_ligand_efficiency_ln>  (245) 
-1.28042

>  <r_i_glide_gscore>  (245) 
-3.94298

>  <r_i_glide_lipo>  (245) 
0

>  <r_i_glide_hbond>  (245) 
-0.283947

>  <r_i_glide_metal>  (245) 
-0

>  <r_i_glide_rewards>  (245) 
-2.25

>  <r_i_glide_evdw>  (245) 
-6.43452

>  <r_i_glide_ecoul>  (245) 
-5.72422

>  <r_i_glide_erotb>  (245) 
0

>  <r_i_glide_esite>  (245) 
-0.228669

>  <r_i_glide_emodel>  (245) 
-17.0783

>  <r_i_glide_energy>  (245) 
-12.1587

>  <r_i_glide_einternal>  (245) 
0

>  <r_i_glide_intrahb_reward>  (245) 
-0

>  <i_i_glide_confnum>  (245) 
1

>  <i_i_glide_posenum>  (245) 
1

>  <r_i_glide_eff_state_penalty>  (245) 
0

>  <ligand_id>  (245) 
66

>  <original_smiles>  (245) 
CC1CC(=N)NC1C

>  <smiles>  (245) 
[H]N([H])C1=[N+]([H])C([H])(C([H])([H])[H])C([H])(C([H])([H])[H])C1([H])[H]

$$$$
67:0:0
     RDKit          3D

 30 33  0  0  1  0  0  0  0  0999 V2000
    5.8180   -0.6994    0.2622 O   0  0  0  0  0  0  0  0  0  0  0  0
    5.0194   -1.6064    0.0622 C   0  0  0  0  0  0  0  0  0  0  0  0
    4.2925   -1.8225   -1.2282 C   0  0  0  0  0  0  0  0  0  0  0  0
    4.6219   -1.0291   -2.3516 C   0  0  0  0  0  0  0  0  0  0  0  0
    4.0118   -1.2509   -3.5993 C   0  0  0  0  0  0  0  0  0  0  0  0
    3.0669   -2.2849   -3.7430 C   0  0  0  0  0  0  0  0  0  0  0  0
    2.6946   -3.0557   -2.6204 C   0  0  0  0  0  0  0  0  0  0  0  0
    3.2898   -2.8144   -1.3616 C   0  0  0  0  0  0  0  0  0  0  0  0
    2.8427   -3.6182   -0.1816 C   0  0  0  0  0  0  0  0  0  0  0  0
    2.1398   -4.6186   -0.2406 O   0  0  0  0  0  0  0  0  0  0  0  0
    3.3115   -3.1247    1.1945 C   0  0  2  0  0  0  0  0  0  0  0  0
    2.4870   -2.0394    1.6062 O   0  0  0  0  0  0  0  0  0  0  0  0
    2.1822   -2.0628    2.9905 C   0  0  2  0  0  0  0  0  0  0  0  0
    2.3320   -0.8027    3.6463 O   0  0  0  0  0  0  0  0  0  0  0  0
    3.3793   -1.7521    3.8548 C   0  0  2  0  0  0  0  0  0  0  0  0
    4.7251   -1.2991    3.3298 C   0  0  0  0  0  0  0  0  0  0  0  0
    5.4134   -2.3952    2.5146 C   0  0  0  0  0  0  0  0  0  0  0  0
    4.7867   -2.6912    1.1342 C   0  0  2  0  0  0  0  0  0  0  0  0
    5.3585   -0.2449   -2.2575 H   0  0  0  0  0  0  0  0  0  0  0  0
    4.2735   -0.6359   -4.4523 H   0  0  0  0  0  0  0  0  0  0  0  0
    2.6113   -2.4804   -4.7032 H   0  0  0  0  0  0  0  0  0  0  0  0
    1.9579   -3.8344   -2.7414 H   0  0  0  0  0  0  0  0  0  0  0  0
    3.1957   -3.9674    1.8860 H   0  0  0  0  0  0  0  0  0  0  0  0
    1.3557   -2.6996    3.3420 H   0  0  0  0  0  0  0  0  0  0  0  0
    3.3928   -2.2527    4.8238 H   0  0  0  0  0  0  0  0  0  0  0  0
    4.6012   -0.3869    2.7476 H   0  0  0  0  0  0  0  0  0  0  0  0
    5.3429   -1.0333    4.1872 H   0  0  0  0  0  0  0  0  0  0  0  0
    6.4561   -2.1119    2.3712 H   0  0  0  0  0  0  0  0  0  0  0  0
    5.4363   -3.3135    3.1031 H   0  0  0  0  0  0  0  0  0  0  0  0
    5.3420   -3.5478    0.7552 H   0  0  0  0  0  0  0  0  0  0  0  0
  1  2  2  0
  2 18  1  0
  2  3  1  0
  3  8  2  0
  3  4  1  0
  4  5  2  0
  4 19  1  0
  5  6  1  0
  5 20  1  0
  6  7  2  0
  6 21  1  0
  7  8  1  0
  7 22  1  0
  8  9  1  0
  9 10  2  0
  9 11  1  0
 11 18  1  0
 11 12  1  0
 11 23  1  1
 12 13  1  0
 13 15  1  0
 13 14  1  0
 13 24  1  1
 14 15  1  0
 15 16  1  0
 15 25  1  1
 16 17  1  0
 16 26  1  0
 16 27  1  0
 17 18  1  0
 17 28  1  0
 17 29  1  0
 18 30  1  6
M  END
>  <i_m_ct_stereo_status>  (246) 
1

>  <s_m_source_file>  (246) 
/var/tmp/pbs.5076255.sched01/tmp361ftg5n/90jpawypyp.sdf

>  <i_m_source_file_index>  (246) 
13

>  <i_lp_mmshare_version>  (246) 
48012

>  <i_f3d_flags>  (246) 
0

>  <s_epik_input>  (246) 
TzFbQ0BIXShPMilbQ0BIXTJbQ0gyXVtDSDJdW0NASF0oQzM9TylbQ0BASF0xQyg9TyljKGMzNClbY0hdW2NIXVtjSF1bY0hdNA==

>  <s_epik_cmdline>  (246) 
J2VwaWtfcHl0aG9uJywgJy1waHQnLCAnMi4wJywgJy1waCcsICc3LjAnLCAnLXRuJywgJzgnLCAnLW1hJywgJzIwMCcsICctaW1hZScsICc8aW5maWxlLm1hZT4nLCAnLW9tYWUnLCAnPG91dGZpbGUubWFlPic=

>  <r_lp_tautomer_probability>  (246) 
1

>  <r_epik_Ionization_Penalty>  (246) 
1.20376e-13

>  <r_epik_Ionization_Penalty_Charging>  (246) 
0

>  <r_epik_Ionization_Penalty_Neutral>  (246) 
1.20376e-13

>  <r_epik_State_Penalty>  (246) 
-0

>  <r_epik_Charging_Adjusted_Penalty>  (246) 
0

>  <i_epik_Tot_Q>  (246) 
0

>  <i_epik_Tot_abs_Q>  (246) 
0

>  <s_epik_Chemistry_Notes>  (246) 
This compound contains an acetal/aminal-like group ( X-CH(R)-Y where X, Y are N, S, or O) that may be acid/base labile, releasing an aldehyde.

>  <s_lp_Force_Field>  (246) 
OPLS3e

>  <r_lp_Energy>  (246) 
19.8739

>  <b_lp_Chiralities_Consistent>  (246) 
1

>  <s_lp_Variant>  (246) 
67:0-1

>  <s_i_glide_gridfile>  (246) 
pfpi4k_grid

>  <i_i_glide_lignum>  (246) 
13

>  <i_i_glide_rotatable_bonds>  (246) 
0

>  <r_i_docking_score>  (246) 
-3.51521

>  <r_i_glide_ligand_efficiency>  (246) 
-0.19529

>  <r_i_glide_ligand_efficiency_sa>  (246) 
-0.511804

>  <r_i_glide_ligand_efficiency_ln>  (246) 
-0.903568

>  <r_i_glide_gscore>  (246) 
-3.51521

>  <r_i_glide_lipo>  (246) 
-0.555848

>  <r_i_glide_hbond>  (246) 
-0.00386473

>  <r_i_glide_metal>  (246) 
-0

>  <r_i_glide_rewards>  (246) 
-1.74429

>  <r_i_glide_evdw>  (246) 
-22.7643

>  <r_i_glide_ecoul>  (246) 
-0.324096

>  <r_i_glide_erotb>  (246) 
0

>  <r_i_glide_esite>  (246) 
-0.0243792

>  <r_i_glide_emodel>  (246) 
-28.0022

>  <r_i_glide_energy>  (246) 
-23.0884

>  <r_i_glide_einternal>  (246) 
0

>  <r_i_glide_intrahb_reward>  (246) 
-0

>  <i_i_glide_confnum>  (246) 
1

>  <i_i_glide_posenum>  (246) 
16

>  <r_i_glide_eff_state_penalty>  (246) 
0

>  <ligand_id>  (246) 
67

>  <original_smiles>  (246) 
O=C1c2ccccc2C(=O)C2OC3OC3CCC12

>  <smiles>  (246) 
[H]c1c([H])c([H])c2c(c1[H])C(=O)C1([H])OC3([H])OC3([H])C([H])([H])C([H])([H])C1([H])C2=O

$$$$
67:0:1
     RDKit          3D

 30 33  0  0  1  0  0  0  0  0999 V2000
    6.1905   -2.1556    0.1183 O   0  0  0  0  0  0  0  0  0  0  0  0
    5.1473   -2.7063   -0.2408 C   0  0  0  0  0  0  0  0  0  0  0  0
    4.3684   -2.3063   -1.4457 C   0  0  0  0  0  0  0  0  0  0  0  0
    4.8906   -1.3288   -2.3182 C   0  0  0  0  0  0  0  0  0  0  0  0
    4.2108   -0.9843   -3.5033 C   0  0  0  0  0  0  0  0  0  0  0  0
    3.0102   -1.6187   -3.8316 C   0  0  0  0  0  0  0  0  0  0  0  0
    2.4618   -2.5794   -2.9577 C   0  0  0  0  0  0  0  0  0  0  0  0
    3.1067   -2.8977   -1.7453 C   0  0  0  0  0  0  0  0  0  0  0  0
    2.4438   -3.8207   -0.7913 C   0  0  0  0  0  0  0  0  0  0  0  0
    1.4166   -4.4613   -1.0627 O   0  0  0  0  0  0  0  0  0  0  0  0
    3.0834   -3.9428    0.5982 C   0  0  2  0  0  0  0  0  0  0  0  0
    2.6565   -2.8460    1.4050 O   0  0  0  0  0  0  0  0  0  0  0  0
    2.3936   -3.1981    2.7515 C   0  0  2  0  0  0  0  0  0  0  0  0
    2.9397   -2.3005    3.7148 O   0  0  0  0  0  0  0  0  0  0  0  0
    3.6475   -3.5304    3.5173 C   0  0  2  0  0  0  0  0  0  0  0  0
    5.0530   -3.3425    2.9904 C   0  0  0  0  0  0  0  0  0  0  0  0
    5.3581   -4.2859    1.8250 C   0  0  0  0  0  0  0  0  0  0  0  0
    4.6286   -3.9519    0.4991 C   0  0  2  0  0  0  0  0  0  0  0  0
    5.8161   -0.8365   -2.0813 H   0  0  0  0  0  0  0  0  0  0  0  0
    4.6070   -0.2238   -4.1675 H   0  0  0  0  0  0  0  0  0  0  0  0
    2.4664   -1.3298   -4.7213 H   0  0  0  0  0  0  0  0  0  0  0  0
    1.4947   -3.0135   -3.1936 H   0  0  0  0  0  0  0  0  0  0  0  0
    2.7338   -4.8802    1.0399 H   0  0  0  0  0  0  0  0  0  0  0  0
    1.4233   -3.6482    3.0036 H   0  0  0  0  0  0  0  0  0  0  0  0
    3.5299   -4.2818    4.2980 H   0  0  0  0  0  0  0  0  0  0  0  0
    5.2023   -2.2996    2.7093 H   0  0  0  0  0  0  0  0  0  0  0  0
    5.7404   -3.5384    3.8108 H   0  0  0  0  0  0  0  0  0  0  0  0
    6.4340   -4.2919    1.6513 H   0  0  0  0  0  0  0  0  0  0  0  0
    5.1053   -5.3041    2.1200 H   0  0  0  0  0  0  0  0  0  0  0  0
    4.8795   -4.7707   -0.1727 H   0  0  0  0  0  0  0  0  0  0  0  0
  1  2  2  0
  2 18  1  0
  2  3  1  0
  3  8  2  0
  3  4  1  0
  4  5  2  0
  4 19  1  0
  5  6  1  0
  5 20  1  0
  6  7  2  0
  6 21  1  0
  7  8  1  0
  7 22  1  0
  8  9  1  0
  9 10  2  0
  9 11  1  0
 11 18  1  0
 11 12  1  0
 11 23  1  1
 12 13  1  0
 13 15  1  0
 13 14  1  0
 13 24  1  6
 14 15  1  0
 15 16  1  0
 15 25  1  1
 16 17  1  0
 16 26  1  0
 16 27  1  0
 17 18  1  0
 17 28  1  0
 17 29  1  0
 18 30  1  6
M  END
>  <i_m_ct_stereo_status>  (247) 
1

>  <s_m_source_file>  (247) 
/var/tmp/pbs.5076255.sched01/tmp361ftg5n/90jpawypyp.sdf

>  <i_m_source_file_index>  (247) 
13

>  <i_lp_mmshare_version>  (247) 
48012

>  <i_f3d_flags>  (247) 
0

>  <s_epik_input>  (247) 
TzFbQ0BIXShPMilbQ0BIXTJbQ0gyXVtDSDJdW0NASF0oQzM9TylbQ0BASF0xQyg9TyljKGMzNClbY0hdW2NIXVtjSF1bY0hdNA==

>  <s_epik_cmdline>  (247) 
J2VwaWtfcHl0aG9uJywgJy1waHQnLCAnMi4wJywgJy1waCcsICc3LjAnLCAnLXRuJywgJzgnLCAnLW1hJywgJzIwMCcsICctaW1hZScsICc8aW5maWxlLm1hZT4nLCAnLW9tYWUnLCAnPG91dGZpbGUubWFlPic=

>  <r_lp_tautomer_probability>  (247) 
1

>  <r_epik_Ionization_Penalty>  (247) 
1.20376e-13

>  <r_epik_Ionization_Penalty_Charging>  (247) 
0

>  <r_epik_Ionization_Penalty_Neutral>  (247) 
1.20376e-13

>  <r_epik_State_Penalty>  (247) 
-0

>  <r_epik_Charging_Adjusted_Penalty>  (247) 
0

>  <i_epik_Tot_Q>  (247) 
0

>  <i_epik_Tot_abs_Q>  (247) 
0

>  <s_epik_Chemistry_Notes>  (247) 
This compound contains an acetal/aminal-like group ( X-CH(R)-Y where X, Y are N, S, or O) that may be acid/base labile, releasing an aldehyde.

>  <s_lp_Force_Field>  (247) 
OPLS3e

>  <r_lp_Energy>  (247) 
19.8739

>  <b_lp_Chiralities_Consistent>  (247) 
1

>  <s_lp_Variant>  (247) 
67:0-1

>  <s_i_glide_gridfile>  (247) 
pfpi4k_grid

>  <i_i_glide_lignum>  (247) 
13

>  <i_i_glide_rotatable_bonds>  (247) 
0

>  <r_i_docking_score>  (247) 
-3.35877

>  <r_i_glide_ligand_efficiency>  (247) 
-0.186598

>  <r_i_glide_ligand_efficiency_sa>  (247) 
-0.489026

>  <r_i_glide_ligand_efficiency_ln>  (247) 
-0.863355

>  <r_i_glide_gscore>  (247) 
-3.35877

>  <r_i_glide_lipo>  (247) 
-0.463521

>  <r_i_glide_hbond>  (247) 
-0.00101336

>  <r_i_glide_metal>  (247) 
-0

>  <r_i_glide_rewards>  (247) 
-1.7522

>  <r_i_glide_evdw>  (247) 
-18.211

>  <r_i_glide_ecoul>  (247) 
-1.24331

>  <r_i_glide_erotb>  (247) 
0

>  <r_i_glide_esite>  (247) 
-0.0449893

>  <r_i_glide_emodel>  (247) 
-24.1017

>  <r_i_glide_energy>  (247) 
-19.4543

>  <r_i_glide_einternal>  (247) 
0

>  <r_i_glide_intrahb_reward>  (247) 
-0

>  <i_i_glide_confnum>  (247) 
2

>  <i_i_glide_posenum>  (247) 
31

>  <r_i_glide_eff_state_penalty>  (247) 
0

>  <ligand_id>  (247) 
67

>  <original_smiles>  (247) 
O=C1c2ccccc2C(=O)C2OC3OC3CCC12

>  <smiles>  (247) 
[H]c1c([H])c([H])c2c(c1[H])C(=O)C1([H])OC3([H])OC3([H])C([H])([H])C([H])([H])C1([H])C2=O

$$$$
67:0:2
     RDKit          3D

 30 33  0  0  1  0  0  0  0  0999 V2000
    5.4716   -0.7390   -0.2261 O   0  0  0  0  0  0  0  0  0  0  0  0
    5.3138   -1.5727   -1.1184 C   0  0  0  0  0  0  0  0  0  0  0  0
    4.5969   -1.3194   -2.3836 C   0  0  0  0  0  0  0  0  0  0  0  0
    4.1867   -0.0413   -2.7467 C   0  0  0  0  0  0  0  0  0  0  0  0
    3.5758    0.2774   -3.9705 C   0  0  0  0  0  0  0  0  0  0  0  0
    3.2785   -0.7674   -4.8265 C   0  0  0  0  0  0  0  0  0  0  0  0
    3.5253   -2.0852   -4.3962 C   0  0  0  0  0  0  0  0  0  0  0  0
    4.2394   -2.3608   -3.2471 C   0  0  0  0  0  0  0  0  0  0  0  0
    4.6410   -3.7500   -3.0053 C   0  0  0  0  0  0  0  0  0  0  0  0
    4.6891   -4.5627   -3.9146 O   0  0  0  0  0  0  0  0  0  0  0  0
    5.0571   -4.0454   -1.5593 C   0  0  2  0  0  0  0  0  0  0  0  0
    3.8968   -4.1540   -0.7598 O   0  0  0  0  0  0  0  0  0  0  0  0
    4.0124   -5.1767    0.2071 C   0  0  2  0  0  0  0  0  0  0  0  0
    3.5800   -4.8452    1.5067 O   0  0  0  0  0  0  0  0  0  0  0  0
    4.9847   -4.8671    1.2812 C   0  0  2  0  0  0  0  0  0  0  0  0
    5.6731   -3.5227    1.4629 C   0  0  0  0  0  0  0  0  0  0  0  0
    6.6548   -3.2372    0.3293 C   0  0  0  0  0  0  0  0  0  0  0  0
    5.9939   -2.9417   -1.0266 C   0  0  2  0  0  0  0  0  0  0  0  0
    4.2237    0.7342   -2.0408 H   0  0  0  0  0  0  0  0  0  0  0  0
    3.1913    1.2510   -4.2312 H   0  0  0  0  0  0  0  0  0  0  0  0
    2.7673   -0.4815   -5.7480 H   0  0  0  0  0  0  0  0  0  0  0  0
    3.2117   -2.9280   -5.0119 H   0  0  0  0  0  0  0  0  0  0  0  0
    5.5593   -5.0103   -1.5483 H   0  0  0  0  0  0  0  0  0  0  0  0
    3.8213   -6.2081   -0.1116 H   0  0  0  0  0  0  0  0  0  0  0  0
    5.5112   -5.7068    1.7401 H   0  0  0  0  0  0  0  0  0  0  0  0
    4.9150   -2.7431    1.5450 H   0  0  0  0  0  0  0  0  0  0  0  0
    6.2062   -3.5293    2.4068 H   0  0  0  0  0  0  0  0  0  0  0  0
    7.2835   -2.3871    0.5989 H   0  0  0  0  0  0  0  0  0  0  0  0
    7.3269   -4.0822    0.2004 H   0  0  0  0  0  0  0  0  0  0  0  0
    6.7993   -2.8584   -1.7552 H   0  0  0  0  0  0  0  0  0  0  0  0
  1  2  2  0
  2 18  1  0
  2  3  1  0
  3  8  2  0
  3  4  1  0
  4  5  2  0
  4 19  1  0
  5  6  1  0
  5 20  1  0
  6  7  2  0
  6 21  1  0
  7  8  1  0
  7 22  1  0
  8  9  1  0
  9 10  2  0
  9 11  1  0
 11 18  1  0
 11 12  1  0
 11 23  1  6
 12 13  1  0
 13 15  1  0
 13 14  1  0
 13 24  1  6
 14 15  1  0
 15 16  1  0
 15 25  1  1
 16 17  1  0
 16 26  1  0
 16 27  1  0
 17 18  1  0
 17 28  1  0
 17 29  1  0
 18 30  1  6
M  END
>  <i_m_ct_stereo_status>  (248) 
1

>  <s_m_source_file>  (248) 
/var/tmp/pbs.5076255.sched01/tmp361ftg5n/90jpawypyp.sdf

>  <i_m_source_file_index>  (248) 
13

>  <i_lp_mmshare_version>  (248) 
48012

>  <i_f3d_flags>  (248) 
0

>  <s_epik_input>  (248) 
TzFbQ0BIXShPMilbQ0BIXTJbQ0gyXVtDSDJdW0NASF0oQzM9TylbQ0BASF0xQyg9TyljKGMzNClbY0hdW2NIXVtjSF1bY0hdNA==

>  <s_epik_cmdline>  (248) 
J2VwaWtfcHl0aG9uJywgJy1waHQnLCAnMi4wJywgJy1waCcsICc3LjAnLCAnLXRuJywgJzgnLCAnLW1hJywgJzIwMCcsICctaW1hZScsICc8aW5maWxlLm1hZT4nLCAnLW9tYWUnLCAnPG91dGZpbGUubWFlPic=

>  <r_lp_tautomer_probability>  (248) 
1

>  <r_epik_Ionization_Penalty>  (248) 
1.20376e-13

>  <r_epik_Ionization_Penalty_Charging>  (248) 
0

>  <r_epik_Ionization_Penalty_Neutral>  (248) 
1.20376e-13

>  <r_epik_State_Penalty>  (248) 
-0

>  <r_epik_Charging_Adjusted_Penalty>  (248) 
0

>  <i_epik_Tot_Q>  (248) 
0

>  <i_epik_Tot_abs_Q>  (248) 
0

>  <s_epik_Chemistry_Notes>  (248) 
This compound contains an acetal/aminal-like group ( X-CH(R)-Y where X, Y are N, S, or O) that may be acid/base labile, releasing an aldehyde.

>  <s_lp_Force_Field>  (248) 
OPLS3e

>  <r_lp_Energy>  (248) 
19.8739

>  <b_lp_Chiralities_Consistent>  (248) 
1

>  <s_lp_Variant>  (248) 
67:0-1

>  <s_i_glide_gridfile>  (248) 
pfpi4k_grid

>  <i_i_glide_lignum>  (248) 
13

>  <i_i_glide_rotatable_bonds>  (248) 
0

>  <r_i_docking_score>  (248) 
-2.74195

>  <r_i_glide_ligand_efficiency>  (248) 
-0.15233

>  <r_i_glide_ligand_efficiency_sa>  (248) 
-0.399218

>  <r_i_glide_ligand_efficiency_ln>  (248) 
-0.704803

>  <r_i_glide_gscore>  (248) 
-2.74195

>  <r_i_glide_lipo>  (248) 
-0.620035

>  <r_i_glide_hbond>  (248) 
0

>  <r_i_glide_metal>  (248) 
-0

>  <r_i_glide_rewards>  (248) 
-1.74804

>  <r_i_glide_evdw>  (248) 
-5.99475

>  <r_i_glide_ecoul>  (248) 
-0.182349

>  <r_i_glide_erotb>  (248) 
0

>  <r_i_glide_esite>  (248) 
-0.0467822

>  <r_i_glide_emodel>  (248) 
-9.37508

>  <r_i_glide_energy>  (248) 
-6.1771

>  <r_i_glide_einternal>  (248) 
0

>  <r_i_glide_intrahb_reward>  (248) 
-0

>  <i_i_glide_confnum>  (248) 
1

>  <i_i_glide_posenum>  (248) 
2

>  <r_i_glide_eff_state_penalty>  (248) 
0

>  <ligand_id>  (248) 
67

>  <original_smiles>  (248) 
O=C1c2ccccc2C(=O)C2OC3OC3CCC12

>  <smiles>  (248) 
[H]c1c([H])c([H])c2c(c1[H])C(=O)C1([H])OC3([H])OC3([H])C([H])([H])C([H])([H])C1([H])C2=O

$$$$
68:0:0
     RDKit          3D

 55 60  0  0  1  0  0  0  0  0999 V2000
    3.8690   -9.2659    3.4516 C   0  0  0  0  0  0  0  0  0  0  0  0
    3.5934   -7.9926    2.6082 C   0  0  0  0  0  0  0  0  0  0  0  0
    2.3143   -8.2930    1.7837 C   0  0  0  0  0  0  0  0  0  0  0  0
    3.3056   -6.8394    3.4013 O   0  0  0  0  0  0  0  0  0  0  0  0
    4.3147   -5.8145    3.2453 C   0  0  1  0  0  0  0  0  0  0  0  0
    4.2328   -5.0613    4.5931 C   0  0  0  0  0  0  0  0  0  0  0  0
    5.6413   -6.6199    2.9116 C   0  0  2  0  0  0  0  0  0  0  0  0
    6.1524   -7.3971    4.1569 C   0  0  0  0  0  0  0  0  0  0  0  0
    7.0090   -5.9808    2.2833 C   0  0  0  0  0  0  0  0  0  0  0  0
    7.1525   -4.7975    1.2385 C   0  0  1  0  0  0  0  0  0  0  0  0
    6.5237   -4.9430    0.0786 O   0  0  0  0  0  0  0  0  0  0  0  0
    5.9981   -3.7835    0.8036 C   0  0  1  0  0  0  0  0  0  0  0  0
    5.1976   -3.8534    2.0561 C   0  0  1  0  0  0  0  0  0  0  0  0
    4.7115   -2.5149    2.6476 C   0  0  0  0  0  0  0  0  0  0  0  0
    4.9263   -1.2792    2.1582 C   0  0  0  0  0  0  0  0  0  0  0  0
    5.6727   -0.9771    0.8880 C   0  0  0  0  0  0  0  0  0  0  0  0
    4.9610   -1.6872   -0.2525 C   0  0  0  0  0  0  0  0  0  0  0  0
    4.3910   -1.0239   -1.1159 O   0  0  0  0  0  0  0  0  0  0  0  0
    4.9942   -3.2382   -0.3081 C   0  0  1  0  0  0  0  0  0  0  0  0
    5.4436   -3.5289   -1.7789 C   0  0  0  0  0  0  0  0  0  0  0  0
    3.5034   -3.8161   -0.1635 C   0  0  0  0  0  0  0  0  0  0  0  0
    2.9759   -4.2915    1.2496 C   0  0  0  0  0  0  0  0  0  0  0  0
    4.1605   -5.0239    1.9052 C   0  0  2  0  0  0  0  0  0  0  0  0
    4.3511   -6.3034    0.9731 C   0  0  0  0  0  0  0  0  0  0  0  0
    4.8437   -7.4341    1.8753 C   0  0  2  0  0  0  0  0  0  0  0  0
    3.3412  -10.1374    3.0632 H   0  0  0  0  0  0  0  0  0  0  0  0
    3.5436   -9.1369    4.4843 H   0  0  0  0  0  0  0  0  0  0  0  0
    4.9167   -9.5603    3.4514 H   0  0  0  0  0  0  0  0  0  0  0  0
    2.5371   -8.8860    0.8961 H   0  0  0  0  0  0  0  0  0  0  0  0
    1.7839   -7.3902    1.4836 H   0  0  0  0  0  0  0  0  0  0  0  0
    1.5903   -8.8539    2.3745 H   0  0  0  0  0  0  0  0  0  0  0  0
    5.0932   -4.4347    4.8176 H   0  0  0  0  0  0  0  0  0  0  0  0
    4.1482   -5.7717    5.4152 H   0  0  0  0  0  0  0  0  0  0  0  0
    3.3319   -4.4497    4.6302 H   0  0  0  0  0  0  0  0  0  0  0  0
    6.7603   -8.2554    3.8652 H   0  0  0  0  0  0  0  0  0  0  0  0
    5.3566   -7.7391    4.8130 H   0  0  0  0  0  0  0  0  0  0  0  0
    6.7763   -6.7659    4.7926 H   0  0  0  0  0  0  0  0  0  0  0  0
    7.6169   -5.6439    3.1243 H   0  0  0  0  0  0  0  0  0  0  0  0
    7.5893   -6.8071    1.8711 H   0  0  0  0  0  0  0  0  0  0  0  0
    8.1725   -4.4370    1.1277 H   0  0  0  0  0  0  0  0  0  0  0  0
    5.8690   -3.9988    2.8952 H   0  0  0  0  0  0  0  0  0  0  0  0
    4.1587   -2.5883    3.5715 H   0  0  0  0  0  0  0  0  0  0  0  0
    4.5355   -0.4238    2.6923 H   0  0  0  0  0  0  0  0  0  0  0  0
    5.6697    0.0986    0.7118 H   0  0  0  0  0  0  0  0  0  0  0  0
    6.7089   -1.2948    0.9617 H   0  0  0  0  0  0  0  0  0  0  0  0
    5.3934   -4.5960   -2.0073 H   0  0  0  0  0  0  0  0  0  0  0  0
    6.4610   -3.1830   -1.9844 H   0  0  0  0  0  0  0  0  0  0  0  0
    4.7741   -3.0567   -2.5031 H   0  0  0  0  0  0  0  0  0  0  0  0
    2.7865   -3.1030   -0.5645 H   0  0  0  0  0  0  0  0  0  0  0  0
    3.4174   -4.6608   -0.8437 H   0  0  0  0  0  0  0  0  0  0  0  0
    2.5951   -3.4556    1.8322 H   0  0  0  0  0  0  0  0  0  0  0  0
    2.1079   -4.9424    1.1332 H   0  0  0  0  0  0  0  0  0  0  0  0
    3.4120   -6.5666    0.5026 H   0  0  0  0  0  0  0  0  0  0  0  0
    4.9019   -6.2711    0.0526 H   0  0  0  0  0  0  0  0  0  0  0  0
    5.4164   -8.1919    1.3412 H   0  0  0  0  0  0  0  0  0  0  0  0
  1  2  1  0
  1 26  1  0
  1 27  1  0
  1 28  1  0
  2 25  1  0
  2  3  1  0
  2  4  1  0
  3 29  1  0
  3 30  1  0
  3 31  1  0
  4  5  1  0
  5 23  1  0
  5  6  1  1
  5  7  1  0
  6 32  1  0
  6 33  1  0
  6 34  1  0
  7 25  1  0
  7  8  1  1
  7  9  1  0
  8 35  1  0
  8 36  1  0
  8 37  1  0
  9 10  1  0
  9 38  1  0
  9 39  1  0
 10 12  1  0
 10 11  1  0
 10 40  1  6
 12 11  1  6
 12 19  1  0
 12 13  1  0
 13 23  1  0
 13 14  1  0
 13 41  1  1
 14 15  2  0
 14 42  1  0
 15 16  1  0
 15 43  1  0
 16 17  1  0
 16 44  1  0
 16 45  1  0
 17 18  2  0
 17 19  1  0
 19 20  1  6
 19 21  1  0
 20 46  1  0
 20 47  1  0
 20 48  1  0
 21 22  1  0
 21 49  1  0
 21 50  1  0
 23 22  1  1
 22 51  1  0
 22 52  1  0
 23 24  1  0
 24 25  1  0
 24 53  1  0
 24 54  1  0
 25 55  1  6
M  END
>  <i_m_ct_stereo_status>  (249) 
1

>  <s_m_source_file>  (249) 
/var/tmp/pbs.5076255.sched01/tmp361ftg5n/90jpawypyp.sdf

>  <i_m_source_file_index>  (249) 
14

>  <i_lp_mmshare_version>  (249) 
48012

>  <i_f3d_flags>  (249) 
0

>  <s_epik_input>  (249) 
TzFbQ0BASF0oQzEyMylbQ0gyXVtDQEBdNChbQ0gzXSlbQ0BAXTUoW0NIM10pW0NAXTYoW0NIMl1bQ0BASF00QyhPNSkoW0NIM10pW0NIM10pW0NAQEhdMltDSF09W0NIXVtDSDJdQyg9TylbQ0BdMyhbQ0gzXSlbQ0gyXVtDSDJdNg==

>  <s_epik_cmdline>  (249) 
J2VwaWtfcHl0aG9uJywgJy1waHQnLCAnMi4wJywgJy1waCcsICc3LjAnLCAnLXRuJywgJzgnLCAnLW1hJywgJzIwMCcsICctaW1hZScsICc8aW5maWxlLm1hZT4nLCAnLW9tYWUnLCAnPG91dGZpbGUubWFlPic=

>  <r_lp_tautomer_probability>  (249) 
1

>  <r_epik_Ionization_Penalty>  (249) 
3.51779e-11

>  <r_epik_Ionization_Penalty_Charging>  (249) 
0

>  <r_epik_Ionization_Penalty_Neutral>  (249) 
3.51779e-11

>  <r_epik_State_Penalty>  (249) 
-0

>  <r_epik_Charging_Adjusted_Penalty>  (249) 
0

>  <i_epik_Tot_Q>  (249) 
0

>  <i_epik_Tot_abs_Q>  (249) 
0

>  <s_lp_Force_Field>  (249) 
OPLS3e

>  <r_lp_Energy>  (249) 
176.473

>  <b_lp_Chiralities_Consistent>  (249) 
1

>  <s_lp_Variant>  (249) 
68:0-1

>  <s_i_glide_gridfile>  (249) 
pfpi4k_grid

>  <i_i_glide_lignum>  (249) 
14

>  <i_i_glide_rotatable_bonds>  (249) 
0

>  <r_i_docking_score>  (249) 
-3.15167

>  <r_i_glide_ligand_efficiency>  (249) 
-0.126067

>  <r_i_glide_ligand_efficiency_sa>  (249) 
-0.368622

>  <r_i_glide_ligand_efficiency_ln>  (249) 
-0.747041

>  <r_i_glide_gscore>  (249) 
-3.15167

>  <r_i_glide_lipo>  (249) 
-0.804134

>  <r_i_glide_hbond>  (249) 
0

>  <r_i_glide_metal>  (249) 
-0

>  <r_i_glide_rewards>  (249) 
-1.07406

>  <r_i_glide_evdw>  (249) 
-24.955

>  <r_i_glide_ecoul>  (249) 
-0.0823486

>  <r_i_glide_erotb>  (249) 
0

>  <r_i_glide_esite>  (249) 
-0.0133846

>  <r_i_glide_emodel>  (249) 
-29.8994

>  <r_i_glide_energy>  (249) 
-25.0373

>  <r_i_glide_einternal>  (249) 
0

>  <r_i_glide_intrahb_reward>  (249) 
-0

>  <i_i_glide_confnum>  (249) 
1

>  <i_i_glide_posenum>  (249) 
10

>  <r_i_glide_eff_state_penalty>  (249) 
0

>  <ligand_id>  (249) 
68

>  <original_smiles>  (249) 
CC1(C)OC2(C)C3(C)CC4OC45C4C=CCC(=O)C5(C)CCC42CC13

>  <smiles>  (249) 
[H]C1=C([H])C2([H])C34OC3([H])C([H])([H])C3(C([H])([H])[H])C5([H])C([H])([H])C2(C([H])([H])C([H])([H])C4(C([H])([H])[H])C(=O)C1([H])[H])C3(C([H])([H])[H])OC5(C([H])([H])[H])C([H])([H])[H]

$$$$
68:0:1
     RDKit          3D

 55 60  0  0  1  0  0  0  0  0999 V2000
    4.8515   -3.1730   -3.1533 C   0  0  0  0  0  0  0  0  0  0  0  0
    4.0768   -3.0429   -1.8209 C   0  0  0  0  0  0  0  0  0  0  0  0
    2.5779   -3.0434   -2.2078 C   0  0  0  0  0  0  0  0  0  0  0  0
    4.2842   -4.1423   -0.9329 O   0  0  0  0  0  0  0  0  0  0  0  0
    4.9471   -3.7404    0.2866 C   0  0  1  0  0  0  0  0  0  0  0  0
    5.6621   -5.0420    0.7092 C   0  0  0  0  0  0  0  0  0  0  0  0
    5.8290   -2.4979   -0.1560 C   0  0  2  0  0  0  0  0  0  0  0  0
    7.0169   -2.9455   -1.0431 C   0  0  0  0  0  0  0  0  0  0  0  0
    6.4848   -1.4125    0.8660 C   0  0  0  0  0  0  0  0  0  0  0  0
    5.9062   -0.8576    2.2353 C   0  0  1  0  0  0  0  0  0  0  0  0
    4.7250   -0.2527    2.2152 O   0  0  0  0  0  0  0  0  0  0  0  0
    4.6936   -1.4682    3.0660 C   0  0  1  0  0  0  0  0  0  0  0  0
    4.8414   -2.8691    2.5814 C   0  0  1  0  0  0  0  0  0  0  0  0
    4.7594   -3.9886    3.6399 C   0  0  0  0  0  0  0  0  0  0  0  0
    4.5818   -3.8526    4.9575 C   0  0  0  0  0  0  0  0  0  0  0  0
    4.3962   -2.5391    5.6676 C   0  0  0  0  0  0  0  0  0  0  0  0
    3.1610   -1.8747    5.0738 C   0  0  0  0  0  0  0  0  0  0  0  0
    2.1395   -1.7595    5.7631 O   0  0  0  0  0  0  0  0  0  0  0  0
    3.2174   -1.3560    3.6085 C   0  0  1  0  0  0  0  0  0  0  0  0
    2.7057    0.1119    3.7202 C   0  0  0  0  0  0  0  0  0  0  0  0
    2.1465   -2.1445    2.7038 C   0  0  0  0  0  0  0  0  0  0  0  0
    2.6176   -3.4031    1.8671 C   0  0  0  0  0  0  0  0  0  0  0  0
    3.9833   -3.0234    1.2790 C   0  0  2  0  0  0  0  0  0  0  0  0
    3.6298   -1.8372    0.2816 C   0  0  0  0  0  0  0  0  0  0  0  0
    4.6037   -1.9201   -0.8858 C   0  0  2  0  0  0  0  0  0  0  0  0
    4.2326   -2.9218   -4.0170 H   0  0  0  0  0  0  0  0  0  0  0  0
    5.2048   -4.1925   -3.3076 H   0  0  0  0  0  0  0  0  0  0  0  0
    5.7014   -2.5007   -3.2141 H   0  0  0  0  0  0  0  0  0  0  0  0
    2.2454   -2.0657   -2.5410 H   0  0  0  0  0  0  0  0  0  0  0  0
    1.9349   -3.3750   -1.3936 H   0  0  0  0  0  0  0  0  0  0  0  0
    2.3749   -3.7565   -3.0145 H   0  0  0  0  0  0  0  0  0  0  0  0
    6.4554   -4.9058    1.4412 H   0  0  0  0  0  0  0  0  0  0  0  0
    6.1153   -5.5195   -0.1573 H   0  0  0  0  0  0  0  0  0  0  0  0
    4.9395   -5.7575    1.0978 H   0  0  0  0  0  0  0  0  0  0  0  0
    7.3617   -2.1479   -1.6979 H   0  0  0  0  0  0  0  0  0  0  0  0
    6.7865   -3.8055   -1.6639 H   0  0  0  0  0  0  0  0  0  0  0  0
    7.8726   -3.2599   -0.4455 H   0  0  0  0  0  0  0  0  0  0  0  0
    7.4611   -1.8133    1.1490 H   0  0  0  0  0  0  0  0  0  0  0  0
    6.7409   -0.5250    0.2789 H   0  0  0  0  0  0  0  0  0  0  0  0
    6.6321   -0.3304    2.8287 H   0  0  0  0  0  0  0  0  0  0  0  0
    5.8859   -3.0832    2.4172 H   0  0  0  0  0  0  0  0  0  0  0  0
    4.8826   -4.9931    3.2596 H   0  0  0  0  0  0  0  0  0  0  0  0
    4.5595   -4.7306    5.5900 H   0  0  0  0  0  0  0  0  0  0  0  0
    4.2465   -2.7129    6.7241 H   0  0  0  0  0  0  0  0  0  0  0  0
    5.2778   -1.9094    5.5566 H   0  0  0  0  0  0  0  0  0  0  0  0
    2.5731    0.5792    2.7380 H   0  0  0  0  0  0  0  0  0  0  0  0
    3.3784    0.7506    4.3028 H   0  0  0  0  0  0  0  0  0  0  0  0
    1.7226    0.1612    4.1831 H   0  0  0  0  0  0  0  0  0  0  0  0
    1.3257   -2.4679    3.3299 H   0  0  0  0  0  0  0  0  0  0  0  0
    1.6954   -1.4200    2.0094 H   0  0  0  0  0  0  0  0  0  0  0  0
    2.6281   -4.3068    2.4762 H   0  0  0  0  0  0  0  0  0  0  0  0
    1.8902   -3.6278    1.0900 H   0  0  0  0  0  0  0  0  0  0  0  0
    2.6146   -1.9400   -0.0641 H   0  0  0  0  0  0  0  0  0  0  0  0
    3.5052   -0.8239    0.6077 H   0  0  0  0  0  0  0  0  0  0  0  0
    4.7617   -0.9627   -1.3848 H   0  0  0  0  0  0  0  0  0  0  0  0
  1  2  1  0
  1 26  1  0
  1 27  1  0
  1 28  1  0
  2 25  1  0
  2  3  1  0
  2  4  1  0
  3 29  1  0
  3 30  1  0
  3 31  1  0
  4  5  1  0
  5 23  1  0
  5  6  1  1
  5  7  1  0
  6 32  1  0
  6 33  1  0
  6 34  1  0
  7 25  1  0
  7  8  1  6
  7  9  1  0
  8 35  1  0
  8 36  1  0
  8 37  1  0
  9 10  1  0
  9 38  1  0
  9 39  1  0
 10 12  1  0
 10 11  1  0
 10 40  1  1
 12 11  1  6
 12 19  1  0
 12 13  1  0
 13 23  1  0
 13 14  1  0
 13 41  1  6
 14 15  2  0
 14 42  1  0
 15 16  1  0
 15 43  1  0
 16 17  1  0
 16 44  1  0
 16 45  1  0
 17 18  2  0
 17 19  1  0
 19 20  1  1
 19 21  1  0
 20 46  1  0
 20 47  1  0
 20 48  1  0
 21 22  1  0
 21 49  1  0
 21 50  1  0
 23 22  1  1
 22 51  1  0
 22 52  1  0
 23 24  1  0
 24 25  1  0
 24 53  1  0
 24 54  1  0
 25 55  1  6
M  END
>  <i_m_ct_stereo_status>  (250) 
1

>  <s_m_source_file>  (250) 
/var/tmp/pbs.5076255.sched01/tmp361ftg5n/90jpawypyp.sdf

>  <i_m_source_file_index>  (250) 
14

>  <i_lp_mmshare_version>  (250) 
48012

>  <i_f3d_flags>  (250) 
0

>  <s_epik_input>  (250) 
TzFbQ0BASF0oQzEyMylbQ0gyXVtDQEBdNChbQ0gzXSlbQ0BAXTUoW0NIM10pW0NAXTYoW0NIMl1bQ0BASF00QyhPNSkoW0NIM10pW0NIM10pW0NAQEhdMltDSF09W0NIXVtDSDJdQyg9TylbQ0BdMyhbQ0gzXSlbQ0gyXVtDSDJdNg==

>  <s_epik_cmdline>  (250) 
J2VwaWtfcHl0aG9uJywgJy1waHQnLCAnMi4wJywgJy1waCcsICc3LjAnLCAnLXRuJywgJzgnLCAnLW1hJywgJzIwMCcsICctaW1hZScsICc8aW5maWxlLm1hZT4nLCAnLW9tYWUnLCAnPG91dGZpbGUubWFlPic=

>  <r_lp_tautomer_probability>  (250) 
1

>  <r_epik_Ionization_Penalty>  (250) 
3.51779e-11

>  <r_epik_Ionization_Penalty_Charging>  (250) 
0

>  <r_epik_Ionization_Penalty_Neutral>  (250) 
3.51779e-11

>  <r_epik_State_Penalty>  (250) 
-0

>  <r_epik_Charging_Adjusted_Penalty>  (250) 
0

>  <i_epik_Tot_Q>  (250) 
0

>  <i_epik_Tot_abs_Q>  (250) 
0

>  <s_lp_Force_Field>  (250) 
OPLS3e

>  <r_lp_Energy>  (250) 
176.473

>  <b_lp_Chiralities_Consistent>  (250) 
1

>  <s_lp_Variant>  (250) 
68:0-1

>  <s_i_glide_gridfile>  (250) 
pfpi4k_grid

>  <i_i_glide_lignum>  (250) 
14

>  <i_i_glide_rotatable_bonds>  (250) 
0

>  <r_i_docking_score>  (250) 
-2.87752

>  <r_i_glide_ligand_efficiency>  (250) 
-0.115101

>  <r_i_glide_ligand_efficiency_sa>  (250) 
-0.336557

>  <r_i_glide_ligand_efficiency_ln>  (250) 
-0.682059

>  <r_i_glide_gscore>  (250) 
-2.87752

>  <r_i_glide_lipo>  (250) 
-0.592155

>  <r_i_glide_hbond>  (250) 
-0.0218907

>  <r_i_glide_metal>  (250) 
-0

>  <r_i_glide_rewards>  (250) 
-1.07406

>  <r_i_glide_evdw>  (250) 
-26.2393

>  <r_i_glide_ecoul>  (250) 
0.81699

>  <r_i_glide_erotb>  (250) 
0

>  <r_i_glide_esite>  (250) 
0

>  <r_i_glide_emodel>  (250) 
-29.8279

>  <r_i_glide_energy>  (250) 
-25.4224

>  <r_i_glide_einternal>  (250) 
0

>  <r_i_glide_intrahb_reward>  (250) 
-0

>  <i_i_glide_confnum>  (250) 
1

>  <i_i_glide_posenum>  (250) 
11

>  <r_i_glide_eff_state_penalty>  (250) 
0

>  <ligand_id>  (250) 
68

>  <original_smiles>  (250) 
CC1(C)OC2(C)C3(C)CC4OC45C4C=CCC(=O)C5(C)CCC42CC13

>  <smiles>  (250) 
[H]C1=C([H])C2([H])C34OC3([H])C([H])([H])C3(C([H])([H])[H])C5([H])C([H])([H])C2(C([H])([H])C([H])([H])C4(C([H])([H])[H])C(=O)C1([H])[H])C3(C([H])([H])[H])OC5(C([H])([H])[H])C([H])([H])[H]

$$$$
68:0:2
     RDKit          3D

 55 60  0  0  1  0  0  0  0  0999 V2000
    4.6123   -0.7992   -2.1243 C   0  0  0  0  0  0  0  0  0  0  0  0
    4.4504   -2.2445   -1.6024 C   0  0  0  0  0  0  0  0  0  0  0  0
    3.9464   -3.0729   -2.8083 C   0  0  0  0  0  0  0  0  0  0  0  0
    5.6838   -2.8292   -1.1857 O   0  0  0  0  0  0  0  0  0  0  0  0
    5.6808   -3.1315    0.2301 C   0  0  1  0  0  0  0  0  0  0  0  0
    7.1849   -3.0786    0.5692 C   0  0  0  0  0  0  0  0  0  0  0  0
    4.7213   -2.0327    0.8592 C   0  0  2  0  0  0  0  0  0  0  0  0
    5.3761   -0.6257    0.8140 C   0  0  0  0  0  0  0  0  0  0  0  0
    4.0486   -2.0893    2.3502 C   0  0  0  0  0  0  0  0  0  0  0  0
    3.5467   -3.3556    3.1650 C   0  0  1  0  0  0  0  0  0  0  0  0
    2.6196   -4.1297    2.6014 O   0  0  0  0  0  0  0  0  0  0  0  0
    3.8710   -4.8752    2.8215 C   0  0  1  0  0  0  0  0  0  0  0  0
    5.1662   -4.6383    2.1139 C   0  0  1  0  0  0  0  0  0  0  0  0
    6.3440   -5.5634    2.4763 C   0  0  0  0  0  0  0  0  0  0  0  0
    6.3515   -6.5708    3.3639 C   0  0  0  0  0  0  0  0  0  0  0  0
    5.1589   -7.0097    4.1698 C   0  0  0  0  0  0  0  0  0  0  0  0
    4.0620   -7.4090    3.1950 C   0  0  0  0  0  0  0  0  0  0  0  0
    3.7433   -8.5966    3.0974 O   0  0  0  0  0  0  0  0  0  0  0  0
    3.3821   -6.3105    2.3367 C   0  0  1  0  0  0  0  0  0  0  0  0
    1.8527   -6.5700    2.5504 C   0  0  0  0  0  0  0  0  0  0  0  0
    3.6788   -6.5868    0.7857 C   0  0  0  0  0  0  0  0  0  0  0  0
    4.8749   -5.8464    0.0647 C   0  0  0  0  0  0  0  0  0  0  0  0
    4.8518   -4.4053    0.5904 C   0  0  2  0  0  0  0  0  0  0  0  0
    3.4802   -3.8359    0.0198 C   0  0  0  0  0  0  0  0  0  0  0  0
    3.6995   -2.3499   -0.2470 C   0  0  2  0  0  0  0  0  0  0  0  0
    4.0619   -0.6236   -3.0490 H   0  0  0  0  0  0  0  0  0  0  0  0
    5.6570   -0.5658   -2.3188 H   0  0  0  0  0  0  0  0  0  0  0  0
    4.2168   -0.0676   -1.4268 H   0  0  0  0  0  0  0  0  0  0  0  0
    2.8682   -2.9707   -2.9439 H   0  0  0  0  0  0  0  0  0  0  0  0
    4.1951   -4.1297   -2.7134 H   0  0  0  0  0  0  0  0  0  0  0  0
    4.4293   -2.7609   -3.7343 H   0  0  0  0  0  0  0  0  0  0  0  0
    7.3922   -2.9988    1.6319 H   0  0  0  0  0  0  0  0  0  0  0  0
    7.6562   -2.2190    0.0935 H   0  0  0  0  0  0  0  0  0  0  0  0
    7.6949   -3.9607    0.1823 H   0  0  0  0  0  0  0  0  0  0  0  0
    4.6196    0.1609    0.8189 H   0  0  0  0  0  0  0  0  0  0  0  0
    6.0252   -0.4739   -0.0424 H   0  0  0  0  0  0  0  0  0  0  0  0
    6.0195   -0.4572    1.6781 H   0  0  0  0  0  0  0  0  0  0  0  0
    4.7672   -1.6328    3.0324 H   0  0  0  0  0  0  0  0  0  0  0  0
    3.2153   -1.3868    2.3507 H   0  0  0  0  0  0  0  0  0  0  0  0
    3.3398   -3.1428    4.2111 H   0  0  0  0  0  0  0  0  0  0  0  0
    5.6679   -3.7907    2.5710 H   0  0  0  0  0  0  0  0  0  0  0  0
    7.2741   -5.3606    1.9652 H   0  0  0  0  0  0  0  0  0  0  0  0
    7.2617   -7.1291    3.5254 H   0  0  0  0  0  0  0  0  0  0  0  0
    5.4310   -7.8625    4.7904 H   0  0  0  0  0  0  0  0  0  0  0  0
    4.8223   -6.2142    4.8320 H   0  0  0  0  0  0  0  0  0  0  0  0
    1.2401   -5.9405    1.9036 H   0  0  0  0  0  0  0  0  0  0  0  0
    1.5467   -6.3948    3.5845 H   0  0  0  0  0  0  0  0  0  0  0  0
    1.5803   -7.5972    2.2891 H   0  0  0  0  0  0  0  0  0  0  0  0
    3.8041   -7.6556    0.6138 H   0  0  0  0  0  0  0  0  0  0  0  0
    2.7753   -6.3377    0.2319 H   0  0  0  0  0  0  0  0  0  0  0  0
    5.8212   -6.3583    0.2235 H   0  0  0  0  0  0  0  0  0  0  0  0
    4.7440   -5.8865   -1.0182 H   0  0  0  0  0  0  0  0  0  0  0  0
    3.2083   -4.3484   -0.8932 H   0  0  0  0  0  0  0  0  0  0  0  0
    2.5406   -4.0093    0.5075 H   0  0  0  0  0  0  0  0  0  0  0  0
    2.7790   -1.7697   -0.1998 H   0  0  0  0  0  0  0  0  0  0  0  0
  1  2  1  0
  1 26  1  0
  1 27  1  0
  1 28  1  0
  2 25  1  0
  2  3  1  0
  2  4  1  0
  3 29  1  0
  3 30  1  0
  3 31  1  0
  4  5  1  0
  5 23  1  0
  5  6  1  1
  5  7  1  0
  6 32  1  0
  6 33  1  0
  6 34  1  0
  7 25  1  0
  7  8  1  6
  7  9  1  0
  8 35  1  0
  8 36  1  0
  8 37  1  0
  9 10  1  0
  9 38  1  0
  9 39  1  0
 10 12  1  0
 10 11  1  0
 10 40  1  1
 12 11  1  6
 12 19  1  0
 12 13  1  0
 13 23  1  0
 13 14  1  0
 13 41  1  1
 14 15  2  0
 14 42  1  0
 15 16  1  0
 15 43  1  0
 16 17  1  0
 16 44  1  0
 16 45  1  0
 17 18  2  0
 17 19  1  0
 19 20  1  6
 19 21  1  0
 20 46  1  0
 20 47  1  0
 20 48  1  0
 21 22  1  0
 21 49  1  0
 21 50  1  0
 23 22  1  6
 22 51  1  0
 22 52  1  0
 23 24  1  0
 24 25  1  0
 24 53  1  0
 24 54  1  0
 25 55  1  6
M  END
>  <i_m_ct_stereo_status>  (251) 
1

>  <s_m_source_file>  (251) 
/var/tmp/pbs.5076255.sched01/tmp361ftg5n/90jpawypyp.sdf

>  <i_m_source_file_index>  (251) 
14

>  <i_lp_mmshare_version>  (251) 
48012

>  <i_f3d_flags>  (251) 
0

>  <s_epik_input>  (251) 
TzFbQ0BASF0oQzEyMylbQ0gyXVtDQEBdNChbQ0gzXSlbQ0BAXTUoW0NIM10pW0NAXTYoW0NIMl1bQ0BASF00QyhPNSkoW0NIM10pW0NIM10pW0NAQEhdMltDSF09W0NIXVtDSDJdQyg9TylbQ0BdMyhbQ0gzXSlbQ0gyXVtDSDJdNg==

>  <s_epik_cmdline>  (251) 
J2VwaWtfcHl0aG9uJywgJy1waHQnLCAnMi4wJywgJy1waCcsICc3LjAnLCAnLXRuJywgJzgnLCAnLW1hJywgJzIwMCcsICctaW1hZScsICc8aW5maWxlLm1hZT4nLCAnLW9tYWUnLCAnPG91dGZpbGUubWFlPic=

>  <r_lp_tautomer_probability>  (251) 
1

>  <r_epik_Ionization_Penalty>  (251) 
3.51779e-11

>  <r_epik_Ionization_Penalty_Charging>  (251) 
0

>  <r_epik_Ionization_Penalty_Neutral>  (251) 
3.51779e-11

>  <r_epik_State_Penalty>  (251) 
-0

>  <r_epik_Charging_Adjusted_Penalty>  (251) 
0

>  <i_epik_Tot_Q>  (251) 
0

>  <i_epik_Tot_abs_Q>  (251) 
0

>  <s_lp_Force_Field>  (251) 
OPLS3e

>  <r_lp_Energy>  (251) 
176.473

>  <b_lp_Chiralities_Consistent>  (251) 
1

>  <s_lp_Variant>  (251) 
68:0-1

>  <s_i_glide_gridfile>  (251) 
pfpi4k_grid

>  <i_i_glide_lignum>  (251) 
14

>  <i_i_glide_rotatable_bonds>  (251) 
0

>  <r_i_docking_score>  (251) 
-2.86897

>  <r_i_glide_ligand_efficiency>  (251) 
-0.114759

>  <r_i_glide_ligand_efficiency_sa>  (251) 
-0.335557

>  <r_i_glide_ligand_efficiency_ln>  (251) 
-0.680032

>  <r_i_glide_gscore>  (251) 
-2.86897

>  <r_i_glide_lipo>  (251) 
-0.552847

>  <r_i_glide_hbond>  (251) 
0

>  <r_i_glide_metal>  (251) 
-0

>  <r_i_glide_rewards>  (251) 
-1.07406

>  <r_i_glide_evdw>  (251) 
-25.0192

>  <r_i_glide_ecoul>  (251) 
0.0596283

>  <r_i_glide_erotb>  (251) 
0

>  <r_i_glide_esite>  (251) 
-5.22052e-05

>  <r_i_glide_emodel>  (251) 
-29.366

>  <r_i_glide_energy>  (251) 
-24.9596

>  <r_i_glide_einternal>  (251) 
0

>  <r_i_glide_intrahb_reward>  (251) 
-0

>  <i_i_glide_confnum>  (251) 
1

>  <i_i_glide_posenum>  (251) 
2

>  <r_i_glide_eff_state_penalty>  (251) 
0

>  <ligand_id>  (251) 
68

>  <original_smiles>  (251) 
CC1(C)OC2(C)C3(C)CC4OC45C4C=CCC(=O)C5(C)CCC42CC13

>  <smiles>  (251) 
[H]C1=C([H])C2([H])C34OC3([H])C([H])([H])C3(C([H])([H])[H])C5([H])C([H])([H])C2(C([H])([H])C([H])([H])C4(C([H])([H])[H])C(=O)C1([H])[H])C3(C([H])([H])[H])OC5(C([H])([H])[H])C([H])([H])[H]

$$$$
68:1:0
     RDKit          3D

 55 60  0  0  1  0  0  0  0  0999 V2000
    2.1134   -8.5014    3.0572 C   0  0  0  0  0  0  0  0  0  0  0  0
    2.2532   -7.1897    2.2431 C   0  0  0  0  0  0  0  0  0  0  0  0
    0.9632   -7.0558    1.3983 C   0  0  0  0  0  0  0  0  0  0  0  0
    2.3171   -6.0291    3.0719 O   0  0  0  0  0  0  0  0  0  0  0  0
    3.6013   -5.3790    2.9652 C   0  0  1  0  0  0  0  0  0  0  0  0
    3.7532   -4.6871    4.3390 C   0  0  0  0  0  0  0  0  0  0  0  0
    4.6212   -6.5421    2.5793 C   0  0  2  0  0  0  0  0  0  0  0  0
    4.8958   -7.4785    3.7822 C   0  0  0  0  0  0  0  0  0  0  0  0
    6.0908   -6.2996    1.9126 C   0  0  0  0  0  0  0  0  0  0  0  0
    6.3210   -5.3898    0.6470 C   0  0  2  0  0  0  0  0  0  0  0  0
    7.1767   -4.2236    0.7259 O   0  0  0  0  0  0  0  0  0  0  0  0
    5.7657   -3.9680    0.6398 C   0  0  2  0  0  0  0  0  0  0  0  0
    5.0541   -3.7313    1.8778 C   0  0  1  0  0  0  0  0  0  0  0  0
    4.9824   -2.2853    2.4053 C   0  0  0  0  0  0  0  0  0  0  0  0
    5.5469   -1.1930    1.8613 C   0  0  0  0  0  0  0  0  0  0  0  0
    6.3896   -1.1764    0.6162 C   0  0  0  0  0  0  0  0  0  0  0  0
    5.5951   -1.7154   -0.5592 C   0  0  0  0  0  0  0  0  0  0  0  0
    5.3945   -1.0022   -1.5392 O   0  0  0  0  0  0  0  0  0  0  0  0
    5.0964   -3.1850   -0.5345 C   0  0  1  0  0  0  0  0  0  0  0  0
    5.4570   -3.7793   -1.9098 C   0  0  0  0  0  0  0  0  0  0  0  0
    3.4939   -3.1830   -0.4197 C   0  0  0  0  0  0  0  0  0  0  0  0
    2.8260   -3.4650    0.9886 C   0  0  0  0  0  0  0  0  0  0  0  0
    3.7089   -4.5227    1.6698 C   0  0  2  0  0  0  0  0  0  0  0  0
    3.5351   -5.7634    0.6731 C   0  0  0  0  0  0  0  0  0  0  0  0
    3.6188   -7.0292    1.5265 C   0  0  2  0  0  0  0  0  0  0  0  0
    1.3213   -9.1450    2.6704 H   0  0  0  0  0  0  0  0  0  0  0  0
    1.8735   -8.2993    4.1016 H   0  0  0  0  0  0  0  0  0  0  0  0
    3.0111   -9.1164    3.0233 H   0  0  0  0  0  0  0  0  0  0  0  0
    1.0040   -7.6769    0.5036 H   0  0  0  0  0  0  0  0  0  0  0  0
    0.7682   -6.0279    1.1054 H   0  0  0  0  0  0  0  0  0  0  0  0
    0.0871   -7.3636    1.9703 H   0  0  0  0  0  0  0  0  0  0  0  0
    4.7658   -4.3731    4.5826 H   0  0  0  0  0  0  0  0  0  0  0  0
    3.4390   -5.3622    5.1338 H   0  0  0  0  0  0  0  0  0  0  0  0
    3.0972   -3.8198    4.3996 H   0  0  0  0  0  0  0  0  0  0  0  0
    5.1940   -8.4752    3.4521 H   0  0  0  0  0  0  0  0  0  0  0  0
    4.0477   -7.5776    4.4559 H   0  0  0  0  0  0  0  0  0  0  0  0
    5.7081   -7.0897    4.3986 H   0  0  0  0  0  0  0  0  0  0  0  0
    6.7937   -5.9724    2.6822 H   0  0  0  0  0  0  0  0  0  0  0  0
    6.4675   -7.2840    1.6251 H   0  0  0  0  0  0  0  0  0  0  0  0
    6.3818   -5.9055   -0.2932 H   0  0  0  0  0  0  0  0  0  0  0  0
    5.6714   -4.1051    2.6816 H   0  0  0  0  0  0  0  0  0  0  0  0
    4.4265   -2.1604    3.3277 H   0  0  0  0  0  0  0  0  0  0  0  0
    5.4323   -0.2395    2.3594 H   0  0  0  0  0  0  0  0  0  0  0  0
    6.6679   -0.1481    0.4099 H   0  0  0  0  0  0  0  0  0  0  0  0
    7.3064   -1.7397    0.7649 H   0  0  0  0  0  0  0  0  0  0  0  0
    5.0915   -4.8045   -2.0165 H   0  0  0  0  0  0  0  0  0  0  0  0
    6.5392   -3.7776   -2.0773 H   0  0  0  0  0  0  0  0  0  0  0  0
    5.0065   -3.2095   -2.7262 H   0  0  0  0  0  0  0  0  0  0  0  0
    3.0895   -2.2446   -0.7873 H   0  0  0  0  0  0  0  0  0  0  0  0
    3.1167   -3.9256   -1.1326 H   0  0  0  0  0  0  0  0  0  0  0  0
    2.7092   -2.5443    1.5580 H   0  0  0  0  0  0  0  0  0  0  0  0
    1.8210   -3.8166    0.8537 H   0  0  0  0  0  0  0  0  0  0  0  0
    2.5908   -5.7282    0.1377 H   0  0  0  0  0  0  0  0  0  0  0  0
    4.1811   -5.8314   -0.1877 H   0  0  0  0  0  0  0  0  0  0  0  0
    3.9253   -7.9133    0.9632 H   0  0  0  0  0  0  0  0  0  0  0  0
  1  2  1  0
  1 26  1  0
  1 27  1  0
  1 28  1  0
  2 25  1  0
  2  3  1  0
  2  4  1  0
  3 29  1  0
  3 30  1  0
  3 31  1  0
  4  5  1  0
  5 23  1  0
  5  6  1  1
  5  7  1  0
  6 32  1  0
  6 33  1  0
  6 34  1  0
  7 25  1  0
  7  8  1  1
  7  9  1  0
  8 35  1  0
  8 36  1  0
  8 37  1  0
  9 10  1  0
  9 38  1  0
  9 39  1  0
 10 12  1  0
 10 11  1  0
 10 40  1  6
 12 11  1  1
 12 19  1  0
 12 13  1  0
 13 23  1  0
 13 14  1  0
 13 41  1  1
 14 15  2  0
 14 42  1  0
 15 16  1  0
 15 43  1  0
 16 17  1  0
 16 44  1  0
 16 45  1  0
 17 18  2  0
 17 19  1  0
 19 20  1  6
 19 21  1  0
 20 46  1  0
 20 47  1  0
 20 48  1  0
 21 22  1  0
 21 49  1  0
 21 50  1  0
 23 22  1  1
 22 51  1  0
 22 52  1  0
 23 24  1  0
 24 25  1  0
 24 53  1  0
 24 54  1  0
 25 55  1  6
M  END
>  <i_m_ct_stereo_status>  (252) 
1

>  <s_m_source_file>  (252) 
/var/tmp/pbs.5076255.sched01/tmp361ftg5n/90jpawypyp.sdf

>  <i_m_source_file_index>  (252) 
15

>  <i_lp_mmshare_version>  (252) 
48012

>  <i_f3d_flags>  (252) 
2

>  <s_epik_input>  (252) 
TzFbQ0BASF0oQzEyMylbQ0gyXVtDQEBdNChbQ0gzXSlbQ0BAXTUoW0NIM10pW0NAXTYoW0NIMl1bQ0BASF00QyhPNSkoW0NIM10pW0NIM10pW0NAQEhdMltDSF09W0NIXVtDSDJdQyg9TylbQ0BdMyhbQ0gzXSlbQ0gyXVtDSDJdNg==

>  <s_epik_cmdline>  (252) 
J2VwaWtfcHl0aG9uJywgJy1waHQnLCAnMi4wJywgJy1waCcsICc3LjAnLCAnLXRuJywgJzgnLCAnLW1hJywgJzIwMCcsICctaW1hZScsICc8aW5maWxlLm1hZT4nLCAnLW9tYWUnLCAnPG91dGZpbGUubWFlPic=

>  <r_lp_tautomer_probability>  (252) 
1

>  <r_epik_Ionization_Penalty>  (252) 
3.51779e-11

>  <r_epik_Ionization_Penalty_Charging>  (252) 
0

>  <r_epik_Ionization_Penalty_Neutral>  (252) 
3.51779e-11

>  <r_epik_State_Penalty>  (252) 
-0

>  <r_epik_Charging_Adjusted_Penalty>  (252) 
0

>  <i_epik_Tot_Q>  (252) 
0

>  <i_epik_Tot_abs_Q>  (252) 
0

>  <s_lp_Force_Field>  (252) 
OPLS3e

>  <r_lp_Energy>  (252) 
132.413

>  <b_lp_Chiralities_Consistent>  (252) 
0

>  <s_lp_Variant>  (252) 
68:0-2

>  <s_i_glide_gridfile>  (252) 
pfpi4k_grid

>  <i_i_glide_lignum>  (252) 
15

>  <i_i_glide_rotatable_bonds>  (252) 
0

>  <r_i_docking_score>  (252) 
-3.15232

>  <r_i_glide_ligand_efficiency>  (252) 
-0.126093

>  <r_i_glide_ligand_efficiency_sa>  (252) 
-0.368697

>  <r_i_glide_ligand_efficiency_ln>  (252) 
-0.747194

>  <r_i_glide_gscore>  (252) 
-3.15232

>  <r_i_glide_lipo>  (252) 
-0.690007

>  <r_i_glide_hbond>  (252) 
-0.00691059

>  <r_i_glide_metal>  (252) 
-0

>  <r_i_glide_rewards>  (252) 
-1.07406

>  <r_i_glide_evdw>  (252) 
-25.1437

>  <r_i_glide_ecoul>  (252) 
-0.589606

>  <r_i_glide_erotb>  (252) 
0

>  <r_i_glide_esite>  (252) 
-0.0357212

>  <r_i_glide_emodel>  (252) 
-30.7287

>  <r_i_glide_energy>  (252) 
-25.7333

>  <r_i_glide_einternal>  (252) 
0

>  <r_i_glide_intrahb_reward>  (252) 
-0

>  <i_i_glide_confnum>  (252) 
1

>  <i_i_glide_posenum>  (252) 
13

>  <r_i_glide_eff_state_penalty>  (252) 
0

>  <ligand_id>  (252) 
68

>  <original_smiles>  (252) 
CC1(C)OC2(C)C3(C)CC4OC45C4C=CCC(=O)C5(C)CCC42CC13

>  <smiles>  (252) 
[H]C1=C([H])C2([H])C34OC3([H])C([H])([H])C3(C([H])([H])[H])C5([H])C([H])([H])C2(C([H])([H])C([H])([H])C4(C([H])([H])[H])C(=O)C1([H])[H])C3(C([H])([H])[H])OC5(C([H])([H])[H])C([H])([H])[H]

$$$$
68:1:1
     RDKit          3D

 55 60  0  0  1  0  0  0  0  0999 V2000
    4.4234   -1.0318   -2.2454 C   0  0  0  0  0  0  0  0  0  0  0  0
    3.9322   -2.2617   -1.4504 C   0  0  0  0  0  0  0  0  0  0  0  0
    2.8403   -2.9223   -2.3233 C   0  0  0  0  0  0  0  0  0  0  0  0
    4.9671   -3.2247   -1.2541 O   0  0  0  0  0  0  0  0  0  0  0  0
    5.2859   -3.3778    0.1455 C   0  0  1  0  0  0  0  0  0  0  0  0
    6.7610   -3.8326    0.1111 C   0  0  0  0  0  0  0  0  0  0  0  0
    4.9422   -1.9651    0.7958 C   0  0  2  0  0  0  0  0  0  0  0  0
    5.9735   -0.8928    0.3908 C   0  0  0  0  0  0  0  0  0  0  0  0
    4.7061   -1.7080    2.3907 C   0  0  0  0  0  0  0  0  0  0  0  0
    3.7304   -2.5749    3.2626 C   0  0  2  0  0  0  0  0  0  0  0  0
    4.2327   -3.3390    4.3801 O   0  0  0  0  0  0  0  0  0  0  0  0
    3.8597   -4.1021    3.2322 C   0  0  2  0  0  0  0  0  0  0  0  0
    4.9084   -4.4772    2.2999 C   0  0  1  0  0  0  0  0  0  0  0  0
    5.6635   -5.7873    2.5568 C   0  0  0  0  0  0  0  0  0  0  0  0
    5.4975   -6.6448    3.5816 C   0  0  0  0  0  0  0  0  0  0  0  0
    4.5250   -6.4679    4.7183 C   0  0  0  0  0  0  0  0  0  0  0  0
    3.1090   -6.3660    4.1637 C   0  0  0  0  0  0  0  0  0  0  0  0
    2.2729   -7.2298    4.4643 O   0  0  0  0  0  0  0  0  0  0  0  0
    2.7322   -5.1807    3.2388 C   0  0  1  0  0  0  0  0  0  0  0  0
    1.4063   -4.5995    3.7832 C   0  0  0  0  0  0  0  0  0  0  0  0
    2.4545   -5.7555    1.7620 C   0  0  0  0  0  0  0  0  0  0  0  0
    3.5756   -5.6174    0.6476 C   0  0  0  0  0  0  0  0  0  0  0  0
    4.2357   -4.2496    0.8966 C   0  0  2  0  0  0  0  0  0  0  0  0
    3.0151   -3.2575    0.6238 C   0  0  0  0  0  0  0  0  0  0  0  0
    3.6099   -1.9749    0.0400 C   0  0  2  0  0  0  0  0  0  0  0  0
    3.7345   -0.7557   -3.0451 H   0  0  0  0  0  0  0  0  0  0  0  0
    5.3936   -1.2209   -2.7026 H   0  0  0  0  0  0  0  0  0  0  0  0
    4.4996   -0.1462   -1.6228 H   0  0  0  0  0  0  0  0  0  0  0  0
    1.8805   -2.4125   -2.2517 H   0  0  0  0  0  0  0  0  0  0  0  0
    2.6903   -3.9596   -2.0544 H   0  0  0  0  0  0  0  0  0  0  0  0
    3.1225   -2.9334   -3.3764 H   0  0  0  0  0  0  0  0  0  0  0  0
    7.2976   -3.7310    1.0522 H   0  0  0  0  0  0  0  0  0  0  0  0
    7.3146   -3.2586   -0.6315 H   0  0  0  0  0  0  0  0  0  0  0  0
    6.8107   -4.8717   -0.2050 H   0  0  0  0  0  0  0  0  0  0  0  0
    5.5439    0.1075    0.4331 H   0  0  0  0  0  0  0  0  0  0  0  0
    6.3727   -1.0641   -0.6011 H   0  0  0  0  0  0  0  0  0  0  0  0
    6.8327   -0.9035    1.0606 H   0  0  0  0  0  0  0  0  0  0  0  0
    5.6719   -1.6907    2.9020 H   0  0  0  0  0  0  0  0  0  0  0  0
    4.3439   -0.6840    2.4871 H   0  0  0  0  0  0  0  0  0  0  0  0
    2.7581   -2.1363    3.4505 H   0  0  0  0  0  0  0  0  0  0  0  0
    5.7479   -3.8289    2.4989 H   0  0  0  0  0  0  0  0  0  0  0  0
    6.4282   -6.0231    1.8275 H   0  0  0  0  0  0  0  0  0  0  0  0
    6.1197   -7.5248    3.6414 H   0  0  0  0  0  0  0  0  0  0  0  0
    4.5891   -7.3303    5.3750 H   0  0  0  0  0  0  0  0  0  0  0  0
    4.7754   -5.5904    5.3102 H   0  0  0  0  0  0  0  0  0  0  0  0
    1.0322   -3.7906    3.1615 H   0  0  0  0  0  0  0  0  0  0  0  0
    1.5193   -4.2308    4.8016 H   0  0  0  0  0  0  0  0  0  0  0  0
    0.6329   -5.3685    3.7981 H   0  0  0  0  0  0  0  0  0  0  0  0
    2.1962   -6.8133    1.8130 H   0  0  0  0  0  0  0  0  0  0  0  0
    1.5407   -5.2787    1.3935 H   0  0  0  0  0  0  0  0  0  0  0  0
    4.2644   -6.4580    0.6735 H   0  0  0  0  0  0  0  0  0  0  0  0
    3.1266   -5.6835   -0.3351 H   0  0  0  0  0  0  0  0  0  0  0  0
    2.2855   -3.6826   -0.0564 H   0  0  0  0  0  0  0  0  0  0  0  0
    2.3421   -3.0323    1.4350 H   0  0  0  0  0  0  0  0  0  0  0  0
    2.9878   -1.0930    0.1923 H   0  0  0  0  0  0  0  0  0  0  0  0
  1  2  1  0
  1 26  1  0
  1 27  1  0
  1 28  1  0
  2 25  1  0
  2  3  1  0
  2  4  1  0
  3 29  1  0
  3 30  1  0
  3 31  1  0
  4  5  1  0
  5 23  1  0
  5  6  1  6
  5  7  1  0
  6 32  1  0
  6 33  1  0
  6 34  1  0
  7 25  1  0
  7  8  1  6
  7  9  1  0
  8 35  1  0
  8 36  1  0
  8 37  1  0
  9 10  1  0
  9 38  1  0
  9 39  1  0
 10 12  1  0
 10 11  1  0
 10 40  1  1
 12 11  1  1
 12 19  1  0
 12 13  1  0
 13 23  1  0
 13 14  1  0
 13 41  1  6
 14 15  2  0
 14 42  1  0
 15 16  1  0
 15 43  1  0
 16 17  1  0
 16 44  1  0
 16 45  1  0
 17 18  2  0
 17 19  1  0
 19 20  1  1
 19 21  1  0
 20 46  1  0
 20 47  1  0
 20 48  1  0
 21 22  1  0
 21 49  1  0
 21 50  1  0
 23 22  1  6
 22 51  1  0
 22 52  1  0
 23 24  1  0
 24 25  1  0
 24 53  1  0
 24 54  1  0
 25 55  1  6
M  END
>  <i_m_ct_stereo_status>  (253) 
1

>  <s_m_source_file>  (253) 
/var/tmp/pbs.5076255.sched01/tmp361ftg5n/90jpawypyp.sdf

>  <i_m_source_file_index>  (253) 
15

>  <i_lp_mmshare_version>  (253) 
48012

>  <i_f3d_flags>  (253) 
2

>  <s_epik_input>  (253) 
TzFbQ0BASF0oQzEyMylbQ0gyXVtDQEBdNChbQ0gzXSlbQ0BAXTUoW0NIM10pW0NAXTYoW0NIMl1bQ0BASF00QyhPNSkoW0NIM10pW0NIM10pW0NAQEhdMltDSF09W0NIXVtDSDJdQyg9TylbQ0BdMyhbQ0gzXSlbQ0gyXVtDSDJdNg==

>  <s_epik_cmdline>  (253) 
J2VwaWtfcHl0aG9uJywgJy1waHQnLCAnMi4wJywgJy1waCcsICc3LjAnLCAnLXRuJywgJzgnLCAnLW1hJywgJzIwMCcsICctaW1hZScsICc8aW5maWxlLm1hZT4nLCAnLW9tYWUnLCAnPG91dGZpbGUubWFlPic=

>  <r_lp_tautomer_probability>  (253) 
1

>  <r_epik_Ionization_Penalty>  (253) 
3.51779e-11

>  <r_epik_Ionization_Penalty_Charging>  (253) 
0

>  <r_epik_Ionization_Penalty_Neutral>  (253) 
3.51779e-11

>  <r_epik_State_Penalty>  (253) 
-0

>  <r_epik_Charging_Adjusted_Penalty>  (253) 
0

>  <i_epik_Tot_Q>  (253) 
0

>  <i_epik_Tot_abs_Q>  (253) 
0

>  <s_lp_Force_Field>  (253) 
OPLS3e

>  <r_lp_Energy>  (253) 
132.413

>  <b_lp_Chiralities_Consistent>  (253) 
0

>  <s_lp_Variant>  (253) 
68:0-2

>  <s_i_glide_gridfile>  (253) 
pfpi4k_grid

>  <i_i_glide_lignum>  (253) 
15

>  <i_i_glide_rotatable_bonds>  (253) 
0

>  <r_i_docking_score>  (253) 
-2.78303

>  <r_i_glide_ligand_efficiency>  (253) 
-0.111321

>  <r_i_glide_ligand_efficiency_sa>  (253) 
-0.325505

>  <r_i_glide_ligand_efficiency_ln>  (253) 
-0.659662

>  <r_i_glide_gscore>  (253) 
-2.78303

>  <r_i_glide_lipo>  (253) 
-0.419449

>  <r_i_glide_hbond>  (253) 
0

>  <r_i_glide_metal>  (253) 
-0

>  <r_i_glide_rewards>  (253) 
-1.07406

>  <r_i_glide_evdw>  (253) 
-24.0195

>  <r_i_glide_ecoul>  (253) 
-0.590333

>  <r_i_glide_erotb>  (253) 
0

>  <r_i_glide_esite>  (253) 
-1.71241e-06

>  <r_i_glide_emodel>  (253) 
-29.0305

>  <r_i_glide_energy>  (253) 
-24.6098

>  <r_i_glide_einternal>  (253) 
0

>  <r_i_glide_intrahb_reward>  (253) 
-0

>  <i_i_glide_confnum>  (253) 
1

>  <i_i_glide_posenum>  (253) 
2

>  <r_i_glide_eff_state_penalty>  (253) 
0

>  <ligand_id>  (253) 
68

>  <original_smiles>  (253) 
CC1(C)OC2(C)C3(C)CC4OC45C4C=CCC(=O)C5(C)CCC42CC13

>  <smiles>  (253) 
[H]C1=C([H])C2([H])C34OC3([H])C([H])([H])C3(C([H])([H])[H])C5([H])C([H])([H])C2(C([H])([H])C([H])([H])C4(C([H])([H])[H])C(=O)C1([H])[H])C3(C([H])([H])[H])OC5(C([H])([H])[H])C([H])([H])[H]

$$$$
68:1:2
     RDKit          3D

 55 60  0  0  1  0  0  0  0  0999 V2000
    4.1813   -5.7892    6.4445 C   0  0  0  0  0  0  0  0  0  0  0  0
    4.6696   -5.5457    4.9934 C   0  0  0  0  0  0  0  0  0  0  0  0
    5.9721   -6.3641    4.8194 C   0  0  0  0  0  0  0  0  0  0  0  0
    3.7447   -6.0271    4.0222 O   0  0  0  0  0  0  0  0  0  0  0  0
    3.1979   -4.9488    3.2350 C   0  0  1  0  0  0  0  0  0  0  0  0
    1.8200   -5.5056    2.8131 C   0  0  0  0  0  0  0  0  0  0  0  0
    3.2413   -3.6816    4.2033 C   0  0  2  0  0  0  0  0  0  0  0  0
    2.1742   -3.7831    5.3215 C   0  0  0  0  0  0  0  0  0  0  0  0
    3.1592   -2.1265    3.7027 C   0  0  0  0  0  0  0  0  0  0  0  0
    4.0603   -1.5421    2.5572 C   0  0  2  0  0  0  0  0  0  0  0  0
    3.4654   -1.0109    1.3528 O   0  0  0  0  0  0  0  0  0  0  0  0
    4.1243   -2.2710    1.2091 C   0  0  2  0  0  0  0  0  0  0  0  0
    3.3088   -3.4798    1.2767 C   0  0  1  0  0  0  0  0  0  0  0  0
    2.6921   -4.0025   -0.0225 C   0  0  0  0  0  0  0  0  0  0  0  0
    2.7691   -3.4507   -1.2532 C   0  0  0  0  0  0  0  0  0  0  0  0
    3.4929   -2.1765   -1.5888 C   0  0  0  0  0  0  0  0  0  0  0  0
    4.9676   -2.3092   -1.2055 C   0  0  0  0  0  0  0  0  0  0  0  0
    5.8291   -2.2605   -2.0880 O   0  0  0  0  0  0  0  0  0  0  0  0
    5.3546   -2.5048    0.2832 C   0  0  1  0  0  0  0  0  0  0  0  0
    6.4878   -1.4860    0.5778 C   0  0  0  0  0  0  0  0  0  0  0  0
    5.9633   -3.9874    0.4564 C   0  0  0  0  0  0  0  0  0  0  0  0
    5.0517   -5.1441    1.0618 C   0  0  0  0  0  0  0  0  0  0  0  0
    4.1924   -4.4573    2.1409 C   0  0  2  0  0  0  0  0  0  0  0  0
    5.3105   -3.9894    3.1768 C   0  0  0  0  0  0  0  0  0  0  0  0
    4.6826   -4.0536    4.5702 C   0  0  2  0  0  0  0  0  0  0  0  0
    4.9585   -6.2273    7.0717 H   0  0  0  0  0  0  0  0  0  0  0  0
    3.3340   -6.4757    6.4668 H   0  0  0  0  0  0  0  0  0  0  0  0
    3.8974   -4.8706    6.9532 H   0  0  0  0  0  0  0  0  0  0  0  0
    6.8312   -5.8496    5.2498 H   0  0  0  0  0  0  0  0  0  0  0  0
    6.1868   -6.5976    3.7777 H   0  0  0  0  0  0  0  0  0  0  0  0
    5.8905   -7.3352    5.3092 H   0  0  0  0  0  0  0  0  0  0  0  0
    1.1173   -4.7503    2.4748 H   0  0  0  0  0  0  0  0  0  0  0  0
    1.3466   -6.0119    3.6536 H   0  0  0  0  0  0  0  0  0  0  0  0
    1.9406   -6.2595    2.0357 H   0  0  0  0  0  0  0  0  0  0  0  0
    2.4691   -3.2145    6.2035 H   0  0  0  0  0  0  0  0  0  0  0  0
    1.9654   -4.8049    5.6255 H   0  0  0  0  0  0  0  0  0  0  0  0
    1.2190   -3.3814    4.9821 H   0  0  0  0  0  0  0  0  0  0  0  0
    2.1243   -1.8784    3.4564 H   0  0  0  0  0  0  0  0  0  0  0  0
    3.3712   -1.5091    4.5755 H   0  0  0  0  0  0  0  0  0  0  0  0
    4.9267   -0.9738    2.8858 H   0  0  0  0  0  0  0  0  0  0  0  0
    2.3739   -3.1969    1.7397 H   0  0  0  0  0  0  0  0  0  0  0  0
    2.1160   -4.9125    0.0728 H   0  0  0  0  0  0  0  0  0  0  0  0
    2.2476   -3.9123   -2.0736 H   0  0  0  0  0  0  0  0  0  0  0  0
    3.4140   -2.0005   -2.6593 H   0  0  0  0  0  0  0  0  0  0  0  0
    3.0300   -1.3290   -1.0879 H   0  0  0  0  0  0  0  0  0  0  0  0
    6.8623   -1.5865    1.5922 H   0  0  0  0  0  0  0  0  0  0  0  0
    6.1508   -0.4587    0.4379 H   0  0  0  0  0  0  0  0  0  0  0  0
    7.3367   -1.6587   -0.0847 H   0  0  0  0  0  0  0  0  0  0  0  0
    6.3531   -4.3464   -0.4949 H   0  0  0  0  0  0  0  0  0  0  0  0
    6.8577   -3.8995    1.0794 H   0  0  0  0  0  0  0  0  0  0  0  0
    4.4758   -5.6372    0.2827 H   0  0  0  0  0  0  0  0  0  0  0  0
    5.6659   -5.9466    1.4707 H   0  0  0  0  0  0  0  0  0  0  0  0
    6.1941   -4.6168    3.1298 H   0  0  0  0  0  0  0  0  0  0  0  0
    5.7974   -3.0396    3.0161 H   0  0  0  0  0  0  0  0  0  0  0  0
    5.1643   -3.3962    5.2941 H   0  0  0  0  0  0  0  0  0  0  0  0
  1  2  1  0
  1 26  1  0
  1 27  1  0
  1 28  1  0
  2 25  1  0
  2  3  1  0
  2  4  1  0
  3 29  1  0
  3 30  1  0
  3 31  1  0
  4  5  1  0
  5 23  1  0
  5  6  1  6
  5  7  1  0
  6 32  1  0
  6 33  1  0
  6 34  1  0
  7 25  1  0
  7  8  1  1
  7  9  1  0
  8 35  1  0
  8 36  1  0
  8 37  1  0
  9 10  1  0
  9 38  1  0
  9 39  1  0
 10 12  1  0
 10 11  1  0
 10 40  1  1
 12 11  1  6
 12 19  1  0
 12 13  1  0
 13 23  1  0
 13 14  1  0
 13 41  1  1
 14 15  2  0
 14 42  1  0
 15 16  1  0
 15 43  1  0
 16 17  1  0
 16 44  1  0
 16 45  1  0
 17 18  2  0
 17 19  1  0
 19 20  1  1
 19 21  1  0
 20 46  1  0
 20 47  1  0
 20 48  1  0
 21 22  1  0
 21 49  1  0
 21 50  1  0
 23 22  1  6
 22 51  1  0
 22 52  1  0
 23 24  1  0
 24 25  1  0
 24 53  1  0
 24 54  1  0
 25 55  1  1
M  END
>  <i_m_ct_stereo_status>  (254) 
1

>  <s_m_source_file>  (254) 
/var/tmp/pbs.5076255.sched01/tmp361ftg5n/90jpawypyp.sdf

>  <i_m_source_file_index>  (254) 
15

>  <i_lp_mmshare_version>  (254) 
48012

>  <i_f3d_flags>  (254) 
2

>  <s_epik_input>  (254) 
TzFbQ0BASF0oQzEyMylbQ0gyXVtDQEBdNChbQ0gzXSlbQ0BAXTUoW0NIM10pW0NAXTYoW0NIMl1bQ0BASF00QyhPNSkoW0NIM10pW0NIM10pW0NAQEhdMltDSF09W0NIXVtDSDJdQyg9TylbQ0BdMyhbQ0gzXSlbQ0gyXVtDSDJdNg==

>  <s_epik_cmdline>  (254) 
J2VwaWtfcHl0aG9uJywgJy1waHQnLCAnMi4wJywgJy1waCcsICc3LjAnLCAnLXRuJywgJzgnLCAnLW1hJywgJzIwMCcsICctaW1hZScsICc8aW5maWxlLm1hZT4nLCAnLW9tYWUnLCAnPG91dGZpbGUubWFlPic=

>  <r_lp_tautomer_probability>  (254) 
1

>  <r_epik_Ionization_Penalty>  (254) 
3.51779e-11

>  <r_epik_Ionization_Penalty_Charging>  (254) 
0

>  <r_epik_Ionization_Penalty_Neutral>  (254) 
3.51779e-11

>  <r_epik_State_Penalty>  (254) 
-0

>  <r_epik_Charging_Adjusted_Penalty>  (254) 
0

>  <i_epik_Tot_Q>  (254) 
0

>  <i_epik_Tot_abs_Q>  (254) 
0

>  <s_lp_Force_Field>  (254) 
OPLS3e

>  <r_lp_Energy>  (254) 
132.413

>  <b_lp_Chiralities_Consistent>  (254) 
0

>  <s_lp_Variant>  (254) 
68:0-2

>  <s_i_glide_gridfile>  (254) 
pfpi4k_grid

>  <i_i_glide_lignum>  (254) 
15

>  <i_i_glide_rotatable_bonds>  (254) 
0

>  <r_i_docking_score>  (254) 
-2.5918

>  <r_i_glide_ligand_efficiency>  (254) 
-0.103672

>  <r_i_glide_ligand_efficiency_sa>  (254) 
-0.303139

>  <r_i_glide_ligand_efficiency_ln>  (254) 
-0.614335

>  <r_i_glide_gscore>  (254) 
-2.5918

>  <r_i_glide_lipo>  (254) 
-0.299267

>  <r_i_glide_hbond>  (254) 
0

>  <r_i_glide_metal>  (254) 
-0

>  <r_i_glide_rewards>  (254) 
-1.07406

>  <r_i_glide_evdw>  (254) 
-21.6067

>  <r_i_glide_ecoul>  (254) 
-0.788905

>  <r_i_glide_erotb>  (254) 
0

>  <r_i_glide_esite>  (254) 
-0.0198114

>  <r_i_glide_emodel>  (254) 
-26.5001

>  <r_i_glide_energy>  (254) 
-22.3956

>  <r_i_glide_einternal>  (254) 
0

>  <r_i_glide_intrahb_reward>  (254) 
-0

>  <i_i_glide_confnum>  (254) 
2

>  <i_i_glide_posenum>  (254) 
3

>  <r_i_glide_eff_state_penalty>  (254) 
0

>  <ligand_id>  (254) 
68

>  <original_smiles>  (254) 
CC1(C)OC2(C)C3(C)CC4OC45C4C=CCC(=O)C5(C)CCC42CC13

>  <smiles>  (254) 
[H]C1=C([H])C2([H])C34OC3([H])C([H])([H])C3(C([H])([H])[H])C5([H])C([H])([H])C2(C([H])([H])C([H])([H])C4(C([H])([H])[H])C(=O)C1([H])[H])C3(C([H])([H])[H])OC5(C([H])([H])[H])C([H])([H])[H]

$$$$
70:0:0
     RDKit          3D

 24 25  0  0  1  0  0  0  0  0999 V2000
    1.5454   -8.2801    2.4071 C   0  0  0  0  0  0  0  0  0  0  0  0
    1.8007   -6.9904    1.6335 C   0  0  0  0  0  0  0  0  0  0  0  0
    0.8309   -6.2838    1.3348 O   0  0  0  0  0  0  0  0  0  0  0  0
    3.1514   -6.7921    1.3446 N   0  0  0  0  0  0  0  0  0  0  0  0
    3.5776   -5.7148    0.7436 C   0  0  0  0  0  0  0  0  0  0  0  0
    2.8560   -4.5932    0.3558 N   0  0  0  0  0  0  0  0  0  0  0  0
    3.5312   -3.4596   -0.2713 C   0  0  2  0  0  0  0  0  0  0  0  0
    2.9349   -3.0577   -1.6364 C   0  0  0  0  0  0  0  0  0  0  0  0
    4.3304   -2.5322   -2.6596 S   0  0  0  0  0  0  0  0  0  0  0  0
    4.1246   -2.8892   -4.0846 O   0  0  0  0  0  0  0  0  0  0  0  0
    4.7126   -1.1464   -2.3201 O   0  0  0  0  0  0  0  0  0  0  0  0
    5.4918   -3.6577   -1.8790 C   0  0  0  0  0  0  0  0  0  0  0  0
    5.0263   -3.7808   -0.4216 C   0  0  2  0  0  0  0  0  0  0  0  0
    5.2937   -5.4255    0.2532 S   0  0  0  0  0  0  0  0  0  0  0  0
    1.8598   -9.1593    1.8438 H   0  0  0  0  0  0  0  0  0  0  0  0
    0.4793   -8.3938    2.6049 H   0  0  0  0  0  0  0  0  0  0  0  0
    2.0547   -8.2976    3.3714 H   0  0  0  0  0  0  0  0  0  0  0  0
    1.8792   -4.4734    0.5529 H   0  0  0  0  0  0  0  0  0  0  0  0
    3.4401   -2.5981    0.3931 H   0  0  0  0  0  0  0  0  0  0  0  0
    2.4503   -3.8870   -2.1496 H   0  0  0  0  0  0  0  0  0  0  0  0
    2.2316   -2.2479   -1.5728 H   0  0  0  0  0  0  0  0  0  0  0  0
    5.3988   -4.6079   -2.3989 H   0  0  0  0  0  0  0  0  0  0  0  0
    6.5154   -3.2944   -1.9818 H   0  0  0  0  0  0  0  0  0  0  0  0
    5.5948   -3.0916    0.1971 H   0  0  0  0  0  0  0  0  0  0  0  0
  1  2  1  0
  1 15  1  0
  1 16  1  0
  1 17  1  0
  2  3  2  0
  2  4  1  0
  4  5  2  3
  5 14  1  0
  5  6  1  0
  6  7  1  0
  6 18  1  0
  7 13  1  0
  7  8  1  0
  7 19  1  1
  8  9  1  0
  8 20  1  0
  8 21  1  0
  9 10  2  0
  9 11  2  0
  9 12  1  0
 12 13  1  0
 12 22  1  0
 12 23  1  0
 13 14  1  0
 13 24  1  1
M  END
>  <i_m_ct_stereo_status>  (255) 
1

>  <s_m_source_file>  (255) 
/var/tmp/pbs.5076255.sched01/tmp361ftg5n/90jpawypyp.sdf

>  <i_m_source_file_index>  (255) 
17

>  <i_lp_mmshare_version>  (255) 
48012

>  <i_f3d_flags>  (255) 
0

>  <s_epik_input>  (255) 
W0NIM11DKD1PKS9OPUMoXFtOSF0xKVNbQ0BIXShbQ0BIXTEyKVtDSDJdUyg9TykoPU8pW0NIMl0y

>  <s_epik_cmdline>  (255) 
J2VwaWtfcHl0aG9uJywgJy1waHQnLCAnMi4wJywgJy1waCcsICc3LjAnLCAnLXRuJywgJzgnLCAnLW1hJywgJzIwMCcsICctaW1hZScsICc8aW5maWxlLm1hZT4nLCAnLW9tYWUnLCAnPG91dGZpbGUubWFlPic=

>  <r_lp_tautomer_probability>  (255) 
0.465526

>  <r_epik_Ionization_Penalty>  (255) 
0.0551732

>  <r_epik_Ionization_Penalty_Charging>  (255) 
0

>  <r_epik_Ionization_Penalty_Neutral>  (255) 
0.0551732

>  <r_epik_State_Penalty>  (255) 
0.530113

>  <r_epik_Charging_Adjusted_Penalty>  (255) 
0.530113

>  <i_epik_Tot_Q>  (255) 
0

>  <i_epik_Tot_abs_Q>  (255) 
0

>  <s_epik_Chemistry_Notes>  (255) 
This compound has an imine and may undergo hydrolysis.

>  <s_lp_Force_Field>  (255) 
OPLS3e

>  <r_lp_Energy>  (255) 
-21.562

>  <b_lp_Chiralities_Consistent>  (255) 
1

>  <s_lp_Variant>  (255) 
70:0-1

>  <s_i_glide_gridfile>  (255) 
pfpi4k_grid

>  <i_i_glide_lignum>  (255) 
17

>  <i_i_glide_rotatable_bonds>  (255) 
1

>  <r_i_docking_score>  (255) 
-4.2754

>  <r_i_glide_ligand_efficiency>  (255) 
-0.305386

>  <r_i_glide_ligand_efficiency_sa>  (255) 
-0.736023

>  <r_i_glide_ligand_efficiency_ln>  (255) 
-1.17486

>  <r_i_glide_gscore>  (255) 
-4.2754

>  <r_i_glide_lipo>  (255) 
-0.270574

>  <r_i_glide_hbond>  (255) 
-0.16

>  <r_i_glide_metal>  (255) 
-0

>  <r_i_glide_rewards>  (255) 
-1.95777

>  <r_i_glide_evdw>  (255) 
-23.1321

>  <r_i_glide_ecoul>  (255) 
-6.2305

>  <r_i_glide_erotb>  (255) 
0.312798

>  <r_i_glide_esite>  (255) 
-0.108674

>  <r_i_glide_emodel>  (255) 
-36.8003

>  <r_i_glide_energy>  (255) 
-29.3626

>  <r_i_glide_einternal>  (255) 
0.0732331

>  <r_i_glide_intrahb_reward>  (255) 
-0

>  <i_i_glide_confnum>  (255) 
5

>  <i_i_glide_posenum>  (255) 
9

>  <r_i_glide_eff_state_penalty>  (255) 
0

>  <ligand_id>  (255) 
70

>  <original_smiles>  (255) 
CC(=O)N=C1NC2CS(=O)(=O)CC2S1

>  <smiles>  (255) 
[H]N1C(=NC(=O)C([H])([H])[H])SC2([H])C1([H])C([H])([H])S(=O)(=O)C2([H])[H]

$$$$
70:0:1
     RDKit          3D

 24 25  0  0  1  0  0  0  0  0999 V2000
    3.7802   -0.2520   -4.3158 C   0  0  0  0  0  0  0  0  0  0  0  0
    3.6406   -1.2085   -3.1388 C   0  0  0  0  0  0  0  0  0  0  0  0
    2.6195   -1.8957   -3.0470 O   0  0  0  0  0  0  0  0  0  0  0  0
    4.7286   -1.1755   -2.2827 N   0  0  0  0  0  0  0  0  0  0  0  0
    4.5964   -1.4575   -1.0199 C   0  0  0  0  0  0  0  0  0  0  0  0
    3.4356   -1.7280   -0.2940 N   0  0  0  0  0  0  0  0  0  0  0  0
    3.5348   -1.9565    1.1435 C   0  0  2  0  0  0  0  0  0  0  0  0
    2.6559   -1.0071    1.9948 C   0  0  0  0  0  0  0  0  0  0  0  0
    3.6012   -0.6791    3.5338 S   0  0  0  0  0  0  0  0  0  0  0  0
    3.3972    0.7050    3.9869 O   0  0  0  0  0  0  0  0  0  0  0  0
    3.4379   -1.8210    4.4422 O   0  0  0  0  0  0  0  0  0  0  0  0
    5.2183   -0.8313    2.7046 C   0  0  0  0  0  0  0  0  0  0  0  0
    5.0109   -1.8704    1.5838 C   0  0  2  0  0  0  0  0  0  0  0  0
    5.9893   -1.4924    0.1382 S   0  0  0  0  0  0  0  0  0  0  0  0
    3.9384    0.7653   -3.9609 H   0  0  0  0  0  0  0  0  0  0  0  0
    2.8757   -0.2490   -4.9246 H   0  0  0  0  0  0  0  0  0  0  0  0
    4.6148   -0.5280   -4.9546 H   0  0  0  0  0  0  0  0  0  0  0  0
    2.4922   -1.7229   -0.6842 H   0  0  0  0  0  0  0  0  0  0  0  0
    3.1964   -2.9685    1.3454 H   0  0  0  0  0  0  0  0  0  0  0  0
    2.5069   -0.0408    1.5068 H   0  0  0  0  0  0  0  0  0  0  0  0
    1.6791   -1.4210    2.2636 H   0  0  0  0  0  0  0  0  0  0  0  0
    5.4640    0.1477    2.3026 H   0  0  0  0  0  0  0  0  0  0  0  0
    5.9836   -1.1148    3.4343 H   0  0  0  0  0  0  0  0  0  0  0  0
    5.3264   -2.8421    1.9512 H   0  0  0  0  0  0  0  0  0  0  0  0
  1  2  1  0
  1 15  1  0
  1 16  1  0
  1 17  1  0
  2  3  2  0
  2  4  1  0
  4  5  2  3
  5 14  1  0
  5  6  1  0
  6  7  1  0
  6 18  1  0
  7 13  1  0
  7  8  1  0
  7 19  1  6
  8  9  1  0
  8 20  1  0
  8 21  1  0
  9 10  2  0
  9 11  2  0
  9 12  1  0
 12 13  1  0
 12 22  1  0
 12 23  1  0
 13 14  1  0
 13 24  1  1
M  END
>  <i_m_ct_stereo_status>  (256) 
1

>  <s_m_source_file>  (256) 
/var/tmp/pbs.5076255.sched01/tmp361ftg5n/90jpawypyp.sdf

>  <i_m_source_file_index>  (256) 
17

>  <i_lp_mmshare_version>  (256) 
48012

>  <i_f3d_flags>  (256) 
0

>  <s_epik_input>  (256) 
W0NIM11DKD1PKS9OPUMoXFtOSF0xKVNbQ0BIXShbQ0BIXTEyKVtDSDJdUyg9TykoPU8pW0NIMl0y

>  <s_epik_cmdline>  (256) 
J2VwaWtfcHl0aG9uJywgJy1waHQnLCAnMi4wJywgJy1waCcsICc3LjAnLCAnLXRuJywgJzgnLCAnLW1hJywgJzIwMCcsICctaW1hZScsICc8aW5maWxlLm1hZT4nLCAnLW9tYWUnLCAnPG91dGZpbGUubWFlPic=

>  <r_lp_tautomer_probability>  (256) 
0.465526

>  <r_epik_Ionization_Penalty>  (256) 
0.0551732

>  <r_epik_Ionization_Penalty_Charging>  (256) 
0

>  <r_epik_Ionization_Penalty_Neutral>  (256) 
0.0551732

>  <r_epik_State_Penalty>  (256) 
0.530113

>  <r_epik_Charging_Adjusted_Penalty>  (256) 
0.530113

>  <i_epik_Tot_Q>  (256) 
0

>  <i_epik_Tot_abs_Q>  (256) 
0

>  <s_epik_Chemistry_Notes>  (256) 
This compound has an imine and may undergo hydrolysis.

>  <s_lp_Force_Field>  (256) 
OPLS3e

>  <r_lp_Energy>  (256) 
-21.562

>  <b_lp_Chiralities_Consistent>  (256) 
1

>  <s_lp_Variant>  (256) 
70:0-1

>  <s_i_glide_gridfile>  (256) 
pfpi4k_grid

>  <i_i_glide_lignum>  (256) 
17

>  <i_i_glide_rotatable_bonds>  (256) 
1

>  <r_i_docking_score>  (256) 
-4.04552

>  <r_i_glide_ligand_efficiency>  (256) 
-0.288966

>  <r_i_glide_ligand_efficiency_sa>  (256) 
-0.696449

>  <r_i_glide_ligand_efficiency_ln>  (256) 
-1.1117

>  <r_i_glide_gscore>  (256) 
-4.04552

>  <r_i_glide_lipo>  (256) 
-0.488011

>  <r_i_glide_hbond>  (256) 
-0.16

>  <r_i_glide_metal>  (256) 
-0

>  <r_i_glide_rewards>  (256) 
-1.89227

>  <r_i_glide_evdw>  (256) 
-23.6465

>  <r_i_glide_ecoul>  (256) 
-3.36816

>  <r_i_glide_erotb>  (256) 
0.312798

>  <r_i_glide_esite>  (256) 
-0.130487

>  <r_i_glide_emodel>  (256) 
-32.9314

>  <r_i_glide_energy>  (256) 
-27.0147

>  <r_i_glide_einternal>  (256) 
1.93103

>  <r_i_glide_intrahb_reward>  (256) 
-0

>  <i_i_glide_confnum>  (256) 
5

>  <i_i_glide_posenum>  (256) 
1

>  <r_i_glide_eff_state_penalty>  (256) 
0

>  <ligand_id>  (256) 
70

>  <original_smiles>  (256) 
CC(=O)N=C1NC2CS(=O)(=O)CC2S1

>  <smiles>  (256) 
[H]N1C(=NC(=O)C([H])([H])[H])SC2([H])C1([H])C([H])([H])S(=O)(=O)C2([H])[H]

$$$$
70:0:2
     RDKit          3D

 24 25  0  0  1  0  0  0  0  0999 V2000
    3.4026    0.0675   -4.7377 C   0  0  0  0  0  0  0  0  0  0  0  0
    3.7901   -1.0985   -3.8336 C   0  0  0  0  0  0  0  0  0  0  0  0
    3.6950   -2.2433   -4.2853 O   0  0  0  0  0  0  0  0  0  0  0  0
    4.2092   -0.6861   -2.5717 N   0  0  0  0  0  0  0  0  0  0  0  0
    4.4101   -1.5361   -1.6030 C   0  0  0  0  0  0  0  0  0  0  0  0
    4.2789   -2.9217   -1.6179 N   0  0  0  0  0  0  0  0  0  0  0  0
    4.5655   -3.7026   -0.4149 C   0  0  2  0  0  0  0  0  0  0  0  0
    3.3996   -4.6144    0.0374 C   0  0  0  0  0  0  0  0  0  0  0  0
    3.4327   -4.6043    1.8476 S   0  0  0  0  0  0  0  0  0  0  0  0
    2.0658   -4.6822    2.3991 O   0  0  0  0  0  0  0  0  0  0  0  0
    4.4582   -5.5465    2.3199 O   0  0  0  0  0  0  0  0  0  0  0  0
    4.0803   -2.9249    1.9652 C   0  0  0  0  0  0  0  0  0  0  0  0
    4.9709   -2.7467    0.7231 C   0  0  2  0  0  0  0  0  0  0  0  0
    4.9132   -1.0708    0.0749 S   0  0  0  0  0  0  0  0  0  0  0  0
    2.5815    0.6415   -4.3146 H   0  0  0  0  0  0  0  0  0  0  0  0
    3.0552   -0.3002   -5.7038 H   0  0  0  0  0  0  0  0  0  0  0  0
    4.2279    0.7519   -4.9319 H   0  0  0  0  0  0  0  0  0  0  0  0
    4.0263   -3.4444   -2.4432 H   0  0  0  0  0  0  0  0  0  0  0  0
    5.4190   -4.3465   -0.6283 H   0  0  0  0  0  0  0  0  0  0  0  0
    2.4369   -4.2113   -0.2734 H   0  0  0  0  0  0  0  0  0  0  0  0
    3.4819   -5.6446   -0.3254 H   0  0  0  0  0  0  0  0  0  0  0  0
    3.2265   -2.2468    1.9399 H   0  0  0  0  0  0  0  0  0  0  0  0
    4.6183   -2.7821    2.9064 H   0  0  0  0  0  0  0  0  0  0  0  0
    6.0044   -2.9480    0.9937 H   0  0  0  0  0  0  0  0  0  0  0  0
  1  2  1  0
  1 15  1  0
  1 16  1  0
  1 17  1  0
  2  3  2  0
  2  4  1  0
  4  5  2  3
  5 14  1  0
  5  6  1  0
  6  7  1  0
  6 18  1  0
  7 13  1  0
  7  8  1  0
  7 19  1  6
  8  9  1  0
  8 20  1  0
  8 21  1  0
  9 10  2  0
  9 11  2  0
  9 12  1  0
 12 13  1  0
 12 22  1  0
 12 23  1  0
 13 14  1  0
 13 24  1  1
M  END
>  <i_m_ct_stereo_status>  (257) 
1

>  <s_m_source_file>  (257) 
/var/tmp/pbs.5076255.sched01/tmp361ftg5n/90jpawypyp.sdf

>  <i_m_source_file_index>  (257) 
17

>  <i_lp_mmshare_version>  (257) 
48012

>  <i_f3d_flags>  (257) 
0

>  <s_epik_input>  (257) 
W0NIM11DKD1PKS9OPUMoXFtOSF0xKVNbQ0BIXShbQ0BIXTEyKVtDSDJdUyg9TykoPU8pW0NIMl0y

>  <s_epik_cmdline>  (257) 
J2VwaWtfcHl0aG9uJywgJy1waHQnLCAnMi4wJywgJy1waCcsICc3LjAnLCAnLXRuJywgJzgnLCAnLW1hJywgJzIwMCcsICctaW1hZScsICc8aW5maWxlLm1hZT4nLCAnLW9tYWUnLCAnPG91dGZpbGUubWFlPic=

>  <r_lp_tautomer_probability>  (257) 
0.465526

>  <r_epik_Ionization_Penalty>  (257) 
0.0551732

>  <r_epik_Ionization_Penalty_Charging>  (257) 
0

>  <r_epik_Ionization_Penalty_Neutral>  (257) 
0.0551732

>  <r_epik_State_Penalty>  (257) 
0.530113

>  <r_epik_Charging_Adjusted_Penalty>  (257) 
0.530113

>  <i_epik_Tot_Q>  (257) 
0

>  <i_epik_Tot_abs_Q>  (257) 
0

>  <s_epik_Chemistry_Notes>  (257) 
This compound has an imine and may undergo hydrolysis.

>  <s_lp_Force_Field>  (257) 
OPLS3e

>  <r_lp_Energy>  (257) 
-21.562

>  <b_lp_Chiralities_Consistent>  (257) 
1

>  <s_lp_Variant>  (257) 
70:0-1

>  <s_i_glide_gridfile>  (257) 
pfpi4k_grid

>  <i_i_glide_lignum>  (257) 
17

>  <i_i_glide_rotatable_bonds>  (257) 
1

>  <r_i_docking_score>  (257) 
-3.93148

>  <r_i_glide_ligand_efficiency>  (257) 
-0.28082

>  <r_i_glide_ligand_efficiency_sa>  (257) 
-0.676817

>  <r_i_glide_ligand_efficiency_ln>  (257) 
-1.08036

>  <r_i_glide_gscore>  (257) 
-3.93148

>  <r_i_glide_lipo>  (257) 
-0.235494

>  <r_i_glide_hbond>  (257) 
-0.32

>  <r_i_glide_metal>  (257) 
-0

>  <r_i_glide_rewards>  (257) 
-2.0496

>  <r_i_glide_evdw>  (257) 
-25.3427

>  <r_i_glide_ecoul>  (257) 
-1.9802

>  <r_i_glide_erotb>  (257) 
0.312798

>  <r_i_glide_esite>  (257) 
-0.0750192

>  <r_i_glide_emodel>  (257) 
-34.1232

>  <r_i_glide_energy>  (257) 
-27.3229

>  <r_i_glide_einternal>  (257) 
0.166301

>  <r_i_glide_intrahb_reward>  (257) 
-0

>  <i_i_glide_confnum>  (257) 
5

>  <i_i_glide_posenum>  (257) 
8

>  <r_i_glide_eff_state_penalty>  (257) 
0

>  <ligand_id>  (257) 
70

>  <original_smiles>  (257) 
CC(=O)N=C1NC2CS(=O)(=O)CC2S1

>  <smiles>  (257) 
[H]N1C(=NC(=O)C([H])([H])[H])SC2([H])C1([H])C([H])([H])S(=O)(=O)C2([H])[H]

$$$$
70:1:0
     RDKit          3D

 24 25  0  0  1  0  0  0  0  0999 V2000
   -2.5853    3.1314    5.2078 C   0  0  0  0  0  0  0  0  0  0  0  0
   -1.4607    2.1641    4.9032 C   0  0  0  0  0  0  0  0  0  0  0  0
   -1.3771    1.2153    5.6826 O   0  0  0  0  0  0  0  0  0  0  0  0
   -0.6738    2.4757    3.7833 N   0  0  0  0  0  0  0  0  0  0  0  0
    0.4809    1.8809    3.6409 C   0  0  0  0  0  0  0  0  0  0  0  0
    1.3021    2.0065    2.5153 N   0  0  0  0  0  0  0  0  0  0  0  0
    2.5985    1.3102    2.5072 C   0  0  2  0  0  0  0  0  0  0  0  0
    2.8097    0.3597    1.3190 C   0  0  0  0  0  0  0  0  0  0  0  0
    3.7300   -1.0898    1.9594 S   0  0  0  0  0  0  0  0  0  0  0  0
    3.3214   -2.3201    1.2991 O   0  0  0  0  0  0  0  0  0  0  0  0
    5.1518   -0.7397    2.0708 O   0  0  0  0  0  0  0  0  0  0  0  0
    3.0021   -0.9823    3.6092 C   0  0  0  0  0  0  0  0  0  0  0  0
    2.7873    0.5176    3.8205 C   0  0  2  0  0  0  0  0  0  0  0  0
    1.3484    0.7808    4.8075 S   0  0  0  0  0  0  0  0  0  0  0  0
   -2.2288    4.1460    5.3519 H   0  0  0  0  0  0  0  0  0  0  0  0
   -3.0608    2.8168    6.1408 H   0  0  0  0  0  0  0  0  0  0  0  0
   -3.3374    3.0817    4.4252 H   0  0  0  0  0  0  0  0  0  0  0  0
    1.0964    2.6275    1.7304 H   0  0  0  0  0  0  0  0  0  0  0  0
    3.3926    2.0535    2.4936 H   0  0  0  0  0  0  0  0  0  0  0  0
    1.8707   -0.0234    0.9238 H   0  0  0  0  0  0  0  0  0  0  0  0
    3.4119    0.7844    0.5218 H   0  0  0  0  0  0  0  0  0  0  0  0
    2.0616   -1.5331    3.5738 H   0  0  0  0  0  0  0  0  0  0  0  0
    3.6508   -1.4364    4.3583 H   0  0  0  0  0  0  0  0  0  0  0  0
    3.6058    0.9377    4.4033 H   0  0  0  0  0  0  0  0  0  0  0  0
  1  2  1  0
  1 15  1  0
  1 16  1  0
  1 17  1  0
  2  3  2  0
  2  4  1  0
  4  5  2  3
  5 14  1  0
  5  6  1  0
  6  7  1  0
  6 18  1  0
  7 13  1  0
  7  8  1  0
  7 19  1  6
  8  9  1  0
  8 20  1  0
  8 21  1  0
  9 10  2  0
  9 11  2  0
  9 12  1  0
 12 13  1  0
 12 22  1  0
 12 23  1  0
 13 14  1  0
 13 24  1  1
M  END
>  <i_m_ct_stereo_status>  (258) 
1

>  <s_m_source_file>  (258) 
/var/tmp/pbs.5076255.sched01/tmp361ftg5n/90jpawypyp.sdf

>  <i_m_source_file_index>  (258) 
18

>  <i_lp_mmshare_version>  (258) 
48012

>  <i_f3d_flags>  (258) 
0

>  <s_epik_input>  (258) 
W0NIM11DKD1PKS9OPUMoXFtOSF0xKVNbQ0BIXShbQ0BIXTEyKVtDSDJdUyg9TykoPU8pW0NIMl0y

>  <s_epik_cmdline>  (258) 
J2VwaWtfcHl0aG9uJywgJy1waHQnLCAnMi4wJywgJy1waCcsICc3LjAnLCAnLXRuJywgJzgnLCAnLW1hJywgJzIwMCcsICctaW1hZScsICc8aW5maWxlLm1hZT4nLCAnLW9tYWUnLCAnPG91dGZpbGUubWFlPic=

>  <r_lp_tautomer_probability>  (258) 
0.465526

>  <r_epik_Ionization_Penalty>  (258) 
0.0551732

>  <r_epik_Ionization_Penalty_Charging>  (258) 
0

>  <r_epik_Ionization_Penalty_Neutral>  (258) 
0.0551732

>  <r_epik_State_Penalty>  (258) 
0.530113

>  <r_epik_Charging_Adjusted_Penalty>  (258) 
0.530113

>  <i_epik_Tot_Q>  (258) 
0

>  <i_epik_Tot_abs_Q>  (258) 
0

>  <s_epik_Chemistry_Notes>  (258) 
This compound has an imine and may undergo hydrolysis.

>  <s_lp_Force_Field>  (258) 
OPLS3e

>  <r_lp_Energy>  (258) 
-25.6852

>  <b_lp_Chiralities_Consistent>  (258) 
1

>  <s_lp_Variant>  (258) 
70:0-2

>  <s_i_glide_gridfile>  (258) 
pfpi4k_grid

>  <i_i_glide_lignum>  (258) 
18

>  <i_i_glide_rotatable_bonds>  (258) 
1

>  <r_i_docking_score>  (258) 
-2.96523

>  <r_i_glide_ligand_efficiency>  (258) 
-0.211802

>  <r_i_glide_ligand_efficiency_sa>  (258) 
-0.510473

>  <r_i_glide_ligand_efficiency_ln>  (258) 
-0.814834

>  <r_i_glide_gscore>  (258) 
-2.96523

>  <r_i_glide_lipo>  (258) 
-0.0171358

>  <r_i_glide_hbond>  (258) 
-0.094858

>  <r_i_glide_metal>  (258) 
-0

>  <r_i_glide_rewards>  (258) 
-1.81161

>  <r_i_glide_evdw>  (258) 
-16.2362

>  <r_i_glide_ecoul>  (258) 
-2.82524

>  <r_i_glide_erotb>  (258) 
0.312798

>  <r_i_glide_esite>  (258) 
-0.118828

>  <r_i_glide_emodel>  (258) 
-22.335

>  <r_i_glide_energy>  (258) 
-19.0615

>  <r_i_glide_einternal>  (258) 
0.53376

>  <r_i_glide_intrahb_reward>  (258) 
-0

>  <i_i_glide_confnum>  (258) 
5

>  <i_i_glide_posenum>  (258) 
25

>  <r_i_glide_eff_state_penalty>  (258) 
0

>  <ligand_id>  (258) 
70

>  <original_smiles>  (258) 
CC(=O)N=C1NC2CS(=O)(=O)CC2S1

>  <smiles>  (258) 
[H]N1C(=NC(=O)C([H])([H])[H])SC2([H])C1([H])C([H])([H])S(=O)(=O)C2([H])[H]

$$$$
70:2:0
     RDKit          3D

 24 25  0  0  1  0  0  0  0  0999 V2000
    1.3575   -7.8128    2.2232 C   0  0  0  0  0  0  0  0  0  0  0  0
    1.4823   -6.5235    1.4200 C   0  0  0  0  0  0  0  0  0  0  0  0
    0.6142   -6.2563    0.5824 O   0  0  0  0  0  0  0  0  0  0  0  0
    2.5427   -5.7450    1.7174 N   0  0  0  0  0  0  0  0  0  0  0  0
    2.9258   -4.5729    1.0666 C   0  0  0  0  0  0  0  0  0  0  0  0
    2.7169   -4.3066   -0.1764 N   0  0  0  0  0  0  0  0  0  0  0  0
    3.3365   -3.0402   -0.5471 C   0  0  2  0  0  0  0  0  0  0  0  0
    4.5038   -3.2787   -1.5273 C   0  0  0  0  0  0  0  0  0  0  0  0
    6.0356   -2.9127   -0.6264 S   0  0  0  0  0  0  0  0  0  0  0  0
    6.4198   -4.0856    0.1676 O   0  0  0  0  0  0  0  0  0  0  0  0
    6.9959   -2.2525   -1.5193 O   0  0  0  0  0  0  0  0  0  0  0  0
    5.2434   -1.7035    0.4714 C   0  0  0  0  0  0  0  0  0  0  0  0
    3.8333   -2.2613    0.7187 C   0  0  2  0  0  0  0  0  0  0  0  0
    3.7765   -3.4124    2.1112 S   0  0  0  0  0  0  0  0  0  0  0  0
    2.1627   -7.9152    2.9514 H   0  0  0  0  0  0  0  0  0  0  0  0
    1.3902   -8.6672    1.5481 H   0  0  0  0  0  0  0  0  0  0  0  0
    0.4086   -7.8326    2.7572 H   0  0  0  0  0  0  0  0  0  0  0  0
    3.1006   -6.0322    2.5071 H   0  0  0  0  0  0  0  0  0  0  0  0
    2.5986   -2.4308   -1.0683 H   0  0  0  0  0  0  0  0  0  0  0  0
    4.5396   -4.2874   -1.9376 H   0  0  0  0  0  0  0  0  0  0  0  0
    4.4448   -2.5683   -2.3526 H   0  0  0  0  0  0  0  0  0  0  0  0
    5.8270   -1.5610    1.3810 H   0  0  0  0  0  0  0  0  0  0  0  0
    5.1838   -0.7584   -0.0699 H   0  0  0  0  0  0  0  0  0  0  0  0
    3.1417   -1.4504    0.9497 H   0  0  0  0  0  0  0  0  0  0  0  0
  1  2  1  0
  1 15  1  0
  1 16  1  0
  1 17  1  0
  2  4  1  0
  2  3  2  0
  4  5  1  0
  4 18  1  0
  5  6  2  0
  5 14  1  0
  6  7  1  0
  7 13  1  0
  7  8  1  0
  7 19  1  6
  8  9  1  0
  8 20  1  0
  8 21  1  0
  9 10  2  0
  9 11  2  0
  9 12  1  0
 12 13  1  0
 12 22  1  0
 12 23  1  0
 13 14  1  0
 13 24  1  1
M  END
>  <i_m_ct_stereo_status>  (259) 
1

>  <s_m_source_file>  (259) 
/var/tmp/pbs.5076255.sched01/tmp361ftg5n/90jpawypyp.sdf

>  <i_m_source_file_index>  (259) 
19

>  <i_lp_mmshare_version>  (259) 
48012

>  <i_f3d_flags>  (259) 
0

>  <s_epik_input>  (259) 
W0NIM11DKD1PKS9OPUMoXFtOSF0xKVNbQ0BIXShbQ0BIXTEyKVtDSDJdUyg9TykoPU8pW0NIMl0y

>  <s_epik_cmdline>  (259) 
J2VwaWtfcHl0aG9uJywgJy1waHQnLCAnMi4wJywgJy1waCcsICc3LjAnLCAnLXRuJywgJzgnLCAnLW1hJywgJzIwMCcsICctaW1hZScsICc8aW5maWxlLm1hZT4nLCAnLW9tYWUnLCAnPG91dGZpbGUubWFlPic=

>  <r_lp_tautomer_probability>  (259) 
0.0689471

>  <r_epik_Ionization_Penalty>  (259) 
0.00069044

>  <r_epik_Ionization_Penalty_Charging>  (259) 
0

>  <r_epik_Ionization_Penalty_Neutral>  (259) 
0.00069044

>  <r_epik_State_Penalty>  (259) 
0.964028

>  <r_epik_Charging_Adjusted_Penalty>  (259) 
0.964028

>  <i_epik_Tot_Q>  (259) 
0

>  <i_epik_Tot_abs_Q>  (259) 
0

>  <s_epik_Chemistry_Notes>  (259) 
This compound has an imine and may undergo hydrolysis.

>  <s_lp_Force_Field>  (259) 
OPLS3e

>  <r_lp_Energy>  (259) 
-24.3883

>  <b_lp_Chiralities_Consistent>  (259) 
1

>  <s_lp_Variant>  (259) 
70:0-3

>  <s_i_glide_gridfile>  (259) 
pfpi4k_grid

>  <i_i_glide_lignum>  (259) 
19

>  <i_i_glide_rotatable_bonds>  (259) 
2

>  <r_i_docking_score>  (259) 
-4.46308

>  <r_i_glide_ligand_efficiency>  (259) 
-0.318792

>  <r_i_glide_ligand_efficiency_sa>  (259) 
-0.768333

>  <r_i_glide_ligand_efficiency_ln>  (259) 
-1.22644

>  <r_i_glide_gscore>  (259) 
-4.46308

>  <r_i_glide_lipo>  (259) 
-0.0621194

>  <r_i_glide_hbond>  (259) 
-0.185321

>  <r_i_glide_metal>  (259) 
-0

>  <r_i_glide_rewards>  (259) 
-1.83088

>  <r_i_glide_evdw>  (259) 
-19.6695

>  <r_i_glide_ecoul>  (259) 
-8.25831

>  <r_i_glide_erotb>  (259) 
0

>  <r_i_glide_esite>  (259) 
-0.162538

>  <r_i_glide_emodel>  (259) 
-36.3983

>  <r_i_glide_energy>  (259) 
-27.9279

>  <r_i_glide_einternal>  (259) 
1.48592

>  <r_i_glide_intrahb_reward>  (259) 
-0

>  <i_i_glide_confnum>  (259) 
2

>  <i_i_glide_posenum>  (259) 
11

>  <r_i_glide_eff_state_penalty>  (259) 
0

>  <ligand_id>  (259) 
70

>  <original_smiles>  (259) 
CC(=O)N=C1NC2CS(=O)(=O)CC2S1

>  <smiles>  (259) 
[H]N(C(=O)C([H])([H])[H])C1=NC2([H])C([H])(S1)C([H])([H])S(=O)(=O)C2([H])[H]

$$$$
70:2:1
     RDKit          3D

 24 25  0  0  1  0  0  0  0  0999 V2000
    3.3306   -5.3598    0.5493 C   0  0  0  0  0  0  0  0  0  0  0  0
    2.1904   -6.2345    1.0476 C   0  0  0  0  0  0  0  0  0  0  0  0
    1.0268   -5.8776    0.8439 O   0  0  0  0  0  0  0  0  0  0  0  0
    2.5522   -7.3646    1.6869 N   0  0  0  0  0  0  0  0  0  0  0  0
    1.7030   -8.2492    2.3678 C   0  0  0  0  0  0  0  0  0  0  0  0
    0.4332   -8.0987    2.5370 N   0  0  0  0  0  0  0  0  0  0  0  0
   -0.0942   -9.1812    3.3627 C   0  0  2  0  0  0  0  0  0  0  0  0
   -0.5955   -8.5982    4.6985 C   0  0  0  0  0  0  0  0  0  0  0  0
    0.5390   -9.1604    5.9973 S   0  0  0  0  0  0  0  0  0  0  0  0
    1.6952   -8.2501    6.0195 O   0  0  0  0  0  0  0  0  0  0  0  0
   -0.2134   -9.4589    7.2263 O   0  0  0  0  0  0  0  0  0  0  0  0
    0.9986  -10.6649    5.1095 C   0  0  0  0  0  0  0  0  0  0  0  0
    0.9879  -10.2873    3.6225 C   0  0  2  0  0  0  0  0  0  0  0  0
    2.5705   -9.6397    3.0549 S   0  0  0  0  0  0  0  0  0  0  0  0
    4.3038   -5.7985    0.7665 H   0  0  0  0  0  0  0  0  0  0  0  0
    3.2787   -4.3788    1.0216 H   0  0  0  0  0  0  0  0  0  0  0  0
    3.2501   -5.2137   -0.5266 H   0  0  0  0  0  0  0  0  0  0  0  0
    3.5359   -7.5702    1.7134 H   0  0  0  0  0  0  0  0  0  0  0  0
   -0.9424   -9.6323    2.8453 H   0  0  0  0  0  0  0  0  0  0  0  0
   -0.6922   -7.5145    4.7144 H   0  0  0  0  0  0  0  0  0  0  0  0
   -1.5649   -9.0375    4.9337 H   0  0  0  0  0  0  0  0  0  0  0  0
    1.9406  -11.0706    5.4779 H   0  0  0  0  0  0  0  0  0  0  0  0
    0.2163  -11.3974    5.3193 H   0  0  0  0  0  0  0  0  0  0  0  0
    0.7773  -11.1653    3.0118 H   0  0  0  0  0  0  0  0  0  0  0  0
  1  2  1  0
  1 15  1  0
  1 16  1  0
  1 17  1  0
  2  4  1  0
  2  3  2  0
  4  5  1  0
  4 18  1  0
  5  6  2  0
  5 14  1  0
  6  7  1  0
  7 13  1  0
  7  8  1  0
  7 19  1  6
  8  9  1  0
  8 20  1  0
  8 21  1  0
  9 10  2  0
  9 11  2  0
  9 12  1  0
 12 13  1  0
 12 22  1  0
 12 23  1  0
 13 14  1  0
 13 24  1  6
M  END
>  <i_m_ct_stereo_status>  (260) 
1

>  <s_m_source_file>  (260) 
/var/tmp/pbs.5076255.sched01/tmp361ftg5n/90jpawypyp.sdf

>  <i_m_source_file_index>  (260) 
19

>  <i_lp_mmshare_version>  (260) 
48012

>  <i_f3d_flags>  (260) 
0

>  <s_epik_input>  (260) 
W0NIM11DKD1PKS9OPUMoXFtOSF0xKVNbQ0BIXShbQ0BIXTEyKVtDSDJdUyg9TykoPU8pW0NIMl0y

>  <s_epik_cmdline>  (260) 
J2VwaWtfcHl0aG9uJywgJy1waHQnLCAnMi4wJywgJy1waCcsICc3LjAnLCAnLXRuJywgJzgnLCAnLW1hJywgJzIwMCcsICctaW1hZScsICc8aW5maWxlLm1hZT4nLCAnLW9tYWUnLCAnPG91dGZpbGUubWFlPic=

>  <r_lp_tautomer_probability>  (260) 
0.0689471

>  <r_epik_Ionization_Penalty>  (260) 
0.00069044

>  <r_epik_Ionization_Penalty_Charging>  (260) 
0

>  <r_epik_Ionization_Penalty_Neutral>  (260) 
0.00069044

>  <r_epik_State_Penalty>  (260) 
0.964028

>  <r_epik_Charging_Adjusted_Penalty>  (260) 
0.964028

>  <i_epik_Tot_Q>  (260) 
0

>  <i_epik_Tot_abs_Q>  (260) 
0

>  <s_epik_Chemistry_Notes>  (260) 
This compound has an imine and may undergo hydrolysis.

>  <s_lp_Force_Field>  (260) 
OPLS3e

>  <r_lp_Energy>  (260) 
-24.3883

>  <b_lp_Chiralities_Consistent>  (260) 
1

>  <s_lp_Variant>  (260) 
70:0-3

>  <s_i_glide_gridfile>  (260) 
pfpi4k_grid

>  <i_i_glide_lignum>  (260) 
19

>  <i_i_glide_rotatable_bonds>  (260) 
2

>  <r_i_docking_score>  (260) 
-4.31774

>  <r_i_glide_ligand_efficiency>  (260) 
-0.30841

>  <r_i_glide_ligand_efficiency_sa>  (260) 
-0.743312

>  <r_i_glide_ligand_efficiency_ln>  (260) 
-1.1865

>  <r_i_glide_gscore>  (260) 
-4.31774

>  <r_i_glide_lipo>  (260) 
-0.0401039

>  <r_i_glide_hbond>  (260) 
-0.16

>  <r_i_glide_metal>  (260) 
-0

>  <r_i_glide_rewards>  (260) 
-1.81161

>  <r_i_glide_evdw>  (260) 
-19.54

>  <r_i_glide_ecoul>  (260) 
-7.51926

>  <r_i_glide_erotb>  (260) 
0

>  <r_i_glide_esite>  (260) 
-0.201143

>  <r_i_glide_emodel>  (260) 
-35.8384

>  <r_i_glide_energy>  (260) 
-27.0592

>  <r_i_glide_einternal>  (260) 
0.285493

>  <r_i_glide_intrahb_reward>  (260) 
-0

>  <i_i_glide_confnum>  (260) 
1

>  <i_i_glide_posenum>  (260) 
6

>  <r_i_glide_eff_state_penalty>  (260) 
0

>  <ligand_id>  (260) 
70

>  <original_smiles>  (260) 
CC(=O)N=C1NC2CS(=O)(=O)CC2S1

>  <smiles>  (260) 
[H]N(C(=O)C([H])([H])[H])C1=NC2([H])C([H])(S1)C([H])([H])S(=O)(=O)C2([H])[H]

$$$$
70:2:2
     RDKit          3D

 24 25  0  0  1  0  0  0  0  0999 V2000
    2.7694   -7.6908    1.6829 C   0  0  0  0  0  0  0  0  0  0  0  0
    2.5764   -6.2997    1.0874 C   0  0  0  0  0  0  0  0  0  0  0  0
    1.4329   -5.8573    0.9570 O   0  0  0  0  0  0  0  0  0  0  0  0
    3.7134   -5.6674    0.7287 N   0  0  0  0  0  0  0  0  0  0  0  0
    3.8246   -4.3890    0.1824 C   0  0  0  0  0  0  0  0  0  0  0  0
    2.8515   -3.5942   -0.0770 N   0  0  0  0  0  0  0  0  0  0  0  0
    3.3409   -2.3589   -0.6750 C   0  0  2  0  0  0  0  0  0  0  0  0
    2.8744   -2.2789   -2.1400 C   0  0  0  0  0  0  0  0  0  0  0  0
    4.3296   -2.4551   -3.1830 S   0  0  0  0  0  0  0  0  0  0  0  0
    4.6319   -3.8735   -3.3822 O   0  0  0  0  0  0  0  0  0  0  0  0
    4.2265   -1.5315   -4.3220 O   0  0  0  0  0  0  0  0  0  0  0  0
    5.4569   -1.7951   -1.9280 C   0  0  0  0  0  0  0  0  0  0  0  0
    4.8969   -2.2574   -0.5825 C   0  0  2  0  0  0  0  0  0  0  0  0
    5.5101   -3.8807   -0.0912 S   0  0  0  0  0  0  0  0  0  0  0  0
    3.8228   -7.9646    1.7619 H   0  0  0  0  0  0  0  0  0  0  0  0
    2.2688   -8.4414    1.0697 H   0  0  0  0  0  0  0  0  0  0  0  0
    2.3336   -7.7275    2.6820 H   0  0  0  0  0  0  0  0  0  0  0  0
    4.5729   -6.1760    0.8633 H   0  0  0  0  0  0  0  0  0  0  0  0
    2.9140   -1.5170   -0.1299 H   0  0  0  0  0  0  0  0  0  0  0  0
    2.1088   -3.0059   -2.4118 H   0  0  0  0  0  0  0  0  0  0  0  0
    2.4838   -1.2813   -2.3394 H   0  0  0  0  0  0  0  0  0  0  0  0
    6.4663   -2.1503   -2.1247 H   0  0  0  0  0  0  0  0  0  0  0  0
    5.3988   -0.7100   -2.0131 H   0  0  0  0  0  0  0  0  0  0  0  0
    5.1811   -1.5560    0.2047 H   0  0  0  0  0  0  0  0  0  0  0  0
  1  2  1  0
  1 15  1  0
  1 16  1  0
  1 17  1  0
  2  4  1  0
  2  3  2  0
  4  5  1  0
  4 18  1  0
  5  6  2  0
  5 14  1  0
  6  7  1  0
  7 13  1  0
  7  8  1  0
  7 19  1  1
  8  9  1  0
  8 20  1  0
  8 21  1  0
  9 10  2  0
  9 11  2  0
  9 12  1  0
 12 13  1  0
 12 22  1  0
 12 23  1  0
 13 14  1  0
 13 24  1  1
M  END
>  <i_m_ct_stereo_status>  (261) 
1

>  <s_m_source_file>  (261) 
/var/tmp/pbs.5076255.sched01/tmp361ftg5n/90jpawypyp.sdf

>  <i_m_source_file_index>  (261) 
19

>  <i_lp_mmshare_version>  (261) 
48012

>  <i_f3d_flags>  (261) 
0

>  <s_epik_input>  (261) 
W0NIM11DKD1PKS9OPUMoXFtOSF0xKVNbQ0BIXShbQ0BIXTEyKVtDSDJdUyg9TykoPU8pW0NIMl0y

>  <s_epik_cmdline>  (261) 
J2VwaWtfcHl0aG9uJywgJy1waHQnLCAnMi4wJywgJy1waCcsICc3LjAnLCAnLXRuJywgJzgnLCAnLW1hJywgJzIwMCcsICctaW1hZScsICc8aW5maWxlLm1hZT4nLCAnLW9tYWUnLCAnPG91dGZpbGUubWFlPic=

>  <r_lp_tautomer_probability>  (261) 
0.0689471

>  <r_epik_Ionization_Penalty>  (261) 
0.00069044

>  <r_epik_Ionization_Penalty_Charging>  (261) 
0

>  <r_epik_Ionization_Penalty_Neutral>  (261) 
0.00069044

>  <r_epik_State_Penalty>  (261) 
0.964028

>  <r_epik_Charging_Adjusted_Penalty>  (261) 
0.964028

>  <i_epik_Tot_Q>  (261) 
0

>  <i_epik_Tot_abs_Q>  (261) 
0

>  <s_epik_Chemistry_Notes>  (261) 
This compound has an imine and may undergo hydrolysis.

>  <s_lp_Force_Field>  (261) 
OPLS3e

>  <r_lp_Energy>  (261) 
-24.3883

>  <b_lp_Chiralities_Consistent>  (261) 
1

>  <s_lp_Variant>  (261) 
70:0-3

>  <s_i_glide_gridfile>  (261) 
pfpi4k_grid

>  <i_i_glide_lignum>  (261) 
19

>  <i_i_glide_rotatable_bonds>  (261) 
2

>  <r_i_docking_score>  (261) 
-4.14508

>  <r_i_glide_ligand_efficiency>  (261) 
-0.296077

>  <r_i_glide_ligand_efficiency_sa>  (261) 
-0.713588

>  <r_i_glide_ligand_efficiency_ln>  (261) 
-1.13905

>  <r_i_glide_gscore>  (261) 
-4.14508

>  <r_i_glide_lipo>  (261) 
-0.0581978

>  <r_i_glide_hbond>  (261) 
-0.15198

>  <r_i_glide_metal>  (261) 
-0

>  <r_i_glide_rewards>  (261) 
-1.99689

>  <r_i_glide_evdw>  (261) 
-22.8695

>  <r_i_glide_ecoul>  (261) 
-4.91306

>  <r_i_glide_erotb>  (261) 
0

>  <r_i_glide_esite>  (261) 
-0.0575821

>  <r_i_glide_emodel>  (261) 
-36.3659

>  <r_i_glide_energy>  (261) 
-27.7825

>  <r_i_glide_einternal>  (261) 
0.0965619

>  <r_i_glide_intrahb_reward>  (261) 
-0

>  <i_i_glide_confnum>  (261) 
1

>  <i_i_glide_posenum>  (261) 
7

>  <r_i_glide_eff_state_penalty>  (261) 
0

>  <ligand_id>  (261) 
70

>  <original_smiles>  (261) 
CC(=O)N=C1NC2CS(=O)(=O)CC2S1

>  <smiles>  (261) 
[H]N(C(=O)C([H])([H])[H])C1=NC2([H])C([H])(S1)C([H])([H])S(=O)(=O)C2([H])[H]

$$$$
70:3:0
     RDKit          3D

 25 26  0  0  1  0  0  0  0  0999 V2000
    3.2262    5.4310    2.8956 C   0  0  0  0  0  0  0  0  0  0  0  0
    2.6847    4.1384    3.4903 C   0  0  0  0  0  0  0  0  0  0  0  0
    3.2006    3.5755    4.4533 O   0  0  0  0  0  0  0  0  0  0  0  0
    1.4697    3.7051    2.8821 N   0  0  0  0  0  0  0  0  0  0  0  0
    0.6106    2.7874    3.3381 C   0  0  0  0  0  0  0  0  0  0  0  0
   -0.6229    2.6476    2.8596 N   0  0  0  0  0  0  0  0  0  0  0  0
   -1.5788    1.8769    3.6433 C   0  0  2  0  0  0  0  0  0  0  0  0
   -2.5075    2.8234    4.4251 C   0  0  0  0  0  0  0  0  0  0  0  0
   -2.1404    2.5881    6.1950 S   0  0  0  0  0  0  0  0  0  0  0  0
   -1.0461    3.4990    6.5578 O   0  0  0  0  0  0  0  0  0  0  0  0
   -3.3805    2.5414    6.9797 O   0  0  0  0  0  0  0  0  0  0  0  0
   -1.4789    0.9097    5.9590 C   0  0  0  0  0  0  0  0  0  0  0  0
   -0.7794    0.9590    4.5976 C   0  0  2  0  0  0  0  0  0  0  0  0
    0.8826    1.6745    4.7180 S   0  0  0  0  0  0  0  0  0  0  0  0
    2.5684    5.7427    2.0859 H   0  0  0  0  0  0  0  0  0  0  0  0
    4.2119    5.3065    2.4809 H   0  0  0  0  0  0  0  0  0  0  0  0
    3.2666    6.2195    3.6464 H   0  0  0  0  0  0  0  0  0  0  0  0
   -0.8821    3.0978    1.9821 H   0  0  0  0  0  0  0  0  0  0  0  0
   -2.1873    1.2880    2.9648 H   0  0  0  0  0  0  0  0  0  0  0  0
   -2.3780    3.8721    4.1751 H   0  0  0  0  0  0  0  0  0  0  0  0
   -3.5482    2.5662    4.2487 H   0  0  0  0  0  0  0  0  0  0  0  0
   -0.8267    0.6399    6.7884 H   0  0  0  0  0  0  0  0  0  0  0  0
   -2.3447    0.2462    5.9099 H   0  0  0  0  0  0  0  0  0  0  0  0
   -0.7109   -0.0532    4.1835 H   0  0  0  0  0  0  0  0  0  0  0  0
    1.1033    4.1562    2.0392 H   0  0  0  0  0  0  0  0  0  0  0  0
  1  2  1  0
  1 15  1  0
  1 16  1  0
  1 17  1  0
  2  3  2  0
  2  4  1  0
  4  5  1  0
  4 25  1  0
  5 14  1  0
  5  6  2  0
  6  7  1  0
  6 18  1  0
  7 13  1  0
  7  8  1  0
  7 19  1  6
  8  9  1  0
  8 20  1  0
  8 21  1  0
  9 10  2  0
  9 11  2  0
  9 12  1  0
 12 13  1  0
 12 22  1  0
 12 23  1  0
 13 14  1  0
 13 24  1  6
M  CHG  1   6   1
M  END
>  <i_m_ct_stereo_status>  (262) 
1

>  <s_m_source_file>  (262) 
/var/tmp/pbs.5076255.sched01/tmp361ftg5n/90jpawypyp.sdf

>  <i_m_source_file_index>  (262) 
20

>  <i_lp_mmshare_version>  (262) 
48012

>  <i_f3d_flags>  (262) 
0

>  <s_epik_input>  (262) 
W0NIM11DKD1PKS9OPUMoXFtOSF0xKVNbQ0BIXShbQ0BIXTEyKVtDSDJdUyg9TykoPU8pW0NIMl0y

>  <s_epik_cmdline>  (262) 
J2VwaWtfcHl0aG9uJywgJy1waHQnLCAnMi4wJywgJy1waCcsICc3LjAnLCAnLXRuJywgJzgnLCAnLW1hJywgJzIwMCcsICctaW1hZScsICc8aW5maWxlLm1hZT4nLCAnLW9tYWUnLCAnPG91dGZpbGUubWFlPic=

>  <r_epik_Ionization_Penalty>  (262) 
4.92522

>  <r_epik_Ionization_Penalty_Charging>  (262) 
4.92522

>  <r_epik_Ionization_Penalty_Neutral>  (262) 
1.86813e-14

>  <r_epik_State_Penalty>  (262) 
1.99345

>  <r_epik_Charging_Adjusted_Penalty>  (262) 
6.91867

>  <i_epik_Tot_Q>  (262) 
1

>  <i_epik_Tot_abs_Q>  (262) 
1

>  <s_epik_Chemistry_Notes>  (262) 
This compound has an imine and may undergo hydrolysis.

>  <s_lp_Force_Field>  (262) 
OPLS3e

>  <r_lp_Energy>  (262) 
-18.4501

>  <b_lp_Chiralities_Consistent>  (262) 
1

>  <s_lp_Variant>  (262) 
70:0-4

>  <s_i_glide_gridfile>  (262) 
pfpi4k_grid

>  <i_i_glide_lignum>  (262) 
20

>  <i_i_glide_rotatable_bonds>  (262) 
2

>  <r_i_docking_score>  (262) 
-4.76223

>  <r_i_glide_ligand_efficiency>  (262) 
-0.340159

>  <r_i_glide_ligand_efficiency_sa>  (262) 
-0.819832

>  <r_i_glide_ligand_efficiency_ln>  (262) 
-1.30864

>  <r_i_glide_gscore>  (262) 
-4.76223

>  <r_i_glide_lipo>  (262) 
-0.0615739

>  <r_i_glide_hbond>  (262) 
-0.296139

>  <r_i_glide_metal>  (262) 
-0

>  <r_i_glide_rewards>  (262) 
-1.92284

>  <r_i_glide_evdw>  (262) 
-12.8799

>  <r_i_glide_ecoul>  (262) 
-10.3824

>  <r_i_glide_erotb>  (262) 
0

>  <r_i_glide_esite>  (262) 
-0.280311

>  <r_i_glide_emodel>  (262) 
-32.316

>  <r_i_glide_energy>  (262) 
-23.2623

>  <r_i_glide_einternal>  (262) 
1.91876

>  <r_i_glide_intrahb_reward>  (262) 
-0

>  <i_i_glide_confnum>  (262) 
2

>  <i_i_glide_posenum>  (262) 
7

>  <r_i_glide_eff_state_penalty>  (262) 
0

>  <ligand_id>  (262) 
70

>  <original_smiles>  (262) 
CC(=O)N=C1NC2CS(=O)(=O)CC2S1

>  <smiles>  (262) 
[H]N(C(=O)C([H])([H])[H])C1=[N+]([H])C2([H])C([H])(S1)C([H])([H])S(=O)(=O)C2([H])[H]

$$$$
70:3:1
     RDKit          3D

 25 26  0  0  1  0  0  0  0  0999 V2000
    4.7493   -1.0938   -0.9908 C   0  0  0  0  0  0  0  0  0  0  0  0
    4.4400   -0.7040    0.4448 C   0  0  0  0  0  0  0  0  0  0  0  0
    5.3138   -0.4335    1.2630 O   0  0  0  0  0  0  0  0  0  0  0  0
    3.0394   -0.6232    0.7297 N   0  0  0  0  0  0  0  0  0  0  0  0
    2.4492   -0.2175    1.8724 C   0  0  0  0  0  0  0  0  0  0  0  0
    1.1275   -0.1009    2.0262 N   0  0  0  0  0  0  0  0  0  0  0  0
    0.6344    0.6131    3.2104 C   0  0  2  0  0  0  0  0  0  0  0  0
    0.2360    2.0503    2.8220 C   0  0  0  0  0  0  0  0  0  0  0  0
    1.3854    3.1706    3.6728 S   0  0  0  0  0  0  0  0  0  0  0  0
    2.5761    3.3677    2.8335 O   0  0  0  0  0  0  0  0  0  0  0  0
    0.6544    4.3107    4.2439 O   0  0  0  0  0  0  0  0  0  0  0  0
    1.7868    1.9755    4.9708 C   0  0  0  0  0  0  0  0  0  0  0  0
    1.7633    0.6169    4.2742 C   0  0  2  0  0  0  0  0  0  0  0  0
    3.2995    0.2480    3.3839 S   0  0  0  0  0  0  0  0  0  0  0  0
    3.8373   -1.2400   -1.5636 H   0  0  0  0  0  0  0  0  0  0  0  0
    5.3106   -2.0269   -1.0060 H   0  0  0  0  0  0  0  0  0  0  0  0
    5.3357   -0.3232   -1.4947 H   0  0  0  0  0  0  0  0  0  0  0  0
    0.5110   -0.3845    1.2759 H   0  0  0  0  0  0  0  0  0  0  0  0
   -0.2448    0.0925    3.5826 H   0  0  0  0  0  0  0  0  0  0  0  0
    0.3001    2.2402    1.7474 H   0  0  0  0  0  0  0  0  0  0  0  0
   -0.7744    2.2967    3.1582 H   0  0  0  0  0  0  0  0  0  0  0  0
    2.7421    2.2266    5.4274 H   0  0  0  0  0  0  0  0  0  0  0  0
    0.9914    2.0597    5.7101 H   0  0  0  0  0  0  0  0  0  0  0  0
    1.5851   -0.1680    5.0044 H   0  0  0  0  0  0  0  0  0  0  0  0
    2.3579   -0.7907   -0.0085 H   0  0  0  0  0  0  0  0  0  0  0  0
  1  2  1  0
  1 15  1  0
  1 16  1  0
  1 17  1  0
  2  3  2  0
  2  4  1  0
  4  5  1  0
  4 25  1  0
  5 14  1  0
  5  6  2  0
  6  7  1  0
  6 18  1  0
  7 13  1  0
  7  8  1  0
  7 19  1  1
  8  9  1  0
  8 20  1  0
  8 21  1  0
  9 10  2  0
  9 11  2  0
  9 12  1  0
 12 13  1  0
 12 22  1  0
 12 23  1  0
 13 14  1  0
 13 24  1  1
M  CHG  1   6   1
M  END
>  <i_m_ct_stereo_status>  (263) 
1

>  <s_m_source_file>  (263) 
/var/tmp/pbs.5076255.sched01/tmp361ftg5n/90jpawypyp.sdf

>  <i_m_source_file_index>  (263) 
20

>  <i_lp_mmshare_version>  (263) 
48012

>  <i_f3d_flags>  (263) 
0

>  <s_epik_input>  (263) 
W0NIM11DKD1PKS9OPUMoXFtOSF0xKVNbQ0BIXShbQ0BIXTEyKVtDSDJdUyg9TykoPU8pW0NIMl0y

>  <s_epik_cmdline>  (263) 
J2VwaWtfcHl0aG9uJywgJy1waHQnLCAnMi4wJywgJy1waCcsICc3LjAnLCAnLXRuJywgJzgnLCAnLW1hJywgJzIwMCcsICctaW1hZScsICc8aW5maWxlLm1hZT4nLCAnLW9tYWUnLCAnPG91dGZpbGUubWFlPic=

>  <r_epik_Ionization_Penalty>  (263) 
4.92522

>  <r_epik_Ionization_Penalty_Charging>  (263) 
4.92522

>  <r_epik_Ionization_Penalty_Neutral>  (263) 
1.86813e-14

>  <r_epik_State_Penalty>  (263) 
1.99345

>  <r_epik_Charging_Adjusted_Penalty>  (263) 
6.91867

>  <i_epik_Tot_Q>  (263) 
1

>  <i_epik_Tot_abs_Q>  (263) 
1

>  <s_epik_Chemistry_Notes>  (263) 
This compound has an imine and may undergo hydrolysis.

>  <s_lp_Force_Field>  (263) 
OPLS3e

>  <r_lp_Energy>  (263) 
-18.4501

>  <b_lp_Chiralities_Consistent>  (263) 
1

>  <s_lp_Variant>  (263) 
70:0-4

>  <s_i_glide_gridfile>  (263) 
pfpi4k_grid

>  <i_i_glide_lignum>  (263) 
20

>  <i_i_glide_rotatable_bonds>  (263) 
2

>  <r_i_docking_score>  (263) 
-4.41528

>  <r_i_glide_ligand_efficiency>  (263) 
-0.315377

>  <r_i_glide_ligand_efficiency_sa>  (263) 
-0.760104

>  <r_i_glide_ligand_efficiency_ln>  (263) 
-1.2133

>  <r_i_glide_gscore>  (263) 
-4.41528

>  <r_i_glide_lipo>  (263) 
0

>  <r_i_glide_hbond>  (263) 
-0.316022

>  <r_i_glide_metal>  (263) 
-0

>  <r_i_glide_rewards>  (263) 
-1.92817

>  <r_i_glide_evdw>  (263) 
-15.9404

>  <r_i_glide_ecoul>  (263) 
-6.88121

>  <r_i_glide_erotb>  (263) 
0

>  <r_i_glide_esite>  (263) 
-0.341883

>  <r_i_glide_emodel>  (263) 
-32.3254

>  <r_i_glide_energy>  (263) 
-22.8217

>  <r_i_glide_einternal>  (263) 
0.0106639

>  <r_i_glide_intrahb_reward>  (263) 
-0

>  <i_i_glide_confnum>  (263) 
2

>  <i_i_glide_posenum>  (263) 
35

>  <r_i_glide_eff_state_penalty>  (263) 
0

>  <ligand_id>  (263) 
70

>  <original_smiles>  (263) 
CC(=O)N=C1NC2CS(=O)(=O)CC2S1

>  <smiles>  (263) 
[H]N(C(=O)C([H])([H])[H])C1=[N+]([H])C2([H])C([H])(S1)C([H])([H])S(=O)(=O)C2([H])[H]

$$$$
70:3:2
     RDKit          3D

 25 26  0  0  1  0  0  0  0  0999 V2000
   -3.5205    3.3499    2.8621 C   0  0  0  0  0  0  0  0  0  0  0  0
   -2.0770    3.1960    3.2820 C   0  0  0  0  0  0  0  0  0  0  0  0
   -1.5698    3.8269    4.2163 O   0  0  0  0  0  0  0  0  0  0  0  0
   -1.3750    2.2508    2.4812 N   0  0  0  0  0  0  0  0  0  0  0  0
   -0.0775    1.8817    2.5318 C   0  0  0  0  0  0  0  0  0  0  0  0
    0.4871    0.9965    1.7090 N   0  0  0  0  0  0  0  0  0  0  0  0
    1.8256    0.4873    2.0828 C   0  0  2  0  0  0  0  0  0  0  0  0
    1.6655   -0.9384    2.6340 C   0  0  0  0  0  0  0  0  0  0  0  0
    2.0970   -0.8913    4.3905 S   0  0  0  0  0  0  0  0  0  0  0  0
    0.8906   -0.5328    5.1503 O   0  0  0  0  0  0  0  0  0  0  0  0
    2.9022   -2.0644    4.7316 O   0  0  0  0  0  0  0  0  0  0  0  0
    3.1447    0.5747    4.2173 C   0  0  0  0  0  0  0  0  0  0  0  0
    2.4601    1.4289    3.1426 C   0  0  2  0  0  0  0  0  0  0  0  0
    1.0905    2.4094    3.8010 S   0  0  0  0  0  0  0  0  0  0  0  0
   -3.7717    2.7036    2.0113 H   0  0  0  0  0  0  0  0  0  0  0  0
   -3.7080    4.3731    2.5590 H   0  0  0  0  0  0  0  0  0  0  0  0
   -4.1824    3.0811    3.6828 H   0  0  0  0  0  0  0  0  0  0  0  0
    0.0932    0.7513    0.7851 H   0  0  0  0  0  0  0  0  0  0  0  0
    2.4562    0.4465    1.1974 H   0  0  0  0  0  0  0  0  0  0  0  0
    0.6503   -1.3215    2.5422 H   0  0  0  0  0  0  0  0  0  0  0  0
    2.3373   -1.6404    2.1403 H   0  0  0  0  0  0  0  0  0  0  0  0
    3.2684    1.0727    5.1751 H   0  0  0  0  0  0  0  0  0  0  0  0
    4.1102    0.2130    3.8665 H   0  0  0  0  0  0  0  0  0  0  0  0
    3.1879    2.0993    2.6777 H   0  0  0  0  0  0  0  0  0  0  0  0
   -1.8413    1.7775    1.7407 H   0  0  0  0  0  0  0  0  0  0  0  0
  1  2  1  0
  1 15  1  0
  1 16  1  0
  1 17  1  0
  2  3  2  0
  2  4  1  0
  4  5  1  0
  4 25  1  0
  5 14  1  0
  5  6  2  0
  6  7  1  0
  6 18  1  0
  7 13  1  0
  7  8  1  0
  7 19  1  6
  8  9  1  0
  8 20  1  0
  8 21  1  0
  9 10  2  0
  9 11  2  0
  9 12  1  0
 12 13  1  0
 12 22  1  0
 12 23  1  0
 13 14  1  0
 13 24  1  6
M  CHG  1   6   1
M  END
>  <i_m_ct_stereo_status>  (264) 
1

>  <s_m_source_file>  (264) 
/var/tmp/pbs.5076255.sched01/tmp361ftg5n/90jpawypyp.sdf

>  <i_m_source_file_index>  (264) 
20

>  <i_lp_mmshare_version>  (264) 
48012

>  <i_f3d_flags>  (264) 
0

>  <s_epik_input>  (264) 
W0NIM11DKD1PKS9OPUMoXFtOSF0xKVNbQ0BIXShbQ0BIXTEyKVtDSDJdUyg9TykoPU8pW0NIMl0y

>  <s_epik_cmdline>  (264) 
J2VwaWtfcHl0aG9uJywgJy1waHQnLCAnMi4wJywgJy1waCcsICc3LjAnLCAnLXRuJywgJzgnLCAnLW1hJywgJzIwMCcsICctaW1hZScsICc8aW5maWxlLm1hZT4nLCAnLW9tYWUnLCAnPG91dGZpbGUubWFlPic=

>  <r_epik_Ionization_Penalty>  (264) 
4.92522

>  <r_epik_Ionization_Penalty_Charging>  (264) 
4.92522

>  <r_epik_Ionization_Penalty_Neutral>  (264) 
1.86813e-14

>  <r_epik_State_Penalty>  (264) 
1.99345

>  <r_epik_Charging_Adjusted_Penalty>  (264) 
6.91867

>  <i_epik_Tot_Q>  (264) 
1

>  <i_epik_Tot_abs_Q>  (264) 
1

>  <s_epik_Chemistry_Notes>  (264) 
This compound has an imine and may undergo hydrolysis.

>  <s_lp_Force_Field>  (264) 
OPLS3e

>  <r_lp_Energy>  (264) 
-18.4501

>  <b_lp_Chiralities_Consistent>  (264) 
1

>  <s_lp_Variant>  (264) 
70:0-4

>  <s_i_glide_gridfile>  (264) 
pfpi4k_grid

>  <i_i_glide_lignum>  (264) 
20

>  <i_i_glide_rotatable_bonds>  (264) 
2

>  <r_i_docking_score>  (264) 
-4.27341

>  <r_i_glide_ligand_efficiency>  (264) 
-0.305244

>  <r_i_glide_ligand_efficiency_sa>  (264) 
-0.735681

>  <r_i_glide_ligand_efficiency_ln>  (264) 
-1.17432

>  <r_i_glide_gscore>  (264) 
-4.27341

>  <r_i_glide_lipo>  (264) 
0

>  <r_i_glide_hbond>  (264) 
-0.222412

>  <r_i_glide_metal>  (264) 
-0

>  <r_i_glide_rewards>  (264) 
-1.80473

>  <r_i_glide_evdw>  (264) 
-16.3764

>  <r_i_glide_ecoul>  (264) 
-7.64259

>  <r_i_glide_erotb>  (264) 
0

>  <r_i_glide_esite>  (264) 
-0.281062

>  <r_i_glide_emodel>  (264) 
-32.8212

>  <r_i_glide_energy>  (264) 
-24.019

>  <r_i_glide_einternal>  (264) 
0.36904

>  <r_i_glide_intrahb_reward>  (264) 
-0

>  <i_i_glide_confnum>  (264) 
1

>  <i_i_glide_posenum>  (264) 
12

>  <r_i_glide_eff_state_penalty>  (264) 
0

>  <ligand_id>  (264) 
70

>  <original_smiles>  (264) 
CC(=O)N=C1NC2CS(=O)(=O)CC2S1

>  <smiles>  (264) 
[H]N(C(=O)C([H])([H])[H])C1=[N+]([H])C2([H])C([H])(S1)C([H])([H])S(=O)(=O)C2([H])[H]

$$$$
71:0:0
     RDKit          3D

 35 39  0  0  1  0  0  0  0  0999 V2000
    4.9062   -1.6709    4.6716 C   0  0  0  0  0  0  0  0  0  0  0  0
    4.8854   -1.6650    3.1653 C   0  0  0  0  0  0  0  0  0  0  0  0
    4.7315   -0.3500    2.5499 N   0  0  0  0  0  0  0  0  0  0  0  0
    4.2813   -0.2667    1.0925 C   0  0  2  0  0  0  0  0  0  0  0  0
    3.2170   -1.3019    1.1280 C   0  0  0  0  0  0  0  0  0  0  0  0
    4.1996   -2.4516    1.1785 C   0  0  2  0  0  0  0  0  0  0  0  0
    4.9123   -2.8339    2.3693 C   0  0  0  0  0  0  0  0  0  0  0  0
    5.9216   -3.3044    1.0976 C   0  0  1  0  0  0  0  0  0  0  0  0
    5.6316   -3.9880   -0.3073 C   0  0  0  0  0  0  0  0  0  0  0  0
    5.0761   -3.0493   -1.4486 C   0  0  0  0  0  0  0  0  0  0  0  0
    4.6920   -3.6711   -2.6569 C   0  0  0  0  0  0  0  0  0  0  0  0
    4.0940   -2.9419   -3.6884 C   0  0  0  0  0  0  0  0  0  0  0  0
    3.8906   -1.5568   -3.5648 C   0  0  0  0  0  0  0  0  0  0  0  0
    3.3492   -0.8399   -4.5916 O   0  0  0  0  0  0  0  0  0  0  0  0
    4.2991   -0.9013   -2.3824 C   0  0  0  0  0  0  0  0  0  0  0  0
    4.8809   -1.6190   -1.3111 C   0  0  0  0  0  0  0  0  0  0  0  0
    5.3310   -0.8663   -0.0218 C   0  0  2  0  0  0  0  0  0  0  0  0
    5.7665   -1.9132    0.8578 C   0  0  1  0  0  0  0  0  0  0  0  0
    4.8963   -2.6971    5.0486 H   0  0  0  0  0  0  0  0  0  0  0  0
    3.8866    0.7246    0.8497 H   0  0  0  0  0  0  0  0  0  0  0  0
    2.5248   -1.2233    1.9730 H   0  0  0  0  0  0  0  0  0  0  0  0
    2.6282   -1.2869    0.2104 H   0  0  0  0  0  0  0  0  0  0  0  0
    3.6808   -3.2879    0.6971 H   0  0  0  0  0  0  0  0  0  0  0  0
    6.9265   -3.5166    1.4610 H   0  0  0  0  0  0  0  0  0  0  0  0
    6.5964   -4.2960   -0.7185 H   0  0  0  0  0  0  0  0  0  0  0  0
    5.0458   -4.9045   -0.1956 H   0  0  0  0  0  0  0  0  0  0  0  0
    4.8459   -4.7304   -2.7747 H   0  0  0  0  0  0  0  0  0  0  0  0
    3.7888   -3.4534   -4.5840 H   0  0  0  0  0  0  0  0  0  0  0  0
    2.7585   -1.3143   -5.1575 H   0  0  0  0  0  0  0  0  0  0  0  0
    4.1650    0.1632   -2.2984 H   0  0  0  0  0  0  0  0  0  0  0  0
    6.1450   -0.1603   -0.2329 H   0  0  0  0  0  0  0  0  0  0  0  0
    6.5500   -1.4892    1.5176 H   0  0  0  0  0  0  0  0  0  0  0  0
    4.0369   -1.1353    5.0594 H   0  0  0  0  0  0  0  0  0  0  0  0
    5.8107   -1.1745    5.0404 H   0  0  0  0  0  0  0  0  0  0  0  0
    4.5692    0.4499    3.1312 H   0  0  0  0  0  0  0  0  0  0  0  0
  1  2  1  0
  1 19  1  0
  1 33  1  0
  1 34  1  0
  2  7  2  0
  2  3  1  0
  3  4  1  0
  3 35  1  0
  4 17  1  0
  4  5  1  0
  4 20  1  6
  5  6  1  0
  5 21  1  0
  5 22  1  0
  6 18  1  0
  6 23  1  6
  6  7  1  0
  7  8  1  0
  8 18  1  0
  8  9  1  0
  8 24  1  1
  9 10  1  0
  9 25  1  0
  9 26  1  0
 10 16  2  0
 10 11  1  0
 11 12  2  0
 11 27  1  0
 12 13  1  0
 12 28  1  0
 13 14  1  0
 13 15  2  0
 14 29  1  0
 15 16  1  0
 15 30  1  0
 16 17  1  0
 17 18  1  0
 17 31  1  6
 18 32  1  1
M  END
>  <i_m_ct_stereo_status>  (265) 
1

>  <s_m_source_file>  (265) 
/var/tmp/pbs.5076255.sched01/tmp361ftg5n/90jpawypyp.sdf

>  <i_m_source_file_index>  (265) 
21

>  <i_lp_mmshare_version>  (265) 
48012

>  <i_f3d_flags>  (265) 
0

>  <s_epik_input>  (265) 
W0NIM11DKD1OMSlbQ0BASF0oW0NAQEhdKFtDSDJdMilbQ0BASF0zNClbQ0BIXTNbQ0gyXWMoYzVbQ0hdNFtDQEhdMTIpW2NIXVtjSF1jKFtPSF0pW2NIXTU=

>  <s_epik_cmdline>  (265) 
J2VwaWtfcHl0aG9uJywgJy1waHQnLCAnMi4wJywgJy1waCcsICc3LjAnLCAnLXRuJywgJzgnLCAnLW1hJywgJzIwMCcsICctaW1hZScsICc8aW5maWxlLm1hZT4nLCAnLW9tYWUnLCAnPG91dGZpbGUubWFlPic=

>  <r_lp_tautomer_probability>  (265) 
1

>  <r_epik_Ionization_Penalty>  (265) 
0.00932814

>  <r_epik_Ionization_Penalty_Charging>  (265) 
2.33165e-05

>  <r_epik_Ionization_Penalty_Neutral>  (265) 
0.00930483

>  <r_epik_State_Penalty>  (265) 
-0

>  <r_epik_Charging_Adjusted_Penalty>  (265) 
2.33165e-05

>  <i_epik_Tot_Q>  (265) 
0

>  <i_epik_Tot_abs_Q>  (265) 
0

>  <s_epik_Chemistry_Notes>  (265) 
This compound has an imine and may undergo hydrolysis.

>  <s_lp_Force_Field>  (265) 
OPLS3e

>  <r_lp_Energy>  (265) 
240.279

>  <b_lp_Chiralities_Consistent>  (265) 
1

>  <s_lp_Variant>  (265) 
71:0-1

>  <s_i_glide_gridfile>  (265) 
pfpi4k_grid

>  <i_i_glide_lignum>  (265) 
21

>  <i_i_glide_rotatable_bonds>  (265) 
1

>  <r_i_docking_score>  (265) 
-4.84205

>  <r_i_glide_ligand_efficiency>  (265) 
-0.269003

>  <r_i_glide_ligand_efficiency_sa>  (265) 
-0.704987

>  <r_i_glide_ligand_efficiency_ln>  (265) 
-1.24462

>  <r_i_glide_gscore>  (265) 
-4.84205

>  <r_i_glide_lipo>  (265) 
-0.936208

>  <r_i_glide_hbond>  (265) 
-0.377906

>  <r_i_glide_metal>  (265) 
-0

>  <r_i_glide_rewards>  (265) 
-1.77742

>  <r_i_glide_evdw>  (265) 
-24.8145

>  <r_i_glide_ecoul>  (265) 
-3.39864

>  <r_i_glide_erotb>  (265) 
0

>  <r_i_glide_esite>  (265) 
0

>  <r_i_glide_emodel>  (265) 
-36.0391

>  <r_i_glide_energy>  (265) 
-28.2132

>  <r_i_glide_einternal>  (265) 
0.683668

>  <r_i_glide_intrahb_reward>  (265) 
-0

>  <i_i_glide_confnum>  (265) 
2

>  <i_i_glide_posenum>  (265) 
1

>  <r_i_glide_eff_state_penalty>  (265) 
0

>  <ligand_id>  (265) 
71

>  <original_smiles>  (265) 
CC1=NC2CC3C1C1Cc4ccc(O)cc4C2C13

>  <smiles>  (265) 
[H]Oc1c([H])c([H])c2c(c1[H])C1([H])C3([H])N([H])C(C([H])([H])[H])=C4C([H])(C2([H])[H])C1([H])C4([H])C3([H])[H]

$$$$
71:0:1
     RDKit          3D

 35 39  0  0  1  0  0  0  0  0999 V2000
    4.8900   -1.6915    4.8240 C   0  0  0  0  0  0  0  0  0  0  0  0
    4.8966   -1.6714    3.3163 C   0  0  0  0  0  0  0  0  0  0  0  0
    4.7233   -0.3581    2.7068 N   0  0  0  0  0  0  0  0  0  0  0  0
    4.3014   -0.2711    1.2414 C   0  0  2  0  0  0  0  0  0  0  0  0
    3.2626   -1.3346    1.2473 C   0  0  0  0  0  0  0  0  0  0  0  0
    4.2755   -2.4604    1.3110 C   0  0  2  0  0  0  0  0  0  0  0  0
    4.9746   -2.8326    2.5145 C   0  0  0  0  0  0  0  0  0  0  0  0
    6.0202   -3.2687    1.2589 C   0  0  1  0  0  0  0  0  0  0  0  0
    5.7804   -3.9566   -0.1532 C   0  0  0  0  0  0  0  0  0  0  0  0
    5.2228   -3.0234   -1.2978 C   0  0  0  0  0  0  0  0  0  0  0  0
    4.8714   -3.6513   -2.5163 C   0  0  0  0  0  0  0  0  0  0  0  0
    4.2939   -2.9151   -3.5560 C   0  0  0  0  0  0  0  0  0  0  0  0
    4.0551   -1.5371   -3.4115 C   0  0  0  0  0  0  0  0  0  0  0  0
    3.5171   -0.8267   -4.4395 O   0  0  0  0  0  0  0  0  0  0  0  0
    4.4005   -0.8889   -2.2118 C   0  0  0  0  0  0  0  0  0  0  0  0
    4.9908   -1.6014   -1.1500 C   0  0  0  0  0  0  0  0  0  0  0  0
    5.3902   -0.8353    0.1479 C   0  0  2  0  0  0  0  0  0  0  0  0
    5.8342   -1.8787    1.0270 C   0  0  1  0  0  0  0  0  0  0  0  0
    4.8984   -2.7191    5.1944 H   0  0  0  0  0  0  0  0  0  0  0  0
    3.8846    0.7105    0.9918 H   0  0  0  0  0  0  0  0  0  0  0  0
    2.5527   -1.2838    2.0794 H   0  0  0  0  0  0  0  0  0  0  0  0
    2.6915   -1.3297    0.3180 H   0  0  0  0  0  0  0  0  0  0  0  0
    3.7902   -3.3083    0.8138 H   0  0  0  0  0  0  0  0  0  0  0  0
    7.0244   -3.4617    1.6372 H   0  0  0  0  0  0  0  0  0  0  0  0
    6.7596   -4.2453   -0.5413 H   0  0  0  0  0  0  0  0  0  0  0  0
    5.2165   -4.8880   -0.0591 H   0  0  0  0  0  0  0  0  0  0  0  0
    5.0207   -4.7125   -2.6384 H   0  0  0  0  0  0  0  0  0  0  0  0
    4.0139   -3.4182   -4.4668 H   0  0  0  0  0  0  0  0  0  0  0  0
    3.1742    0.0118   -4.1772 H   0  0  0  0  0  0  0  0  0  0  0  0
    4.2141    0.1661   -2.1052 H   0  0  0  0  0  0  0  0  0  0  0  0
    6.1878   -0.1039   -0.0389 H   0  0  0  0  0  0  0  0  0  0  0  0
    6.5909   -1.4426    1.7084 H   0  0  0  0  0  0  0  0  0  0  0  0
    4.0030   -1.1807    5.2005 H   0  0  0  0  0  0  0  0  0  0  0  0
    5.7734   -1.1777    5.2162 H   0  0  0  0  0  0  0  0  0  0  0  0
    4.5317    0.4352    3.2917 H   0  0  0  0  0  0  0  0  0  0  0  0
  1  2  1  0
  1 19  1  0
  1 33  1  0
  1 34  1  0
  2  7  2  0
  2  3  1  0
  3  4  1  0
  3 35  1  0
  4 17  1  0
  4  5  1  0
  4 20  1  6
  5  6  1  0
  5 21  1  0
  5 22  1  0
  6 18  1  0
  6 23  1  6
  6  7  1  0
  7  8  1  0
  8 18  1  0
  8  9  1  0
  8 24  1  1
  9 10  1  0
  9 25  1  0
  9 26  1  0
 10 16  2  0
 10 11  1  0
 11 12  2  0
 11 27  1  0
 12 13  1  0
 12 28  1  0
 13 14  1  0
 13 15  2  0
 14 29  1  0
 15 16  1  0
 15 30  1  0
 16 17  1  0
 17 18  1  0
 17 31  1  6
 18 32  1  1
M  END
>  <i_m_ct_stereo_status>  (266) 
1

>  <s_m_source_file>  (266) 
/var/tmp/pbs.5076255.sched01/tmp361ftg5n/90jpawypyp.sdf

>  <i_m_source_file_index>  (266) 
21

>  <i_lp_mmshare_version>  (266) 
48012

>  <i_f3d_flags>  (266) 
0

>  <s_epik_input>  (266) 
W0NIM11DKD1OMSlbQ0BASF0oW0NAQEhdKFtDSDJdMilbQ0BASF0zNClbQ0BIXTNbQ0gyXWMoYzVbQ0hdNFtDQEhdMTIpW2NIXVtjSF1jKFtPSF0pW2NIXTU=

>  <s_epik_cmdline>  (266) 
J2VwaWtfcHl0aG9uJywgJy1waHQnLCAnMi4wJywgJy1waCcsICc3LjAnLCAnLXRuJywgJzgnLCAnLW1hJywgJzIwMCcsICctaW1hZScsICc8aW5maWxlLm1hZT4nLCAnLW9tYWUnLCAnPG91dGZpbGUubWFlPic=

>  <r_lp_tautomer_probability>  (266) 
1

>  <r_epik_Ionization_Penalty>  (266) 
0.00932814

>  <r_epik_Ionization_Penalty_Charging>  (266) 
2.33165e-05

>  <r_epik_Ionization_Penalty_Neutral>  (266) 
0.00930483

>  <r_epik_State_Penalty>  (266) 
-0

>  <r_epik_Charging_Adjusted_Penalty>  (266) 
2.33165e-05

>  <i_epik_Tot_Q>  (266) 
0

>  <i_epik_Tot_abs_Q>  (266) 
0

>  <s_epik_Chemistry_Notes>  (266) 
This compound has an imine and may undergo hydrolysis.

>  <s_lp_Force_Field>  (266) 
OPLS3e

>  <r_lp_Energy>  (266) 
240.279

>  <b_lp_Chiralities_Consistent>  (266) 
1

>  <s_lp_Variant>  (266) 
71:0-1

>  <s_i_glide_gridfile>  (266) 
pfpi4k_grid

>  <i_i_glide_lignum>  (266) 
21

>  <i_i_glide_rotatable_bonds>  (266) 
1

>  <r_i_docking_score>  (266) 
-4.49656

>  <r_i_glide_ligand_efficiency>  (266) 
-0.249809

>  <r_i_glide_ligand_efficiency_sa>  (266) 
-0.654684

>  <r_i_glide_ligand_efficiency_ln>  (266) 
-1.15582

>  <r_i_glide_gscore>  (266) 
-4.49656

>  <r_i_glide_lipo>  (266) 
-1.00902

>  <r_i_glide_hbond>  (266) 
-0.00981122

>  <r_i_glide_metal>  (266) 
-0

>  <r_i_glide_rewards>  (266) 
-1.77742

>  <r_i_glide_evdw>  (266) 
-25.4555

>  <r_i_glide_ecoul>  (266) 
-2.85025

>  <r_i_glide_erotb>  (266) 
0

>  <r_i_glide_esite>  (266) 
0

>  <r_i_glide_emodel>  (266) 
-35.9628

>  <r_i_glide_energy>  (266) 
-28.3057

>  <r_i_glide_einternal>  (266) 
0.252003

>  <r_i_glide_intrahb_reward>  (266) 
-0

>  <i_i_glide_confnum>  (266) 
2

>  <i_i_glide_posenum>  (266) 
3

>  <r_i_glide_eff_state_penalty>  (266) 
0

>  <ligand_id>  (266) 
71

>  <original_smiles>  (266) 
CC1=NC2CC3C1C1Cc4ccc(O)cc4C2C13

>  <smiles>  (266) 
[H]Oc1c([H])c([H])c2c(c1[H])C1([H])C3([H])N([H])C(C([H])([H])[H])=C4C([H])(C2([H])[H])C1([H])C4([H])C3([H])[H]

$$$$
71:0:2
     RDKit          3D

 35 39  0  0  1  0  0  0  0  0999 V2000
    4.7445   -2.3404    4.8020 C   0  0  0  0  0  0  0  0  0  0  0  0
    4.6195   -2.1832    3.3013 C   0  0  0  0  0  0  0  0  0  0  0  0
    5.2950   -1.0215    2.7349 N   0  0  0  0  0  0  0  0  0  0  0  0
    4.9038   -0.5520    1.3339 C   0  0  2  0  0  0  0  0  0  0  0  0
    3.4282   -0.6721    1.4614 C   0  0  0  0  0  0  0  0  0  0  0  0
    3.4493   -2.1796    1.3866 C   0  0  2  0  0  0  0  0  0  0  0  0
    3.8342   -3.0254    2.4865 C   0  0  0  0  0  0  0  0  0  0  0  0
    4.2109   -3.9250    1.1038 C   0  0  1  0  0  0  0  0  0  0  0  0
    3.4629   -4.1530   -0.2764 C   0  0  0  0  0  0  0  0  0  0  0  0
    3.5456   -2.9793   -1.3299 C   0  0  0  0  0  0  0  0  0  0  0  0
    2.7585   -3.0914   -2.4940 C   0  0  0  0  0  0  0  0  0  0  0  0
    2.7373   -2.0790   -3.4631 C   0  0  0  0  0  0  0  0  0  0  0  0
    3.4747   -0.8996   -3.2715 C   0  0  0  0  0  0  0  0  0  0  0  0
    3.4035    0.1080   -4.1921 O   0  0  0  0  0  0  0  0  0  0  0  0
    4.2753   -0.7553   -2.1188 C   0  0  0  0  0  0  0  0  0  0  0  0
    4.3286   -1.7714   -1.1410 C   0  0  0  0  0  0  0  0  0  0  0  0
    5.2410   -1.5821    0.1014 C   0  0  2  0  0  0  0  0  0  0  0  0
    4.9710   -2.7367    0.9115 C   0  0  1  0  0  0  0  0  0  0  0  0
    4.1051   -3.1522    5.1615 H   0  0  0  0  0  0  0  0  0  0  0  0
    5.2131    0.4779    1.1420 H   0  0  0  0  0  0  0  0  0  0  0  0
    3.0070   -0.2525    2.3769 H   0  0  0  0  0  0  0  0  0  0  0  0
    2.9139   -0.2178    0.6138 H   0  0  0  0  0  0  0  0  0  0  0  0
    2.4854   -2.4539    0.9488 H   0  0  0  0  0  0  0  0  0  0  0  0
    4.8521   -4.7743    1.3560 H   0  0  0  0  0  0  0  0  0  0  0  0
    3.9786   -4.9727   -0.7809 H   0  0  0  0  0  0  0  0  0  0  0  0
    2.4376   -4.5060   -0.1305 H   0  0  0  0  0  0  0  0  0  0  0  0
    2.1438   -3.9697   -2.6503 H   0  0  0  0  0  0  0  0  0  0  0  0
    2.0966   -2.1981   -4.3179 H   0  0  0  0  0  0  0  0  0  0  0  0
    3.2800    0.9603   -3.7908 H   0  0  0  0  0  0  0  0  0  0  0  0
    4.8350    0.1421   -1.9718 H   0  0  0  0  0  0  0  0  0  0  0  0
    6.2933   -1.5247   -0.1963 H   0  0  0  0  0  0  0  0  0  0  0  0
    5.8918   -2.9585    1.4830 H   0  0  0  0  0  0  0  0  0  0  0  0
    4.4506   -1.4137    5.3020 H   0  0  0  0  0  0  0  0  0  0  0  0
    5.7783   -2.5700    5.0770 H   0  0  0  0  0  0  0  0  0  0  0  0
    5.7414   -0.3621    3.3530 H   0  0  0  0  0  0  0  0  0  0  0  0
  1  2  1  0
  1 19  1  0
  1 33  1  0
  1 34  1  0
  2  7  2  0
  2  3  1  0
  3  4  1  0
  3 35  1  0
  4 17  1  0
  4  5  1  0
  4 20  1  6
  5  6  1  0
  5 21  1  0
  5 22  1  0
  6 18  1  0
  6 23  1  6
  6  7  1  0
  7  8  1  0
  8 18  1  0
  8  9  1  0
  8 24  1  1
  9 10  1  0
  9 25  1  0
  9 26  1  0
 10 16  2  0
 10 11  1  0
 11 12  2  0
 11 27  1  0
 12 13  1  0
 12 28  1  0
 13 14  1  0
 13 15  2  0
 14 29  1  0
 15 16  1  0
 15 30  1  0
 16 17  1  0
 17 18  1  0
 17 31  1  6
 18 32  1  1
M  END
>  <i_m_ct_stereo_status>  (267) 
1

>  <s_m_source_file>  (267) 
/var/tmp/pbs.5076255.sched01/tmp361ftg5n/90jpawypyp.sdf

>  <i_m_source_file_index>  (267) 
21

>  <i_lp_mmshare_version>  (267) 
48012

>  <i_f3d_flags>  (267) 
0

>  <s_epik_input>  (267) 
W0NIM11DKD1OMSlbQ0BASF0oW0NAQEhdKFtDSDJdMilbQ0BASF0zNClbQ0BIXTNbQ0gyXWMoYzVbQ0hdNFtDQEhdMTIpW2NIXVtjSF1jKFtPSF0pW2NIXTU=

>  <s_epik_cmdline>  (267) 
J2VwaWtfcHl0aG9uJywgJy1waHQnLCAnMi4wJywgJy1waCcsICc3LjAnLCAnLXRuJywgJzgnLCAnLW1hJywgJzIwMCcsICctaW1hZScsICc8aW5maWxlLm1hZT4nLCAnLW9tYWUnLCAnPG91dGZpbGUubWFlPic=

>  <r_lp_tautomer_probability>  (267) 
1

>  <r_epik_Ionization_Penalty>  (267) 
0.00932814

>  <r_epik_Ionization_Penalty_Charging>  (267) 
2.33165e-05

>  <r_epik_Ionization_Penalty_Neutral>  (267) 
0.00930483

>  <r_epik_State_Penalty>  (267) 
-0

>  <r_epik_Charging_Adjusted_Penalty>  (267) 
2.33165e-05

>  <i_epik_Tot_Q>  (267) 
0

>  <i_epik_Tot_abs_Q>  (267) 
0

>  <s_epik_Chemistry_Notes>  (267) 
This compound has an imine and may undergo hydrolysis.

>  <s_lp_Force_Field>  (267) 
OPLS3e

>  <r_lp_Energy>  (267) 
240.279

>  <b_lp_Chiralities_Consistent>  (267) 
1

>  <s_lp_Variant>  (267) 
71:0-1

>  <s_i_glide_gridfile>  (267) 
pfpi4k_grid

>  <i_i_glide_lignum>  (267) 
21

>  <i_i_glide_rotatable_bonds>  (267) 
1

>  <r_i_docking_score>  (267) 
-4.3553

>  <r_i_glide_ligand_efficiency>  (267) 
-0.241961

>  <r_i_glide_ligand_efficiency_sa>  (267) 
-0.634118

>  <r_i_glide_ligand_efficiency_ln>  (267) 
-1.11951

>  <r_i_glide_gscore>  (267) 
-4.3553

>  <r_i_glide_lipo>  (267) 
-0.564531

>  <r_i_glide_hbond>  (267) 
-0.247542

>  <r_i_glide_metal>  (267) 
-0

>  <r_i_glide_rewards>  (267) 
-1.77742

>  <r_i_glide_evdw>  (267) 
-23.7299

>  <r_i_glide_ecoul>  (267) 
-3.86213

>  <r_i_glide_erotb>  (267) 
0

>  <r_i_glide_esite>  (267) 
0

>  <r_i_glide_emodel>  (267) 
-33.5692

>  <r_i_glide_energy>  (267) 
-27.592

>  <r_i_glide_einternal>  (267) 
1.73249

>  <r_i_glide_intrahb_reward>  (267) 
-0

>  <i_i_glide_confnum>  (267) 
1

>  <i_i_glide_posenum>  (267) 
27

>  <r_i_glide_eff_state_penalty>  (267) 
0

>  <ligand_id>  (267) 
71

>  <original_smiles>  (267) 
CC1=NC2CC3C1C1Cc4ccc(O)cc4C2C13

>  <smiles>  (267) 
[H]Oc1c([H])c([H])c2c(c1[H])C1([H])C3([H])N([H])C(C([H])([H])[H])=C4C([H])(C2([H])[H])C1([H])C4([H])C3([H])[H]

$$$$
72:0:0
     RDKit          3D

 87 92  0  0  1  0  0  0  0  0999 V2000
    5.7143   -8.4512    7.0562 C   0  0  0  0  0  0  0  0  0  0  0  0
    5.2113   -8.0532    5.7792 O   0  0  0  0  0  0  0  0  0  0  0  0
    4.1024   -8.8138    5.2883 C   0  0  2  0  0  0  0  0  0  0  0  0
    4.7261  -10.1327    4.7743 C   0  0  1  0  0  0  0  0  0  0  0  0
    4.4285  -11.2441    5.5888 O   0  0  0  0  0  0  0  0  0  0  0  0
    4.4332  -10.3476    3.2889 C   0  0  1  0  0  0  0  0  0  0  0  0
    3.0185  -10.9146    3.0666 C   0  0  0  0  0  0  0  0  0  0  0  0
    1.7758   -9.9807    3.1015 C   0  0  1  0  0  0  0  0  0  0  0  0
    0.5867  -10.9132    3.4872 C   0  0  0  0  0  0  0  0  0  0  0  0
    1.8195   -8.5722    3.8623 C   0  0  2  0  0  0  0  0  0  0  0  0
    1.1707   -8.8190    5.0938 O   0  0  0  0  0  0  0  0  0  0  0  0
    0.9227   -7.4954    3.0689 C   0  0  2  0  0  0  0  0  0  0  0  0
   -0.5240   -7.9547    2.7714 C   0  0  0  0  0  0  0  0  0  0  0  0
    1.6182   -7.0477    1.7535 C   0  0  0  0  0  0  0  0  0  0  0  0
    2.3986   -5.7720    2.1211 C   0  0  2  0  0  0  0  0  0  0  0  0
    3.7245   -5.7466    1.5777 O   0  0  0  0  0  0  0  0  0  0  0  0
    4.4359   -4.5234    1.7392 C   0  0  0  0  0  0  0  0  0  0  0  0
    3.7419   -3.3320    1.0749 C   0  0  1  0  0  0  0  0  0  0  0  0
    3.7028   -3.5775   -0.4357 C   0  0  0  0  0  0  0  0  0  0  0  0
    2.5572   -2.5952    1.7000 C   0  0  1  0  0  0  0  0  0  0  0  0
    1.8168   -2.9153    3.0310 C   0  0  0  0  0  0  0  0  0  0  0  0
    2.3007   -4.0194    4.0026 C   0  0  0  0  0  0  0  0  0  0  0  0
    2.2182   -5.5572    3.6622 C   0  0  1  0  0  0  0  0  0  0  0  0
    0.8026   -6.1495    3.8270 C   0  0  0  0  0  0  0  0  0  0  0  0
    3.1632   -6.4199    4.6262 C   0  0  1  0  0  0  0  0  0  0  0  0
    2.9922   -6.1026    6.2034 C   0  0  2  0  0  0  0  0  0  0  0  0
    1.7208   -6.5619    6.9738 C   0  0  0  0  0  0  0  0  0  0  0  0
    3.2324   -4.7666    6.5558 O   0  0  0  0  0  0  0  0  0  0  0  0
    3.2704   -7.9740    4.2170 C   0  0  1  0  0  0  0  0  0  0  0  0
    4.0344   -7.9445    2.9902 O   0  0  0  0  0  0  0  0  0  0  0  0
    4.7708   -9.0654    2.4900 C   0  0  0  0  0  0  0  0  0  0  0  0
    6.2559   -8.6575    2.6272 C   0  0  0  0  0  0  0  0  0  0  0  0
    4.4782   -9.2224    0.9836 C   0  0  0  0  0  0  0  0  0  0  0  0
    3.9160   -1.9066    1.6092 C   0  0  1  0  0  0  0  0  0  0  0  0
    4.7506   -1.5985    2.8477 C   0  0  0  0  0  0  0  0  0  0  0  0
    4.0237   -0.7203    0.6372 C   0  0  0  0  0  0  0  0  0  0  0  0
    5.3390   -0.5950    0.1235 O   0  0  0  0  0  0  0  0  0  0  0  0
    6.5100   -7.7796    7.3689 H   0  0  0  0  0  0  0  0  0  0  0  0
    6.1306   -9.4605    7.0443 H   0  0  0  0  0  0  0  0  0  0  0  0
    4.9424   -8.4170    7.8236 H   0  0  0  0  0  0  0  0  0  0  0  0
    3.4526   -9.0292    6.1405 H   0  0  0  0  0  0  0  0  0  0  0  0
    5.8170  -10.0701    4.8476 H   0  0  0  0  0  0  0  0  0  0  0  0
    3.4731  -11.3689    5.6110 H   0  0  0  0  0  0  0  0  0  0  0  0
    5.1107  -11.1328    2.9413 H   0  0  0  0  0  0  0  0  0  0  0  0
    3.0133  -11.3934    2.0849 H   0  0  0  0  0  0  0  0  0  0  0  0
    2.8724  -11.7646    3.7367 H   0  0  0  0  0  0  0  0  0  0  0  0
    1.6064   -9.7513    2.0505 H   0  0  0  0  0  0  0  0  0  0  0  0
    0.7077  -11.3509    4.4804 H   0  0  0  0  0  0  0  0  0  0  0  0
    0.5154  -11.7459    2.7832 H   0  0  0  0  0  0  0  0  0  0  0  0
   -0.3808  -10.4237    3.4844 H   0  0  0  0  0  0  0  0  0  0  0  0
    0.3875   -9.3391    4.8781 H   0  0  0  0  0  0  0  0  0  0  0  0
   -1.1261   -7.1421    2.3523 H   0  0  0  0  0  0  0  0  0  0  0  0
   -1.0357   -8.2608    3.6852 H   0  0  0  0  0  0  0  0  0  0  0  0
   -0.5726   -8.7718    2.0508 H   0  0  0  0  0  0  0  0  0  0  0  0
    2.2620   -7.8059    1.3117 H   0  0  0  0  0  0  0  0  0  0  0  0
    0.8709   -6.8066    0.9848 H   0  0  0  0  0  0  0  0  0  0  0  0
    1.8236   -5.0121    1.5895 H   0  0  0  0  0  0  0  0  0  0  0  0
    4.6356   -4.3379    2.7808 H   0  0  0  0  0  0  0  0  0  0  0  0
    5.4164   -4.6491    1.2796 H   0  0  0  0  0  0  0  0  0  0  0  0
    3.1049   -2.8330   -0.9489 H   0  0  0  0  0  0  0  0  0  0  0  0
    3.2631   -4.5518   -0.6633 H   0  0  0  0  0  0  0  0  0  0  0  0
    4.7132   -3.5461   -0.8425 H   0  0  0  0  0  0  0  0  0  0  0  0
    1.8272   -2.2535    0.9748 H   0  0  0  0  0  0  0  0  0  0  0  0
    1.7918   -1.9701    3.5850 H   0  0  0  0  0  0  0  0  0  0  0  0
    0.7698   -3.1173    2.8115 H   0  0  0  0  0  0  0  0  0  0  0  0
    3.3042   -3.7537    4.3198 H   0  0  0  0  0  0  0  0  0  0  0  0
    1.6811   -3.8726    4.8791 H   0  0  0  0  0  0  0  0  0  0  0  0
    0.1348   -5.4788    3.2701 H   0  0  0  0  0  0  0  0  0  0  0  0
    0.4298   -6.3044    4.7920 H   0  0  0  0  0  0  0  0  0  0  0  0
    4.1761   -6.0396    4.4147 H   0  0  0  0  0  0  0  0  0  0  0  0
    3.8240   -6.5608    6.7213 H   0  0  0  0  0  0  0  0  0  0  0  0
    1.7014   -7.6560    7.0058 H   0  0  0  0  0  0  0  0  0  0  0  0
    0.8092   -6.1538    6.5825 H   0  0  0  0  0  0  0  0  0  0  0  0
    1.8014   -6.2511    8.0325 H   0  0  0  0  0  0  0  0  0  0  0  0
    3.1814   -4.7003    7.5179 H   0  0  0  0  0  0  0  0  0  0  0  0
    6.9249   -9.4765    2.3682 H   0  0  0  0  0  0  0  0  0  0  0  0
    6.5045   -8.3315    3.6338 H   0  0  0  0  0  0  0  0  0  0  0  0
    6.4882   -7.8182    1.9728 H   0  0  0  0  0  0  0  0  0  0  0  0
    5.1337   -9.9696    0.5357 H   0  0  0  0  0  0  0  0  0  0  0  0
    4.6393   -8.2850    0.4492 H   0  0  0  0  0  0  0  0  0  0  0  0
    3.4611   -9.5394    0.7738 H   0  0  0  0  0  0  0  0  0  0  0  0
    4.4403   -0.6555    3.3005 H   0  0  0  0  0  0  0  0  0  0  0  0
    5.8013   -1.5307    2.5767 H   0  0  0  0  0  0  0  0  0  0  0  0
    4.6627   -2.3651    3.6066 H   0  0  0  0  0  0  0  0  0  0  0  0
    3.3390   -0.8257   -0.1951 H   0  0  0  0  0  0  0  0  0  0  0  0
    3.7386    0.2016    1.1392 H   0  0  0  0  0  0  0  0  0  0  0  0
    5.4002    0.2586   -0.3087 H   0  0  0  0  0  0  0  0  0  0  0  0
  1  2  1  0
  1 38  1  0
  1 39  1  0
  1 40  1  0
  2  3  1  0
  3 29  1  0
  3  4  1  0
  3 41  1  1
  4  5  1  0
  4  6  1  0
  4 42  1  6
  5 43  1  0
  6 31  1  0
  6  7  1  0
  6 44  1  6
  7  8  1  0
  7 45  1  0
  7 46  1  0
  8  9  1  0
  8 10  1  0
  8 47  1  6
  9 48  1  0
  9 49  1  0
  9 50  1  0
 10 29  1  0
 10 11  1  1
 10 12  1  0
 11 51  1  0
 12 24  1  0
 12 13  1  6
 12 14  1  0
 13 52  1  0
 13 53  1  0
 13 54  1  0
 14 15  1  0
 14 55  1  0
 14 56  1  0
 15 23  1  0
 15 16  1  0
 15 57  1  6
 16 17  1  0
 17 18  1  0
 17 58  1  0
 17 59  1  0
 18 34  1  0
 18 19  1  6
 18 20  1  0
 19 60  1  0
 19 61  1  0
 19 62  1  0
 20 21  1  0
 20 34  1  0
 20 63  1  6
 21 22  1  0
 21 64  1  0
 21 65  1  0
 23 22  1  6
 22 66  1  0
 22 67  1  0
 23 24  1  0
 23 25  1  0
 24 68  1  0
 24 69  1  0
 25 26  1  0
 25 29  1  0
 25 70  1  6
 26 27  1  0
 26 28  1  0
 26 71  1  1
 27 72  1  0
 27 73  1  0
 27 74  1  0
 28 75  1  0
 29 30  1  6
 30 31  1  0
 31 32  1  0
 31 33  1  0
 32 76  1  0
 32 77  1  0
 32 78  1  0
 33 79  1  0
 33 80  1  0
 33 81  1  0
 34 35  1  1
 34 36  1  0
 35 82  1  0
 35 83  1  0
 35 84  1  0
 36 37  1  0
 36 85  1  0
 36 86  1  0
 37 87  1  0
M  END
>  <i_m_ct_stereo_status>  (268) 
1

>  <s_m_source_file>  (268) 
/var/tmp/pbs.5076255.sched01/tmp361ftg5n/90jpawypyp.sdf

>  <i_m_source_file_index>  (268) 
22

>  <i_lp_mmshare_version>  (268) 
48012

>  <i_f3d_flags>  (268) 
0

>  <s_epik_input>  (268) 
W0NIM11bQ0BASF0xW0NIMl1bQ0BASF0oQyhPMikoW0NIM10pW0NIM10pW0NASF0oW09IXSlbQ0BASF0oT1tDSDNdKVtDQF0yKFtDQEBIXTNbQ0BIXShbQ0gzXSlbT0hdKVtDQEBdMShbT0hdKVtDQEBdKFtDSDNdKShbQ0gyXTQpW0NIMl1bQ0BASF0oW0NAXTM0NSlPW0NIMl1bQ0BAXTYoW0NIM10pW0NAQEhdKFtDSDJdW0NIMl01KVtDQF02KFtDSDNdKVtDSDJdW09IXQ==

>  <s_epik_cmdline>  (268) 
J2VwaWtfcHl0aG9uJywgJy1waHQnLCAnMi4wJywgJy1waCcsICc3LjAnLCAnLXRuJywgJzgnLCAnLW1hJywgJzIwMCcsICctaW1hZScsICc8aW5maWxlLm1hZT4nLCAnLW9tYWUnLCAnPG91dGZpbGUubWFlPic=

>  <r_lp_tautomer_probability>  (268) 
1

>  <r_epik_Ionization_Penalty>  (268) 
1.57221e-06

>  <r_epik_Ionization_Penalty_Charging>  (268) 
0

>  <r_epik_Ionization_Penalty_Neutral>  (268) 
1.57221e-06

>  <r_epik_State_Penalty>  (268) 
-0

>  <r_epik_Charging_Adjusted_Penalty>  (268) 
0

>  <i_epik_Tot_Q>  (268) 
0

>  <i_epik_Tot_abs_Q>  (268) 
0

>  <s_lp_Force_Field>  (268) 
OPLS3e

>  <r_lp_Energy>  (268) 
123.979

>  <b_lp_Chiralities_Consistent>  (268) 
1

>  <s_lp_Variant>  (268) 
72:0-1

>  <s_i_glide_gridfile>  (268) 
pfpi4k_grid

>  <i_i_glide_lignum>  (268) 
22

>  <i_i_glide_rotatable_bonds>  (268) 
7

>  <r_i_docking_score>  (268) 
-2.3316

>  <r_i_glide_ligand_efficiency>  (268) 
-0.0630161

>  <r_i_glide_ligand_efficiency_sa>  (268) 
-0.209984

>  <r_i_glide_ligand_efficiency_ln>  (268) 
-0.505669

>  <r_i_glide_gscore>  (268) 
-2.3316

>  <r_i_glide_lipo>  (268) 
-0.247563

>  <r_i_glide_hbond>  (268) 
-0.32

>  <r_i_glide_metal>  (268) 
-0

>  <r_i_glide_rewards>  (268) 
0

>  <r_i_glide_evdw>  (268) 
-24.6688

>  <r_i_glide_ecoul>  (268) 
-4.54088

>  <r_i_glide_erotb>  (268) 
0.150537

>  <r_i_glide_esite>  (268) 
0

>  <r_i_glide_emodel>  (268) 
-31.1441

>  <r_i_glide_energy>  (268) 
-29.2097

>  <r_i_glide_einternal>  (268) 
2.91668

>  <r_i_glide_intrahb_reward>  (268) 
-0

>  <i_i_glide_confnum>  (268) 
3

>  <i_i_glide_posenum>  (268) 
1

>  <r_i_glide_eff_state_penalty>  (268) 
0

>  <ligand_id>  (268) 
72

>  <original_smiles>  (268) 
COC1C(O)C2CC(C)C3(O)C4(C)CC5OCC6(C)C(CCC5(C4)C(C(C)O)C13OC2(C)C)C6(C)CO

>  <smiles>  (268) 
[H]OC([H])([H])C1(C([H])([H])[H])C2([H])C([H])([H])C([H])([H])C34C([H])([H])C(C([H])([H])[H])(C([H])([H])C3([H])OC([H])([H])C21C([H])([H])[H])C1(O[H])C([H])(C([H])([H])[H])C([H])([H])C2([H])C([H])(O[H])C([H])(OC([H])([H])[H])C1(OC2(C([H])([H])[H])C([H])([H])[H])C4([H])C([H])(O[H])C([H])([H])[H]

$$$$
72:0:1
     RDKit          3D

 87 92  0  0  1  0  0  0  0  0999 V2000
    5.6267   -8.5676    7.0483 C   0  0  0  0  0  0  0  0  0  0  0  0
    5.0517   -8.0456    5.8702 O   0  0  0  0  0  0  0  0  0  0  0  0
    3.9505   -8.7982    5.3506 C   0  0  2  0  0  0  0  0  0  0  0  0
    4.5555  -10.0937    4.7636 C   0  0  1  0  0  0  0  0  0  0  0  0
    4.2744  -11.2392    5.5477 O   0  0  0  0  0  0  0  0  0  0  0  0
    4.2334  -10.2554    3.2875 C   0  0  1  0  0  0  0  0  0  0  0  0
    2.8209  -10.8170    3.0809 C   0  0  0  0  0  0  0  0  0  0  0  0
    1.5804   -9.8902    3.1860 C   0  0  1  0  0  0  0  0  0  0  0  0
    0.4095  -10.8366    3.5664 C   0  0  0  0  0  0  0  0  0  0  0  0
    1.6432   -8.5201    3.9981 C   0  0  2  0  0  0  0  0  0  0  0  0
    1.0395   -8.8206    5.2399 O   0  0  0  0  0  0  0  0  0  0  0  0
    0.7067   -7.4257    3.2858 C   0  0  2  0  0  0  0  0  0  0  0  0
   -0.7381   -7.8768    2.9910 C   0  0  0  0  0  0  0  0  0  0  0  0
    1.3526   -6.9201    1.9687 C   0  0  0  0  0  0  0  0  0  0  0  0
    2.1297   -5.6575    2.3482 C   0  0  2  0  0  0  0  0  0  0  0  0
    3.4301   -5.6017    1.7491 O   0  0  0  0  0  0  0  0  0  0  0  0
    4.1453   -4.3784    1.9186 C   0  0  0  0  0  0  0  0  0  0  0  0
    3.4299   -3.1757    1.3168 C   0  0  1  0  0  0  0  0  0  0  0  0
    3.3583   -3.3789   -0.1927 C   0  0  0  0  0  0  0  0  0  0  0  0
    2.2716   -2.4606    1.9984 C   0  0  1  0  0  0  0  0  0  0  0  0
    1.5682   -2.8444    3.3298 C   0  0  0  0  0  0  0  0  0  0  0  0
    2.0884   -3.9569    4.2774 C   0  0  0  0  0  0  0  0  0  0  0  0
    2.0291   -5.4857    3.8868 C   0  0  1  0  0  0  0  0  0  0  0  0
    0.6470   -6.1135    4.1064 C   0  0  0  0  0  0  0  0  0  0  0  0
    3.0124   -6.3719    4.7709 C   0  0  1  0  0  0  0  0  0  0  0  0
    2.8456   -6.0445    6.3272 C   0  0  2  0  0  0  0  0  0  0  0  0
    4.1017   -5.5555    7.0771 C   0  0  0  0  0  0  0  0  0  0  0  0
    2.1144   -6.9705    7.1018 O   0  0  0  0  0  0  0  0  0  0  0  0
    3.0909   -7.9191    4.3332 C   0  0  1  0  0  0  0  0  0  0  0  0
    3.8065   -7.8516    3.0810 O   0  0  0  0  0  0  0  0  0  0  0  0
    4.5456   -8.9441    2.5260 C   0  0  0  0  0  0  0  0  0  0  0  0
    6.0274   -8.5185    2.6359 C   0  0  0  0  0  0  0  0  0  0  0  0
    4.2278   -9.0535    1.0251 C   0  0  0  0  0  0  0  0  0  0  0  0
    3.6140   -1.7628    1.8922 C   0  0  1  0  0  0  0  0  0  0  0  0
    4.4622   -1.4746    3.1179 C   0  0  0  0  0  0  0  0  0  0  0  0
    3.6817   -0.5306    0.9683 C   0  0  0  0  0  0  0  0  0  0  0  0
    5.0068   -0.3171    0.4883 O   0  0  0  0  0  0  0  0  0  0  0  0
    6.4453   -7.9390    7.3558 H   0  0  0  0  0  0  0  0  0  0  0  0
    6.0551   -9.6049    7.0073 H   0  0  0  0  0  0  0  0  0  0  0  0
    4.8707   -8.5763    7.8192 H   0  0  0  0  0  0  0  0  0  0  0  0
    3.3236   -9.0530    6.2101 H   0  0  0  0  0  0  0  0  0  0  0  0
    5.6453  -10.0253    4.8007 H   0  0  0  0  0  0  0  0  0  0  0  0
    3.3277  -11.3674    5.5893 H   0  0  0  0  0  0  0  0  0  0  0  0
    4.9086  -11.0195    2.8938 H   0  0  0  0  0  0  0  0  0  0  0  0
    2.8010  -11.2527    2.0840 H   0  0  0  0  0  0  0  0  0  0  0  0
    2.6909  -11.6869    3.7244 H   0  0  0  0  0  0  0  0  0  0  0  0
    1.3811   -9.6192    2.1538 H   0  0  0  0  0  0  0  0  0  0  0  0
    0.5547  -11.3110    4.5401 H   0  0  0  0  0  0  0  0  0  0  0  0
    0.3360  -11.6416    2.8302 H   0  0  0  0  0  0  0  0  0  0  0  0
   -0.5655  -10.3568    3.5961 H   0  0  0  0  0  0  0  0  0  0  0  0
    0.2681   -9.3564    5.0643 H   0  0  0  0  0  0  0  0  0  0  0  0
   -1.3492   -7.0588    2.5985 H   0  0  0  0  0  0  0  0  0  0  0  0
   -1.2473   -8.2291    3.8918 H   0  0  0  0  0  0  0  0  0  0  0  0
   -0.7777   -8.6575    2.2357 H   0  0  0  0  0  0  0  0  0  0  0  0
    1.9818   -7.6478    1.4822 H   0  0  0  0  0  0  0  0  0  0  0  0
    0.5913   -6.6635    1.2295 H   0  0  0  0  0  0  0  0  0  0  0  0
    1.5281   -4.8931    1.8598 H   0  0  0  0  0  0  0  0  0  0  0  0
    4.3657   -4.2139    2.9563 H   0  0  0  0  0  0  0  0  0  0  0  0
    5.1131   -4.4717    1.4194 H   0  0  0  0  0  0  0  0  0  0  0  0
    2.7339   -2.6342   -0.6607 H   0  0  0  0  0  0  0  0  0  0  0  0
    2.9387   -4.3596   -0.4324 H   0  0  0  0  0  0  0  0  0  0  0  0
    4.3643   -3.3153   -0.6048 H   0  0  0  0  0  0  0  0  0  0  0  0
    1.5256   -2.0621    1.3223 H   0  0  0  0  0  0  0  0  0  0  0  0
    1.5200   -1.9165    3.9065 H   0  0  0  0  0  0  0  0  0  0  0  0
    0.5255   -3.0574    3.0968 H   0  0  0  0  0  0  0  0  0  0  0  0
    3.0875   -3.7177    4.6290 H   0  0  0  0  0  0  0  0  0  0  0  0
    1.4539   -3.8081    5.1429 H   0  0  0  0  0  0  0  0  0  0  0  0
   -0.1193   -5.4498    3.7120 H   0  0  0  0  0  0  0  0  0  0  0  0
    0.3833   -6.2718    5.1521 H   0  0  0  0  0  0  0  0  0  0  0  0
    4.0014   -5.9866    4.5321 H   0  0  0  0  0  0  0  0  0  0  0  0
    2.1874   -5.1854    6.4415 H   0  0  0  0  0  0  0  0  0  0  0  0
    4.4554   -4.6049    6.6686 H   0  0  0  0  0  0  0  0  0  0  0  0
    4.9360   -6.3078    7.0457 H   0  0  0  0  0  0  0  0  0  0  0  0
    3.8430   -5.3418    8.1259 H   0  0  0  0  0  0  0  0  0  0  0  0
    2.5041   -7.8369    7.0310 H   0  0  0  0  0  0  0  0  0  0  0  0
    6.6967   -9.3200    2.3257 H   0  0  0  0  0  0  0  0  0  0  0  0
    6.3013   -8.2208    3.6418 H   0  0  0  0  0  0  0  0  0  0  0  0
    6.2257   -7.6544    1.9980 H   0  0  0  0  0  0  0  0  0  0  0  0
    4.8788   -9.7872    0.5410 H   0  0  0  0  0  0  0  0  0  0  0  0
    4.3777   -8.0950    0.5203 H   0  0  0  0  0  0  0  0  0  0  0  0
    3.2069   -9.3665    0.8266 H   0  0  0  0  0  0  0  0  0  0  0  0
    4.1437   -0.5416    3.5865 H   0  0  0  0  0  0  0  0  0  0  0  0
    5.5050   -1.3844    2.8226 H   0  0  0  0  0  0  0  0  0  0  0  0
    4.3862   -2.2637    3.8527 H   0  0  0  0  0  0  0  0  0  0  0  0
    3.0114   -0.6496    0.1285 H   0  0  0  0  0  0  0  0  0  0  0  0
    3.3418    0.3471    1.5122 H   0  0  0  0  0  0  0  0  0  0  0  0
    5.0119    0.4652   -0.0617 H   0  0  0  0  0  0  0  0  0  0  0  0
  1  2  1  0
  1 38  1  0
  1 39  1  0
  1 40  1  0
  2  3  1  0
  3 29  1  0
  3  4  1  0
  3 41  1  1
  4  5  1  0
  4  6  1  0
  4 42  1  6
  5 43  1  0
  6 31  1  0
  6  7  1  0
  6 44  1  6
  7  8  1  0
  7 45  1  0
  7 46  1  0
  8  9  1  0
  8 10  1  0
  8 47  1  6
  9 48  1  0
  9 49  1  0
  9 50  1  0
 10 29  1  0
 10 11  1  1
 10 12  1  0
 11 51  1  0
 12 24  1  0
 12 13  1  6
 12 14  1  0
 13 52  1  0
 13 53  1  0
 13 54  1  0
 14 15  1  0
 14 55  1  0
 14 56  1  0
 15 23  1  0
 15 16  1  0
 15 57  1  6
 16 17  1  0
 17 18  1  0
 17 58  1  0
 17 59  1  0
 18 34  1  0
 18 19  1  6
 18 20  1  0
 19 60  1  0
 19 61  1  0
 19 62  1  0
 20 21  1  0
 20 34  1  0
 20 63  1  6
 21 22  1  0
 21 64  1  0
 21 65  1  0
 23 22  1  6
 22 66  1  0
 22 67  1  0
 23 24  1  0
 23 25  1  0
 24 68  1  0
 24 69  1  0
 25 26  1  0
 25 29  1  0
 25 70  1  6
 26 27  1  0
 26 28  1  0
 26 71  1  6
 27 72  1  0
 27 73  1  0
 27 74  1  0
 28 75  1  0
 29 30  1  6
 30 31  1  0
 31 32  1  0
 31 33  1  0
 32 76  1  0
 32 77  1  0
 32 78  1  0
 33 79  1  0
 33 80  1  0
 33 81  1  0
 34 35  1  1
 34 36  1  0
 35 82  1  0
 35 83  1  0
 35 84  1  0
 36 37  1  0
 36 85  1  0
 36 86  1  0
 37 87  1  0
M  END
>  <i_m_ct_stereo_status>  (269) 
1

>  <s_m_source_file>  (269) 
/var/tmp/pbs.5076255.sched01/tmp361ftg5n/90jpawypyp.sdf

>  <i_m_source_file_index>  (269) 
22

>  <i_lp_mmshare_version>  (269) 
48012

>  <i_f3d_flags>  (269) 
0

>  <s_epik_input>  (269) 
W0NIM11bQ0BASF0xW0NIMl1bQ0BASF0oQyhPMikoW0NIM10pW0NIM10pW0NASF0oW09IXSlbQ0BASF0oT1tDSDNdKVtDQF0yKFtDQEBIXTNbQ0BIXShbQ0gzXSlbT0hdKVtDQEBdMShbT0hdKVtDQEBdKFtDSDNdKShbQ0gyXTQpW0NIMl1bQ0BASF0oW0NAXTM0NSlPW0NIMl1bQ0BAXTYoW0NIM10pW0NAQEhdKFtDSDJdW0NIMl01KVtDQF02KFtDSDNdKVtDSDJdW09IXQ==

>  <s_epik_cmdline>  (269) 
J2VwaWtfcHl0aG9uJywgJy1waHQnLCAnMi4wJywgJy1waCcsICc3LjAnLCAnLXRuJywgJzgnLCAnLW1hJywgJzIwMCcsICctaW1hZScsICc8aW5maWxlLm1hZT4nLCAnLW9tYWUnLCAnPG91dGZpbGUubWFlPic=

>  <r_lp_tautomer_probability>  (269) 
1

>  <r_epik_Ionization_Penalty>  (269) 
1.57221e-06

>  <r_epik_Ionization_Penalty_Charging>  (269) 
0

>  <r_epik_Ionization_Penalty_Neutral>  (269) 
1.57221e-06

>  <r_epik_State_Penalty>  (269) 
-0

>  <r_epik_Charging_Adjusted_Penalty>  (269) 
0

>  <i_epik_Tot_Q>  (269) 
0

>  <i_epik_Tot_abs_Q>  (269) 
0

>  <s_lp_Force_Field>  (269) 
OPLS3e

>  <r_lp_Energy>  (269) 
123.979

>  <b_lp_Chiralities_Consistent>  (269) 
1

>  <s_lp_Variant>  (269) 
72:0-1

>  <s_i_glide_gridfile>  (269) 
pfpi4k_grid

>  <i_i_glide_lignum>  (269) 
22

>  <i_i_glide_rotatable_bonds>  (269) 
7

>  <r_i_docking_score>  (269) 
-2.28458

>  <r_i_glide_ligand_efficiency>  (269) 
-0.0617455

>  <r_i_glide_ligand_efficiency_sa>  (269) 
-0.20575

>  <r_i_glide_ligand_efficiency_ln>  (269) 
-0.495472

>  <r_i_glide_gscore>  (269) 
-2.28458

>  <r_i_glide_lipo>  (269) 
-0.169271

>  <r_i_glide_hbond>  (269) 
-0.32

>  <r_i_glide_metal>  (269) 
-0

>  <r_i_glide_rewards>  (269) 
0

>  <r_i_glide_evdw>  (269) 
-24.5726

>  <r_i_glide_ecoul>  (269) 
-4.78144

>  <r_i_glide_erotb>  (269) 
0.150537

>  <r_i_glide_esite>  (269) 
0

>  <r_i_glide_emodel>  (269) 
-31.1543

>  <r_i_glide_energy>  (269) 
-29.3541

>  <r_i_glide_einternal>  (269) 
0.733961

>  <r_i_glide_intrahb_reward>  (269) 
-0

>  <i_i_glide_confnum>  (269) 
2

>  <i_i_glide_posenum>  (269) 
12

>  <r_i_glide_eff_state_penalty>  (269) 
0

>  <ligand_id>  (269) 
72

>  <original_smiles>  (269) 
COC1C(O)C2CC(C)C3(O)C4(C)CC5OCC6(C)C(CCC5(C4)C(C(C)O)C13OC2(C)C)C6(C)CO

>  <smiles>  (269) 
[H]OC([H])([H])C1(C([H])([H])[H])C2([H])C([H])([H])C([H])([H])C34C([H])([H])C(C([H])([H])[H])(C([H])([H])C3([H])OC([H])([H])C21C([H])([H])[H])C1(O[H])C([H])(C([H])([H])[H])C([H])([H])C2([H])C([H])(O[H])C([H])(OC([H])([H])[H])C1(OC2(C([H])([H])[H])C([H])([H])[H])C4([H])C([H])(O[H])C([H])([H])[H]

$$$$
72:0:2
     RDKit          3D

 87 92  0  0  1  0  0  0  0  0999 V2000
    5.6568   -8.3806    7.0440 C   0  0  0  0  0  0  0  0  0  0  0  0
    5.0819   -7.9009    5.8303 O   0  0  0  0  0  0  0  0  0  0  0  0
    3.9782   -8.6609    5.3446 C   0  0  2  0  0  0  0  0  0  0  0  0
    4.5928   -9.9332    4.7345 C   0  0  1  0  0  0  0  0  0  0  0  0
    4.3000  -11.0785    5.5094 O   0  0  0  0  0  0  0  0  0  0  0  0
    4.2257  -10.0878    3.2675 C   0  0  1  0  0  0  0  0  0  0  0  0
    2.8042  -10.6467    3.0931 C   0  0  0  0  0  0  0  0  0  0  0  0
    1.5625   -9.7324    3.2507 C   0  0  1  0  0  0  0  0  0  0  0  0
    0.4008  -10.6908    3.6312 C   0  0  0  0  0  0  0  0  0  0  0  0
    1.6246   -8.3685    4.0707 C   0  0  2  0  0  0  0  0  0  0  0  0
    1.0293   -8.6341    5.3322 O   0  0  0  0  0  0  0  0  0  0  0  0
    0.6832   -7.2712    3.3838 C   0  0  2  0  0  0  0  0  0  0  0  0
   -0.7720   -7.7327    3.1192 C   0  0  0  0  0  0  0  0  0  0  0  0
    1.2950   -6.7506    2.0641 C   0  0  0  0  0  0  0  0  0  0  0  0
    2.0761   -5.4839    2.4381 C   0  0  2  0  0  0  0  0  0  0  0  0
    3.3607   -5.4093    1.8226 O   0  0  0  0  0  0  0  0  0  0  0  0
    4.0779   -4.1903    1.9954 C   0  0  0  0  0  0  0  0  0  0  0  0
    3.3392   -2.9835    1.4209 C   0  0  1  0  0  0  0  0  0  0  0  0
    3.2510   -3.1743   -0.0843 C   0  0  0  0  0  0  0  0  0  0  0  0
    2.1768   -2.3032    2.1436 C   0  0  1  0  0  0  0  0  0  0  0  0
    1.5169   -2.6968    3.4779 C   0  0  0  0  0  0  0  0  0  0  0  0
    2.0724   -3.8228    4.4002 C   0  0  0  0  0  0  0  0  0  0  0  0
    2.0067   -5.3399    3.9823 C   0  0  1  0  0  0  0  0  0  0  0  0
    0.6317   -5.9701    4.2181 C   0  0  0  0  0  0  0  0  0  0  0  0
    3.0126   -6.2417    4.8232 C   0  0  1  0  0  0  0  0  0  0  0  0
    2.8566   -5.9386    6.3763 C   0  0  2  0  0  0  0  0  0  0  0  0
    4.0790   -5.2726    7.0424 C   0  0  0  0  0  0  0  0  0  0  0  0
    2.3830   -6.9925    7.1834 O   0  0  0  0  0  0  0  0  0  0  0  0
    3.0869   -7.7782    4.3633 C   0  0  1  0  0  0  0  0  0  0  0  0
    3.7741   -7.6831    3.1016 O   0  0  0  0  0  0  0  0  0  0  0  0
    4.5079   -8.7647    2.5218 C   0  0  0  0  0  0  0  0  0  0  0  0
    5.9894   -8.3333    2.6045 C   0  0  0  0  0  0  0  0  0  0  0  0
    4.1586   -8.8586    1.0239 C   0  0  0  0  0  0  0  0  0  0  0  0
    3.4969   -1.5654    2.0218 C   0  0  1  0  0  0  0  0  0  0  0  0
    4.4110   -1.3169    3.2179 C   0  0  0  0  0  0  0  0  0  0  0  0
    3.5467   -0.3345    1.1130 C   0  0  0  0  0  0  0  0  0  0  0  0
    3.0160    0.8163    1.7481 O   0  0  0  0  0  0  0  0  0  0  0  0
    6.4604   -7.7055    7.3431 H   0  0  0  0  0  0  0  0  0  0  0  0
    6.0887   -9.3812    6.9597 H   0  0  0  0  0  0  0  0  0  0  0  0
    4.9123   -8.3884    7.8423 H   0  0  0  0  0  0  0  0  0  0  0  0
    3.3792   -8.9746    6.1981 H   0  0  0  0  0  0  0  0  0  0  0  0
    5.6774   -9.8661    4.7706 H   0  0  0  0  0  0  0  0  0  0  0  0
    4.5997  -11.8507    5.0508 H   0  0  0  0  0  0  0  0  0  0  0  0
    4.8937  -10.8422    2.8458 H   0  0  0  0  0  0  0  0  0  0  0  0
    2.7585  -11.0734    2.0898 H   0  0  0  0  0  0  0  0  0  0  0  0
    2.6942  -11.5268    3.7231 H   0  0  0  0  0  0  0  0  0  0  0  0
    1.3405   -9.4489    2.2248 H   0  0  0  0  0  0  0  0  0  0  0  0
    0.5711  -11.1749    4.5945 H   0  0  0  0  0  0  0  0  0  0  0  0
    0.3215  -11.4881    2.8904 H   0  0  0  0  0  0  0  0  0  0  0  0
   -0.5812  -10.2297    3.6801 H   0  0  0  0  0  0  0  0  0  0  0  0
    0.3352   -9.2641    5.1883 H   0  0  0  0  0  0  0  0  0  0  0  0
   -1.3947   -6.9194    2.7499 H   0  0  0  0  0  0  0  0  0  0  0  0
   -1.2550   -8.1034    4.0240 H   0  0  0  0  0  0  0  0  0  0  0  0
   -0.8197   -8.5053    2.3523 H   0  0  0  0  0  0  0  0  0  0  0  0
    1.9186   -7.4746    1.5517 H   0  0  0  0  0  0  0  0  0  0  0  0
    0.5172   -6.4922    1.3445 H   0  0  0  0  0  0  0  0  0  0  0  0
    1.4592   -4.7174    1.9799 H   0  0  0  0  0  0  0  0  0  0  0  0
    4.3327   -4.0620    3.0386 H   0  0  0  0  0  0  0  0  0  0  0  0
    5.0335   -4.2882    1.4781 H   0  0  0  0  0  0  0  0  0  0  0  0
    2.6141   -2.4277   -0.5490 H   0  0  0  0  0  0  0  0  0  0  0  0
    2.8320   -4.1514   -0.3244 H   0  0  0  0  0  0  0  0  0  0  0  0
    4.2426   -3.1090   -0.5298 H   0  0  0  0  0  0  0  0  0  0  0  0
    1.4154   -1.8927    1.4768 H   0  0  0  0  0  0  0  0  0  0  0  0
    1.4792   -1.7819    4.0678 H   0  0  0  0  0  0  0  0  0  0  0  0
    0.4730   -2.9194    3.2685 H   0  0  0  0  0  0  0  0  0  0  0  0
    3.0767   -3.5775    4.7196 H   0  0  0  0  0  0  0  0  0  0  0  0
    1.4808   -3.6953    5.3042 H   0  0  0  0  0  0  0  0  0  0  0  0
   -0.1456   -5.3048    3.8406 H   0  0  0  0  0  0  0  0  0  0  0  0
    0.3848   -6.1446    5.2664 H   0  0  0  0  0  0  0  0  0  0  0  0
    3.9995   -5.8489    4.5752 H   0  0  0  0  0  0  0  0  0  0  0  0
    2.0560   -5.2264    6.5377 H   0  0  0  0  0  0  0  0  0  0  0  0
    4.2818   -4.2937    6.6110 H   0  0  0  0  0  0  0  0  0  0  0  0
    4.9962   -5.8450    6.9460 H   0  0  0  0  0  0  0  0  0  0  0  0
    3.9066   -5.1258    8.1089 H   0  0  0  0  0  0  0  0  0  0  0  0
    1.6856   -7.4445    6.7145 H   0  0  0  0  0  0  0  0  0  0  0  0
    6.6559   -9.1299    2.2699 H   0  0  0  0  0  0  0  0  0  0  0  0
    6.2868   -8.0485    3.6113 H   0  0  0  0  0  0  0  0  0  0  0  0
    6.1751   -7.4604    1.9762 H   0  0  0  0  0  0  0  0  0  0  0  0
    4.7987   -9.5818    0.5169 H   0  0  0  0  0  0  0  0  0  0  0  0
    4.2897   -7.8949    0.5301 H   0  0  0  0  0  0  0  0  0  0  0  0
    3.1320   -9.1718    0.8496 H   0  0  0  0  0  0  0  0  0  0  0  0
    4.1199   -0.4020    3.7371 H   0  0  0  0  0  0  0  0  0  0  0  0
    5.4447   -1.2041    2.8845 H   0  0  0  0  0  0  0  0  0  0  0  0
    4.3793   -2.1139    3.9483 H   0  0  0  0  0  0  0  0  0  0  0  0
    4.5757   -0.1627    0.7914 H   0  0  0  0  0  0  0  0  0  0  0  0
    2.9456   -0.4889    0.2175 H   0  0  0  0  0  0  0  0  0  0  0  0
    3.7251    1.3305    2.1075 H   0  0  0  0  0  0  0  0  0  0  0  0
  1  2  1  0
  1 38  1  0
  1 39  1  0
  1 40  1  0
  2  3  1  0
  3 29  1  0
  3  4  1  0
  3 41  1  1
  4  5  1  0
  4  6  1  0
  4 42  1  6
  5 43  1  0
  6 31  1  0
  6  7  1  0
  6 44  1  6
  7  8  1  0
  7 45  1  0
  7 46  1  0
  8  9  1  0
  8 10  1  0
  8 47  1  6
  9 48  1  0
  9 49  1  0
  9 50  1  0
 10 29  1  0
 10 11  1  1
 10 12  1  0
 11 51  1  0
 12 24  1  0
 12 13  1  6
 12 14  1  0
 13 52  1  0
 13 53  1  0
 13 54  1  0
 14 15  1  0
 14 55  1  0
 14 56  1  0
 15 23  1  0
 15 16  1  0
 15 57  1  6
 16 17  1  0
 17 18  1  0
 17 58  1  0
 17 59  1  0
 18 34  1  0
 18 19  1  6
 18 20  1  0
 19 60  1  0
 19 61  1  0
 19 62  1  0
 20 21  1  0
 20 34  1  0
 20 63  1  6
 21 22  1  0
 21 64  1  0
 21 65  1  0
 23 22  1  6
 22 66  1  0
 22 67  1  0
 23 24  1  0
 23 25  1  0
 24 68  1  0
 24 69  1  0
 25 26  1  0
 25 29  1  0
 25 70  1  6
 26 27  1  0
 26 28  1  0
 26 71  1  6
 27 72  1  0
 27 73  1  0
 27 74  1  0
 28 75  1  0
 29 30  1  6
 30 31  1  0
 31 32  1  0
 31 33  1  0
 32 76  1  0
 32 77  1  0
 32 78  1  0
 33 79  1  0
 33 80  1  0
 33 81  1  0
 34 35  1  1
 34 36  1  0
 35 82  1  0
 35 83  1  0
 35 84  1  0
 36 37  1  0
 36 85  1  0
 36 86  1  0
 37 87  1  0
M  END
>  <i_m_ct_stereo_status>  (270) 
1

>  <s_m_source_file>  (270) 
/var/tmp/pbs.5076255.sched01/tmp361ftg5n/90jpawypyp.sdf

>  <i_m_source_file_index>  (270) 
22

>  <i_lp_mmshare_version>  (270) 
48012

>  <i_f3d_flags>  (270) 
0

>  <s_epik_input>  (270) 
W0NIM11bQ0BASF0xW0NIMl1bQ0BASF0oQyhPMikoW0NIM10pW0NIM10pW0NASF0oW09IXSlbQ0BASF0oT1tDSDNdKVtDQF0yKFtDQEBIXTNbQ0BIXShbQ0gzXSlbT0hdKVtDQEBdMShbT0hdKVtDQEBdKFtDSDNdKShbQ0gyXTQpW0NIMl1bQ0BASF0oW0NAXTM0NSlPW0NIMl1bQ0BAXTYoW0NIM10pW0NAQEhdKFtDSDJdW0NIMl01KVtDQF02KFtDSDNdKVtDSDJdW09IXQ==

>  <s_epik_cmdline>  (270) 
J2VwaWtfcHl0aG9uJywgJy1waHQnLCAnMi4wJywgJy1waCcsICc3LjAnLCAnLXRuJywgJzgnLCAnLW1hJywgJzIwMCcsICctaW1hZScsICc8aW5maWxlLm1hZT4nLCAnLW9tYWUnLCAnPG91dGZpbGUubWFlPic=

>  <r_lp_tautomer_probability>  (270) 
1

>  <r_epik_Ionization_Penalty>  (270) 
1.57221e-06

>  <r_epik_Ionization_Penalty_Charging>  (270) 
0

>  <r_epik_Ionization_Penalty_Neutral>  (270) 
1.57221e-06

>  <r_epik_State_Penalty>  (270) 
-0

>  <r_epik_Charging_Adjusted_Penalty>  (270) 
0

>  <i_epik_Tot_Q>  (270) 
0

>  <i_epik_Tot_abs_Q>  (270) 
0

>  <s_lp_Force_Field>  (270) 
OPLS3e

>  <r_lp_Energy>  (270) 
123.979

>  <b_lp_Chiralities_Consistent>  (270) 
1

>  <s_lp_Variant>  (270) 
72:0-1

>  <s_i_glide_gridfile>  (270) 
pfpi4k_grid

>  <i_i_glide_lignum>  (270) 
22

>  <i_i_glide_rotatable_bonds>  (270) 
7

>  <r_i_docking_score>  (270) 
-2.17499

>  <r_i_glide_ligand_efficiency>  (270) 
-0.0587835

>  <r_i_glide_ligand_efficiency_sa>  (270) 
-0.19588

>  <r_i_glide_ligand_efficiency_ln>  (270) 
-0.471704

>  <r_i_glide_gscore>  (270) 
-2.17499

>  <r_i_glide_lipo>  (270) 
-0.120227

>  <r_i_glide_hbond>  (270) 
-0.193331

>  <r_i_glide_metal>  (270) 
-0

>  <r_i_glide_rewards>  (270) 
-0.5

>  <r_i_glide_evdw>  (270) 
-24.1251

>  <r_i_glide_ecoul>  (270) 
-2.03809

>  <r_i_glide_erotb>  (270) 
0.150537

>  <r_i_glide_esite>  (270) 
0

>  <r_i_glide_emodel>  (270) 
-33.5371

>  <r_i_glide_energy>  (270) 
-26.1632

>  <r_i_glide_einternal>  (270) 
2.22249

>  <r_i_glide_intrahb_reward>  (270) 
-0.5

>  <i_i_glide_confnum>  (270) 
1

>  <i_i_glide_posenum>  (270) 
29

>  <r_i_glide_eff_state_penalty>  (270) 
0

>  <ligand_id>  (270) 
72

>  <original_smiles>  (270) 
COC1C(O)C2CC(C)C3(O)C4(C)CC5OCC6(C)C(CCC5(C4)C(C(C)O)C13OC2(C)C)C6(C)CO

>  <smiles>  (270) 
[H]OC([H])([H])C1(C([H])([H])[H])C2([H])C([H])([H])C([H])([H])C34C([H])([H])C(C([H])([H])[H])(C([H])([H])C3([H])OC([H])([H])C21C([H])([H])[H])C1(O[H])C([H])(C([H])([H])[H])C([H])([H])C2([H])C([H])(O[H])C([H])(OC([H])([H])[H])C1(OC2(C([H])([H])[H])C([H])([H])[H])C4([H])C([H])(O[H])C([H])([H])[H]

$$$$
73:0:0
     RDKit          3D

 44 50  0  0  1  0  0  0  0  0999 V2000
    3.8193   -3.3784   -3.8925 C   0  0  0  0  0  0  0  0  0  0  0  0
    4.9191   -3.3502   -2.8198 C   0  0  0  0  0  0  0  0  0  0  0  0
    4.6621   -2.4559   -1.5625 C   0  0  1  0  0  0  0  0  0  0  0  0
    4.5209   -0.9833   -2.0321 C   0  0  0  0  0  0  0  0  0  0  0  0
    3.4390   -2.8568   -0.8099 C   0  0  1  0  0  0  0  0  0  0  0  0
    3.4104   -4.3043   -0.2894 C   0  0  1  0  0  0  0  0  0  0  0  0
    4.6599   -5.2589   -0.1761 C   0  0  2  0  0  0  0  0  0  0  0  0
    4.2444   -6.0672    1.0407 C   0  0  0  0  0  0  0  0  0  0  0  0
    4.1469   -4.8613    1.9635 C   0  0  2  0  0  0  0  0  0  0  0  0
    3.1630   -3.8094    1.1233 C   0  0  1  0  0  0  0  0  0  0  0  0
    3.6131   -2.2921    0.5860 C   0  0  1  0  0  0  0  0  0  0  0  0
    5.3440   -1.9456    0.6669 C   0  0  1  0  0  0  0  0  0  0  0  0
    5.7115   -0.5858    0.8923 O   0  0  0  0  0  0  0  0  0  0  0  0
    6.4886   -3.3074    1.1054 C   0  0  2  0  0  0  0  0  0  0  0  0
    6.0337   -4.5339    0.2604 C   0  0  0  0  0  0  0  0  0  0  0  0
    5.5684   -3.3151    1.1068 C   0  0  1  0  0  0  0  0  0  0  0  0
    5.7351   -4.3856    2.0231 C   0  0  2  0  0  0  0  0  0  0  0  0
    5.7789   -2.5433   -0.4412 C   0  0  1  0  0  0  0  0  0  0  0  0
    7.0294   -1.9427   -0.8780 O   0  0  0  0  0  0  0  0  0  0  0  0
    7.9714   -2.7765   -1.5509 C   0  0  0  0  0  0  0  0  0  0  0  0
    4.1891   -3.9608   -4.7330 H   0  0  0  0  0  0  0  0  0  0  0  0
    3.5792   -2.3891   -4.2826 H   0  0  0  0  0  0  0  0  0  0  0  0
    2.9011   -3.8504   -3.5373 H   0  0  0  0  0  0  0  0  0  0  0  0
    5.1019   -4.3848   -2.5487 H   0  0  0  0  0  0  0  0  0  0  0  0
    5.8161   -3.0190   -3.3340 H   0  0  0  0  0  0  0  0  0  0  0  0
    4.2205   -0.3227   -1.2209 H   0  0  0  0  0  0  0  0  0  0  0  0
    3.7620   -0.8498   -2.8016 H   0  0  0  0  0  0  0  0  0  0  0  0
    5.4607   -0.5983   -2.4165 H   0  0  0  0  0  0  0  0  0  0  0  0
    2.4860   -2.5778   -1.2556 H   0  0  0  0  0  0  0  0  0  0  0  0
    2.5201   -4.8095   -0.6694 H   0  0  0  0  0  0  0  0  0  0  0  0
    4.7774   -5.9129   -1.0413 H   0  0  0  0  0  0  0  0  0  0  0  0
    3.2890   -6.5837    0.9042 H   0  0  0  0  0  0  0  0  0  0  0  0
    5.0039   -6.7903    1.3419 H   0  0  0  0  0  0  0  0  0  0  0  0
    3.7501   -5.1283    2.9442 H   0  0  0  0  0  0  0  0  0  0  0  0
    2.1018   -3.8484    1.3785 H   0  0  0  0  0  0  0  0  0  0  0  0
    2.9196   -1.4864    0.8343 H   0  0  0  0  0  0  0  0  0  0  0  0
    5.2172   -0.0381    0.3035 H   0  0  0  0  0  0  0  0  0  0  0  0
    7.6162   -3.1857    1.2318 H   0  0  0  0  0  0  0  0  0  0  0  0
    6.9203   -5.1847    0.3571 H   0  0  0  0  0  0  0  0  0  0  0  0
    4.9573   -2.9967    2.2380 H   0  0  0  0  0  0  0  0  0  0  0  0
    6.1088   -4.2090    3.0429 H   0  0  0  0  0  0  0  0  0  0  0  0
    8.6468   -2.1437   -2.1248 H   0  0  0  0  0  0  0  0  0  0  0  0
    7.5352   -3.4706   -2.2594 H   0  0  0  0  0  0  0  0  0  0  0  0
    8.5759   -3.3639   -0.8584 H   0  0  0  0  0  0  0  0  0  0  0  0
  1  2  1  0
  1 21  1  0
  1 22  1  0
  1 23  1  0
  3  2  1  6
  2 24  1  0
  2 25  1  0
  3 18  1  0
  3  4  1  0
  3  5  1  0
  4 26  1  0
  4 27  1  0
  4 28  1  0
  5 11  1  0
  5  6  1  0
  5 29  1  6
  6 10  1  0
  6  7  1  0
  6 30  1  6
  7 15  1  0
  7  8  1  0
  7 31  1  6
  8  9  1  0
  8 32  1  0
  8 33  1  0
  9 17  1  0
  9 10  1  0
  9 34  1  1
 10 11  1  0
 10 35  1  1
 11 12  1  0
 11 36  1  1
 12 18  1  0
 12 13  1  6
 12 14  1  0
 13 37  1  0
 14 17  1  0
 14 15  1  0
 14 38  1  1
 15 16  1  0
 15 39  1  0
 16 17  1  0
 16 18  1  0
 16 40  1  6
 17 41  1  1
 18 19  1  6
 19 20  1  0
 20 42  1  0
 20 43  1  0
 20 44  1  0
M  END
>  <i_m_ct_stereo_status>  (271) 
1

>  <s_m_source_file>  (271) 
/var/tmp/pbs.5076255.sched01/tmp361ftg5n/90jpawypyp.sdf

>  <i_m_source_file_index>  (271) 
23

>  <i_lp_mmshare_version>  (271) 
48012

>  <i_f3d_flags>  (271) 
0

>  <s_epik_input>  (271) 
W0NIM11bQ0gyXVtDQF0xKFtDSDNdKVtDQF0yKE9bQ0gzXSlbQ0hdM1tDSF0oW0NASF0oW0NIMl00KVtDQEhdNTYpW0NASF03W0NIXTNbQ0BASF00W0NAQEhdNVtDQEhdMVtDQEBIXTZbQ0BdMjdbT0hd

>  <s_epik_cmdline>  (271) 
J2VwaWtfcHl0aG9uJywgJy1waHQnLCAnMi4wJywgJy1waCcsICc3LjAnLCAnLXRuJywgJzgnLCAnLW1hJywgJzIwMCcsICctaW1hZScsICc8aW5maWxlLm1hZT4nLCAnLW9tYWUnLCAnPG91dGZpbGUubWFlPic=

>  <r_lp_tautomer_probability>  (271) 
1

>  <r_epik_Ionization_Penalty>  (271) 
2.58818e-07

>  <r_epik_Ionization_Penalty_Charging>  (271) 
0

>  <r_epik_Ionization_Penalty_Neutral>  (271) 
2.58818e-07

>  <r_epik_State_Penalty>  (271) 
-0

>  <r_epik_Charging_Adjusted_Penalty>  (271) 
0

>  <i_epik_Tot_Q>  (271) 
0

>  <i_epik_Tot_abs_Q>  (271) 
0

>  <s_lp_Force_Field>  (271) 
OPLS3e

>  <r_lp_Energy>  (271) 
703.562

>  <b_lp_Chiralities_Consistent>  (271) 
1

>  <s_lp_Variant>  (271) 
73:0-1

>  <s_i_glide_gridfile>  (271) 
pfpi4k_grid

>  <i_i_glide_lignum>  (271) 
23

>  <i_i_glide_rotatable_bonds>  (271) 
3

>  <r_i_docking_score>  (271) 
-3.94301

>  <r_i_glide_ligand_efficiency>  (271) 
-0.197151

>  <r_i_glide_ligand_efficiency_sa>  (271) 
-0.535149

>  <r_i_glide_ligand_efficiency_ln>  (271) 
-0.986806

>  <r_i_glide_gscore>  (271) 
-3.94301

>  <r_i_glide_lipo>  (271) 
-0.671445

>  <r_i_glide_hbond>  (271) 
-0.16

>  <r_i_glide_metal>  (271) 
-0

>  <r_i_glide_rewards>  (271) 
-1.55194

>  <r_i_glide_evdw>  (271) 
-20.2981

>  <r_i_glide_ecoul>  (271) 
-3.63145

>  <r_i_glide_erotb>  (271) 
0

>  <r_i_glide_esite>  (271) 
0

>  <r_i_glide_emodel>  (271) 
-29.7612

>  <r_i_glide_energy>  (271) 
-23.9296

>  <r_i_glide_einternal>  (271) 
0.1859

>  <r_i_glide_intrahb_reward>  (271) 
-0

>  <i_i_glide_confnum>  (271) 
2

>  <i_i_glide_posenum>  (271) 
3

>  <r_i_glide_eff_state_penalty>  (271) 
0

>  <ligand_id>  (271) 
73

>  <original_smiles>  (271) 
CCC1(C)C2C3C4CC5C3C2C2(O)C3C4C(C53)C12OC

>  <smiles>  (271) 
[H]OC12C3([H])C4([H])C5([H])C([H])([H])C6([H])C3([H])C4([H])C1(OC([H])([H])[H])C(C([H])([H])[H])(C([H])([H])C([H])([H])[H])C1([H])C6([H])C5([H])C12[H]

$$$$
73:0:1
     RDKit          3D

 44 50  0  0  1  0  0  0  0  0999 V2000
    3.6716   -3.3424   -3.7917 C   0  0  0  0  0  0  0  0  0  0  0  0
    4.8389   -3.3379   -2.7854 C   0  0  0  0  0  0  0  0  0  0  0  0
    4.6421   -2.4901   -1.4865 C   0  0  1  0  0  0  0  0  0  0  0  0
    4.5162   -0.9974   -1.8936 C   0  0  0  0  0  0  0  0  0  0  0  0
    3.4354   -2.8963   -0.7080 C   0  0  1  0  0  0  0  0  0  0  0  0
    3.3888   -4.3617   -0.2453 C   0  0  1  0  0  0  0  0  0  0  0  0
    4.6175   -5.3459   -0.2178 C   0  0  2  0  0  0  0  0  0  0  0  0
    4.2265   -6.1958    0.9779 C   0  0  0  0  0  0  0  0  0  0  0  0
    4.1908   -5.0297    1.9552 C   0  0  2  0  0  0  0  0  0  0  0  0
    3.2039   -3.9215    1.1942 C   0  0  1  0  0  0  0  0  0  0  0  0
    3.6697   -2.3941    0.7029 C   0  0  1  0  0  0  0  0  0  0  0  0
    5.4103   -2.0876    0.7375 C   0  0  1  0  0  0  0  0  0  0  0  0
    5.8163   -0.7479    1.0180 O   0  0  0  0  0  0  0  0  0  0  0  0
    6.5339   -3.4935    1.0773 C   0  0  2  0  0  0  0  0  0  0  0  0
    6.0206   -4.6711    0.1993 C   0  0  0  0  0  0  0  0  0  0  0  0
    5.6159   -3.4790    1.1121 C   0  0  1  0  0  0  0  0  0  0  0  0
    5.7898   -4.5898    1.9772 C   0  0  2  0  0  0  0  0  0  0  0  0
    5.7945   -2.6432   -0.4073 C   0  0  1  0  0  0  0  0  0  0  0  0
    7.0469   -2.0576   -0.8599 O   0  0  0  0  0  0  0  0  0  0  0  0
    7.9503   -2.8902   -1.5836 C   0  0  0  0  0  0  0  0  0  0  0  0
    3.9745   -3.8686   -4.6957 H   0  0  0  0  0  0  0  0  0  0  0  0
    3.3771   -2.3416   -4.1061 H   0  0  0  0  0  0  0  0  0  0  0  0
    2.7899   -3.8505   -3.3944 H   0  0  0  0  0  0  0  0  0  0  0  0
    5.0485   -4.3771   -2.5564 H   0  0  0  0  0  0  0  0  0  0  0  0
    5.7153   -2.9850   -3.3214 H   0  0  0  0  0  0  0  0  0  0  0  0
    4.2472   -0.3665   -1.0460 H   0  0  0  0  0  0  0  0  0  0  0  0
    3.7362   -0.8221   -2.6321 H   0  0  0  0  0  0  0  0  0  0  0  0
    5.4496   -0.6120   -2.2986 H   0  0  0  0  0  0  0  0  0  0  0  0
    2.4755   -2.5750   -1.1095 H   0  0  0  0  0  0  0  0  0  0  0  0
    2.4759   -4.8308   -0.6150 H   0  0  0  0  0  0  0  0  0  0  0  0
    4.6888   -5.9590   -1.1159 H   0  0  0  0  0  0  0  0  0  0  0  0
    3.2553   -6.6824    0.8533 H   0  0  0  0  0  0  0  0  0  0  0  0
    4.9800   -6.9475    1.2171 H   0  0  0  0  0  0  0  0  0  0  0  0
    3.8215   -5.3316    2.9374 H   0  0  0  0  0  0  0  0  0  0  0  0
    2.1527   -3.9481    1.4880 H   0  0  0  0  0  0  0  0  0  0  0  0
    3.0092   -1.5836    1.0076 H   0  0  0  0  0  0  0  0  0  0  0  0
    5.6790   -0.5879    1.9366 H   0  0  0  0  0  0  0  0  0  0  0  0
    7.6679   -3.3999    1.1733 H   0  0  0  0  0  0  0  0  0  0  0  0
    6.8962   -5.3436    0.2358 H   0  0  0  0  0  0  0  0  0  0  0  0
    5.0541   -3.1967    2.2766 H   0  0  0  0  0  0  0  0  0  0  0  0
    6.2049   -4.4680    2.9872 H   0  0  0  0  0  0  0  0  0  0  0  0
    8.6208   -2.2557   -2.1576 H   0  0  0  0  0  0  0  0  0  0  0  0
    7.4688   -3.5586   -2.2897 H   0  0  0  0  0  0  0  0  0  0  0  0
    8.5611   -3.5031   -0.9212 H   0  0  0  0  0  0  0  0  0  0  0  0
  1  2  1  0
  1 21  1  0
  1 22  1  0
  1 23  1  0
  3  2  1  6
  2 24  1  0
  2 25  1  0
  3 18  1  0
  3  4  1  0
  3  5  1  0
  4 26  1  0
  4 27  1  0
  4 28  1  0
  5 11  1  0
  5  6  1  0
  5 29  1  6
  6 10  1  0
  6  7  1  0
  6 30  1  6
  7 15  1  0
  7  8  1  0
  7 31  1  6
  8  9  1  0
  8 32  1  0
  8 33  1  0
  9 17  1  0
  9 10  1  0
  9 34  1  1
 10 11  1  0
 10 35  1  1
 11 12  1  0
 11 36  1  1
 12 18  1  0
 12 13  1  6
 12 14  1  0
 13 37  1  0
 14 17  1  0
 14 15  1  0
 14 38  1  1
 15 16  1  0
 15 39  1  0
 16 17  1  0
 16 18  1  0
 16 40  1  6
 17 41  1  1
 18 19  1  6
 19 20  1  0
 20 42  1  0
 20 43  1  0
 20 44  1  0
M  END
>  <i_m_ct_stereo_status>  (272) 
1

>  <s_m_source_file>  (272) 
/var/tmp/pbs.5076255.sched01/tmp361ftg5n/90jpawypyp.sdf

>  <i_m_source_file_index>  (272) 
23

>  <i_lp_mmshare_version>  (272) 
48012

>  <i_f3d_flags>  (272) 
0

>  <s_epik_input>  (272) 
W0NIM11bQ0gyXVtDQF0xKFtDSDNdKVtDQF0yKE9bQ0gzXSlbQ0hdM1tDSF0oW0NASF0oW0NIMl00KVtDQEhdNTYpW0NASF03W0NIXTNbQ0BASF00W0NAQEhdNVtDQEhdMVtDQEBIXTZbQ0BdMjdbT0hd

>  <s_epik_cmdline>  (272) 
J2VwaWtfcHl0aG9uJywgJy1waHQnLCAnMi4wJywgJy1waCcsICc3LjAnLCAnLXRuJywgJzgnLCAnLW1hJywgJzIwMCcsICctaW1hZScsICc8aW5maWxlLm1hZT4nLCAnLW9tYWUnLCAnPG91dGZpbGUubWFlPic=

>  <r_lp_tautomer_probability>  (272) 
1

>  <r_epik_Ionization_Penalty>  (272) 
2.58818e-07

>  <r_epik_Ionization_Penalty_Charging>  (272) 
0

>  <r_epik_Ionization_Penalty_Neutral>  (272) 
2.58818e-07

>  <r_epik_State_Penalty>  (272) 
-0

>  <r_epik_Charging_Adjusted_Penalty>  (272) 
0

>  <i_epik_Tot_Q>  (272) 
0

>  <i_epik_Tot_abs_Q>  (272) 
0

>  <s_lp_Force_Field>  (272) 
OPLS3e

>  <r_lp_Energy>  (272) 
703.562

>  <b_lp_Chiralities_Consistent>  (272) 
1

>  <s_lp_Variant>  (272) 
73:0-1

>  <s_i_glide_gridfile>  (272) 
pfpi4k_grid

>  <i_i_glide_lignum>  (272) 
23

>  <i_i_glide_rotatable_bonds>  (272) 
3

>  <r_i_docking_score>  (272) 
-3.80193

>  <r_i_glide_ligand_efficiency>  (272) 
-0.190096

>  <r_i_glide_ligand_efficiency_sa>  (272) 
-0.516001

>  <r_i_glide_ligand_efficiency_ln>  (272) 
-0.951497

>  <r_i_glide_gscore>  (272) 
-3.80193

>  <r_i_glide_lipo>  (272) 
-0.718317

>  <r_i_glide_hbond>  (272) 
-0.16

>  <r_i_glide_metal>  (272) 
-0

>  <r_i_glide_rewards>  (272) 
-1.55194

>  <r_i_glide_evdw>  (272) 
-20.5842

>  <r_i_glide_ecoul>  (272) 
-2.28304

>  <r_i_glide_erotb>  (272) 
0

>  <r_i_glide_esite>  (272) 
0

>  <r_i_glide_emodel>  (272) 
-28.5392

>  <r_i_glide_energy>  (272) 
-22.8673

>  <r_i_glide_einternal>  (272) 
0.122534

>  <r_i_glide_intrahb_reward>  (272) 
-0

>  <i_i_glide_confnum>  (272) 
2

>  <i_i_glide_posenum>  (272) 
1

>  <r_i_glide_eff_state_penalty>  (272) 
0

>  <ligand_id>  (272) 
73

>  <original_smiles>  (272) 
CCC1(C)C2C3C4CC5C3C2C2(O)C3C4C(C53)C12OC

>  <smiles>  (272) 
[H]OC12C3([H])C4([H])C5([H])C([H])([H])C6([H])C3([H])C4([H])C1(OC([H])([H])[H])C(C([H])([H])[H])(C([H])([H])C([H])([H])[H])C1([H])C6([H])C5([H])C12[H]

$$$$
73:0:2
     RDKit          3D

 44 50  0  0  1  0  0  0  0  0999 V2000
    2.2395   -5.5516    0.4846 C   0  0  0  0  0  0  0  0  0  0  0  0
    2.5026   -4.0751    0.1300 C   0  0  0  0  0  0  0  0  0  0  0  0
    3.9940   -3.6115   -0.1068 C   0  0  1  0  0  0  0  0  0  0  0  0
    4.9184   -4.2484    0.9643 C   0  0  0  0  0  0  0  0  0  0  0  0
    4.4868   -3.9865   -1.4733 C   0  0  1  0  0  0  0  0  0  0  0  0
    3.6832   -3.4245   -2.6556 C   0  0  1  0  0  0  0  0  0  0  0  0
    2.6413   -2.2653   -2.5860 C   0  0  2  0  0  0  0  0  0  0  0  0
    2.8307   -1.6657   -3.9743 C   0  0  0  0  0  0  0  0  0  0  0  0
    4.3199   -1.3757   -3.7887 C   0  0  2  0  0  0  0  0  0  0  0  0
    4.9405   -2.8379   -3.2491 C   0  0  1  0  0  0  0  0  0  0  0  0
    5.6701   -3.0937   -1.7701 C   0  0  1  0  0  0  0  0  0  0  0  0
    5.4671   -1.7994   -0.5930 C   0  0  1  0  0  0  0  0  0  0  0  0
    6.5376   -1.5774    0.3239 O   0  0  0  0  0  0  0  0  0  0  0  0
    4.3111   -0.4518   -0.9955 C   0  0  2  0  0  0  0  0  0  0  0  0
    3.0187   -1.1043   -1.5838 C   0  0  0  0  0  0  0  0  0  0  0  0
    4.5950   -1.1192   -1.5462 C   0  0  1  0  0  0  0  0  0  0  0  0
    4.2630   -0.2397   -2.5950 C   0  0  2  0  0  0  0  0  0  0  0  0
    4.2517   -2.0404   -0.1037 C   0  0  1  0  0  0  0  0  0  0  0  0
    4.0874   -1.4535    1.2314 O   0  0  0  0  0  0  0  0  0  0  0  0
    2.7872   -0.9673    1.6157 C   0  0  0  0  0  0  0  0  0  0  0  0
    1.1868   -5.6602    0.7280 H   0  0  0  0  0  0  0  0  0  0  0  0
    2.7516   -5.8425    1.3979 H   0  0  0  0  0  0  0  0  0  0  0  0
    2.4865   -6.2306   -0.3311 H   0  0  0  0  0  0  0  0  0  0  0  0
    1.8519   -3.8474   -0.7237 H   0  0  0  0  0  0  0  0  0  0  0  0
    2.1025   -3.5870    0.9872 H   0  0  0  0  0  0  0  0  0  0  0  0
    5.9720   -4.0648    0.7541 H   0  0  0  0  0  0  0  0  0  0  0  0
    4.8569   -5.3370    0.9914 H   0  0  0  0  0  0  0  0  0  0  0  0
    4.6803   -3.8444    1.9525 H   0  0  0  0  0  0  0  0  0  0  0  0
    4.7391   -5.0231   -1.6422 H   0  0  0  0  0  0  0  0  0  0  0  0
    3.3773   -4.2081   -3.3360 H   0  0  0  0  0  0  0  0  0  0  0  0
    1.6047   -2.5874   -2.4621 H   0  0  0  0  0  0  0  0  0  0  0  0
    2.6265   -2.4211   -4.7131 H   0  0  0  0  0  0  0  0  0  0  0  0
    2.2338   -0.7672   -4.1493 H   0  0  0  0  0  0  0  0  0  0  0  0
    4.7698   -1.0010   -4.7176 H   0  0  0  0  0  0  0  0  0  0  0  0
    5.3312   -3.5273   -3.9886 H   0  0  0  0  0  0  0  0  0  0  0  0
    6.6356   -3.6055   -1.8301 H   0  0  0  0  0  0  0  0  0  0  0  0
    6.3704   -2.1578    1.0555 H   0  0  0  0  0  0  0  0  0  0  0  0
    4.2327    0.4685   -0.3160 H   0  0  0  0  0  0  0  0  0  0  0  0
    2.3333   -0.2579   -1.8364 H   0  0  0  0  0  0  0  0  0  0  0  0
    5.6576   -0.9182   -2.3097 H   0  0  0  0  0  0  0  0  0  0  0  0
    4.8171    0.6745   -2.7611 H   0  0  0  0  0  0  0  0  0  0  0  0
    2.7831   -0.9336    2.7116 H   0  0  0  0  0  0  0  0  0  0  0  0
    1.9231   -1.5431    1.3339 H   0  0  0  0  0  0  0  0  0  0  0  0
    2.5981    0.0470    1.2358 H   0  0  0  0  0  0  0  0  0  0  0  0
  1  2  1  0
  1 21  1  0
  1 22  1  0
  1 23  1  0
  3  2  1  1
  2 24  1  0
  2 25  1  0
  3 18  1  0
  3  4  1  0
  3  5  1  0
  4 26  1  0
  4 27  1  0
  4 28  1  0
  5 11  1  0
  5  6  1  0
  5 29  1  1
  6 10  1  0
  6  7  1  0
  6 30  1  6
  7 15  1  0
  7  8  1  0
  7 31  1  1
  8  9  1  0
  8 32  1  0
  8 33  1  0
  9 17  1  0
  9 10  1  0
  9 34  1  6
 10 11  1  0
 10 35  1  6
 11 12  1  0
 11 36  1  6
 12 18  1  0
 12 13  1  1
 12 14  1  0
 13 37  1  0
 14 17  1  0
 14 15  1  0
 14 38  1  1
 15 16  1  0
 15 39  1  0
 16 17  1  0
 16 18  1  0
 16 40  1  6
 17 41  1  1
 18 19  1  1
 19 20  1  0
 20 42  1  0
 20 43  1  0
 20 44  1  0
M  END
>  <i_m_ct_stereo_status>  (273) 
1

>  <s_m_source_file>  (273) 
/var/tmp/pbs.5076255.sched01/tmp361ftg5n/90jpawypyp.sdf

>  <i_m_source_file_index>  (273) 
23

>  <i_lp_mmshare_version>  (273) 
48012

>  <i_f3d_flags>  (273) 
0

>  <s_epik_input>  (273) 
W0NIM11bQ0gyXVtDQF0xKFtDSDNdKVtDQF0yKE9bQ0gzXSlbQ0hdM1tDSF0oW0NASF0oW0NIMl00KVtDQEhdNTYpW0NASF03W0NIXTNbQ0BASF00W0NAQEhdNVtDQEhdMVtDQEBIXTZbQ0BdMjdbT0hd

>  <s_epik_cmdline>  (273) 
J2VwaWtfcHl0aG9uJywgJy1waHQnLCAnMi4wJywgJy1waCcsICc3LjAnLCAnLXRuJywgJzgnLCAnLW1hJywgJzIwMCcsICctaW1hZScsICc8aW5maWxlLm1hZT4nLCAnLW9tYWUnLCAnPG91dGZpbGUubWFlPic=

>  <r_lp_tautomer_probability>  (273) 
1

>  <r_epik_Ionization_Penalty>  (273) 
2.58818e-07

>  <r_epik_Ionization_Penalty_Charging>  (273) 
0

>  <r_epik_Ionization_Penalty_Neutral>  (273) 
2.58818e-07

>  <r_epik_State_Penalty>  (273) 
-0

>  <r_epik_Charging_Adjusted_Penalty>  (273) 
0

>  <i_epik_Tot_Q>  (273) 
0

>  <i_epik_Tot_abs_Q>  (273) 
0

>  <s_lp_Force_Field>  (273) 
OPLS3e

>  <r_lp_Energy>  (273) 
703.562

>  <b_lp_Chiralities_Consistent>  (273) 
1

>  <s_lp_Variant>  (273) 
73:0-1

>  <s_i_glide_gridfile>  (273) 
pfpi4k_grid

>  <i_i_glide_lignum>  (273) 
23

>  <i_i_glide_rotatable_bonds>  (273) 
3

>  <r_i_docking_score>  (273) 
-2.79035

>  <r_i_glide_ligand_efficiency>  (273) 
-0.139517

>  <r_i_glide_ligand_efficiency_sa>  (273) 
-0.378709

>  <r_i_glide_ligand_efficiency_ln>  (273) 
-0.698332

>  <r_i_glide_gscore>  (273) 
-2.79035

>  <r_i_glide_lipo>  (273) 
-0.612685

>  <r_i_glide_hbond>  (273) 
0

>  <r_i_glide_metal>  (273) 
-0

>  <r_i_glide_rewards>  (273) 
-1.55194

>  <r_i_glide_evdw>  (273) 
-11.7535

>  <r_i_glide_ecoul>  (273) 
-0.25365

>  <r_i_glide_erotb>  (273) 
0

>  <r_i_glide_esite>  (273) 
0

>  <r_i_glide_emodel>  (273) 
-13.4327

>  <r_i_glide_energy>  (273) 
-12.0072

>  <r_i_glide_einternal>  (273) 
1.73732

>  <r_i_glide_intrahb_reward>  (273) 
-0

>  <i_i_glide_confnum>  (273) 
2

>  <i_i_glide_posenum>  (273) 
37

>  <r_i_glide_eff_state_penalty>  (273) 
0

>  <ligand_id>  (273) 
73

>  <original_smiles>  (273) 
CCC1(C)C2C3C4CC5C3C2C2(O)C3C4C(C53)C12OC

>  <smiles>  (273) 
[H]OC12C3([H])C4([H])C5([H])C([H])([H])C6([H])C3([H])C4([H])C1(OC([H])([H])[H])C(C([H])([H])[H])(C([H])([H])C([H])([H])[H])C1([H])C6([H])C5([H])C12[H]

$$$$
74:0:0
     RDKit          3D

 49 53  0  0  1  0  0  0  0  0999 V2000
    4.8928   -2.6227    3.7877 C   0  0  0  0  0  0  0  0  0  0  0  0
    3.8902   -3.3102    2.8299 C   0  0  2  0  0  0  0  0  0  0  0  0
    4.4621   -4.6805    2.3225 C   0  0  1  0  0  0  0  0  0  0  0  0
    4.2462   -5.8203    3.3509 C   0  0  0  0  0  0  0  0  0  0  0  0
    2.8121   -6.3684    3.3504 C   0  0  0  0  0  0  0  0  0  0  0  0
    2.4222   -6.8604    1.9525 C   0  0  0  0  0  0  0  0  0  0  0  0
    2.5939   -5.7479    0.9058 C   0  0  0  0  0  0  0  0  0  0  0  0
    4.0086   -5.1320    0.8779 C   0  0  1  0  0  0  0  0  0  0  0  0
    4.0560   -4.0469   -0.1571 N   0  0  2  0  0  0  0  0  0  0  0  0
    4.9942   -4.2252   -1.3000 C   0  0  0  0  0  0  0  0  0  0  0  0
    4.9409   -3.0444   -2.3286 C   0  0  1  0  0  0  0  0  0  0  0  0
    3.8566   -3.1606   -3.4242 C   0  0  0  0  0  0  0  0  0  0  0  0
    3.2725   -1.7579   -3.6324 C   0  0  0  0  0  0  0  0  0  0  0  0
    4.2164   -0.8060   -2.9034 C   0  0  0  0  0  0  0  0  0  0  0  0
    4.7985   -1.6107   -1.7389 C   0  0  1  0  0  0  0  0  0  0  0  0
    3.8486   -1.6367   -0.5322 C   0  0  2  0  0  0  0  0  0  0  0  0
    3.8424   -0.5335    0.3618 O   0  0  0  0  0  0  0  0  0  0  0  0
    3.5366   -0.9204    1.6168 C   0  0  0  0  0  0  0  0  0  0  0  0
    3.3497   -0.1937    2.5875 O   0  0  0  0  0  0  0  0  0  0  0  0
    3.4396   -2.4481    1.6248 C   0  0  1  0  0  0  0  0  0  0  0  0
    4.2911   -2.7200    0.4204 C   0  0  1  0  0  0  0  0  0  0  0  0
    5.8029   -2.3146    3.2703 H   0  0  0  0  0  0  0  0  0  0  0  0
    5.1840   -3.2957    4.5958 H   0  0  0  0  0  0  0  0  0  0  0  0
    4.4616   -1.7420    4.2661 H   0  0  0  0  0  0  0  0  0  0  0  0
    2.9844   -3.4961    3.4070 H   0  0  0  0  0  0  0  0  0  0  0  0
    5.5409   -4.5388    2.2576 H   0  0  0  0  0  0  0  0  0  0  0  0
    4.9269   -6.6417    3.1217 H   0  0  0  0  0  0  0  0  0  0  0  0
    4.5025   -5.4891    4.3581 H   0  0  0  0  0  0  0  0  0  0  0  0
    2.7301   -7.1937    4.0612 H   0  0  0  0  0  0  0  0  0  0  0  0
    2.1062   -5.6072    3.6869 H   0  0  0  0  0  0  0  0  0  0  0  0
    3.0275   -7.7310    1.6863 H   0  0  0  0  0  0  0  0  0  0  0  0
    1.3870   -7.2000    1.9623 H   0  0  0  0  0  0  0  0  0  0  0  0
    2.3671   -6.1666   -0.0731 H   0  0  0  0  0  0  0  0  0  0  0  0
    1.8571   -4.9686    1.0962 H   0  0  0  0  0  0  0  0  0  0  0  0
    4.6908   -5.9233    0.5643 H   0  0  0  0  0  0  0  0  0  0  0  0
    6.0109   -4.3155   -0.9069 H   0  0  0  0  0  0  0  0  0  0  0  0
    4.7758   -5.1598   -1.8110 H   0  0  0  0  0  0  0  0  0  0  0  0
    5.8904   -3.0679   -2.8686 H   0  0  0  0  0  0  0  0  0  0  0  0
    4.3061   -3.5315   -4.3460 H   0  0  0  0  0  0  0  0  0  0  0  0
    3.0635   -3.8591   -3.1504 H   0  0  0  0  0  0  0  0  0  0  0  0
    3.1601   -1.4937   -4.6825 H   0  0  0  0  0  0  0  0  0  0  0  0
    2.2776   -1.7165   -3.1822 H   0  0  0  0  0  0  0  0  0  0  0  0
    5.0175   -0.5420   -3.5801 H   0  0  0  0  0  0  0  0  0  0  0  0
    3.7262    0.1199   -2.6000 H   0  0  0  0  0  0  0  0  0  0  0  0
    5.7698   -1.2180   -1.4323 H   0  0  0  0  0  0  0  0  0  0  0  0
    2.8349   -1.8517   -0.8737 H   0  0  0  0  0  0  0  0  0  0  0  0
    2.3975   -2.6795    1.3953 H   0  0  0  0  0  0  0  0  0  0  0  0
    5.3531   -2.5996    0.6775 H   0  0  0  0  0  0  0  0  0  0  0  0
    3.1317   -4.0338   -0.5670 H   0  0  0  0  0  0  0  0  0  0  0  0
  1  2  1  0
  1 22  1  0
  1 23  1  0
  1 24  1  0
  2 20  1  0
  2  3  1  0
  2 25  1  1
  3  8  1  0
  3  4  1  0
  3 26  1  6
  4  5  1  0
  4 27  1  0
  4 28  1  0
  5  6  1  0
  5 29  1  0
  5 30  1  0
  6  7  1  0
  6 31  1  0
  6 32  1  0
  7  8  1  0
  7 33  1  0
  7 34  1  0
  8  9  1  0
  8 35  1  6
  9 21  1  0
  9 10  1  0
  9 49  1  6
 10 11  1  0
 10 36  1  0
 10 37  1  0
 11 15  1  0
 11 12  1  0
 11 38  1  6
 12 13  1  0
 12 39  1  0
 12 40  1  0
 13 14  1  0
 13 41  1  0
 13 42  1  0
 14 15  1  0
 14 43  1  0
 14 44  1  0
 15 16  1  0
 15 45  1  1
 16 21  1  0
 16 17  1  0
 16 46  1  6
 17 18  1  0
 18 19  2  0
 18 20  1  0
 20 21  1  0
 20 47  1  6
 21 48  1  1
M  CHG  1   9   1
M  END
>  <i_m_ct_stereo_status>  (274) 
1

>  <s_m_source_file>  (274) 
/var/tmp/pbs.5076255.sched01/tmp361ftg5n/90jpawypyp.sdf

>  <i_m_source_file_index>  (274) 
24

>  <i_lp_mmshare_version>  (274) 
48012

>  <i_f3d_flags>  (274) 
0

>  <s_epik_input>  (274) 
W0NIM11bQ0BIXTFbQ0BIXTJDKD1PKU9bQ0BASF0oW0NASF0zW0NAQEhdKFtDSDJdNClbQ0gyXVtDSDJdW0NIMl0zKVtDQEBIXTJONFtDQEBIXShbQ0BASF0xNSlbQ0gyXVtDSDJdW0NIMl1bQ0gyXTU=

>  <s_epik_cmdline>  (274) 
J2VwaWtfcHl0aG9uJywgJy1waHQnLCAnMi4wJywgJy1waCcsICc3LjAnLCAnLXRuJywgJzgnLCAnLW1hJywgJzIwMCcsICctaW1hZScsICc8aW5maWxlLm1hZT4nLCAnLW9tYWUnLCAnPG91dGZpbGUubWFlPic=

>  <r_epik_Ionization_Penalty>  (274) 
0.016133

>  <r_epik_Ionization_Penalty_Charging>  (274) 
0.016133

>  <r_epik_Ionization_Penalty_Neutral>  (274) 
0

>  <r_epik_State_Penalty>  (274) 
0.0127172

>  <r_epik_Charging_Adjusted_Penalty>  (274) 
0.0288503

>  <i_epik_Tot_Q>  (274) 
1

>  <i_epik_Tot_abs_Q>  (274) 
1

>  <s_epik_Chemistry_Notes>  (274) 
This compound has an ester and may undergo hydrolysis at high or low pH.

>  <s_lp_Force_Field>  (274) 
OPLS3e

>  <r_lp_Energy>  (274) 
47.1097

>  <b_lp_Chiralities_Consistent>  (274) 
1

>  <s_lp_Variant>  (274) 
74:0-1

>  <s_i_glide_gridfile>  (274) 
pfpi4k_grid

>  <i_i_glide_lignum>  (274) 
24

>  <i_i_glide_rotatable_bonds>  (274) 
0

>  <r_i_docking_score>  (274) 
-3.88098

>  <r_i_glide_ligand_efficiency>  (274) 
-0.184809

>  <r_i_glide_ligand_efficiency_sa>  (274) 
-0.509873

>  <r_i_glide_ligand_efficiency_ln>  (274) 
-0.959564

>  <r_i_glide_gscore>  (274) 
-3.88098

>  <r_i_glide_lipo>  (274) 
-0.683272

>  <r_i_glide_hbond>  (274) 
0

>  <r_i_glide_metal>  (274) 
-0

>  <r_i_glide_rewards>  (274) 
-1.42895

>  <r_i_glide_evdw>  (274) 
-24.6596

>  <r_i_glide_ecoul>  (274) 
-3.44319

>  <r_i_glide_erotb>  (274) 
0

>  <r_i_glide_esite>  (274) 
-0.0192939

>  <r_i_glide_emodel>  (274) 
-34.5888

>  <r_i_glide_energy>  (274) 
-28.1028

>  <r_i_glide_einternal>  (274) 
0

>  <r_i_glide_intrahb_reward>  (274) 
-0

>  <i_i_glide_confnum>  (274) 
1

>  <i_i_glide_posenum>  (274) 
6

>  <r_i_glide_eff_state_penalty>  (274) 
0

>  <ligand_id>  (274) 
74

>  <original_smiles>  (274) 
CC1C2CCCCC2N2CC3CCCC3C3OC(=O)C1C32

>  <smiles>  (274) 
[H]C([H])([H])C1([H])C2([H])C(=O)OC3([H])C4([H])C([H])([H])C([H])([H])C([H])([H])C4([H])C([H])([H])[N+]([H])(C32[H])C2([H])C([H])([H])C([H])([H])C([H])([H])C([H])([H])C12[H]

$$$$
74:0:1
     RDKit          3D

 49 53  0  0  1  0  0  0  0  0999 V2000
    3.1998   -1.1681    6.2581 C   0  0  0  0  0  0  0  0  0  0  0  0
    2.5359   -0.9556    4.8769 C   0  0  2  0  0  0  0  0  0  0  0  0
    3.3546    0.0733    4.0195 C   0  0  1  0  0  0  0  0  0  0  0  0
    4.5765   -0.5868    3.3252 C   0  0  0  0  0  0  0  0  0  0  0  0
    4.1938   -1.3865    2.0728 C   0  0  0  0  0  0  0  0  0  0  0  0
    3.4498   -0.4989    1.0707 C   0  0  0  0  0  0  0  0  0  0  0  0
    2.2114    0.1474    1.7124 C   0  0  0  0  0  0  0  0  0  0  0  0
    2.5270    0.9440    2.9942 C   0  0  1  0  0  0  0  0  0  0  0  0
    1.2507    1.5081    3.5443 N   0  0  2  0  0  0  0  0  0  0  0  0
    1.1336    2.9924    3.6038 C   0  0  0  0  0  0  0  0  0  0  0  0
   -0.2364    3.4699    4.2099 C   0  0  1  0  0  0  0  0  0  0  0  0
   -1.3800    3.6003    3.1907 C   0  0  0  0  0  0  0  0  0  0  0  0
   -2.6563    3.0982    3.8610 C   0  0  0  0  0  0  0  0  0  0  0  0
   -2.3275    2.9619    5.3498 C   0  0  0  0  0  0  0  0  0  0  0  0
   -0.8292    2.6456    5.3930 C   0  0  1  0  0  0  0  0  0  0  0  0
   -0.5660    1.1529    5.1508 C   0  0  2  0  0  0  0  0  0  0  0  0
   -0.7329    0.2379    6.2271 O   0  0  0  0  0  0  0  0  0  0  0  0
    0.1330   -0.7929    6.1315 C   0  0  0  0  0  0  0  0  0  0  0  0
    0.1637   -1.7854    6.8549 O   0  0  0  0  0  0  0  0  0  0  0  0
    1.0447   -0.5345    4.9267 C   0  0  1  0  0  0  0  0  0  0  0  0
    0.9071    0.9597    4.8592 C   0  0  1  0  0  0  0  0  0  0  0  0
    3.1549   -0.2683    6.8727 H   0  0  0  0  0  0  0  0  0  0  0  0
    4.2523   -1.4386    6.1451 H   0  0  0  0  0  0  0  0  0  0  0  0
    2.7320   -1.9828    6.8126 H   0  0  0  0  0  0  0  0  0  0  0  0
    2.5467   -1.9209    4.3714 H   0  0  0  0  0  0  0  0  0  0  0  0
    3.7687    0.7834    4.7359 H   0  0  0  0  0  0  0  0  0  0  0  0
    5.2839    0.1891    3.0309 H   0  0  0  0  0  0  0  0  0  0  0  0
    5.1130   -1.2382    4.0167 H   0  0  0  0  0  0  0  0  0  0  0  0
    5.0923   -1.7918    1.6009 H   0  0  0  0  0  0  0  0  0  0  0  0
    3.5736   -2.2459    2.3353 H   0  0  0  0  0  0  0  0  0  0  0  0
    4.1226    0.2712    0.6838 H   0  0  0  0  0  0  0  0  0  0  0  0
    3.1344   -1.0962    0.2152 H   0  0  0  0  0  0  0  0  0  0  0  0
    1.7591    0.8105    0.9743 H   0  0  0  0  0  0  0  0  0  0  0  0
    1.4772   -0.6288    1.9204 H   0  0  0  0  0  0  0  0  0  0  0  0
    3.1613    1.7785    2.6978 H   0  0  0  0  0  0  0  0  0  0  0  0
    1.9431    3.3856    4.2240 H   0  0  0  0  0  0  0  0  0  0  0  0
    1.2736    3.4128    2.6043 H   0  0  0  0  0  0  0  0  0  0  0  0
   -0.0718    4.4825    4.5841 H   0  0  0  0  0  0  0  0  0  0  0  0
   -1.4839    4.6439    2.8854 H   0  0  0  0  0  0  0  0  0  0  0  0
   -1.1918    3.0143    2.2863 H   0  0  0  0  0  0  0  0  0  0  0  0
   -3.4938    3.7375    3.6535 H   0  0  0  0  0  0  0  0  0  0  0  0
   -2.9138    2.1360    3.4309 H   0  0  0  0  0  0  0  0  0  0  0  0
   -2.5247    3.9113    5.8484 H   0  0  0  0  0  0  0  0  0  0  0  0
   -2.9289    2.2058    5.8564 H   0  0  0  0  0  0  0  0  0  0  0  0
   -0.3855    2.9551    6.3438 H   0  0  0  0  0  0  0  0  0  0  0  0
   -1.1507    0.8104    4.2929 H   0  0  0  0  0  0  0  0  0  0  0  0
    0.5322   -0.9842    4.0744 H   0  0  0  0  0  0  0  0  0  0  0  0
    1.5187    1.4257    5.6451 H   0  0  0  0  0  0  0  0  0  0  0  0
    0.5414    1.2121    2.8909 H   0  0  0  0  0  0  0  0  0  0  0  0
  1  2  1  0
  1 22  1  0
  1 23  1  0
  1 24  1  0
  2 20  1  0
  2  3  1  0
  2 25  1  6
  3  8  1  0
  3  4  1  0
  3 26  1  1
  4  5  1  0
  4 27  1  0
  4 28  1  0
  5  6  1  0
  5 29  1  0
  5 30  1  0
  6  7  1  0
  6 31  1  0
  6 32  1  0
  7  8  1  0
  7 33  1  0
  7 34  1  0
  8  9  1  0
  8 35  1  6
  9 21  1  0
  9 10  1  0
  9 49  1  6
 10 11  1  0
 10 36  1  0
 10 37  1  0
 11 15  1  0
 11 12  1  0
 11 38  1  1
 12 13  1  0
 12 39  1  0
 12 40  1  0
 13 14  1  0
 13 41  1  0
 13 42  1  0
 14 15  1  0
 14 43  1  0
 14 44  1  0
 15 16  1  0
 15 45  1  1
 16 21  1  0
 16 17  1  0
 16 46  1  6
 17 18  1  0
 18 19  2  0
 18 20  1  0
 20 21  1  0
 20 47  1  6
 21 48  1  1
M  CHG  1   9   1
M  END
>  <i_m_ct_stereo_status>  (275) 
1

>  <s_m_source_file>  (275) 
/var/tmp/pbs.5076255.sched01/tmp361ftg5n/90jpawypyp.sdf

>  <i_m_source_file_index>  (275) 
24

>  <i_lp_mmshare_version>  (275) 
48012

>  <i_f3d_flags>  (275) 
0

>  <s_epik_input>  (275) 
W0NIM11bQ0BIXTFbQ0BIXTJDKD1PKU9bQ0BASF0oW0NASF0zW0NAQEhdKFtDSDJdNClbQ0gyXVtDSDJdW0NIMl0zKVtDQEBIXTJONFtDQEBIXShbQ0BASF0xNSlbQ0gyXVtDSDJdW0NIMl1bQ0gyXTU=

>  <s_epik_cmdline>  (275) 
J2VwaWtfcHl0aG9uJywgJy1waHQnLCAnMi4wJywgJy1waCcsICc3LjAnLCAnLXRuJywgJzgnLCAnLW1hJywgJzIwMCcsICctaW1hZScsICc8aW5maWxlLm1hZT4nLCAnLW9tYWUnLCAnPG91dGZpbGUubWFlPic=

>  <r_epik_Ionization_Penalty>  (275) 
0.016133

>  <r_epik_Ionization_Penalty_Charging>  (275) 
0.016133

>  <r_epik_Ionization_Penalty_Neutral>  (275) 
0

>  <r_epik_State_Penalty>  (275) 
0.0127172

>  <r_epik_Charging_Adjusted_Penalty>  (275) 
0.0288503

>  <i_epik_Tot_Q>  (275) 
1

>  <i_epik_Tot_abs_Q>  (275) 
1

>  <s_epik_Chemistry_Notes>  (275) 
This compound has an ester and may undergo hydrolysis at high or low pH.

>  <s_lp_Force_Field>  (275) 
OPLS3e

>  <r_lp_Energy>  (275) 
47.1097

>  <b_lp_Chiralities_Consistent>  (275) 
1

>  <s_lp_Variant>  (275) 
74:0-1

>  <s_i_glide_gridfile>  (275) 
pfpi4k_grid

>  <i_i_glide_lignum>  (275) 
24

>  <i_i_glide_rotatable_bonds>  (275) 
0

>  <r_i_docking_score>  (275) 
-3.1698

>  <r_i_glide_ligand_efficiency>  (275) 
-0.150943

>  <r_i_glide_ligand_efficiency_sa>  (275) 
-0.41644

>  <r_i_glide_ligand_efficiency_ln>  (275) 
-0.783727

>  <r_i_glide_gscore>  (275) 
-3.1698

>  <r_i_glide_lipo>  (275) 
-0.0795331

>  <r_i_glide_hbond>  (275) 
0

>  <r_i_glide_metal>  (275) 
-0

>  <r_i_glide_rewards>  (275) 
-1.42895

>  <r_i_glide_evdw>  (275) 
-18.9733

>  <r_i_glide_ecoul>  (275) 
-4.48507

>  <r_i_glide_erotb>  (275) 
0

>  <r_i_glide_esite>  (275) 
-0.0398913

>  <r_i_glide_emodel>  (275) 
-28.6762

>  <r_i_glide_energy>  (275) 
-23.4583

>  <r_i_glide_einternal>  (275) 
0

>  <r_i_glide_intrahb_reward>  (275) 
-0

>  <i_i_glide_confnum>  (275) 
1

>  <i_i_glide_posenum>  (275) 
3

>  <r_i_glide_eff_state_penalty>  (275) 
0

>  <ligand_id>  (275) 
74

>  <original_smiles>  (275) 
CC1C2CCCCC2N2CC3CCCC3C3OC(=O)C1C32

>  <smiles>  (275) 
[H]C([H])([H])C1([H])C2([H])C(=O)OC3([H])C4([H])C([H])([H])C([H])([H])C([H])([H])C4([H])C([H])([H])[N+]([H])(C32[H])C2([H])C([H])([H])C([H])([H])C([H])([H])C([H])([H])C12[H]

$$$$
74:0:2
     RDKit          3D

 49 53  0  0  1  0  0  0  0  0999 V2000
    3.9640    1.4300    5.2927 C   0  0  0  0  0  0  0  0  0  0  0  0
    2.4650    1.1620    5.0189 C   0  0  2  0  0  0  0  0  0  0  0  0
    1.8712    2.2620    4.0691 C   0  0  1  0  0  0  0  0  0  0  0  0
    2.1872    1.9843    2.5776 C   0  0  0  0  0  0  0  0  0  0  0  0
    1.2865    0.9029    1.9645 C   0  0  0  0  0  0  0  0  0  0  0  0
   -0.1881    1.2809    2.1126 C   0  0  0  0  0  0  0  0  0  0  0  0
   -0.5587    1.5479    3.5790 C   0  0  0  0  0  0  0  0  0  0  0  0
    0.3428    2.6009    4.2627 C   0  0  1  0  0  0  0  0  0  0  0  0
   -0.0806    2.7522    5.6943 N   0  0  2  0  0  0  0  0  0  0  0  0
   -0.6132    4.0766    6.1226 C   0  0  0  0  0  0  0  0  0  0  0  0
   -1.0360    4.1119    7.6362 C   0  0  1  0  0  0  0  0  0  0  0  0
   -2.4828    3.6595    7.9279 C   0  0  0  0  0  0  0  0  0  0  0  0
   -2.4489    2.8360    9.2240 C   0  0  0  0  0  0  0  0  0  0  0  0
   -1.0675    3.0682    9.8371 C   0  0  0  0  0  0  0  0  0  0  0  0
   -0.1381    3.3338    8.6447 C   0  0  1  0  0  0  0  0  0  0  0  0
    0.3411    2.0278    7.9983 C   0  0  2  0  0  0  0  0  0  0  0  0
    1.4077    1.3029    8.5933 O   0  0  0  0  0  0  0  0  0  0  0  0
    2.1411    0.6529    7.6608 C   0  0  0  0  0  0  0  0  0  0  0  0
    3.0725   -0.1213    7.8658 O   0  0  0  0  0  0  0  0  0  0  0  0
    1.5817    1.0213    6.2829 C   0  0  1  0  0  0  0  0  0  0  0  0
    0.9519    2.3333    6.6485 C   0  0  1  0  0  0  0  0  0  0  0  0
    4.1138    2.3395    5.8757 H   0  0  0  0  0  0  0  0  0  0  0  0
    4.5167    1.5428    4.3583 H   0  0  0  0  0  0  0  0  0  0  0  0
    4.4340    0.6034    5.8271 H   0  0  0  0  0  0  0  0  0  0  0  0
    2.4102    0.1967    4.5144 H   0  0  0  0  0  0  0  0  0  0  0  0
    2.4038    3.1807    4.3161 H   0  0  0  0  0  0  0  0  0  0  0  0
    2.0531    2.9067    2.0086 H   0  0  0  0  0  0  0  0  0  0  0  0
    3.2312    1.6981    2.4458 H   0  0  0  0  0  0  0  0  0  0  0  0
    1.5182    0.7796    0.9038 H   0  0  0  0  0  0  0  0  0  0  0  0
    1.4674   -0.0674    2.4270 H   0  0  0  0  0  0  0  0  0  0  0  0
   -0.3970    2.1507    1.4947 H   0  0  0  0  0  0  0  0  0  0  0  0
   -0.8165    0.4930    1.7040 H   0  0  0  0  0  0  0  0  0  0  0  0
   -1.5980    1.8769    3.6122 H   0  0  0  0  0  0  0  0  0  0  0  0
   -0.5103    0.6051    4.1226 H   0  0  0  0  0  0  0  0  0  0  0  0
    0.1637    3.5483    3.7522 H   0  0  0  0  0  0  0  0  0  0  0  0
    0.1567    4.8329    5.9502 H   0  0  0  0  0  0  0  0  0  0  0  0
   -1.4609    4.3492    5.4910 H   0  0  0  0  0  0  0  0  0  0  0  0
   -0.9985    5.1583    7.9438 H   0  0  0  0  0  0  0  0  0  0  0  0
   -3.1213    4.5345    8.0658 H   0  0  0  0  0  0  0  0  0  0  0  0
   -2.9061    3.0709    7.1107 H   0  0  0  0  0  0  0  0  0  0  0  0
   -3.2533    3.1012    9.9119 H   0  0  0  0  0  0  0  0  0  0  0  0
   -2.5714    1.7819    8.9797 H   0  0  0  0  0  0  0  0  0  0  0  0
   -1.1053    3.9465   10.4840 H   0  0  0  0  0  0  0  0  0  0  0  0
   -0.7432    2.2287   10.4550 H   0  0  0  0  0  0  0  0  0  0  0  0
    0.7240    3.9346    8.9452 H   0  0  0  0  0  0  0  0  0  0  0  0
   -0.5104    1.3562    7.8689 H   0  0  0  0  0  0  0  0  0  0  0  0
    0.8007    0.2890    6.0766 H   0  0  0  0  0  0  0  0  0  0  0  0
    1.7249    3.1072    6.7383 H   0  0  0  0  0  0  0  0  0  0  0  0
   -0.8480    2.1039    5.7972 H   0  0  0  0  0  0  0  0  0  0  0  0
  1  2  1  0
  1 22  1  0
  1 23  1  0
  1 24  1  0
  2 20  1  0
  2  3  1  0
  2 25  1  6
  3  8  1  0
  3  4  1  0
  3 26  1  1
  4  5  1  0
  4 27  1  0
  4 28  1  0
  5  6  1  0
  5 29  1  0
  5 30  1  0
  6  7  1  0
  6 31  1  0
  6 32  1  0
  7  8  1  0
  7 33  1  0
  7 34  1  0
  8  9  1  0
  8 35  1  6
  9 21  1  0
  9 10  1  0
  9 49  1  6
 10 11  1  0
 10 36  1  0
 10 37  1  0
 11 15  1  0
 11 12  1  0
 11 38  1  1
 12 13  1  0
 12 39  1  0
 12 40  1  0
 13 14  1  0
 13 41  1  0
 13 42  1  0
 14 15  1  0
 14 43  1  0
 14 44  1  0
 15 16  1  0
 15 45  1  1
 16 21  1  0
 16 17  1  0
 16 46  1  6
 17 18  1  0
 18 19  2  0
 18 20  1  0
 20 21  1  0
 20 47  1  6
 21 48  1  1
M  CHG  1   9   1
M  END
>  <i_m_ct_stereo_status>  (276) 
1

>  <s_m_source_file>  (276) 
/var/tmp/pbs.5076255.sched01/tmp361ftg5n/90jpawypyp.sdf

>  <i_m_source_file_index>  (276) 
24

>  <i_lp_mmshare_version>  (276) 
48012

>  <i_f3d_flags>  (276) 
0

>  <s_epik_input>  (276) 
W0NIM11bQ0BIXTFbQ0BIXTJDKD1PKU9bQ0BASF0oW0NASF0zW0NAQEhdKFtDSDJdNClbQ0gyXVtDSDJdW0NIMl0zKVtDQEBIXTJONFtDQEBIXShbQ0BASF0xNSlbQ0gyXVtDSDJdW0NIMl1bQ0gyXTU=

>  <s_epik_cmdline>  (276) 
J2VwaWtfcHl0aG9uJywgJy1waHQnLCAnMi4wJywgJy1waCcsICc3LjAnLCAnLXRuJywgJzgnLCAnLW1hJywgJzIwMCcsICctaW1hZScsICc8aW5maWxlLm1hZT4nLCAnLW9tYWUnLCAnPG91dGZpbGUubWFlPic=

>  <r_epik_Ionization_Penalty>  (276) 
0.016133

>  <r_epik_Ionization_Penalty_Charging>  (276) 
0.016133

>  <r_epik_Ionization_Penalty_Neutral>  (276) 
0

>  <r_epik_State_Penalty>  (276) 
0.0127172

>  <r_epik_Charging_Adjusted_Penalty>  (276) 
0.0288503

>  <i_epik_Tot_Q>  (276) 
1

>  <i_epik_Tot_abs_Q>  (276) 
1

>  <s_epik_Chemistry_Notes>  (276) 
This compound has an ester and may undergo hydrolysis at high or low pH.

>  <s_lp_Force_Field>  (276) 
OPLS3e

>  <r_lp_Energy>  (276) 
47.1097

>  <b_lp_Chiralities_Consistent>  (276) 
1

>  <s_lp_Variant>  (276) 
74:0-1

>  <s_i_glide_gridfile>  (276) 
pfpi4k_grid

>  <i_i_glide_lignum>  (276) 
24

>  <i_i_glide_rotatable_bonds>  (276) 
0

>  <r_i_docking_score>  (276) 
-2.49755

>  <r_i_glide_ligand_efficiency>  (276) 
-0.118931

>  <r_i_glide_ligand_efficiency_sa>  (276) 
-0.328121

>  <r_i_glide_ligand_efficiency_ln>  (276) 
-0.617513

>  <r_i_glide_gscore>  (276) 
-2.49755

>  <r_i_glide_lipo>  (276) 
-0.084154

>  <r_i_glide_hbond>  (276) 
0

>  <r_i_glide_metal>  (276) 
-0

>  <r_i_glide_rewards>  (276) 
-1.42895

>  <r_i_glide_evdw>  (276) 
-18.3686

>  <r_i_glide_ecoul>  (276) 
-0.426933

>  <r_i_glide_erotb>  (276) 
0

>  <r_i_glide_esite>  (276) 
-0.0019693

>  <r_i_glide_emodel>  (276) 
-22.8656

>  <r_i_glide_energy>  (276) 
-18.7955

>  <r_i_glide_einternal>  (276) 
0

>  <r_i_glide_intrahb_reward>  (276) 
-0

>  <i_i_glide_confnum>  (276) 
1

>  <i_i_glide_posenum>  (276) 
2

>  <r_i_glide_eff_state_penalty>  (276) 
0

>  <ligand_id>  (276) 
74

>  <original_smiles>  (276) 
CC1C2CCCCC2N2CC3CCCC3C3OC(=O)C1C32

>  <smiles>  (276) 
[H]C([H])([H])C1([H])C2([H])C(=O)OC3([H])C4([H])C([H])([H])C([H])([H])C([H])([H])C4([H])C([H])([H])[N+]([H])(C32[H])C2([H])C([H])([H])C([H])([H])C([H])([H])C([H])([H])C12[H]

$$$$
74:1:0
     RDKit          3D

 48 52  0  0  1  0  0  0  0  0999 V2000
    7.1659   -5.1519    1.7235 C   0  0  0  0  0  0  0  0  0  0  0  0
    6.0189   -4.1319    1.9246 C   0  0  2  0  0  0  0  0  0  0  0  0
    4.6281   -4.8527    1.9791 C   0  0  1  0  0  0  0  0  0  0  0  0
    4.2984   -5.4321    3.3806 C   0  0  0  0  0  0  0  0  0  0  0  0
    3.8514   -4.3558    4.3853 C   0  0  0  0  0  0  0  0  0  0  0  0
    2.6630   -3.5464    3.8432 C   0  0  0  0  0  0  0  0  0  0  0  0
    2.9720   -2.9414    2.4665 C   0  0  0  0  0  0  0  0  0  0  0  0
    3.4201   -4.0030    1.4435 C   0  0  1  0  0  0  0  0  0  0  0  0
    3.6586   -3.2988    0.1631 N   0  0  0  0  0  0  0  0  0  0  0  0
    2.8947   -3.8397   -0.9655 C   0  0  0  0  0  0  0  0  0  0  0  0
    3.3184   -3.3365   -2.4066 C   0  0  1  0  0  0  0  0  0  0  0  0
    2.3036   -2.4206   -3.0910 C   0  0  0  0  0  0  0  0  0  0  0  0
    3.0178   -1.1004   -3.3100 C   0  0  0  0  0  0  0  0  0  0  0  0
    4.4573   -1.4984   -3.5129 C   0  0  0  0  0  0  0  0  0  0  0  0
    4.7157   -2.6852   -2.5841 C   0  0  1  0  0  0  0  0  0  0  0  0
    5.3063   -2.2503   -1.2424 C   0  0  2  0  0  0  0  0  0  0  0  0
    6.7223   -2.1684   -1.1432 O   0  0  0  0  0  0  0  0  0  0  0  0
    7.1778   -2.5542    0.0684 C   0  0  0  0  0  0  0  0  0  0  0  0
    8.3425   -2.5238    0.4665 O   0  0  0  0  0  0  0  0  0  0  0  0
    5.9719   -2.9750    0.9014 C   0  0  1  0  0  0  0  0  0  0  0  0
    5.0477   -3.3352   -0.2230 C   0  0  1  0  0  0  0  0  0  0  0  0
    7.1275   -5.6221    0.7426 H   0  0  0  0  0  0  0  0  0  0  0  0
    7.1142   -5.9439    2.4756 H   0  0  0  0  0  0  0  0  0  0  0  0
    8.1427   -4.6853    1.8428 H   0  0  0  0  0  0  0  0  0  0  0  0
    6.1859   -3.6527    2.8876 H   0  0  0  0  0  0  0  0  0  0  0  0
    4.7101   -5.7108    1.3089 H   0  0  0  0  0  0  0  0  0  0  0  0
    3.4929   -6.1573    3.2772 H   0  0  0  0  0  0  0  0  0  0  0  0
    5.1458   -5.9837    3.7840 H   0  0  0  0  0  0  0  0  0  0  0  0
    3.5711   -4.8272    5.3299 H   0  0  0  0  0  0  0  0  0  0  0  0
    4.6807   -3.6855    4.6178 H   0  0  0  0  0  0  0  0  0  0  0  0
    1.7813   -4.1862    3.7814 H   0  0  0  0  0  0  0  0  0  0  0  0
    2.4166   -2.7485    4.5467 H   0  0  0  0  0  0  0  0  0  0  0  0
    2.0836   -2.4282    2.0947 H   0  0  0  0  0  0  0  0  0  0  0  0
    3.7425   -2.1797    2.5793 H   0  0  0  0  0  0  0  0  0  0  0  0
    2.5811   -4.6837    1.3052 H   0  0  0  0  0  0  0  0  0  0  0  0
    3.0110   -4.9192   -0.8970 H   0  0  0  0  0  0  0  0  0  0  0  0
    1.8317   -3.6471   -0.7992 H   0  0  0  0  0  0  0  0  0  0  0  0
    3.3480   -4.2033   -3.0616 H   0  0  0  0  0  0  0  0  0  0  0  0
    2.0096   -2.8366   -4.0539 H   0  0  0  0  0  0  0  0  0  0  0  0
    1.4133   -2.2988   -2.4950 H   0  0  0  0  0  0  0  0  0  0  0  0
    2.6153   -0.5146   -4.1365 H   0  0  0  0  0  0  0  0  0  0  0  0
    2.9283   -0.4979   -2.4053 H   0  0  0  0  0  0  0  0  0  0  0  0
    4.6103   -1.7836   -4.5522 H   0  0  0  0  0  0  0  0  0  0  0  0
    5.0607   -0.6438   -3.2691 H   0  0  0  0  0  0  0  0  0  0  0  0
    5.3984   -3.4026   -3.0444 H   0  0  0  0  0  0  0  0  0  0  0  0
    4.8550   -1.3152   -0.9031 H   0  0  0  0  0  0  0  0  0  0  0  0
    5.6123   -2.0752    1.3924 H   0  0  0  0  0  0  0  0  0  0  0  0
    5.3122   -4.3201   -0.6193 H   0  0  0  0  0  0  0  0  0  0  0  0
  1  2  1  0
  1 22  1  0
  1 23  1  0
  1 24  1  0
  2 20  1  0
  2  3  1  0
  2 25  1  1
  3  8  1  0
  3  4  1  0
  3 26  1  6
  4  5  1  0
  4 27  1  0
  4 28  1  0
  5  6  1  0
  5 29  1  0
  5 30  1  0
  6  7  1  0
  6 31  1  0
  6 32  1  0
  7  8  1  0
  7 33  1  0
  7 34  1  0
  8  9  1  0
  8 35  1  6
  9 21  1  0
  9 10  1  0
 10 11  1  0
 10 36  1  0
 10 37  1  0
 11 15  1  0
 11 12  1  0
 11 38  1  6
 12 13  1  0
 12 39  1  0
 12 40  1  0
 13 14  1  0
 13 41  1  0
 13 42  1  0
 14 15  1  0
 14 43  1  0
 14 44  1  0
 15 16  1  0
 15 45  1  6
 16 21  1  0
 16 17  1  0
 16 46  1  1
 17 18  1  0
 18 19  2  0
 18 20  1  0
 20 21  1  0
 20 47  1  1
 21 48  1  6
M  END
>  <i_m_ct_stereo_status>  (277) 
1

>  <s_m_source_file>  (277) 
/var/tmp/pbs.5076255.sched01/tmp361ftg5n/90jpawypyp.sdf

>  <i_m_source_file_index>  (277) 
25

>  <i_lp_mmshare_version>  (277) 
48012

>  <i_f3d_flags>  (277) 
0

>  <s_epik_input>  (277) 
W0NIM11bQ0BIXTFbQ0BIXTJDKD1PKU9bQ0BASF0oW0NASF0zW0NAQEhdKFtDSDJdNClbQ0gyXVtDSDJdW0NIMl0zKVtDQEBIXTJONFtDQEBIXShbQ0BASF0xNSlbQ0gyXVtDSDJdW0NIMl1bQ0gyXTU=

>  <s_epik_cmdline>  (277) 
J2VwaWtfcHl0aG9uJywgJy1waHQnLCAnMi4wJywgJy1waCcsICc3LjAnLCAnLXRuJywgJzgnLCAnLW1hJywgJzIwMCcsICctaW1hZScsICc8aW5maWxlLm1hZT4nLCAnLW9tYWUnLCAnPG91dGZpbGUubWFlPic=

>  <r_epik_Ionization_Penalty>  (277) 
2.14305

>  <r_epik_Ionization_Penalty_Charging>  (277) 
0

>  <r_epik_Ionization_Penalty_Neutral>  (277) 
2.14305

>  <r_epik_State_Penalty>  (277) 
2.2823

>  <r_epik_Charging_Adjusted_Penalty>  (277) 
2.2823

>  <i_epik_Tot_Q>  (277) 
0

>  <i_epik_Tot_abs_Q>  (277) 
0

>  <s_epik_Chemistry_Notes>  (277) 
This compound has an ester and may undergo hydrolysis at high or low pH.

>  <s_lp_Force_Field>  (277) 
OPLS3e

>  <r_lp_Energy>  (277) 
46.8509

>  <b_lp_Chiralities_Consistent>  (277) 
1

>  <s_lp_Variant>  (277) 
74:0-2

>  <s_i_glide_gridfile>  (277) 
pfpi4k_grid

>  <i_i_glide_lignum>  (277) 
25

>  <i_i_glide_rotatable_bonds>  (277) 
0

>  <r_i_docking_score>  (277) 
-3.51496

>  <r_i_glide_ligand_efficiency>  (277) 
-0.167379

>  <r_i_glide_ligand_efficiency_sa>  (277) 
-0.461786

>  <r_i_glide_ligand_efficiency_ln>  (277) 
-0.869067

>  <r_i_glide_gscore>  (277) 
-3.51496

>  <r_i_glide_lipo>  (277) 
-0.634545

>  <r_i_glide_hbond>  (277) 
-0.16

>  <r_i_glide_metal>  (277) 
-0

>  <r_i_glide_rewards>  (277) 
-1.52417

>  <r_i_glide_evdw>  (277) 
-18.0909

>  <r_i_glide_ecoul>  (277) 
-1.94472

>  <r_i_glide_erotb>  (277) 
0

>  <r_i_glide_esite>  (277) 
0

>  <r_i_glide_emodel>  (277) 
-24.6652

>  <r_i_glide_energy>  (277) 
-20.0356

>  <r_i_glide_einternal>  (277) 
0

>  <r_i_glide_intrahb_reward>  (277) 
-0

>  <i_i_glide_confnum>  (277) 
1

>  <i_i_glide_posenum>  (277) 
3

>  <r_i_glide_eff_state_penalty>  (277) 
0

>  <ligand_id>  (277) 
74

>  <original_smiles>  (277) 
CC1C2CCCCC2N2CC3CCCC3C3OC(=O)C1C32

>  <smiles>  (277) 
[H]C([H])([H])C1([H])C2([H])C(=O)OC3([H])C2([H])N(C([H])([H])C2([H])C([H])([H])C([H])([H])C([H])([H])C32[H])C2([H])C([H])([H])C([H])([H])C([H])([H])C([H])([H])C21[H]

$$$$
74:1:1
     RDKit          3D

 48 52  0  0  1  0  0  0  0  0999 V2000
    4.8902   -2.5289    4.1705 C   0  0  0  0  0  0  0  0  0  0  0  0
    3.8702   -3.2668    3.2721 C   0  0  2  0  0  0  0  0  0  0  0  0
    4.4687   -4.6264    2.7645 C   0  0  1  0  0  0  0  0  0  0  0  0
    4.3234   -5.7739    3.7934 C   0  0  0  0  0  0  0  0  0  0  0  0
    2.8953   -6.3414    3.8648 C   0  0  0  0  0  0  0  0  0  0  0  0
    2.4108   -6.7984    2.4811 C   0  0  0  0  0  0  0  0  0  0  0  0
    2.5296   -5.6745    1.4379 C   0  0  0  0  0  0  0  0  0  0  0  0
    3.9580   -5.0972    1.3519 C   0  0  1  0  0  0  0  0  0  0  0  0
    3.9653   -4.0552    0.3048 N   0  0  0  0  0  0  0  0  0  0  0  0
    4.9711   -4.2563   -0.7519 C   0  0  0  0  0  0  0  0  0  0  0  0
    5.1690   -3.0514   -1.7489 C   0  0  1  0  0  0  0  0  0  0  0  0
    4.6082   -3.2723   -3.1686 C   0  0  0  0  0  0  0  0  0  0  0  0
    3.5674   -2.1802   -3.3913 C   0  0  0  0  0  0  0  0  0  0  0  0
    4.0726   -1.0047   -2.5596 C   0  0  0  0  0  0  0  0  0  0  0  0
    4.6993   -1.6292   -1.3035 C   0  0  1  0  0  0  0  0  0  0  0  0
    3.7039   -1.7034   -0.1402 C   0  0  2  0  0  0  0  0  0  0  0  0
    3.6207   -0.5740    0.7238 O   0  0  0  0  0  0  0  0  0  0  0  0
    3.3757   -0.9309    2.0059 C   0  0  0  0  0  0  0  0  0  0  0  0
    3.1905   -0.1832    2.9644 O   0  0  0  0  0  0  0  0  0  0  0  0
    3.3363   -2.4570    2.0644 C   0  0  1  0  0  0  0  0  0  0  0  0
    4.1761   -2.7346    0.8494 C   0  0  1  0  0  0  0  0  0  0  0  0
    5.7614   -2.1938    3.6037 H   0  0  0  0  0  0  0  0  0  0  0  0
    5.2494   -3.1752    4.9720 H   0  0  0  0  0  0  0  0  0  0  0  0
    4.4494   -1.6561    4.6528 H   0  0  0  0  0  0  0  0  0  0  0  0
    3.0033   -3.4795    3.8930 H   0  0  0  0  0  0  0  0  0  0  0  0
    5.5429   -4.4607    2.6446 H   0  0  0  0  0  0  0  0  0  0  0  0
    5.0010   -6.5840    3.5181 H   0  0  0  0  0  0  0  0  0  0  0  0
    4.6415   -5.4491    4.7860 H   0  0  0  0  0  0  0  0  0  0  0  0
    2.8680   -7.1829    4.5594 H   0  0  0  0  0  0  0  0  0  0  0  0
    2.2126   -5.5941    4.2692 H   0  0  0  0  0  0  0  0  0  0  0  0
    2.9903   -7.6660    2.1598 H   0  0  0  0  0  0  0  0  0  0  0  0
    1.3743   -7.1327    2.5520 H   0  0  0  0  0  0  0  0  0  0  0  0
    2.2334   -6.0634    0.4621 H   0  0  0  0  0  0  0  0  0  0  0  0
    1.8203   -4.8881    1.6893 H   0  0  0  0  0  0  0  0  0  0  0  0
    4.6048   -5.9110    1.0197 H   0  0  0  0  0  0  0  0  0  0  0  0
    5.9285   -4.4686   -0.2705 H   0  0  0  0  0  0  0  0  0  0  0  0
    4.7021   -5.1582   -1.3055 H   0  0  0  0  0  0  0  0  0  0  0  0
    6.2503   -2.9886   -1.8883 H   0  0  0  0  0  0  0  0  0  0  0  0
    5.4145   -3.1469   -3.8889 H   0  0  0  0  0  0  0  0  0  0  0  0
    4.1980   -4.2640   -3.3312 H   0  0  0  0  0  0  0  0  0  0  0  0
    3.4394   -1.9289   -4.4449 H   0  0  0  0  0  0  0  0  0  0  0  0
    2.6011   -2.5174   -3.0143 H   0  0  0  0  0  0  0  0  0  0  0  0
    4.8346   -0.4641   -3.1185 H   0  0  0  0  0  0  0  0  0  0  0  0
    3.2728   -0.3006   -2.3368 H   0  0  0  0  0  0  0  0  0  0  0  0
    5.5583   -1.0442   -0.9729 H   0  0  0  0  0  0  0  0  0  0  0  0
    2.7081   -1.9691   -0.5025 H   0  0  0  0  0  0  0  0  0  0  0  0
    2.3029   -2.7391    1.8685 H   0  0  0  0  0  0  0  0  0  0  0  0
    5.2342   -2.5932    1.0877 H   0  0  0  0  0  0  0  0  0  0  0  0
  1  2  1  0
  1 22  1  0
  1 23  1  0
  1 24  1  0
  2 20  1  0
  2  3  1  0
  2 25  1  1
  3  8  1  0
  3  4  1  0
  3 26  1  6
  4  5  1  0
  4 27  1  0
  4 28  1  0
  5  6  1  0
  5 29  1  0
  5 30  1  0
  6  7  1  0
  6 31  1  0
  6 32  1  0
  7  8  1  0
  7 33  1  0
  7 34  1  0
  8  9  1  0
  8 35  1  6
  9 21  1  0
  9 10  1  0
 10 11  1  0
 10 36  1  0
 10 37  1  0
 11 15  1  0
 11 12  1  0
 11 38  1  6
 12 13  1  0
 12 39  1  0
 12 40  1  0
 13 14  1  0
 13 41  1  0
 13 42  1  0
 14 15  1  0
 14 43  1  0
 14 44  1  0
 15 16  1  0
 15 45  1  1
 16 21  1  0
 16 17  1  0
 16 46  1  6
 17 18  1  0
 18 19  2  0
 18 20  1  0
 20 21  1  0
 20 47  1  6
 21 48  1  1
M  END
>  <i_m_ct_stereo_status>  (278) 
1

>  <s_m_source_file>  (278) 
/var/tmp/pbs.5076255.sched01/tmp361ftg5n/90jpawypyp.sdf

>  <i_m_source_file_index>  (278) 
25

>  <i_lp_mmshare_version>  (278) 
48012

>  <i_f3d_flags>  (278) 
0

>  <s_epik_input>  (278) 
W0NIM11bQ0BIXTFbQ0BIXTJDKD1PKU9bQ0BASF0oW0NASF0zW0NAQEhdKFtDSDJdNClbQ0gyXVtDSDJdW0NIMl0zKVtDQEBIXTJONFtDQEBIXShbQ0BASF0xNSlbQ0gyXVtDSDJdW0NIMl1bQ0gyXTU=

>  <s_epik_cmdline>  (278) 
J2VwaWtfcHl0aG9uJywgJy1waHQnLCAnMi4wJywgJy1waCcsICc3LjAnLCAnLXRuJywgJzgnLCAnLW1hJywgJzIwMCcsICctaW1hZScsICc8aW5maWxlLm1hZT4nLCAnLW9tYWUnLCAnPG91dGZpbGUubWFlPic=

>  <r_epik_Ionization_Penalty>  (278) 
2.14305

>  <r_epik_Ionization_Penalty_Charging>  (278) 
0

>  <r_epik_Ionization_Penalty_Neutral>  (278) 
2.14305

>  <r_epik_State_Penalty>  (278) 
2.2823

>  <r_epik_Charging_Adjusted_Penalty>  (278) 
2.2823

>  <i_epik_Tot_Q>  (278) 
0

>  <i_epik_Tot_abs_Q>  (278) 
0

>  <s_epik_Chemistry_Notes>  (278) 
This compound has an ester and may undergo hydrolysis at high or low pH.

>  <s_lp_Force_Field>  (278) 
OPLS3e

>  <r_lp_Energy>  (278) 
46.8509

>  <b_lp_Chiralities_Consistent>  (278) 
1

>  <s_lp_Variant>  (278) 
74:0-2

>  <s_i_glide_gridfile>  (278) 
pfpi4k_grid

>  <i_i_glide_lignum>  (278) 
25

>  <i_i_glide_rotatable_bonds>  (278) 
0

>  <r_i_docking_score>  (278) 
-3.16948

>  <r_i_glide_ligand_efficiency>  (278) 
-0.150928

>  <r_i_glide_ligand_efficiency_sa>  (278) 
-0.416398

>  <r_i_glide_ligand_efficiency_ln>  (278) 
-0.783648

>  <r_i_glide_gscore>  (278) 
-3.16948

>  <r_i_glide_lipo>  (278) 
-0.482541

>  <r_i_glide_hbond>  (278) 
0

>  <r_i_glide_metal>  (278) 
-0

>  <r_i_glide_rewards>  (278) 
-1.43582

>  <r_i_glide_evdw>  (278) 
-25.2275

>  <r_i_glide_ecoul>  (278) 
0.136381

>  <r_i_glide_erotb>  (278) 
0

>  <r_i_glide_esite>  (278) 
-0.0102003

>  <r_i_glide_emodel>  (278) 
-29.482

>  <r_i_glide_energy>  (278) 
-25.0911

>  <r_i_glide_einternal>  (278) 
0

>  <r_i_glide_intrahb_reward>  (278) 
-0

>  <i_i_glide_confnum>  (278) 
2

>  <i_i_glide_posenum>  (278) 
33

>  <r_i_glide_eff_state_penalty>  (278) 
0

>  <ligand_id>  (278) 
74

>  <original_smiles>  (278) 
CC1C2CCCCC2N2CC3CCCC3C3OC(=O)C1C32

>  <smiles>  (278) 
[H]C([H])([H])C1([H])C2([H])C(=O)OC3([H])C2([H])N(C([H])([H])C2([H])C([H])([H])C([H])([H])C([H])([H])C32[H])C2([H])C([H])([H])C([H])([H])C([H])([H])C([H])([H])C21[H]

$$$$
74:1:2
     RDKit          3D

 48 52  0  0  1  0  0  0  0  0999 V2000
    1.2482    5.9565    8.0413 C   0  0  0  0  0  0  0  0  0  0  0  0
    0.0467    5.1936    7.4343 C   0  0  2  0  0  0  0  0  0  0  0  0
   -0.1785    3.8367    8.1888 C   0  0  1  0  0  0  0  0  0  0  0  0
   -0.9962    3.9982    9.4942 C   0  0  0  0  0  0  0  0  0  0  0  0
   -2.5002    4.1991    9.2429 C   0  0  0  0  0  0  0  0  0  0  0  0
   -3.0677    3.0566    8.3929 C   0  0  0  0  0  0  0  0  0  0  0  0
   -2.2905    2.8769    7.0775 C   0  0  0  0  0  0  0  0  0  0  0  0
   -0.7791    2.6753    7.3121 C   0  0  1  0  0  0  0  0  0  0  0  0
   -0.1369    2.4826    5.9954 N   0  0  0  0  0  0  0  0  0  0  0  0
    0.6534    1.2457    5.8722 C   0  0  0  0  0  0  0  0  0  0  0  0
    1.5426    1.1283    4.5771 C   0  0  1  0  0  0  0  0  0  0  0  0
    1.0390    0.1193    3.5242 C   0  0  0  0  0  0  0  0  0  0  0  0
    0.7955    0.9275    2.2510 C   0  0  0  0  0  0  0  0  0  0  0  0
    1.8201    2.0590    2.3210 C   0  0  0  0  0  0  0  0  0  0  0  0
    1.9150    2.4351    3.8043 C   0  0  1  0  0  0  0  0  0  0  0  0
    0.9733    3.5914    4.1619 C   0  0  2  0  0  0  0  0  0  0  0  0
    1.4712    4.9190    4.0134 O   0  0  0  0  0  0  0  0  0  0  0  0
    1.0010    5.7505    4.9722 C   0  0  0  0  0  0  0  0  0  0  0  0
    1.1942    6.9605    5.0765 O   0  0  0  0  0  0  0  0  0  0  0  0
    0.1236    4.9272    5.9111 C   0  0  1  0  0  0  0  0  0  0  0  0
    0.7371    3.5807    5.6500 C   0  0  1  0  0  0  0  0  0  0  0  0
    2.1931    5.4394    7.8590 H   0  0  0  0  0  0  0  0  0  0  0  0
    1.1390    6.0690    9.1204 H   0  0  0  0  0  0  0  0  0  0  0  0
    1.3362    6.9645    7.6345 H   0  0  0  0  0  0  0  0  0  0  0  0
   -0.8284    5.8219    7.5831 H   0  0  0  0  0  0  0  0  0  0  0  0
    0.8132    3.4889    8.4919 H   0  0  0  0  0  0  0  0  0  0  0  0
   -0.8667    3.1032   10.1061 H   0  0  0  0  0  0  0  0  0  0  0  0
   -0.6103    4.8229   10.0965 H   0  0  0  0  0  0  0  0  0  0  0  0
   -3.0276    4.2393   10.1980 H   0  0  0  0  0  0  0  0  0  0  0  0
   -2.6820    5.1561    8.7538 H   0  0  0  0  0  0  0  0  0  0  0  0
   -3.0314    2.1382    8.9781 H   0  0  0  0  0  0  0  0  0  0  0  0
   -4.1211    3.2479    8.1827 H   0  0  0  0  0  0  0  0  0  0  0  0
   -2.6958    2.0211    6.5366 H   0  0  0  0  0  0  0  0  0  0  0  0
   -2.4635    3.7448    6.4437 H   0  0  0  0  0  0  0  0  0  0  0  0
   -0.6691    1.7483    7.8764 H   0  0  0  0  0  0  0  0  0  0  0  0
    1.3051    1.1737    6.7461 H   0  0  0  0  0  0  0  0  0  0  0  0
   -0.0329    0.3984    5.9317 H   0  0  0  0  0  0  0  0  0  0  0  0
    2.4868    0.7085    4.9326 H   0  0  0  0  0  0  0  0  0  0  0  0
    1.8329   -0.6041    3.3316 H   0  0  0  0  0  0  0  0  0  0  0  0
    0.1613   -0.4468    3.8359 H   0  0  0  0  0  0  0  0  0  0  0  0
    0.8979    0.3244    1.3465 H   0  0  0  0  0  0  0  0  0  0  0  0
   -0.2154    1.3334    2.2619 H   0  0  0  0  0  0  0  0  0  0  0  0
    2.7862    1.6944    1.9730 H   0  0  0  0  0  0  0  0  0  0  0  0
    1.5457    2.9022    1.6882 H   0  0  0  0  0  0  0  0  0  0  0  0
    2.9339    2.7325    4.0564 H   0  0  0  0  0  0  0  0  0  0  0  0
    0.0249    3.4936    3.6280 H   0  0  0  0  0  0  0  0  0  0  0  0
   -0.8790    4.9555    5.4884 H   0  0  0  0  0  0  0  0  0  0  0  0
    1.6813    3.4900    6.1951 H   0  0  0  0  0  0  0  0  0  0  0  0
  1  2  1  0
  1 22  1  0
  1 23  1  0
  1 24  1  0
  2 20  1  0
  2  3  1  0
  2 25  1  6
  3  8  1  0
  3  4  1  0
  3 26  1  1
  4  5  1  0
  4 27  1  0
  4 28  1  0
  5  6  1  0
  5 29  1  0
  5 30  1  0
  6  7  1  0
  6 31  1  0
  6 32  1  0
  7  8  1  0
  7 33  1  0
  7 34  1  0
  8  9  1  0
  8 35  1  1
  9 21  1  0
  9 10  1  0
 10 11  1  0
 10 36  1  0
 10 37  1  0
 11 15  1  0
 11 12  1  0
 11 38  1  1
 12 13  1  0
 12 39  1  0
 12 40  1  0
 13 14  1  0
 13 41  1  0
 13 42  1  0
 14 15  1  0
 14 43  1  0
 14 44  1  0
 15 16  1  0
 15 45  1  1
 16 21  1  0
 16 17  1  0
 16 46  1  6
 17 18  1  0
 18 19  2  0
 18 20  1  0
 20 21  1  0
 20 47  1  6
 21 48  1  1
M  END
>  <i_m_ct_stereo_status>  (279) 
1

>  <s_m_source_file>  (279) 
/var/tmp/pbs.5076255.sched01/tmp361ftg5n/90jpawypyp.sdf

>  <i_m_source_file_index>  (279) 
25

>  <i_lp_mmshare_version>  (279) 
48012

>  <i_f3d_flags>  (279) 
0

>  <s_epik_input>  (279) 
W0NIM11bQ0BIXTFbQ0BIXTJDKD1PKU9bQ0BASF0oW0NASF0zW0NAQEhdKFtDSDJdNClbQ0gyXVtDSDJdW0NIMl0zKVtDQEBIXTJONFtDQEBIXShbQ0BASF0xNSlbQ0gyXVtDSDJdW0NIMl1bQ0gyXTU=

>  <s_epik_cmdline>  (279) 
J2VwaWtfcHl0aG9uJywgJy1waHQnLCAnMi4wJywgJy1waCcsICc3LjAnLCAnLXRuJywgJzgnLCAnLW1hJywgJzIwMCcsICctaW1hZScsICc8aW5maWxlLm1hZT4nLCAnLW9tYWUnLCAnPG91dGZpbGUubWFlPic=

>  <r_epik_Ionization_Penalty>  (279) 
2.14305

>  <r_epik_Ionization_Penalty_Charging>  (279) 
0

>  <r_epik_Ionization_Penalty_Neutral>  (279) 
2.14305

>  <r_epik_State_Penalty>  (279) 
2.2823

>  <r_epik_Charging_Adjusted_Penalty>  (279) 
2.2823

>  <i_epik_Tot_Q>  (279) 
0

>  <i_epik_Tot_abs_Q>  (279) 
0

>  <s_epik_Chemistry_Notes>  (279) 
This compound has an ester and may undergo hydrolysis at high or low pH.

>  <s_lp_Force_Field>  (279) 
OPLS3e

>  <r_lp_Energy>  (279) 
46.8509

>  <b_lp_Chiralities_Consistent>  (279) 
1

>  <s_lp_Variant>  (279) 
74:0-2

>  <s_i_glide_gridfile>  (279) 
pfpi4k_grid

>  <i_i_glide_lignum>  (279) 
25

>  <i_i_glide_rotatable_bonds>  (279) 
0

>  <r_i_docking_score>  (279) 
-2.63254

>  <r_i_glide_ligand_efficiency>  (279) 
-0.125359

>  <r_i_glide_ligand_efficiency_sa>  (279) 
-0.345856

>  <r_i_glide_ligand_efficiency_ln>  (279) 
-0.650889

>  <r_i_glide_gscore>  (279) 
-2.63254

>  <r_i_glide_lipo>  (279) 
-0.192087

>  <r_i_glide_hbond>  (279) 
0

>  <r_i_glide_metal>  (279) 
-0

>  <r_i_glide_rewards>  (279) 
-1.43582

>  <r_i_glide_evdw>  (279) 
-20.2443

>  <r_i_glide_ecoul>  (279) 
0.202815

>  <r_i_glide_erotb>  (279) 
0

>  <r_i_glide_esite>  (279) 
-0.0228307

>  <r_i_glide_emodel>  (279) 
-23.6033

>  <r_i_glide_energy>  (279) 
-20.0415

>  <r_i_glide_einternal>  (279) 
0

>  <r_i_glide_intrahb_reward>  (279) 
-0

>  <i_i_glide_confnum>  (279) 
2

>  <i_i_glide_posenum>  (279) 
8

>  <r_i_glide_eff_state_penalty>  (279) 
0

>  <ligand_id>  (279) 
74

>  <original_smiles>  (279) 
CC1C2CCCCC2N2CC3CCCC3C3OC(=O)C1C32

>  <smiles>  (279) 
[H]C([H])([H])C1([H])C2([H])C(=O)OC3([H])C2([H])N(C([H])([H])C2([H])C([H])([H])C([H])([H])C([H])([H])C32[H])C2([H])C([H])([H])C([H])([H])C([H])([H])C([H])([H])C21[H]

$$$$
75:0:0
     RDKit          3D

 29 32  0  0  1  0  0  0  0  0999 V2000
    3.8992   -1.8391    2.5071 C   0  0  0  0  0  0  0  0  0  0  0  0
    2.6188   -2.4207    2.6695 C   0  0  0  0  0  0  0  0  0  0  0  0
    2.2713   -3.6586    2.2141 N   0  0  0  0  0  0  0  0  0  0  0  0
    3.2459   -4.3051    1.5320 C   0  0  0  0  0  0  0  0  0  0  0  0
    4.5041   -3.8274    1.3162 C   0  0  0  0  0  0  0  0  0  0  0  0
    4.9099   -2.5498    1.8095 C   0  0  0  0  0  0  0  0  0  0  0  0
    5.2836   -4.8281    0.5040 C   0  0  0  0  0  0  0  0  0  0  0  0
    4.3179   -5.8626    0.0849 N   0  0  0  0  0  0  0  0  0  0  0  0
    3.1184   -5.6950    0.9152 C   0  0  1  0  0  0  0  0  0  0  0  0
    2.9584   -6.7715    1.9853 C   0  0  0  0  0  0  0  0  0  0  0  0
    1.4740   -6.9013    2.0307 C   0  0  0  0  0  0  0  0  0  0  0  0
    0.7360   -7.5322    3.1387 C   0  0  0  0  0  0  0  0  0  0  0  0
   -0.6174   -7.9657    3.0745 C   0  0  0  0  0  0  0  0  0  0  0  0
   -1.0425   -8.5753    4.2378 C   0  0  0  0  0  0  0  0  0  0  0  0
    0.2118   -8.6226    5.4289 S   0  0  0  0  0  0  0  0  0  0  0  0
    1.3093   -7.7997    4.3544 C   0  0  0  0  0  0  0  0  0  0  0  0
    0.9468   -6.4155    0.9840 N   0  0  0  0  0  0  0  0  0  0  0  0
    1.9500   -5.8741    0.1132 O   0  0  0  0  0  0  0  0  0  0  0  0
    4.0954   -0.8569    2.9183 H   0  0  0  0  0  0  0  0  0  0  0  0
    1.8127   -1.9180    3.1832 H   0  0  0  0  0  0  0  0  0  0  0  0
    5.9056   -2.1523    1.6439 H   0  0  0  0  0  0  0  0  0  0  0  0
    5.7659   -4.3784   -0.3736 H   0  0  0  0  0  0  0  0  0  0  0  0
    6.0474   -5.3072    1.1223 H   0  0  0  0  0  0  0  0  0  0  0  0
    4.0573   -5.8280   -0.8971 H   0  0  0  0  0  0  0  0  0  0  0  0
    3.3608   -7.7182    1.6220 H   0  0  0  0  0  0  0  0  0  0  0  0
    3.3878   -6.4959    2.9488 H   0  0  0  0  0  0  0  0  0  0  0  0
   -1.2434   -7.8776    2.1998 H   0  0  0  0  0  0  0  0  0  0  0  0
   -1.9791   -9.0539    4.4601 H   0  0  0  0  0  0  0  0  0  0  0  0
    2.3032   -7.5972    4.6892 H   0  0  0  0  0  0  0  0  0  0  0  0
  1  6  2  0
  1  2  1  0
  1 19  1  0
  2  3  2  0
  2 20  1  0
  3  4  1  0
  4  9  1  0
  4  5  2  0
  5  6  1  0
  5  7  1  0
  6 21  1  0
  7  8  1  0
  7 22  1  0
  7 23  1  0
  8  9  1  0
  8 24  1  0
  9 18  1  6
  9 10  1  0
 10 11  1  0
 10 25  1  0
 10 26  1  0
 11 12  1  0
 11 17  2  0
 12 16  2  0
 12 13  1  0
 13 14  2  0
 13 27  1  0
 14 15  1  0
 14 28  1  0
 15 16  1  0
 16 29  1  0
 17 18  1  0
M  END
>  <i_m_ct_stereo_status>  (280) 
1

>  <s_m_source_file>  (280) 
/var/tmp/pbs.5076255.sched01/tmp361ftg5n/90jpawypyp.sdf

>  <i_m_source_file_index>  (280) 
26

>  <i_lp_mmshare_version>  (280) 
48012

>  <i_f3d_flags>  (280) 
0

>  <s_epik_input>  (280) 
bjFbY0hdW2NIXVtjSF1jKFtDSDJdW05IXTIpYzFbQ0BdMjNbQ0gyXUMoPU5PMyljNFtjSF1bY0hdc1tjSF00

>  <s_epik_cmdline>  (280) 
J2VwaWtfcHl0aG9uJywgJy1waHQnLCAnMi4wJywgJy1waCcsICc3LjAnLCAnLXRuJywgJzgnLCAnLW1hJywgJzIwMCcsICctaW1hZScsICc8aW5maWxlLm1hZT4nLCAnLW9tYWUnLCAnPG91dGZpbGUubWFlPic=

>  <r_epik_Ionization_Penalty>  (280) 
0.0132172

>  <r_epik_Ionization_Penalty_Charging>  (280) 
0

>  <r_epik_Ionization_Penalty_Neutral>  (280) 
0.0132172

>  <r_epik_State_Penalty>  (280) 
0.0101346

>  <r_epik_Charging_Adjusted_Penalty>  (280) 
0.0101346

>  <i_epik_Tot_Q>  (280) 
0

>  <i_epik_Tot_abs_Q>  (280) 
0

>  <s_epik_Chemistry_Notes>  (280) 
This compound has an imine and may undergo hydrolysis.

>  <s_lp_Force_Field>  (280) 
OPLS3e

>  <r_lp_Energy>  (280) 
8.53135

>  <b_lp_Chiralities_Consistent>  (280) 
1

>  <s_lp_Variant>  (280) 
75:0-1

>  <s_i_glide_gridfile>  (280) 
pfpi4k_grid

>  <i_i_glide_lignum>  (280) 
26

>  <i_i_glide_rotatable_bonds>  (280) 
1

>  <r_i_docking_score>  (280) 
-3.64392

>  <r_i_glide_ligand_efficiency>  (280) 
-0.20244

>  <r_i_glide_ligand_efficiency_sa>  (280) 
-0.530543

>  <r_i_glide_ligand_efficiency_ln>  (280) 
-0.93665

>  <r_i_glide_gscore>  (280) 
-3.64392

>  <r_i_glide_lipo>  (280) 
-0.153483

>  <r_i_glide_hbond>  (280) 
-0.32

>  <r_i_glide_metal>  (280) 
-0

>  <r_i_glide_rewards>  (280) 
-1.65469

>  <r_i_glide_evdw>  (280) 
-20.1185

>  <r_i_glide_ecoul>  (280) 
-3.82424

>  <r_i_glide_erotb>  (280) 
0.266476

>  <r_i_glide_esite>  (280) 
-0.20266

>  <r_i_glide_emodel>  (280) 
-29.9524

>  <r_i_glide_energy>  (280) 
-23.9427

>  <r_i_glide_einternal>  (280) 
0.364249

>  <r_i_glide_intrahb_reward>  (280) 
-0

>  <i_i_glide_confnum>  (280) 
3

>  <i_i_glide_posenum>  (280) 
27

>  <r_i_glide_eff_state_penalty>  (280) 
0

>  <ligand_id>  (280) 
75

>  <original_smiles>  (280) 
c1cnc2c(c1)CNC21CC(c2ccsc2)=NO1

>  <smiles>  (280) 
[H]c1nc2c(c([H])c1[H])C([H])([H])N([H])C21ON=C(c2c([H])sc([H])c2[H])C1([H])[H]

$$$$
75:0:1
     RDKit          3D

 29 32  0  0  1  0  0  0  0  0999 V2000
    2.6936   -2.7364    4.0094 C   0  0  0  0  0  0  0  0  0  0  0  0
    1.7346   -3.7820    4.0769 C   0  0  0  0  0  0  0  0  0  0  0  0
    1.6609   -4.8026    3.1932 N   0  0  0  0  0  0  0  0  0  0  0  0
    2.5774   -4.7758    2.2004 C   0  0  0  0  0  0  0  0  0  0  0  0
    3.5391   -3.7995    2.0391 C   0  0  0  0  0  0  0  0  0  0  0  0
    3.6401   -2.7297    2.9525 C   0  0  0  0  0  0  0  0  0  0  0  0
    4.3363   -4.0871    0.7969 C   0  0  0  0  0  0  0  0  0  0  0  0
    3.6429   -5.2188    0.1297 N   0  0  0  0  0  0  0  0  0  0  0  0
    2.7025   -5.8029    1.1061 C   0  0  1  0  0  0  0  0  0  0  0  0
    3.1589   -7.1501    1.6275 C   0  0  0  0  0  0  0  0  0  0  0  0
    1.8465   -7.8386    1.8329 C   0  0  0  0  0  0  0  0  0  0  0  0
    1.6807   -9.0465    2.6498 C   0  0  0  0  0  0  0  0  0  0  0  0
    0.4665   -9.5083    3.2668 C   0  0  0  0  0  0  0  0  0  0  0  0
    0.6161  -10.6713    3.9635 C   0  0  0  0  0  0  0  0  0  0  0  0
    2.2354  -11.2785    3.8873 S   0  0  0  0  0  0  0  0  0  0  0  0
    2.7090   -9.9202    2.9059 C   0  0  0  0  0  0  0  0  0  0  0  0
    0.9036   -7.2314    1.2134 N   0  0  0  0  0  0  0  0  0  0  0  0
    1.4519   -6.0787    0.4896 O   0  0  0  0  0  0  0  0  0  0  0  0
    2.6966   -1.9576    4.7591 H   0  0  0  0  0  0  0  0  0  0  0  0
    0.9959   -3.8221    4.8634 H   0  0  0  0  0  0  0  0  0  0  0  0
    4.3848   -1.9481    2.8438 H   0  0  0  0  0  0  0  0  0  0  0  0
    4.4012   -3.2166    0.1380 H   0  0  0  0  0  0  0  0  0  0  0  0
    5.3443   -4.4009    1.0693 H   0  0  0  0  0  0  0  0  0  0  0  0
    3.1790   -4.9531   -0.7458 H   0  0  0  0  0  0  0  0  0  0  0  0
    3.7182   -7.7055    0.8756 H   0  0  0  0  0  0  0  0  0  0  0  0
    3.7196   -7.0890    2.5614 H   0  0  0  0  0  0  0  0  0  0  0  0
   -0.4687   -8.9657    3.1924 H   0  0  0  0  0  0  0  0  0  0  0  0
   -0.1330  -11.2195    4.5216 H   0  0  0  0  0  0  0  0  0  0  0  0
    3.7397   -9.8643    2.5747 H   0  0  0  0  0  0  0  0  0  0  0  0
  1  6  2  0
  1  2  1  0
  1 19  1  0
  2  3  2  0
  2 20  1  0
  3  4  1  0
  4  9  1  0
  4  5  2  0
  5  6  1  0
  5  7  1  0
  6 21  1  0
  7  8  1  0
  7 22  1  0
  7 23  1  0
  8  9  1  0
  8 24  1  0
  9 18  1  6
  9 10  1  0
 10 11  1  0
 10 25  1  0
 10 26  1  0
 11 12  1  0
 11 17  2  0
 12 16  2  0
 12 13  1  0
 13 14  2  0
 13 27  1  0
 14 15  1  0
 14 28  1  0
 15 16  1  0
 16 29  1  0
 17 18  1  0
M  END
>  <i_m_ct_stereo_status>  (281) 
1

>  <s_m_source_file>  (281) 
/var/tmp/pbs.5076255.sched01/tmp361ftg5n/90jpawypyp.sdf

>  <i_m_source_file_index>  (281) 
26

>  <i_lp_mmshare_version>  (281) 
48012

>  <i_f3d_flags>  (281) 
0

>  <s_epik_input>  (281) 
bjFbY0hdW2NIXVtjSF1jKFtDSDJdW05IXTIpYzFbQ0BdMjNbQ0gyXUMoPU5PMyljNFtjSF1bY0hdc1tjSF00

>  <s_epik_cmdline>  (281) 
J2VwaWtfcHl0aG9uJywgJy1waHQnLCAnMi4wJywgJy1waCcsICc3LjAnLCAnLXRuJywgJzgnLCAnLW1hJywgJzIwMCcsICctaW1hZScsICc8aW5maWxlLm1hZT4nLCAnLW9tYWUnLCAnPG91dGZpbGUubWFlPic=

>  <r_epik_Ionization_Penalty>  (281) 
0.0132172

>  <r_epik_Ionization_Penalty_Charging>  (281) 
0

>  <r_epik_Ionization_Penalty_Neutral>  (281) 
0.0132172

>  <r_epik_State_Penalty>  (281) 
0.0101346

>  <r_epik_Charging_Adjusted_Penalty>  (281) 
0.0101346

>  <i_epik_Tot_Q>  (281) 
0

>  <i_epik_Tot_abs_Q>  (281) 
0

>  <s_epik_Chemistry_Notes>  (281) 
This compound has an imine and may undergo hydrolysis.

>  <s_lp_Force_Field>  (281) 
OPLS3e

>  <r_lp_Energy>  (281) 
8.53135

>  <b_lp_Chiralities_Consistent>  (281) 
1

>  <s_lp_Variant>  (281) 
75:0-1

>  <s_i_glide_gridfile>  (281) 
pfpi4k_grid

>  <i_i_glide_lignum>  (281) 
26

>  <i_i_glide_rotatable_bonds>  (281) 
1

>  <r_i_docking_score>  (281) 
-3.33555

>  <r_i_glide_ligand_efficiency>  (281) 
-0.185308

>  <r_i_glide_ligand_efficiency_sa>  (281) 
-0.485645

>  <r_i_glide_ligand_efficiency_ln>  (281) 
-0.857385

>  <r_i_glide_gscore>  (281) 
-3.33555

>  <r_i_glide_lipo>  (281) 
-0.103532

>  <r_i_glide_hbond>  (281) 
-0.107867

>  <r_i_glide_metal>  (281) 
-0

>  <r_i_glide_rewards>  (281) 
-1.65469

>  <r_i_glide_evdw>  (281) 
-21.1332

>  <r_i_glide_ecoul>  (281) 
-3.20956

>  <r_i_glide_erotb>  (281) 
0.266476

>  <r_i_glide_esite>  (281) 
-0.19784

>  <r_i_glide_emodel>  (281) 
-29.6646

>  <r_i_glide_energy>  (281) 
-24.3427

>  <r_i_glide_einternal>  (281) 
0.642219

>  <r_i_glide_intrahb_reward>  (281) 
-0

>  <i_i_glide_confnum>  (281) 
1

>  <i_i_glide_posenum>  (281) 
1

>  <r_i_glide_eff_state_penalty>  (281) 
0

>  <ligand_id>  (281) 
75

>  <original_smiles>  (281) 
c1cnc2c(c1)CNC21CC(c2ccsc2)=NO1

>  <smiles>  (281) 
[H]c1nc2c(c([H])c1[H])C([H])([H])N([H])C21ON=C(c2c([H])sc([H])c2[H])C1([H])[H]

$$$$
75:0:2
     RDKit          3D

 29 32  0  0  1  0  0  0  0  0999 V2000
    3.6472   -2.2913    3.6605 C   0  0  0  0  0  0  0  0  0  0  0  0
    2.4486   -3.0544    3.6132 C   0  0  0  0  0  0  0  0  0  0  0  0
    2.2140   -4.0484    2.7316 N   0  0  0  0  0  0  0  0  0  0  0  0
    3.2059   -4.2828    1.8456 C   0  0  0  0  0  0  0  0  0  0  0  0
    4.4022   -3.5907    1.7978 C   0  0  0  0  0  0  0  0  0  0  0  0
    4.6760   -2.5604    2.7193 C   0  0  0  0  0  0  0  0  0  0  0  0
    5.2376   -4.1146    0.6623 C   0  0  0  0  0  0  0  0  0  0  0  0
    4.3550   -5.0593   -0.0726 N   0  0  0  0  0  0  0  0  0  0  0  0
    3.1878   -5.3460    0.7788 C   0  0  1  0  0  0  0  0  0  0  0  0
    3.2246   -6.7463    1.3571 C   0  0  0  0  0  0  0  0  0  0  0  0
    1.7670   -7.0797    1.4003 C   0  0  0  0  0  0  0  0  0  0  0  0
    1.2009   -8.1665    2.1994 C   0  0  0  0  0  0  0  0  0  0  0  0
   -0.1935   -8.3404    2.5327 C   0  0  0  0  0  0  0  0  0  0  0  0
   -0.4326   -9.4637    3.2725 C   0  0  0  0  0  0  0  0  0  0  0  0
    1.0138  -10.3770    3.5749 S   0  0  0  0  0  0  0  0  0  0  0  0
    1.9500   -9.1891    2.7053 C   0  0  0  0  0  0  0  0  0  0  0  0
    1.0819   -6.2897    0.6490 N   0  0  0  0  0  0  0  0  0  0  0  0
    1.9895   -5.3178    0.0165 O   0  0  0  0  0  0  0  0  0  0  0  0
    3.7670   -1.5162    4.4058 H   0  0  0  0  0  0  0  0  0  0  0  0
    1.6434   -2.8772    4.3105 H   0  0  0  0  0  0  0  0  0  0  0  0
    5.6065   -2.0006    2.7032 H   0  0  0  0  0  0  0  0  0  0  0  0
    5.6008   -3.3108    0.0172 H   0  0  0  0  0  0  0  0  0  0  0  0
    6.0974   -4.6614    1.0558 H   0  0  0  0  0  0  0  0  0  0  0  0
    4.0602   -4.6885   -0.9850 H   0  0  0  0  0  0  0  0  0  0  0  0
    3.7079   -7.4415    0.6735 H   0  0  0  0  0  0  0  0  0  0  0  0
    3.6809   -6.7955    2.3482 H   0  0  0  0  0  0  0  0  0  0  0  0
   -0.9599   -7.6461    2.2198 H   0  0  0  0  0  0  0  0  0  0  0  0
   -1.3738   -9.8484    3.6561 H   0  0  0  0  0  0  0  0  0  0  0  0
    3.0241   -9.3475    2.6156 H   0  0  0  0  0  0  0  0  0  0  0  0
  1  6  2  0
  1  2  1  0
  1 19  1  0
  2  3  2  0
  2 20  1  0
  3  4  1  0
  4  9  1  0
  4  5  2  0
  5  6  1  0
  5  7  1  0
  6 21  1  0
  7  8  1  0
  7 22  1  0
  7 23  1  0
  8  9  1  0
  8 24  1  0
  9 18  1  6
  9 10  1  0
 10 11  1  0
 10 25  1  0
 10 26  1  0
 11 12  1  0
 11 17  2  0
 12 16  2  0
 12 13  1  0
 13 14  2  0
 13 27  1  0
 14 15  1  0
 14 28  1  0
 15 16  1  0
 16 29  1  0
 17 18  1  0
M  END
>  <i_m_ct_stereo_status>  (282) 
1

>  <s_m_source_file>  (282) 
/var/tmp/pbs.5076255.sched01/tmp361ftg5n/90jpawypyp.sdf

>  <i_m_source_file_index>  (282) 
26

>  <i_lp_mmshare_version>  (282) 
48012

>  <i_f3d_flags>  (282) 
0

>  <s_epik_input>  (282) 
bjFbY0hdW2NIXVtjSF1jKFtDSDJdW05IXTIpYzFbQ0BdMjNbQ0gyXUMoPU5PMyljNFtjSF1bY0hdc1tjSF00

>  <s_epik_cmdline>  (282) 
J2VwaWtfcHl0aG9uJywgJy1waHQnLCAnMi4wJywgJy1waCcsICc3LjAnLCAnLXRuJywgJzgnLCAnLW1hJywgJzIwMCcsICctaW1hZScsICc8aW5maWxlLm1hZT4nLCAnLW9tYWUnLCAnPG91dGZpbGUubWFlPic=

>  <r_epik_Ionization_Penalty>  (282) 
0.0132172

>  <r_epik_Ionization_Penalty_Charging>  (282) 
0

>  <r_epik_Ionization_Penalty_Neutral>  (282) 
0.0132172

>  <r_epik_State_Penalty>  (282) 
0.0101346

>  <r_epik_Charging_Adjusted_Penalty>  (282) 
0.0101346

>  <i_epik_Tot_Q>  (282) 
0

>  <i_epik_Tot_abs_Q>  (282) 
0

>  <s_epik_Chemistry_Notes>  (282) 
This compound has an imine and may undergo hydrolysis.

>  <s_lp_Force_Field>  (282) 
OPLS3e

>  <r_lp_Energy>  (282) 
8.53135

>  <b_lp_Chiralities_Consistent>  (282) 
1

>  <s_lp_Variant>  (282) 
75:0-1

>  <s_i_glide_gridfile>  (282) 
pfpi4k_grid

>  <i_i_glide_lignum>  (282) 
26

>  <i_i_glide_rotatable_bonds>  (282) 
1

>  <r_i_docking_score>  (282) 
-3.25935

>  <r_i_glide_ligand_efficiency>  (282) 
-0.181075

>  <r_i_glide_ligand_efficiency_sa>  (282) 
-0.474551

>  <r_i_glide_ligand_efficiency_ln>  (282) 
-0.8378

>  <r_i_glide_gscore>  (282) 
-3.25935

>  <r_i_glide_lipo>  (282) 
-0.257688

>  <r_i_glide_hbond>  (282) 
-0.00474099

>  <r_i_glide_metal>  (282) 
-0

>  <r_i_glide_rewards>  (282) 
-1.65469

>  <r_i_glide_evdw>  (282) 
-20.9531

>  <r_i_glide_ecoul>  (282) 
-2.15749

>  <r_i_glide_erotb>  (282) 
0.266476

>  <r_i_glide_esite>  (282) 
-0.237433

>  <r_i_glide_emodel>  (282) 
-28.5181

>  <r_i_glide_energy>  (282) 
-23.1105

>  <r_i_glide_einternal>  (282) 
0.274599

>  <r_i_glide_intrahb_reward>  (282) 
-0

>  <i_i_glide_confnum>  (282) 
3

>  <i_i_glide_posenum>  (282) 
31

>  <r_i_glide_eff_state_penalty>  (282) 
0

>  <ligand_id>  (282) 
75

>  <original_smiles>  (282) 
c1cnc2c(c1)CNC21CC(c2ccsc2)=NO1

>  <smiles>  (282) 
[H]c1nc2c(c([H])c1[H])C([H])([H])N([H])C21ON=C(c2c([H])sc([H])c2[H])C1([H])[H]

$$$$
75:1:0
     RDKit          3D

 30 33  0  0  1  0  0  0  0  0999 V2000
    4.3723   -1.1994    1.1225 C   0  0  0  0  0  0  0  0  0  0  0  0
    3.0895   -1.6106    1.5808 C   0  0  0  0  0  0  0  0  0  0  0  0
    2.6139   -2.8734    1.4528 N   0  0  0  0  0  0  0  0  0  0  0  0
    3.4278   -3.7443    0.8309 C   0  0  0  0  0  0  0  0  0  0  0  0
    4.6934   -3.4347    0.3419 C   0  0  0  0  0  0  0  0  0  0  0  0
    5.2104   -2.1341    0.4768 C   0  0  0  0  0  0  0  0  0  0  0  0
    5.3092   -4.6374   -0.3081 C   0  0  0  0  0  0  0  0  0  0  0  0
    4.2062   -5.6380   -0.2999 N   0  0  0  0  0  0  0  0  0  0  0  0
    3.1099   -5.1931    0.6059 C   0  0  1  0  0  0  0  0  0  0  0  0
    3.0358   -5.9761    1.9125 C   0  0  0  0  0  0  0  0  0  0  0  0
    1.7604   -6.7385    1.7451 C   0  0  0  0  0  0  0  0  0  0  0  0
    1.3063   -7.7876    2.6451 C   0  0  0  0  0  0  0  0  0  0  0  0
    0.0424   -8.4531    2.5720 C   0  0  0  0  0  0  0  0  0  0  0  0
   -0.1037   -9.4456    3.5063 C   0  0  0  0  0  0  0  0  0  0  0  0
    1.3060   -9.6041    4.5055 S   0  0  0  0  0  0  0  0  0  0  0  0
    2.0862   -8.2998    3.6467 C   0  0  0  0  0  0  0  0  0  0  0  0
    1.1148   -6.3840    0.7069 N   0  0  0  0  0  0  0  0  0  0  0  0
    1.8667   -5.4041   -0.0645 O   0  0  0  0  0  0  0  0  0  0  0  0
    4.6913   -0.1791    1.2694 H   0  0  0  0  0  0  0  0  0  0  0  0
    2.4317   -0.9198    2.0794 H   0  0  0  0  0  0  0  0  0  0  0  0
    6.1932   -1.8671    0.1048 H   0  0  0  0  0  0  0  0  0  0  0  0
    5.6583   -4.4408   -1.3286 H   0  0  0  0  0  0  0  0  0  0  0  0
    6.1373   -5.0168    0.2952 H   0  0  0  0  0  0  0  0  0  0  0  0
    3.8151   -5.7035   -1.2449 H   0  0  0  0  0  0  0  0  0  0  0  0
    3.8718   -6.6539    2.0584 H   0  0  0  0  0  0  0  0  0  0  0  0
    2.9362   -5.3139    2.7772 H   0  0  0  0  0  0  0  0  0  0  0  0
   -0.7128   -8.2089    1.8323 H   0  0  0  0  0  0  0  0  0  0  0  0
   -0.9485  -10.1035    3.6780 H   0  0  0  0  0  0  0  0  0  0  0  0
    3.0919   -8.0194    3.9282 H   0  0  0  0  0  0  0  0  0  0  0  0
    4.5350   -6.5446   -0.0105 H   0  0  0  0  0  0  0  0  0  0  0  0
  1  6  2  0
  1  2  1  0
  1 19  1  0
  2  3  2  0
  2 20  1  0
  3  4  1  0
  4  9  1  0
  4  5  2  0
  5  6  1  0
  5  7  1  0
  6 21  1  0
  7  8  1  0
  7 22  1  0
  7 23  1  0
  8  9  1  0
  8 24  1  0
  8 30  1  0
  9 18  1  6
  9 10  1  0
 10 11  1  0
 10 25  1  0
 10 26  1  0
 11 12  1  0
 11 17  2  0
 12 16  2  0
 12 13  1  0
 13 14  2  0
 13 27  1  0
 14 15  1  0
 14 28  1  0
 15 16  1  0
 16 29  1  0
 17 18  1  0
M  CHG  1   8   1
M  END
>  <i_m_ct_stereo_status>  (283) 
1

>  <s_m_source_file>  (283) 
/var/tmp/pbs.5076255.sched01/tmp361ftg5n/90jpawypyp.sdf

>  <i_m_source_file_index>  (283) 
27

>  <i_lp_mmshare_version>  (283) 
48012

>  <i_f3d_flags>  (283) 
0

>  <s_epik_input>  (283) 
bjFbY0hdW2NIXVtjSF1jKFtDSDJdW05IXTIpYzFbQ0BdMjNbQ0gyXUMoPU5PMyljNFtjSF1bY0hdc1tjSF00

>  <s_epik_cmdline>  (283) 
J2VwaWtfcHl0aG9uJywgJy1waHQnLCAnMi4wJywgJy1waCcsICc3LjAnLCAnLXRuJywgJzgnLCAnLW1hJywgJzIwMCcsICctaW1hZScsICc8aW5maWxlLm1hZT4nLCAnLW9tYWUnLCAnPG91dGZpbGUubWFlPic=

>  <r_epik_Ionization_Penalty>  (283) 
2.29079

>  <r_epik_Ionization_Penalty_Charging>  (283) 
2.29077

>  <r_epik_Ionization_Penalty_Neutral>  (283) 
1.63081e-05

>  <r_epik_State_Penalty>  (283) 
2.44119

>  <r_epik_Charging_Adjusted_Penalty>  (283) 
4.73196

>  <i_epik_Tot_Q>  (283) 
1

>  <i_epik_Tot_abs_Q>  (283) 
1

>  <s_epik_Chemistry_Notes>  (283) 
This compound has an imine and may undergo hydrolysis.

>  <s_lp_Force_Field>  (283) 
OPLS3e

>  <r_lp_Energy>  (283) 
4.87426

>  <b_lp_Chiralities_Consistent>  (283) 
1

>  <s_lp_Variant>  (283) 
75:0-2

>  <s_i_glide_gridfile>  (283) 
pfpi4k_grid

>  <i_i_glide_lignum>  (283) 
27

>  <i_i_glide_rotatable_bonds>  (283) 
1

>  <r_i_docking_score>  (283) 
-3.79291

>  <r_i_glide_ligand_efficiency>  (283) 
-0.210717

>  <r_i_glide_ligand_efficiency_sa>  (283) 
-0.552235

>  <r_i_glide_ligand_efficiency_ln>  (283) 
-0.974947

>  <r_i_glide_gscore>  (283) 
-3.79291

>  <r_i_glide_lipo>  (283) 
-0.130864

>  <r_i_glide_hbond>  (283) 
0

>  <r_i_glide_metal>  (283) 
-0

>  <r_i_glide_rewards>  (283) 
-1.64782

>  <r_i_glide_evdw>  (283) 
-20.1374

>  <r_i_glide_ecoul>  (283) 
-6.66832

>  <r_i_glide_erotb>  (283) 
0.26469

>  <r_i_glide_esite>  (283) 
-0.271795

>  <r_i_glide_emodel>  (283) 
-37.0684

>  <r_i_glide_energy>  (283) 
-26.8057

>  <r_i_glide_einternal>  (283) 
0.00854703

>  <r_i_glide_intrahb_reward>  (283) 
-0

>  <i_i_glide_confnum>  (283) 
3

>  <i_i_glide_posenum>  (283) 
4

>  <r_i_glide_eff_state_penalty>  (283) 
0

>  <ligand_id>  (283) 
75

>  <original_smiles>  (283) 
c1cnc2c(c1)CNC21CC(c2ccsc2)=NO1

>  <smiles>  (283) 
[H]c1nc2c(c([H])c1[H])C([H])([H])[N+]([H])([H])C21ON=C(c2c([H])sc([H])c2[H])C1([H])[H]

$$$$
75:1:1
     RDKit          3D

 30 33  0  0  1  0  0  0  0  0999 V2000
    4.1954   -1.3940    1.5394 C   0  0  0  0  0  0  0  0  0  0  0  0
    3.0005   -1.9496    2.0660 C   0  0  0  0  0  0  0  0  0  0  0  0
    2.6106   -3.2323    1.8622 N   0  0  0  0  0  0  0  0  0  0  0  0
    3.4205   -3.9701    1.0867 C   0  0  0  0  0  0  0  0  0  0  0  0
    4.5976   -3.5214    0.5204 C   0  0  0  0  0  0  0  0  0  0  0  0
    5.0318   -2.1986    0.7331 C   0  0  0  0  0  0  0  0  0  0  0  0
    5.2430   -4.6040   -0.2950 C   0  0  0  0  0  0  0  0  0  0  0  0
    4.2257   -5.6917   -0.2909 N   0  0  0  0  0  0  0  0  0  0  0  0
    3.1732   -5.4091    0.7393 C   0  0  1  0  0  0  0  0  0  0  0  0
    3.2608   -6.3178    1.9693 C   0  0  0  0  0  0  0  0  0  0  0  0
    2.0225   -7.1329    1.8471 C   0  0  0  0  0  0  0  0  0  0  0  0
    1.7240   -8.3106    2.6703 C   0  0  0  0  0  0  0  0  0  0  0  0
    2.5585   -8.7795    3.7403 C   0  0  0  0  0  0  0  0  0  0  0  0
    2.0957   -9.9198    4.3310 C   0  0  0  0  0  0  0  0  0  0  0  0
    0.6305  -10.4809    3.5875 S   0  0  0  0  0  0  0  0  0  0  0  0
    0.6460   -9.1355    2.4819 C   0  0  0  0  0  0  0  0  0  0  0  0
    1.2704   -6.7067    0.9046 N   0  0  0  0  0  0  0  0  0  0  0  0
    1.8845   -5.6517    0.1614 O   0  0  0  0  0  0  0  0  0  0  0  0
    4.4523   -0.3725    1.7564 H   0  0  0  0  0  0  0  0  0  0  0  0
    2.3388   -1.3617    2.6854 H   0  0  0  0  0  0  0  0  0  0  0  0
    5.9519   -1.8220    0.3026 H   0  0  0  0  0  0  0  0  0  0  0  0
    5.4651   -4.2973   -1.3228 H   0  0  0  0  0  0  0  0  0  0  0  0
    6.1457   -4.9735    0.1922 H   0  0  0  0  0  0  0  0  0  0  0  0
    3.8199   -5.6984   -1.2243 H   0  0  0  0  0  0  0  0  0  0  0  0
    4.1492   -6.9483    1.9798 H   0  0  0  0  0  0  0  0  0  0  0  0
    3.2119   -5.7450    2.9058 H   0  0  0  0  0  0  0  0  0  0  0  0
    3.4656   -8.2727    4.0243 H   0  0  0  0  0  0  0  0  0  0  0  0
    2.5197  -10.4742    5.1593 H   0  0  0  0  0  0  0  0  0  0  0  0
   -0.1386   -9.0602    1.7372 H   0  0  0  0  0  0  0  0  0  0  0  0
    4.6343   -6.5925   -0.1039 H   0  0  0  0  0  0  0  0  0  0  0  0
  1  6  2  0
  1  2  1  0
  1 19  1  0
  2  3  2  0
  2 20  1  0
  3  4  1  0
  4  9  1  0
  4  5  2  0
  5  6  1  0
  5  7  1  0
  6 21  1  0
  7  8  1  0
  7 22  1  0
  7 23  1  0
  8  9  1  0
  8 24  1  0
  8 30  1  0
  9 18  1  6
  9 10  1  0
 10 11  1  0
 10 25  1  0
 10 26  1  0
 11 12  1  0
 11 17  2  0
 12 16  2  0
 12 13  1  0
 13 14  2  0
 13 27  1  0
 14 15  1  0
 14 28  1  0
 15 16  1  0
 16 29  1  0
 17 18  1  0
M  CHG  1   8   1
M  END
>  <i_m_ct_stereo_status>  (284) 
1

>  <s_m_source_file>  (284) 
/var/tmp/pbs.5076255.sched01/tmp361ftg5n/90jpawypyp.sdf

>  <i_m_source_file_index>  (284) 
27

>  <i_lp_mmshare_version>  (284) 
48012

>  <i_f3d_flags>  (284) 
0

>  <s_epik_input>  (284) 
bjFbY0hdW2NIXVtjSF1jKFtDSDJdW05IXTIpYzFbQ0BdMjNbQ0gyXUMoPU5PMyljNFtjSF1bY0hdc1tjSF00

>  <s_epik_cmdline>  (284) 
J2VwaWtfcHl0aG9uJywgJy1waHQnLCAnMi4wJywgJy1waCcsICc3LjAnLCAnLXRuJywgJzgnLCAnLW1hJywgJzIwMCcsICctaW1hZScsICc8aW5maWxlLm1hZT4nLCAnLW9tYWUnLCAnPG91dGZpbGUubWFlPic=

>  <r_epik_Ionization_Penalty>  (284) 
2.29079

>  <r_epik_Ionization_Penalty_Charging>  (284) 
2.29077

>  <r_epik_Ionization_Penalty_Neutral>  (284) 
1.63081e-05

>  <r_epik_State_Penalty>  (284) 
2.44119

>  <r_epik_Charging_Adjusted_Penalty>  (284) 
4.73196

>  <i_epik_Tot_Q>  (284) 
1

>  <i_epik_Tot_abs_Q>  (284) 
1

>  <s_epik_Chemistry_Notes>  (284) 
This compound has an imine and may undergo hydrolysis.

>  <s_lp_Force_Field>  (284) 
OPLS3e

>  <r_lp_Energy>  (284) 
4.87426

>  <b_lp_Chiralities_Consistent>  (284) 
1

>  <s_lp_Variant>  (284) 
75:0-2

>  <s_i_glide_gridfile>  (284) 
pfpi4k_grid

>  <i_i_glide_lignum>  (284) 
27

>  <i_i_glide_rotatable_bonds>  (284) 
1

>  <r_i_docking_score>  (284) 
-3.75565

>  <r_i_glide_ligand_efficiency>  (284) 
-0.208647

>  <r_i_glide_ligand_efficiency_sa>  (284) 
-0.546811

>  <r_i_glide_ligand_efficiency_ln>  (284) 
-0.965371

>  <r_i_glide_gscore>  (284) 
-3.75565

>  <r_i_glide_lipo>  (284) 
-0.123063

>  <r_i_glide_hbond>  (284) 
0

>  <r_i_glide_metal>  (284) 
-0

>  <r_i_glide_rewards>  (284) 
-1.64782

>  <r_i_glide_evdw>  (284) 
-20.0314

>  <r_i_glide_ecoul>  (284) 
-6.91308

>  <r_i_glide_erotb>  (284) 
0.26469

>  <r_i_glide_esite>  (284) 
-0.210927

>  <r_i_glide_emodel>  (284) 
-37.0116

>  <r_i_glide_energy>  (284) 
-26.9445

>  <r_i_glide_einternal>  (284) 
0.129001

>  <r_i_glide_intrahb_reward>  (284) 
-0

>  <i_i_glide_confnum>  (284) 
2

>  <i_i_glide_posenum>  (284) 
11

>  <r_i_glide_eff_state_penalty>  (284) 
0

>  <ligand_id>  (284) 
75

>  <original_smiles>  (284) 
c1cnc2c(c1)CNC21CC(c2ccsc2)=NO1

>  <smiles>  (284) 
[H]c1nc2c(c([H])c1[H])C([H])([H])[N+]([H])([H])C21ON=C(c2c([H])sc([H])c2[H])C1([H])[H]

$$$$
75:1:2
     RDKit          3D

 30 33  0  0  1  0  0  0  0  0999 V2000
   -1.1772   -9.0945    2.6179 C   0  0  0  0  0  0  0  0  0  0  0  0
   -1.2454   -7.6814    2.5158 C   0  0  0  0  0  0  0  0  0  0  0  0
   -0.1715   -6.8577    2.4331 N   0  0  0  0  0  0  0  0  0  0  0  0
    1.0088   -7.4850    2.4852 C   0  0  0  0  0  0  0  0  0  0  0  0
    1.2029   -8.8471    2.5874 C   0  0  0  0  0  0  0  0  0  0  0  0
    0.0958   -9.7118    2.6589 C   0  0  0  0  0  0  0  0  0  0  0  0
    2.6715   -9.1919    2.6185 C   0  0  0  0  0  0  0  0  0  0  0  0
    3.3207   -7.8543    2.7091 N   0  0  0  0  0  0  0  0  0  0  0  0
    2.3471   -6.7767    2.3936 C   0  0  1  0  0  0  0  0  0  0  0  0
    2.5833   -6.1336    1.0348 C   0  0  0  0  0  0  0  0  0  0  0  0
    3.0377   -4.7721    1.4295 C   0  0  0  0  0  0  0  0  0  0  0  0
    3.5819   -3.7839    0.4797 C   0  0  0  0  0  0  0  0  0  0  0  0
    3.6112   -2.3619    0.6668 C   0  0  0  0  0  0  0  0  0  0  0  0
    4.2180   -1.6940   -0.3720 C   0  0  0  0  0  0  0  0  0  0  0  0
    4.7761   -2.7738   -1.6102 S   0  0  0  0  0  0  0  0  0  0  0  0
    4.1860   -4.1456   -0.7097 C   0  0  0  0  0  0  0  0  0  0  0  0
    2.9450   -4.5655    2.6821 N   0  0  0  0  0  0  0  0  0  0  0  0
    2.5396   -5.7474    3.3521 O   0  0  0  0  0  0  0  0  0  0  0  0
   -2.0725   -9.6918    2.6595 H   0  0  0  0  0  0  0  0  0  0  0  0
   -2.2073   -7.1859    2.4878 H   0  0  0  0  0  0  0  0  0  0  0  0
    0.2122  -10.7904    2.7293 H   0  0  0  0  0  0  0  0  0  0  0  0
    2.9463   -9.8224    3.4665 H   0  0  0  0  0  0  0  0  0  0  0  0
    2.9778   -9.6703    1.6865 H   0  0  0  0  0  0  0  0  0  0  0  0
    3.5995   -7.7086    3.6703 H   0  0  0  0  0  0  0  0  0  0  0  0
    3.3384   -6.6431    0.4332 H   0  0  0  0  0  0  0  0  0  0  0  0
    1.6604   -6.0385    0.4572 H   0  0  0  0  0  0  0  0  0  0  0  0
    3.1874   -1.8828    1.5393 H   0  0  0  0  0  0  0  0  0  0  0  0
    4.3451   -0.6298   -0.4889 H   0  0  0  0  0  0  0  0  0  0  0  0
    4.3095   -5.1418   -1.1031 H   0  0  0  0  0  0  0  0  0  0  0  0
    4.1082   -7.7972    2.0866 H   0  0  0  0  0  0  0  0  0  0  0  0
  1  6  2  0
  1  2  1  0
  1 19  1  0
  2  3  2  0
  2 20  1  0
  3  4  1  0
  4  9  1  0
  4  5  2  0
  5  6  1  0
  5  7  1  0
  6 21  1  0
  7  8  1  0
  7 22  1  0
  7 23  1  0
  8  9  1  0
  8 24  1  0
  8 30  1  0
  9 18  1  1
  9 10  1  0
 10 11  1  0
 10 25  1  0
 10 26  1  0
 11 12  1  0
 11 17  2  0
 12 16  2  0
 12 13  1  0
 13 14  2  0
 13 27  1  0
 14 15  1  0
 14 28  1  0
 15 16  1  0
 16 29  1  0
 17 18  1  0
M  CHG  1   8   1
M  END
>  <i_m_ct_stereo_status>  (285) 
1

>  <s_m_source_file>  (285) 
/var/tmp/pbs.5076255.sched01/tmp361ftg5n/90jpawypyp.sdf

>  <i_m_source_file_index>  (285) 
27

>  <i_lp_mmshare_version>  (285) 
48012

>  <i_f3d_flags>  (285) 
0

>  <s_epik_input>  (285) 
bjFbY0hdW2NIXVtjSF1jKFtDSDJdW05IXTIpYzFbQ0BdMjNbQ0gyXUMoPU5PMyljNFtjSF1bY0hdc1tjSF00

>  <s_epik_cmdline>  (285) 
J2VwaWtfcHl0aG9uJywgJy1waHQnLCAnMi4wJywgJy1waCcsICc3LjAnLCAnLXRuJywgJzgnLCAnLW1hJywgJzIwMCcsICctaW1hZScsICc8aW5maWxlLm1hZT4nLCAnLW9tYWUnLCAnPG91dGZpbGUubWFlPic=

>  <r_epik_Ionization_Penalty>  (285) 
2.29079

>  <r_epik_Ionization_Penalty_Charging>  (285) 
2.29077

>  <r_epik_Ionization_Penalty_Neutral>  (285) 
1.63081e-05

>  <r_epik_State_Penalty>  (285) 
2.44119

>  <r_epik_Charging_Adjusted_Penalty>  (285) 
4.73196

>  <i_epik_Tot_Q>  (285) 
1

>  <i_epik_Tot_abs_Q>  (285) 
1

>  <s_epik_Chemistry_Notes>  (285) 
This compound has an imine and may undergo hydrolysis.

>  <s_lp_Force_Field>  (285) 
OPLS3e

>  <r_lp_Energy>  (285) 
4.87426

>  <b_lp_Chiralities_Consistent>  (285) 
1

>  <s_lp_Variant>  (285) 
75:0-2

>  <s_i_glide_gridfile>  (285) 
pfpi4k_grid

>  <i_i_glide_lignum>  (285) 
27

>  <i_i_glide_rotatable_bonds>  (285) 
1

>  <r_i_docking_score>  (285) 
-3.4016

>  <r_i_glide_ligand_efficiency>  (285) 
-0.188978

>  <r_i_glide_ligand_efficiency_sa>  (285) 
-0.495262

>  <r_i_glide_ligand_efficiency_ln>  (285) 
-0.874364

>  <r_i_glide_gscore>  (285) 
-3.4016

>  <r_i_glide_lipo>  (285) 
-0.0859462

>  <r_i_glide_hbond>  (285) 
-0.127335

>  <r_i_glide_metal>  (285) 
-0

>  <r_i_glide_rewards>  (285) 
-1.64782

>  <r_i_glide_evdw>  (285) 
-23.0764

>  <r_i_glide_ecoul>  (285) 
-4.23832

>  <r_i_glide_erotb>  (285) 
0.26469

>  <r_i_glide_esite>  (285) 
-0.0156262

>  <r_i_glide_emodel>  (285) 
-36.2515

>  <r_i_glide_energy>  (285) 
-27.3147

>  <r_i_glide_einternal>  (285) 
0.463572

>  <r_i_glide_intrahb_reward>  (285) 
-0

>  <i_i_glide_confnum>  (285) 
3

>  <i_i_glide_posenum>  (285) 
2

>  <r_i_glide_eff_state_penalty>  (285) 
0

>  <ligand_id>  (285) 
75

>  <original_smiles>  (285) 
c1cnc2c(c1)CNC21CC(c2ccsc2)=NO1

>  <smiles>  (285) 
[H]c1nc2c(c([H])c1[H])C([H])([H])[N+]([H])([H])C21ON=C(c2c([H])sc([H])c2[H])C1([H])[H]

$$$$
76:0:0
     RDKit          3D

 30 32  0  0  1  0  0  0  0  0999 V2000
    1.8648   -3.0715    6.2625 O   0  0  0  0  0  0  0  0  0  0  0  0
    1.4858   -2.7143    5.1550 N   0  0  0  0  0  0  0  0  0  0  0  0
    0.3690   -2.2542    4.9398 O   0  0  0  0  0  0  0  0  0  0  0  0
    2.4205   -2.8470    4.0191 C   0  0  0  0  0  0  0  0  0  0  0  0
    3.6376   -3.5532    4.1704 C   0  0  0  0  0  0  0  0  0  0  0  0
    4.5353   -3.6923    3.0893 C   0  0  0  0  0  0  0  0  0  0  0  0
    4.2319   -3.1215    1.8359 C   0  0  0  0  0  0  0  0  0  0  0  0
    4.9461   -3.1356    0.6534 N   0  0  0  0  0  0  0  0  0  0  0  0
    4.1591   -2.4344   -0.1586 C   0  0  0  0  0  0  0  0  0  0  0  0
    4.4515   -2.1693   -1.4909 N   0  0  0  0  0  0  0  0  0  0  0  0
    3.8329   -1.1392   -2.3163 C   0  0  0  0  0  0  0  0  0  0  0  0
    3.2045   -1.7323   -3.5815 C   0  0  0  0  0  0  0  0  0  0  0  0
    4.1997   -2.4269   -4.3170 O   0  0  0  0  0  0  0  0  0  0  0  0
    4.7383   -3.4928   -3.5452 C   0  0  0  0  0  0  0  0  0  0  0  0
    5.4127   -2.9236   -2.2875 C   0  0  0  0  0  0  0  0  0  0  0  0
    3.0138   -1.9881    0.3818 N   0  0  0  0  0  0  0  0  0  0  0  0
    3.0079   -2.4073    1.6982 C   0  0  0  0  0  0  0  0  0  0  0  0
    2.1101   -2.2694    2.7667 C   0  0  0  0  0  0  0  0  0  0  0  0
    2.2850   -1.4775   -0.1259 H   0  0  0  0  0  0  0  0  0  0  0  0
    3.8955   -4.0028    5.1203 H   0  0  0  0  0  0  0  0  0  0  0  0
    5.4618   -4.2385    3.2072 H   0  0  0  0  0  0  0  0  0  0  0  0
    3.0320   -0.6582   -1.7568 H   0  0  0  0  0  0  0  0  0  0  0  0
    4.5746   -0.3709   -2.5441 H   0  0  0  0  0  0  0  0  0  0  0  0
    2.3801   -2.3998   -3.3249 H   0  0  0  0  0  0  0  0  0  0  0  0
    2.7926   -0.9320   -4.1942 H   0  0  0  0  0  0  0  0  0  0  0  0
    3.9622   -4.2111   -3.2824 H   0  0  0  0  0  0  0  0  0  0  0  0
    5.4660   -4.0279   -4.1494 H   0  0  0  0  0  0  0  0  0  0  0  0
    6.2775   -2.3047   -2.5385 H   0  0  0  0  0  0  0  0  0  0  0  0
    5.7946   -3.7612   -1.7014 H   0  0  0  0  0  0  0  0  0  0  0  0
    1.1971   -1.7202    2.6115 H   0  0  0  0  0  0  0  0  0  0  0  0
  1  2  2  0
  2  3  1  0
  2  4  1  0
  4 18  2  0
  4  5  1  0
  5  6  2  0
  5 20  1  0
  6  7  1  0
  6 21  1  0
  7 17  2  0
  7  8  1  0
  8  9  2  0
  9 10  1  0
  9 16  1  0
 10 15  1  0
 10 11  1  0
 11 12  1  0
 11 22  1  0
 11 23  1  0
 12 13  1  0
 12 24  1  0
 12 25  1  0
 13 14  1  0
 14 15  1  0
 14 26  1  0
 14 27  1  0
 15 28  1  0
 15 29  1  0
 16 19  1  0
 16 17  1  0
 17 18  1  0
 18 30  1  0
M  CHG  2   2   1   3  -1
M  END
>  <i_m_ct_stereo_status>  (286) 
1

>  <s_m_source_file>  (286) 
/var/tmp/pbs.5076255.sched01/tmp361ftg5n/90jpawypyp.sdf

>  <i_m_source_file_index>  (286) 
28

>  <i_lp_mmshare_version>  (286) 
48012

>  <i_f3d_flags>  (286) 
0

>  <s_epik_input>  (286) 
Tz1bTitdKFtPLV0pYyhbY0hdW2NIXTEpW2NIXWMoYzEyKVtuSF1jKG4yKU4zW0NIMl1bQ0gyXU9bQ0gyXVtDSDJdMw==

>  <s_epik_cmdline>  (286) 
J2VwaWtfcHl0aG9uJywgJy1waHQnLCAnMi4wJywgJy1waCcsICc3LjAnLCAnLXRuJywgJzgnLCAnLW1hJywgJzIwMCcsICctaW1hZScsICc8aW5maWxlLm1hZT4nLCAnLW9tYWUnLCAnPG91dGZpbGUubWFlPic=

>  <r_epik_Ionization_Penalty>  (286) 
0.00553183

>  <r_epik_Ionization_Penalty_Charging>  (286) 
0

>  <r_epik_Ionization_Penalty_Neutral>  (286) 
0.00553183

>  <r_epik_State_Penalty>  (286) 
0.115591

>  <r_epik_Charging_Adjusted_Penalty>  (286) 
0.115591

>  <i_epik_Tot_Q>  (286) 
0

>  <i_epik_Tot_abs_Q>  (286) 
2

>  <s_lp_Force_Field>  (286) 
OPLS3e

>  <r_lp_Energy>  (286) 
22.1148

>  <b_lp_Chiralities_Consistent>  (286) 
1

>  <s_lp_Variant>  (286) 
76:0-1

>  <s_i_glide_gridfile>  (286) 
pfpi4k_grid

>  <i_i_glide_lignum>  (286) 
28

>  <i_i_glide_rotatable_bonds>  (286) 
2

>  <r_i_docking_score>  (286) 
-4.82403

>  <r_i_glide_ligand_efficiency>  (286) 
-0.268002

>  <r_i_glide_ligand_efficiency_sa>  (286) 
-0.702363

>  <r_i_glide_ligand_efficiency_ln>  (286) 
-1.23999

>  <r_i_glide_gscore>  (286) 
-4.82403

>  <r_i_glide_lipo>  (286) 
-0.586767

>  <r_i_glide_hbond>  (286) 
-0.456

>  <r_i_glide_metal>  (286) 
-0

>  <r_i_glide_rewards>  (286) 
-1.71831

>  <r_i_glide_evdw>  (286) 
-20.5322

>  <r_i_glide_ecoul>  (286) 
-8.07382

>  <r_i_glide_erotb>  (286) 
0.283414

>  <r_i_glide_esite>  (286) 
-0.10868

>  <r_i_glide_emodel>  (286) 
-37.7096

>  <r_i_glide_energy>  (286) 
-28.606

>  <r_i_glide_einternal>  (286) 
0.804021

>  <r_i_glide_intrahb_reward>  (286) 
-0

>  <i_i_glide_confnum>  (286) 
3

>  <i_i_glide_posenum>  (286) 
1

>  <r_i_glide_eff_state_penalty>  (286) 
0

>  <ligand_id>  (286) 
76

>  <original_smiles>  (286) 
O=[N+]([O-])c1ccc2nc(N3CCOCC3)[nH]c2c1

>  <smiles>  (286) 
[H]c1c([N+](=O)[O-])c([H])c2c(nc(N3C([H])([H])C([H])([H])OC([H])([H])C3([H])[H])n2[H])c1[H]

$$$$
76:0:1
     RDKit          3D

 30 32  0  0  1  0  0  0  0  0999 V2000
    2.1261    0.5026    4.7200 O   0  0  0  0  0  0  0  0  0  0  0  0
    3.3544    0.3988    4.6753 N   0  0  0  0  0  0  0  0  0  0  0  0
    4.0986    0.6768    5.6081 O   0  0  0  0  0  0  0  0  0  0  0  0
    3.9616   -0.1068    3.4268 C   0  0  0  0  0  0  0  0  0  0  0  0
    5.3554   -0.3774    3.3707 C   0  0  0  0  0  0  0  0  0  0  0  0
    5.9399   -0.8620    2.1804 C   0  0  0  0  0  0  0  0  0  0  0  0
    5.1921   -1.0770    1.0228 C   0  0  0  0  0  0  0  0  0  0  0  0
    5.5802   -1.5206   -0.2334 N   0  0  0  0  0  0  0  0  0  0  0  0
    4.4088   -1.5269   -0.8669 C   0  0  0  0  0  0  0  0  0  0  0  0
    4.1890   -1.9413   -2.1665 N   0  0  0  0  0  0  0  0  0  0  0  0
    5.1632   -2.6464   -2.9649 C   0  0  0  0  0  0  0  0  0  0  0  0
    4.6132   -3.9224   -3.5506 C   0  0  0  0  0  0  0  0  0  0  0  0
    3.4668   -3.6070   -4.3279 O   0  0  0  0  0  0  0  0  0  0  0  0
    2.4510   -3.0067   -3.5341 C   0  0  0  0  0  0  0  0  0  0  0  0
    3.0147   -1.6922   -2.9986 C   0  0  0  0  0  0  0  0  0  0  0  0
    3.3603   -1.1077   -0.1536 N   0  0  0  0  0  0  0  0  0  0  0  0
    3.8027   -0.7992    1.1048 C   0  0  0  0  0  0  0  0  0  0  0  0
    3.1845   -0.3274    2.2717 C   0  0  0  0  0  0  0  0  0  0  0  0
    2.3889   -1.0532   -0.4942 H   0  0  0  0  0  0  0  0  0  0  0  0
    5.9828   -0.2024    4.2383 H   0  0  0  0  0  0  0  0  0  0  0  0
    6.9916   -1.0523    2.0808 H   0  0  0  0  0  0  0  0  0  0  0  0
    5.3780   -2.0126   -3.8133 H   0  0  0  0  0  0  0  0  0  0  0  0
    6.0560   -2.8699   -2.3863 H   0  0  0  0  0  0  0  0  0  0  0  0
    5.3449   -4.3831   -4.2176 H   0  0  0  0  0  0  0  0  0  0  0  0
    4.4244   -4.6186   -2.7487 H   0  0  0  0  0  0  0  0  0  0  0  0
    1.5806   -2.8107   -4.1581 H   0  0  0  0  0  0  0  0  0  0  0  0
    2.1397   -3.6705   -2.7302 H   0  0  0  0  0  0  0  0  0  0  0  0
    2.2365   -1.2337   -2.4171 H   0  0  0  0  0  0  0  0  0  0  0  0
    3.2470   -0.9870   -3.8070 H   0  0  0  0  0  0  0  0  0  0  0  0
    2.1240   -0.1324    2.2621 H   0  0  0  0  0  0  0  0  0  0  0  0
  1  2  2  0
  2  3  1  0
  2  4  1  0
  4 18  2  0
  4  5  1  0
  5  6  2  0
  5 20  1  0
  6  7  1  0
  6 21  1  0
  7 17  2  0
  7  8  1  0
  8  9  2  0
  9 10  1  0
  9 16  1  0
 10 15  1  0
 10 11  1  0
 11 12  1  0
 11 22  1  0
 11 23  1  0
 12 13  1  0
 12 24  1  0
 12 25  1  0
 13 14  1  0
 14 15  1  0
 14 26  1  0
 14 27  1  0
 15 28  1  0
 15 29  1  0
 16 19  1  0
 16 17  1  0
 17 18  1  0
 18 30  1  0
M  CHG  2   2   1   3  -1
M  END
>  <i_m_ct_stereo_status>  (287) 
1

>  <s_m_source_file>  (287) 
/var/tmp/pbs.5076255.sched01/tmp361ftg5n/90jpawypyp.sdf

>  <i_m_source_file_index>  (287) 
28

>  <i_lp_mmshare_version>  (287) 
48012

>  <i_f3d_flags>  (287) 
0

>  <s_epik_input>  (287) 
Tz1bTitdKFtPLV0pYyhbY0hdW2NIXTEpW2NIXWMoYzEyKVtuSF1jKG4yKU4zW0NIMl1bQ0gyXU9bQ0gyXVtDSDJdMw==

>  <s_epik_cmdline>  (287) 
J2VwaWtfcHl0aG9uJywgJy1waHQnLCAnMi4wJywgJy1waCcsICc3LjAnLCAnLXRuJywgJzgnLCAnLW1hJywgJzIwMCcsICctaW1hZScsICc8aW5maWxlLm1hZT4nLCAnLW9tYWUnLCAnPG91dGZpbGUubWFlPic=

>  <r_epik_Ionization_Penalty>  (287) 
0.00553183

>  <r_epik_Ionization_Penalty_Charging>  (287) 
0

>  <r_epik_Ionization_Penalty_Neutral>  (287) 
0.00553183

>  <r_epik_State_Penalty>  (287) 
0.115591

>  <r_epik_Charging_Adjusted_Penalty>  (287) 
0.115591

>  <i_epik_Tot_Q>  (287) 
0

>  <i_epik_Tot_abs_Q>  (287) 
2

>  <s_lp_Force_Field>  (287) 
OPLS3e

>  <r_lp_Energy>  (287) 
22.1148

>  <b_lp_Chiralities_Consistent>  (287) 
1

>  <s_lp_Variant>  (287) 
76:0-1

>  <s_i_glide_gridfile>  (287) 
pfpi4k_grid

>  <i_i_glide_lignum>  (287) 
28

>  <i_i_glide_rotatable_bonds>  (287) 
2

>  <r_i_docking_score>  (287) 
-4.70845

>  <r_i_glide_ligand_efficiency>  (287) 
-0.261581

>  <r_i_glide_ligand_efficiency_sa>  (287) 
-0.685536

>  <r_i_glide_ligand_efficiency_ln>  (287) 
-1.21028

>  <r_i_glide_gscore>  (287) 
-4.70845

>  <r_i_glide_lipo>  (287) 
-0.708865

>  <r_i_glide_hbond>  (287) 
-0.229466

>  <r_i_glide_metal>  (287) 
-0

>  <r_i_glide_rewards>  (287) 
-1.71813

>  <r_i_glide_evdw>  (287) 
-19.3596

>  <r_i_glide_ecoul>  (287) 
-8.17392

>  <r_i_glide_erotb>  (287) 
0.283414

>  <r_i_glide_esite>  (287) 
-0.141346

>  <r_i_glide_emodel>  (287) 
-36.3564

>  <r_i_glide_energy>  (287) 
-27.5335

>  <r_i_glide_einternal>  (287) 
0.50803

>  <r_i_glide_intrahb_reward>  (287) 
-0

>  <i_i_glide_confnum>  (287) 
2

>  <i_i_glide_posenum>  (287) 
33

>  <r_i_glide_eff_state_penalty>  (287) 
0

>  <ligand_id>  (287) 
76

>  <original_smiles>  (287) 
O=[N+]([O-])c1ccc2nc(N3CCOCC3)[nH]c2c1

>  <smiles>  (287) 
[H]c1c([N+](=O)[O-])c([H])c2c(nc(N3C([H])([H])C([H])([H])OC([H])([H])C3([H])[H])n2[H])c1[H]

$$$$
76:0:2
     RDKit          3D

 30 32  0  0  1  0  0  0  0  0999 V2000
    2.7602    1.3824    5.2055 O   0  0  0  0  0  0  0  0  0  0  0  0
    2.2618    0.2619    5.1897 N   0  0  0  0  0  0  0  0  0  0  0  0
    1.6070   -0.2020    6.1158 O   0  0  0  0  0  0  0  0  0  0  0  0
    2.4628   -0.5749    3.9909 C   0  0  0  0  0  0  0  0  0  0  0  0
    2.0440   -1.9285    3.9863 C   0  0  0  0  0  0  0  0  0  0  0  0
    2.2334   -2.7442    2.8501 C   0  0  0  0  0  0  0  0  0  0  0  0
    2.8487   -2.2219    1.6964 C   0  0  0  0  0  0  0  0  0  0  0  0
    3.1439   -2.8337    0.4914 N   0  0  0  0  0  0  0  0  0  0  0  0
    3.6983   -1.8414   -0.1937 C   0  0  0  0  0  0  0  0  0  0  0  0
    4.1619   -1.9316   -1.5007 N   0  0  0  0  0  0  0  0  0  0  0  0
    4.2362   -3.1701   -2.2752 C   0  0  0  0  0  0  0  0  0  0  0  0
    3.4493   -3.0550   -3.5902 C   0  0  0  0  0  0  0  0  0  0  0  0
    3.9628   -1.9641   -4.3385 O   0  0  0  0  0  0  0  0  0  0  0  0
    3.8093   -0.7420   -3.6372 C   0  0  0  0  0  0  0  0  0  0  0  0
    4.6073   -0.8198   -2.3296 C   0  0  0  0  0  0  0  0  0  0  0  0
    3.8192   -0.6739    0.4633 N   0  0  0  0  0  0  0  0  0  0  0  0
    3.2637   -0.8612    1.7124 C   0  0  0  0  0  0  0  0  0  0  0  0
    3.0779   -0.0390    2.8365 C   0  0  0  0  0  0  0  0  0  0  0  0
    4.2206    0.1639    0.0762 H   0  0  0  0  0  0  0  0  0  0  0  0
    1.5798   -2.3604    4.8622 H   0  0  0  0  0  0  0  0  0  0  0  0
    1.9194   -3.7792    2.8517 H   0  0  0  0  0  0  0  0  0  0  0  0
    5.2813   -3.4258   -2.4653 H   0  0  0  0  0  0  0  0  0  0  0  0
    3.8168   -3.9916   -1.6895 H   0  0  0  0  0  0  0  0  0  0  0  0
    3.5713   -3.9695   -4.1710 H   0  0  0  0  0  0  0  0  0  0  0  0
    2.3800   -2.9309   -3.4048 H   0  0  0  0  0  0  0  0  0  0  0  0
    4.1833    0.0757   -4.2529 H   0  0  0  0  0  0  0  0  0  0  0  0
    2.7530   -0.5419   -3.4432 H   0  0  0  0  0  0  0  0  0  0  0  0
    4.4595    0.1298   -1.8175 H   0  0  0  0  0  0  0  0  0  0  0  0
    5.6773   -0.9197   -2.4979 H   0  0  0  0  0  0  0  0  0  0  0  0
    3.4049    0.9852    2.8012 H   0  0  0  0  0  0  0  0  0  0  0  0
  1  2  2  0
  2  3  1  0
  2  4  1  0
  4 18  2  0
  4  5  1  0
  5  6  2  0
  5 20  1  0
  6  7  1  0
  6 21  1  0
  7 17  2  0
  7  8  1  0
  8  9  2  0
  9 10  1  0
  9 16  1  0
 10 15  1  0
 10 11  1  0
 11 12  1  0
 11 22  1  0
 11 23  1  0
 12 13  1  0
 12 24  1  0
 12 25  1  0
 13 14  1  0
 14 15  1  0
 14 26  1  0
 14 27  1  0
 15 28  1  0
 15 29  1  0
 16 19  1  0
 16 17  1  0
 17 18  1  0
 18 30  1  0
M  CHG  2   2   1   3  -1
M  END
>  <i_m_ct_stereo_status>  (288) 
1

>  <s_m_source_file>  (288) 
/var/tmp/pbs.5076255.sched01/tmp361ftg5n/90jpawypyp.sdf

>  <i_m_source_file_index>  (288) 
28

>  <i_lp_mmshare_version>  (288) 
48012

>  <i_f3d_flags>  (288) 
0

>  <s_epik_input>  (288) 
Tz1bTitdKFtPLV0pYyhbY0hdW2NIXTEpW2NIXWMoYzEyKVtuSF1jKG4yKU4zW0NIMl1bQ0gyXU9bQ0gyXVtDSDJdMw==

>  <s_epik_cmdline>  (288) 
J2VwaWtfcHl0aG9uJywgJy1waHQnLCAnMi4wJywgJy1waCcsICc3LjAnLCAnLXRuJywgJzgnLCAnLW1hJywgJzIwMCcsICctaW1hZScsICc8aW5maWxlLm1hZT4nLCAnLW9tYWUnLCAnPG91dGZpbGUubWFlPic=

>  <r_epik_Ionization_Penalty>  (288) 
0.00553183

>  <r_epik_Ionization_Penalty_Charging>  (288) 
0

>  <r_epik_Ionization_Penalty_Neutral>  (288) 
0.00553183

>  <r_epik_State_Penalty>  (288) 
0.115591

>  <r_epik_Charging_Adjusted_Penalty>  (288) 
0.115591

>  <i_epik_Tot_Q>  (288) 
0

>  <i_epik_Tot_abs_Q>  (288) 
2

>  <s_lp_Force_Field>  (288) 
OPLS3e

>  <r_lp_Energy>  (288) 
22.1148

>  <b_lp_Chiralities_Consistent>  (288) 
1

>  <s_lp_Variant>  (288) 
76:0-1

>  <s_i_glide_gridfile>  (288) 
pfpi4k_grid

>  <i_i_glide_lignum>  (288) 
28

>  <i_i_glide_rotatable_bonds>  (288) 
2

>  <r_i_docking_score>  (288) 
-4.06256

>  <r_i_glide_ligand_efficiency>  (288) 
-0.225698

>  <r_i_glide_ligand_efficiency_sa>  (288) 
-0.591496

>  <r_i_glide_ligand_efficiency_ln>  (288) 
-1.04426

>  <r_i_glide_gscore>  (288) 
-4.06256

>  <r_i_glide_lipo>  (288) 
-0.476893

>  <r_i_glide_hbond>  (288) 
-0.32

>  <r_i_glide_metal>  (288) 
-0

>  <r_i_glide_rewards>  (288) 
-1.71656

>  <r_i_glide_evdw>  (288) 
-22.716

>  <r_i_glide_ecoul>  (288) 
-3.95661

>  <r_i_glide_erotb>  (288) 
0.283414

>  <r_i_glide_esite>  (288) 
-0.103235

>  <r_i_glide_emodel>  (288) 
-34.5653

>  <r_i_glide_energy>  (288) 
-26.6726

>  <r_i_glide_einternal>  (288) 
0.282948

>  <r_i_glide_intrahb_reward>  (288) 
-0

>  <i_i_glide_confnum>  (288) 
2

>  <i_i_glide_posenum>  (288) 
16

>  <r_i_glide_eff_state_penalty>  (288) 
0

>  <ligand_id>  (288) 
76

>  <original_smiles>  (288) 
O=[N+]([O-])c1ccc2nc(N3CCOCC3)[nH]c2c1

>  <smiles>  (288) 
[H]c1c([N+](=O)[O-])c([H])c2c(nc(N3C([H])([H])C([H])([H])OC([H])([H])C3([H])[H])n2[H])c1[H]

$$$$
76:1:0
     RDKit          3D

 30 32  0  0  1  0  0  0  0  0999 V2000
    4.1177    0.6263    6.4191 O   0  0  0  0  0  0  0  0  0  0  0  0
    4.8839    0.3454    5.5012 N   0  0  0  0  0  0  0  0  0  0  0  0
    6.1030    0.3196    5.6141 O   0  0  0  0  0  0  0  0  0  0  0  0
    4.3008    0.0167    4.1869 C   0  0  0  0  0  0  0  0  0  0  0  0
    2.9033    0.0584    3.9863 C   0  0  0  0  0  0  0  0  0  0  0  0
    2.3571   -0.2562    2.7265 C   0  0  0  0  0  0  0  0  0  0  0  0
    3.2128   -0.6181    1.6809 C   0  0  0  0  0  0  0  0  0  0  0  0
    3.0174   -0.9850    0.3651 N   0  0  0  0  0  0  0  0  0  0  0  0
    4.2353   -1.2171   -0.1598 C   0  0  0  0  0  0  0  0  0  0  0  0
    4.3538   -1.5934   -1.4856 N   0  0  0  0  0  0  0  0  0  0  0  0
    5.4257   -2.4186   -2.0186 C   0  0  0  0  0  0  0  0  0  0  0  0
    4.8603   -3.6422   -2.7555 C   0  0  0  0  0  0  0  0  0  0  0  0
    3.9864   -3.2241   -3.7984 O   0  0  0  0  0  0  0  0  0  0  0  0
    2.8923   -2.4906   -3.2619 C   0  0  0  0  0  0  0  0  0  0  0  0
    3.4388   -1.2337   -2.5599 C   0  0  0  0  0  0  0  0  0  0  0  0
    5.2612   -1.0675    0.6764 N   0  0  0  0  0  0  0  0  0  0  0  0
    4.6243   -0.6764    1.8450 C   0  0  0  0  0  0  0  0  0  0  0  0
    5.1502   -0.3483    3.1105 C   0  0  0  0  0  0  0  0  0  0  0  0
    2.2337    0.3351    4.7948 H   0  0  0  0  0  0  0  0  0  0  0  0
    1.2926   -0.2222    2.5489 H   0  0  0  0  0  0  0  0  0  0  0  0
    6.0484   -1.8418   -2.7009 H   0  0  0  0  0  0  0  0  0  0  0  0
    6.0670   -2.7486   -1.2058 H   0  0  0  0  0  0  0  0  0  0  0  0
    5.6740   -4.2292   -3.1821 H   0  0  0  0  0  0  0  0  0  0  0  0
    4.3407   -4.2736   -2.0389 H   0  0  0  0  0  0  0  0  0  0  0  0
    2.2178   -2.1953   -4.0633 H   0  0  0  0  0  0  0  0  0  0  0  0
    2.3164   -3.0980   -2.5625 H   0  0  0  0  0  0  0  0  0  0  0  0
    2.6180   -0.6645   -2.1481 H   0  0  0  0  0  0  0  0  0  0  0  0
    3.9414   -0.5651   -3.2704 H   0  0  0  0  0  0  0  0  0  0  0  0
    6.2200   -0.3817    3.2391 H   0  0  0  0  0  0  0  0  0  0  0  0
    2.1078   -1.0499   -0.1423 H   0  0  0  0  0  0  0  0  0  0  0  0
  1  2  2  0
  2  3  1  0
  2  4  1  0
  4 18  2  0
  4  5  1  0
  5  6  2  0
  5 19  1  0
  6  7  1  0
  6 20  1  0
  7 17  2  0
  7  8  1  0
  8  9  1  0
  8 30  1  0
  9 10  1  0
  9 16  2  0
 10 15  1  0
 10 11  1  0
 11 12  1  0
 11 21  1  0
 11 22  1  0
 12 13  1  0
 12 23  1  0
 12 24  1  0
 13 14  1  0
 14 15  1  0
 14 25  1  0
 14 26  1  0
 15 27  1  0
 15 28  1  0
 16 17  1  0
 17 18  1  0
 18 29  1  0
M  CHG  2   2   1   3  -1
M  END
>  <i_m_ct_stereo_status>  (289) 
1

>  <s_m_source_file>  (289) 
/var/tmp/pbs.5076255.sched01/tmp361ftg5n/90jpawypyp.sdf

>  <i_m_source_file_index>  (289) 
29

>  <i_lp_mmshare_version>  (289) 
48012

>  <i_f3d_flags>  (289) 
0

>  <s_epik_input>  (289) 
Tz1bTitdKFtPLV0pYyhbY0hdW2NIXTEpW2NIXWMoYzEyKVtuSF1jKG4yKU4zW0NIMl1bQ0gyXU9bQ0gyXVtDSDJdMw==

>  <s_epik_cmdline>  (289) 
J2VwaWtfcHl0aG9uJywgJy1waHQnLCAnMi4wJywgJy1waCcsICc3LjAnLCAnLXRuJywgJzgnLCAnLW1hJywgJzIwMCcsICctaW1hZScsICc8aW5maWxlLm1hZT4nLCAnLW9tYWUnLCAnPG91dGZpbGUubWFlPic=

>  <r_epik_Ionization_Penalty>  (289) 
0.012516

>  <r_epik_Ionization_Penalty_Charging>  (289) 
0

>  <r_epik_Ionization_Penalty_Neutral>  (289) 
0.012516

>  <r_epik_State_Penalty>  (289) 
1.04422

>  <r_epik_Charging_Adjusted_Penalty>  (289) 
1.04422

>  <i_epik_Tot_Q>  (289) 
0

>  <i_epik_Tot_abs_Q>  (289) 
2

>  <s_lp_Force_Field>  (289) 
OPLS3e

>  <r_lp_Energy>  (289) 
21.4673

>  <b_lp_Chiralities_Consistent>  (289) 
1

>  <s_lp_Variant>  (289) 
76:0-2

>  <s_i_glide_gridfile>  (289) 
pfpi4k_grid

>  <i_i_glide_lignum>  (289) 
29

>  <i_i_glide_rotatable_bonds>  (289) 
2

>  <r_i_docking_score>  (289) 
-4.62182

>  <r_i_glide_ligand_efficiency>  (289) 
-0.256768

>  <r_i_glide_ligand_efficiency_sa>  (289) 
-0.672923

>  <r_i_glide_ligand_efficiency_ln>  (289) 
-1.18802

>  <r_i_glide_gscore>  (289) 
-4.62182

>  <r_i_glide_lipo>  (289) 
-0.439238

>  <r_i_glide_hbond>  (289) 
-0.16

>  <r_i_glide_metal>  (289) 
-0

>  <r_i_glide_rewards>  (289) 
-1.75857

>  <r_i_glide_evdw>  (289) 
-21.7335

>  <r_i_glide_ecoul>  (289) 
-8.69407

>  <r_i_glide_erotb>  (289) 
0.283414

>  <r_i_glide_esite>  (289) 
-0.156642

>  <r_i_glide_emodel>  (289) 
-38.9891

>  <r_i_glide_energy>  (289) 
-30.4276

>  <r_i_glide_einternal>  (289) 
1.71641

>  <r_i_glide_intrahb_reward>  (289) 
-0

>  <i_i_glide_confnum>  (289) 
2

>  <i_i_glide_posenum>  (289) 
28

>  <r_i_glide_eff_state_penalty>  (289) 
0

>  <ligand_id>  (289) 
76

>  <original_smiles>  (289) 
O=[N+]([O-])c1ccc2nc(N3CCOCC3)[nH]c2c1

>  <smiles>  (289) 
[H]c1c([N+](=O)[O-])c([H])c2nc(N3C([H])([H])C([H])([H])OC([H])([H])C3([H])[H])n([H])c2c1[H]

$$$$
76:1:1
     RDKit          3D

 30 32  0  0  1  0  0  0  0  0999 V2000
    0.5246   -3.4713    5.0847 O   0  0  0  0  0  0  0  0  0  0  0  0
    0.8965   -2.3028    5.1124 N   0  0  0  0  0  0  0  0  0  0  0  0
    0.6912   -1.5451    6.0545 O   0  0  0  0  0  0  0  0  0  0  0  0
    1.6254   -1.7822    3.9406 C   0  0  0  0  0  0  0  0  0  0  0  0
    2.0282   -0.4249    3.8783 C   0  0  0  0  0  0  0  0  0  0  0  0
    2.7232    0.0706    2.7564 C   0  0  0  0  0  0  0  0  0  0  0  0
    3.0176   -0.8056    1.7034 C   0  0  0  0  0  0  0  0  0  0  0  0
    3.6717   -0.6795    0.4917 N   0  0  0  0  0  0  0  0  0  0  0  0
    3.6182   -1.8774   -0.1132 C   0  0  0  0  0  0  0  0  0  0  0  0
    4.1744   -2.0257   -1.3792 N   0  0  0  0  0  0  0  0  0  0  0  0
    4.3555   -3.3013   -2.0685 C   0  0  0  0  0  0  0  0  0  0  0  0
    3.6691   -3.3014   -3.4492 C   0  0  0  0  0  0  0  0  0  0  0  0
    4.1727   -2.2345   -4.2436 O   0  0  0  0  0  0  0  0  0  0  0  0
    3.9231   -0.9862   -3.6124 C   0  0  0  0  0  0  0  0  0  0  0  0
    4.6292   -0.9488   -2.2458 C   0  0  0  0  0  0  0  0  0  0  0  0
    3.0256   -2.8424    0.5843 N   0  0  0  0  0  0  0  0  0  0  0  0
    2.6275   -2.1749    1.7297 C   0  0  0  0  0  0  0  0  0  0  0  0
    1.9345   -2.6473    2.8620 C   0  0  0  0  0  0  0  0  0  0  0  0
    1.8074    0.2501    4.6932 H   0  0  0  0  0  0  0  0  0  0  0  0
    3.0288    1.1039    2.7006 H   0  0  0  0  0  0  0  0  0  0  0  0
    5.4225   -3.5229   -2.1626 H   0  0  0  0  0  0  0  0  0  0  0  0
    3.9249   -4.1047   -1.4642 H   0  0  0  0  0  0  0  0  0  0  0  0
    3.8665   -4.2484   -3.9540 H   0  0  0  0  0  0  0  0  0  0  0  0
    2.5867   -3.2150   -3.3391 H   0  0  0  0  0  0  0  0  0  0  0  0
    4.3009   -0.1842   -4.2443 H   0  0  0  0  0  0  0  0  0  0  0  0
    2.8506   -0.8233   -3.4951 H   0  0  0  0  0  0  0  0  0  0  0  0
    4.4112    0.0205   -1.8005 H   0  0  0  0  0  0  0  0  0  0  0  0
    5.7148   -1.0090   -2.3310 H   0  0  0  0  0  0  0  0  0  0  0  0
    1.6443   -3.6851    2.8840 H   0  0  0  0  0  0  0  0  0  0  0  0
    4.0807    0.1485    0.0924 H   0  0  0  0  0  0  0  0  0  0  0  0
  1  2  2  0
  2  3  1  0
  2  4  1  0
  4 18  2  0
  4  5  1  0
  5  6  2  0
  5 19  1  0
  6  7  1  0
  6 20  1  0
  7 17  2  0
  7  8  1  0
  8  9  1  0
  8 30  1  0
  9 10  1  0
  9 16  2  0
 10 15  1  0
 10 11  1  0
 11 12  1  0
 11 21  1  0
 11 22  1  0
 12 13  1  0
 12 23  1  0
 12 24  1  0
 13 14  1  0
 14 15  1  0
 14 25  1  0
 14 26  1  0
 15 27  1  0
 15 28  1  0
 16 17  1  0
 17 18  1  0
 18 29  1  0
M  CHG  2   2   1   3  -1
M  END
>  <i_m_ct_stereo_status>  (290) 
1

>  <s_m_source_file>  (290) 
/var/tmp/pbs.5076255.sched01/tmp361ftg5n/90jpawypyp.sdf

>  <i_m_source_file_index>  (290) 
29

>  <i_lp_mmshare_version>  (290) 
48012

>  <i_f3d_flags>  (290) 
0

>  <s_epik_input>  (290) 
Tz1bTitdKFtPLV0pYyhbY0hdW2NIXTEpW2NIXWMoYzEyKVtuSF1jKG4yKU4zW0NIMl1bQ0gyXU9bQ0gyXVtDSDJdMw==

>  <s_epik_cmdline>  (290) 
J2VwaWtfcHl0aG9uJywgJy1waHQnLCAnMi4wJywgJy1waCcsICc3LjAnLCAnLXRuJywgJzgnLCAnLW1hJywgJzIwMCcsICctaW1hZScsICc8aW5maWxlLm1hZT4nLCAnLW9tYWUnLCAnPG91dGZpbGUubWFlPic=

>  <r_epik_Ionization_Penalty>  (290) 
0.012516

>  <r_epik_Ionization_Penalty_Charging>  (290) 
0

>  <r_epik_Ionization_Penalty_Neutral>  (290) 
0.012516

>  <r_epik_State_Penalty>  (290) 
1.04422

>  <r_epik_Charging_Adjusted_Penalty>  (290) 
1.04422

>  <i_epik_Tot_Q>  (290) 
0

>  <i_epik_Tot_abs_Q>  (290) 
2

>  <s_lp_Force_Field>  (290) 
OPLS3e

>  <r_lp_Energy>  (290) 
21.4673

>  <b_lp_Chiralities_Consistent>  (290) 
1

>  <s_lp_Variant>  (290) 
76:0-2

>  <s_i_glide_gridfile>  (290) 
pfpi4k_grid

>  <i_i_glide_lignum>  (290) 
29

>  <i_i_glide_rotatable_bonds>  (290) 
2

>  <r_i_docking_score>  (290) 
-4.09934

>  <r_i_glide_ligand_efficiency>  (290) 
-0.227741

>  <r_i_glide_ligand_efficiency_sa>  (290) 
-0.596851

>  <r_i_glide_ligand_efficiency_ln>  (290) 
-1.05371

>  <r_i_glide_gscore>  (290) 
-4.09934

>  <r_i_glide_lipo>  (290) 
-0.411514

>  <r_i_glide_hbond>  (290) 
-0.32

>  <r_i_glide_metal>  (290) 
-0

>  <r_i_glide_rewards>  (290) 
-1.71656

>  <r_i_glide_evdw>  (290) 
-23.0823

>  <r_i_glide_ecoul>  (290) 
-4.34293

>  <r_i_glide_erotb>  (290) 
0.283414

>  <r_i_glide_esite>  (290) 
-0.129129

>  <r_i_glide_emodel>  (290) 
-35.703

>  <r_i_glide_energy>  (290) 
-27.4252

>  <r_i_glide_einternal>  (290) 
0.2664

>  <r_i_glide_intrahb_reward>  (290) 
-0

>  <i_i_glide_confnum>  (290) 
6

>  <i_i_glide_posenum>  (290) 
5

>  <r_i_glide_eff_state_penalty>  (290) 
0

>  <ligand_id>  (290) 
76

>  <original_smiles>  (290) 
O=[N+]([O-])c1ccc2nc(N3CCOCC3)[nH]c2c1

>  <smiles>  (290) 
[H]c1c([N+](=O)[O-])c([H])c2nc(N3C([H])([H])C([H])([H])OC([H])([H])C3([H])[H])n([H])c2c1[H]

$$$$
76:1:2
     RDKit          3D

 30 32  0  0  1  0  0  0  0  0999 V2000
   -2.2063    2.5766    6.0629 O   0  0  0  0  0  0  0  0  0  0  0  0
   -1.4705    1.5977    6.1363 N   0  0  0  0  0  0  0  0  0  0  0  0
   -1.3003    0.9385    7.1518 O   0  0  0  0  0  0  0  0  0  0  0  0
   -0.7575    1.1784    4.9247 C   0  0  0  0  0  0  0  0  0  0  0  0
   -1.2792    1.4930    3.6490 C   0  0  0  0  0  0  0  0  0  0  0  0
   -0.5905    1.0945    2.4837 C   0  0  0  0  0  0  0  0  0  0  0  0
    0.6134    0.3899    2.5952 C   0  0  0  0  0  0  0  0  0  0  0  0
    1.5015   -0.1519    1.6903 N   0  0  0  0  0  0  0  0  0  0  0  0
    2.4939   -0.7059    2.4096 C   0  0  0  0  0  0  0  0  0  0  0  0
    3.5466   -1.3299    1.7539 N   0  0  0  0  0  0  0  0  0  0  0  0
    4.8204   -1.6888    2.3814 C   0  0  0  0  0  0  0  0  0  0  0  0
    5.9993   -1.0518    1.6172 C   0  0  0  0  0  0  0  0  0  0  0  0
    5.9922   -1.4463    0.2524 O   0  0  0  0  0  0  0  0  0  0  0  0
    4.7751   -1.0552   -0.3656 C   0  0  0  0  0  0  0  0  0  0  0  0
    3.5930   -1.7182    0.3531 C   0  0  0  0  0  0  0  0  0  0  0  0
    2.3663   -0.6207    3.7340 N   0  0  0  0  0  0  0  0  0  0  0  0
    1.1692    0.0651    3.8691 C   0  0  0  0  0  0  0  0  0  0  0  0
    0.4623    0.4615    5.0261 C   0  0  0  0  0  0  0  0  0  0  0  0
   -2.2076    2.0374    3.5516 H   0  0  0  0  0  0  0  0  0  0  0  0
   -0.9733    1.3349    1.5074 H   0  0  0  0  0  0  0  0  0  0  0  0
    4.8489   -1.3109    3.4070 H   0  0  0  0  0  0  0  0  0  0  0  0
    4.9001   -2.7772    2.4352 H   0  0  0  0  0  0  0  0  0  0  0  0
    5.9401    0.0306    1.6955 H   0  0  0  0  0  0  0  0  0  0  0  0
    6.9416   -1.3592    2.0745 H   0  0  0  0  0  0  0  0  0  0  0  0
    4.6653    0.0278   -0.3269 H   0  0  0  0  0  0  0  0  0  0  0  0
    4.7886   -1.3471   -1.4127 H   0  0  0  0  0  0  0  0  0  0  0  0
    3.6168   -2.8093    0.2533 H   0  0  0  0  0  0  0  0  0  0  0  0
    2.6882   -1.3916   -0.1468 H   0  0  0  0  0  0  0  0  0  0  0  0
    0.8835    0.2192    5.9930 H   0  0  0  0  0  0  0  0  0  0  0  0
    1.3833   -0.2347    0.6812 H   0  0  0  0  0  0  0  0  0  0  0  0
  1  2  2  0
  2  3  1  0
  2  4  1  0
  4 18  2  0
  4  5  1  0
  5  6  2  0
  5 19  1  0
  6  7  1  0
  6 20  1  0
  7 17  2  0
  7  8  1  0
  8  9  1  0
  8 30  1  0
  9 10  1  0
  9 16  2  0
 10 15  1  0
 10 11  1  0
 11 12  1  0
 11 21  1  0
 11 22  1  0
 12 13  1  0
 12 23  1  0
 12 24  1  0
 13 14  1  0
 14 15  1  0
 14 25  1  0
 14 26  1  0
 15 27  1  0
 15 28  1  0
 16 17  1  0
 17 18  1  0
 18 29  1  0
M  CHG  2   2   1   3  -1
M  END
>  <i_m_ct_stereo_status>  (291) 
1

>  <s_m_source_file>  (291) 
/var/tmp/pbs.5076255.sched01/tmp361ftg5n/90jpawypyp.sdf

>  <i_m_source_file_index>  (291) 
29

>  <i_lp_mmshare_version>  (291) 
48012

>  <i_f3d_flags>  (291) 
0

>  <s_epik_input>  (291) 
Tz1bTitdKFtPLV0pYyhbY0hdW2NIXTEpW2NIXWMoYzEyKVtuSF1jKG4yKU4zW0NIMl1bQ0gyXU9bQ0gyXVtDSDJdMw==

>  <s_epik_cmdline>  (291) 
J2VwaWtfcHl0aG9uJywgJy1waHQnLCAnMi4wJywgJy1waCcsICc3LjAnLCAnLXRuJywgJzgnLCAnLW1hJywgJzIwMCcsICctaW1hZScsICc8aW5maWxlLm1hZT4nLCAnLW9tYWUnLCAnPG91dGZpbGUubWFlPic=

>  <r_epik_Ionization_Penalty>  (291) 
0.012516

>  <r_epik_Ionization_Penalty_Charging>  (291) 
0

>  <r_epik_Ionization_Penalty_Neutral>  (291) 
0.012516

>  <r_epik_State_Penalty>  (291) 
1.04422

>  <r_epik_Charging_Adjusted_Penalty>  (291) 
1.04422

>  <i_epik_Tot_Q>  (291) 
0

>  <i_epik_Tot_abs_Q>  (291) 
2

>  <s_lp_Force_Field>  (291) 
OPLS3e

>  <r_lp_Energy>  (291) 
21.4673

>  <b_lp_Chiralities_Consistent>  (291) 
1

>  <s_lp_Variant>  (291) 
76:0-2

>  <s_i_glide_gridfile>  (291) 
pfpi4k_grid

>  <i_i_glide_lignum>  (291) 
29

>  <i_i_glide_rotatable_bonds>  (291) 
2

>  <r_i_docking_score>  (291) 
-3.97826

>  <r_i_glide_ligand_efficiency>  (291) 
-0.221015

>  <r_i_glide_ligand_efficiency_sa>  (291) 
-0.579222

>  <r_i_glide_ligand_efficiency_ln>  (291) 
-1.02259

>  <r_i_glide_gscore>  (291) 
-3.97826

>  <r_i_glide_lipo>  (291) 
-0.193989

>  <r_i_glide_hbond>  (291) 
-0.16

>  <r_i_glide_metal>  (291) 
-0

>  <r_i_glide_rewards>  (291) 
-1.71656

>  <r_i_glide_evdw>  (291) 
-18.502

>  <r_i_glide_ecoul>  (291) 
-6.87677

>  <r_i_glide_erotb>  (291) 
0.283414

>  <r_i_glide_esite>  (291) 
-0.234511

>  <r_i_glide_emodel>  (291) 
-32.938

>  <r_i_glide_energy>  (291) 
-25.3788

>  <r_i_glide_einternal>  (291) 
1.07496

>  <r_i_glide_intrahb_reward>  (291) 
-0

>  <i_i_glide_confnum>  (291) 
3

>  <i_i_glide_posenum>  (291) 
35

>  <r_i_glide_eff_state_penalty>  (291) 
0

>  <ligand_id>  (291) 
76

>  <original_smiles>  (291) 
O=[N+]([O-])c1ccc2nc(N3CCOCC3)[nH]c2c1

>  <smiles>  (291) 
[H]c1c([N+](=O)[O-])c([H])c2nc(N3C([H])([H])C([H])([H])OC([H])([H])C3([H])[H])n([H])c2c1[H]

$$$$
78:0:0
     RDKit          3D

 52 57  0  0  1  0  0  0  0  0999 V2000
    0.9100  -11.3161    3.8441 C   0  0  0  0  0  0  0  0  0  0  0  0
    1.3395  -10.1349    3.0513 N   0  0  2  0  0  0  0  0  0  0  0  0
    2.7698  -10.2496    2.6437 C   0  0  0  0  0  0  0  0  0  0  0  0
    3.2997   -9.1126    1.7298 C   0  0  0  0  0  0  0  0  0  0  0  0
    2.8508   -7.6636    2.1310 C   0  0  1  0  0  0  0  0  0  0  0  0
    3.5470   -6.5696    1.4075 C   0  0  0  0  0  0  0  0  0  0  0  0
    4.8947   -6.2444    1.6164 C   0  0  0  0  0  0  0  0  0  0  0  0
    5.3554   -5.0825    0.9607 C   0  0  0  0  0  0  0  0  0  0  0  0
    4.4602   -4.3201    0.1751 C   0  0  0  0  0  0  0  0  0  0  0  0
    3.0848   -4.6611    0.0926 C   0  0  0  0  0  0  0  0  0  0  0  0
    2.2149   -3.8559   -0.5836 O   0  0  0  0  0  0  0  0  0  0  0  0
    2.5998   -5.8170    0.7413 C   0  0  0  0  0  0  0  0  0  0  0  0
    1.3090   -6.2350    0.9346 O   0  0  0  0  0  0  0  0  0  0  0  0
    1.3957   -7.5130    1.5893 C   0  0  2  0  0  0  0  0  0  0  0  0
    0.3600   -7.8322    2.6797 C   0  0  1  0  0  0  0  0  0  0  0  0
   -0.8330   -8.3415    2.1025 O   0  0  0  0  0  0  0  0  0  0  0  0
    0.9494   -8.8450    3.7088 C   0  0  2  0  0  0  0  0  0  0  0  0
    2.0912   -8.1648    4.4836 C   0  0  0  0  0  0  0  0  0  0  0  0
    2.0318   -8.0006    5.8186 C   0  0  0  0  0  0  0  0  0  0  0  0
    2.8580   -6.9350    6.5058 C   0  0  0  0  0  0  0  0  0  0  0  0
    2.8840   -5.6413    5.6525 C   0  0  1  0  0  0  0  0  0  0  0  0
    4.0122   -4.8682    6.0051 O   0  0  0  0  0  0  0  0  0  0  0  0
    2.8256   -5.8602    4.1076 C   0  0  0  0  0  0  0  0  0  0  0  0
    3.0805   -7.3385    3.6471 C   0  0  2  0  0  0  0  0  0  0  0  0
    4.6148   -7.6058    3.8670 C   0  0  0  0  0  0  0  0  0  0  0  0
    5.5583   -7.0430    2.7460 C   0  0  0  0  0  0  0  0  0  0  0  0
    1.4222  -11.3585    4.8074 H   0  0  0  0  0  0  0  0  0  0  0  0
    1.1207  -12.2406    3.3025 H   0  0  0  0  0  0  0  0  0  0  0  0
   -0.1645  -11.2881    4.0366 H   0  0  0  0  0  0  0  0  0  0  0  0
    3.3922  -10.3509    3.5309 H   0  0  0  0  0  0  0  0  0  0  0  0
    2.8950  -11.1876    2.1044 H   0  0  0  0  0  0  0  0  0  0  0  0
    4.3822   -9.2080    1.7181 H   0  0  0  0  0  0  0  0  0  0  0  0
    3.0258   -9.3307    0.6970 H   0  0  0  0  0  0  0  0  0  0  0  0
    6.3686   -4.7375    1.1162 H   0  0  0  0  0  0  0  0  0  0  0  0
    4.8131   -3.4190   -0.3012 H   0  0  0  0  0  0  0  0  0  0  0  0
    2.6036   -3.0648   -0.9353 H   0  0  0  0  0  0  0  0  0  0  0  0
    1.2352   -8.2238    0.7798 H   0  0  0  0  0  0  0  0  0  0  0  0
    0.1007   -6.9161    3.2059 H   0  0  0  0  0  0  0  0  0  0  0  0
   -0.6321   -8.9954    1.4417 H   0  0  0  0  0  0  0  0  0  0  0  0
    0.1504   -9.0501    4.4220 H   0  0  0  0  0  0  0  0  0  0  0  0
    1.2806   -8.4951    6.4194 H   0  0  0  0  0  0  0  0  0  0  0  0
    2.4305   -6.7215    7.4855 H   0  0  0  0  0  0  0  0  0  0  0  0
    3.8558   -7.3291    6.6951 H   0  0  0  0  0  0  0  0  0  0  0  0
    2.0099   -5.0493    5.9278 H   0  0  0  0  0  0  0  0  0  0  0  0
    3.9744   -4.6725    6.9290 H   0  0  0  0  0  0  0  0  0  0  0  0
    1.8252   -5.5743    3.7890 H   0  0  0  0  0  0  0  0  0  0  0  0
    3.4793   -5.1418    3.6148 H   0  0  0  0  0  0  0  0  0  0  0  0
    4.9500   -7.1814    4.8106 H   0  0  0  0  0  0  0  0  0  0  0  0
    4.8107   -8.6708    3.9846 H   0  0  0  0  0  0  0  0  0  0  0  0
    6.1360   -7.8533    2.3012 H   0  0  0  0  0  0  0  0  0  0  0  0
    6.2932   -6.3852    3.2113 H   0  0  0  0  0  0  0  0  0  0  0  0
    0.7888  -10.1895    2.2017 H   0  0  0  0  0  0  0  0  0  0  0  0
  1  2  1  0
  1 27  1  0
  1 28  1  0
  1 29  1  0
  2 17  1  0
  2  3  1  0
  2 52  1  6
  3  4  1  0
  3 30  1  0
  3 31  1  0
  5  4  1  6
  4 32  1  0
  4 33  1  0
  5 14  1  0
  5 24  1  0
  5  6  1  0
  6 12  2  0
  6  7  1  0
  7 26  1  0
  7  8  2  0
  8  9  1  0
  8 34  1  0
  9 10  2  0
  9 35  1  0
 10 11  1  0
 10 12  1  0
 11 36  1  0
 12 13  1  0
 13 14  1  0
 14 15  1  0
 14 37  1  6
 15 16  1  0
 15 17  1  0
 15 38  1  1
 16 39  1  0
 17 18  1  0
 17 40  1  1
 18 24  1  0
 18 19  2  0
 19 20  1  0
 19 41  1  0
 20 21  1  0
 20 42  1  0
 20 43  1  0
 21 22  1  0
 21 23  1  0
 21 44  1  1
 22 45  1  0
 24 23  1  6
 23 46  1  0
 23 47  1  0
 24 25  1  0
 25 26  1  0
 25 48  1  0
 25 49  1  0
 26 50  1  0
 26 51  1  0
M  CHG  1   2   1
M  END
>  <i_m_ct_stereo_status>  (292) 
1

>  <s_m_source_file>  (292) 
/var/tmp/pbs.5076255.sched01/tmp361ftg5n/90jpawypyp.sdf

>  <i_m_source_file_index>  (292) 
31

>  <i_lp_mmshare_version>  (292) 
48012

>  <i_f3d_flags>  (292) 
0

>  <s_epik_input>  (292) 
W09IXVtDQEBIXShbQ0gyXTEpW0NIMl1bQ0hdPUMoW0NAQF0xMltDQF0zNDUpW0NASF0oTihbQ0gzXSlbQ0gyXVtDSDJdMylbQ0BIXShbT0hdKVtDQEhdNU9jNmM0YyhbQ0gyXVtDSDJdMilbY0hdW2NIXWM2W09IXQ==

>  <s_epik_cmdline>  (292) 
J2VwaWtfcHl0aG9uJywgJy1waHQnLCAnMi4wJywgJy1waCcsICc3LjAnLCAnLXRuJywgJzgnLCAnLW1hJywgJzIwMCcsICctaW1hZScsICc8aW5maWxlLm1hZT4nLCAnLW9tYWUnLCAnPG91dGZpbGUubWFlPic=

>  <r_lp_tautomer_probability>  (292) 
1

>  <r_epik_Ionization_Penalty>  (292) 
0.0510461

>  <r_epik_Ionization_Penalty_Charging>  (292) 
0.0470328

>  <r_epik_Ionization_Penalty_Neutral>  (292) 
0.0040133

>  <r_epik_State_Penalty>  (292) 
0.0400273

>  <r_epik_Charging_Adjusted_Penalty>  (292) 
0.0870601

>  <i_epik_Tot_Q>  (292) 
1

>  <i_epik_Tot_abs_Q>  (292) 
1

>  <s_lp_Force_Field>  (292) 
OPLS3e

>  <r_lp_Energy>  (292) 
79.8622

>  <b_lp_Chiralities_Consistent>  (292) 
1

>  <s_lp_Variant>  (292) 
78:0-1

>  <s_i_glide_gridfile>  (292) 
pfpi4k_grid

>  <i_i_glide_lignum>  (292) 
31

>  <i_i_glide_rotatable_bonds>  (292) 
3

>  <r_i_docking_score>  (292) 
-3.71784

>  <r_i_glide_ligand_efficiency>  (292) 
-0.142994

>  <r_i_glide_ligand_efficiency_sa>  (292) 
-0.423619

>  <r_i_glide_ligand_efficiency_ln>  (292) 
-0.873122

>  <r_i_glide_gscore>  (292) 
-3.71784

>  <r_i_glide_lipo>  (292) 
-0.357773

>  <r_i_glide_hbond>  (292) 
-0.126881

>  <r_i_glide_metal>  (292) 
-0

>  <r_i_glide_rewards>  (292) 
-0.978849

>  <r_i_glide_evdw>  (292) 
-20.4231

>  <r_i_glide_ecoul>  (292) 
-8.2212

>  <r_i_glide_erotb>  (292) 
0

>  <r_i_glide_esite>  (292) 
0

>  <r_i_glide_emodel>  (292) 
-37.9666

>  <r_i_glide_energy>  (292) 
-28.6443

>  <r_i_glide_einternal>  (292) 
0.426916

>  <r_i_glide_intrahb_reward>  (292) 
-0

>  <i_i_glide_confnum>  (292) 
1

>  <i_i_glide_posenum>  (292) 
35

>  <r_i_glide_eff_state_penalty>  (292) 
0

>  <ligand_id>  (292) 
78

>  <original_smiles>  (292) 
CN1CCC23c4c5ccc(O)c4OC2C(O)C1C1=CCC(O)CC13CC5

>  <smiles>  (292) 
[H]Oc1c([H])c([H])c2c3c1OC1([H])C([H])(O[H])C4([H])C5=C([H])C([H])([H])C([H])(O[H])C([H])([H])C5(C([H])([H])C2([H])[H])C31C([H])([H])C([H])([H])[N+]4([H])C([H])([H])[H]

$$$$
78:0:1
     RDKit          3D

 52 57  0  0  1  0  0  0  0  0999 V2000
    4.8264   -5.9196    4.3777 C   0  0  0  0  0  0  0  0  0  0  0  0
    4.5500   -5.3721    3.0261 N   0  0  2  0  0  0  0  0  0  0  0  0
    5.7740   -4.7821    2.4155 C   0  0  0  0  0  0  0  0  0  0  0  0
    5.6198   -4.2658    0.9629 C   0  0  0  0  0  0  0  0  0  0  0  0
    4.2968   -3.4784    0.6678 C   0  0  1  0  0  0  0  0  0  0  0  0
    4.2668   -2.7863   -0.6442 C   0  0  0  0  0  0  0  0  0  0  0  0
    5.0427   -1.6614   -0.9400 C   0  0  0  0  0  0  0  0  0  0  0  0
    4.7709   -1.0340   -2.1730 C   0  0  0  0  0  0  0  0  0  0  0  0
    3.7569   -1.5554   -3.0190 C   0  0  0  0  0  0  0  0  0  0  0  0
    2.9581   -2.6471   -2.6063 C   0  0  0  0  0  0  0  0  0  0  0  0
    1.9373   -3.0525   -3.4085 O   0  0  0  0  0  0  0  0  0  0  0  0
    3.1901   -3.2724   -1.3637 C   0  0  0  0  0  0  0  0  0  0  0  0
    2.4330   -4.1922   -0.6869 O   0  0  0  0  0  0  0  0  0  0  0  0
    3.2004   -4.5711    0.4672 C   0  0  2  0  0  0  0  0  0  0  0  0
    2.4313   -4.8151    1.7808 C   0  0  1  0  0  0  0  0  0  0  0  0
    1.9210   -6.1364    1.8468 O   0  0  0  0  0  0  0  0  0  0  0  0
    3.3286   -4.5077    3.0077 C   0  0  2  0  0  0  0  0  0  0  0  0
    3.6272   -3.0003    3.0506 C   0  0  0  0  0  0  0  0  0  0  0  0
    3.2385   -2.2365    4.0886 C   0  0  0  0  0  0  0  0  0  0  0  0
    3.0694   -0.7420    3.9331 C   0  0  0  0  0  0  0  0  0  0  0  0
    2.4291   -0.4108    2.5597 C   0  0  1  0  0  0  0  0  0  0  0  0
    2.6974    0.9341    2.2128 O   0  0  0  0  0  0  0  0  0  0  0  0
    2.7931   -1.3920    1.4027 C   0  0  0  0  0  0  0  0  0  0  0  0
    3.9999   -2.3470    1.7099 C   0  0  2  0  0  0  0  0  0  0  0  0
    5.2873   -1.4451    1.6834 C   0  0  0  0  0  0  0  0  0  0  0  0
    5.8421   -1.1228    0.2534 C   0  0  0  0  0  0  0  0  0  0  0  0
    5.0657   -5.1239    5.0864 H   0  0  0  0  0  0  0  0  0  0  0  0
    5.6677   -6.6124    4.3493 H   0  0  0  0  0  0  0  0  0  0  0  0
    3.9693   -6.4744    4.7643 H   0  0  0  0  0  0  0  0  0  0  0  0
    6.1460   -3.9933    3.0625 H   0  0  0  0  0  0  0  0  0  0  0  0
    6.5498   -5.5461    2.4203 H   0  0  0  0  0  0  0  0  0  0  0  0
    6.4981   -3.6615    0.7566 H   0  0  0  0  0  0  0  0  0  0  0  0
    5.7274   -5.1006    0.2695 H   0  0  0  0  0  0  0  0  0  0  0  0
    5.2676   -0.1170   -2.4422 H   0  0  0  0  0  0  0  0  0  0  0  0
    3.5250   -1.0578   -3.9465 H   0  0  0  0  0  0  0  0  0  0  0  0
    1.5146   -3.8486   -3.1192 H   0  0  0  0  0  0  0  0  0  0  0  0
    3.6600   -5.5159    0.1651 H   0  0  0  0  0  0  0  0  0  0  0  0
    1.5778   -4.1508    1.8248 H   0  0  0  0  0  0  0  0  0  0  0  0
    2.6071   -6.7755    1.7308 H   0  0  0  0  0  0  0  0  0  0  0  0
    2.7251   -4.7426    3.8846 H   0  0  0  0  0  0  0  0  0  0  0  0
    2.8692   -2.6716    5.0091 H   0  0  0  0  0  0  0  0  0  0  0  0
    2.4348   -0.3622    4.7324 H   0  0  0  0  0  0  0  0  0  0  0  0
    4.0373   -0.2613    4.0690 H   0  0  0  0  0  0  0  0  0  0  0  0
    1.3477   -0.4601    2.6854 H   0  0  0  0  0  0  0  0  0  0  0  0
    3.6244    1.0590    2.0819 H   0  0  0  0  0  0  0  0  0  0  0  0
    1.9117   -2.0050    1.2255 H   0  0  0  0  0  0  0  0  0  0  0  0
    2.9125   -0.8309    0.4770 H   0  0  0  0  0  0  0  0  0  0  0  0
    5.1077   -0.4950    2.1798 H   0  0  0  0  0  0  0  0  0  0  0  0
    6.0865   -1.8908    2.2729 H   0  0  0  0  0  0  0  0  0  0  0  0
    6.8681   -1.4778    0.1648 H   0  0  0  0  0  0  0  0  0  0  0  0
    5.8977   -0.0406    0.1418 H   0  0  0  0  0  0  0  0  0  0  0  0
    4.3198   -6.1891    2.4681 H   0  0  0  0  0  0  0  0  0  0  0  0
  1  2  1  0
  1 27  1  0
  1 28  1  0
  1 29  1  0
  2 17  1  0
  2  3  1  0
  2 52  1  6
  3  4  1  0
  3 30  1  0
  3 31  1  0
  5  4  1  1
  4 32  1  0
  4 33  1  0
  5 14  1  0
  5 24  1  0
  5  6  1  0
  6 12  2  0
  6  7  1  0
  7 26  1  0
  7  8  2  0
  8  9  1  0
  8 34  1  0
  9 10  2  0
  9 35  1  0
 10 11  1  0
 10 12  1  0
 11 36  1  0
 12 13  1  0
 13 14  1  0
 14 15  1  0
 14 37  1  6
 15 16  1  0
 15 17  1  0
 15 38  1  6
 16 39  1  0
 17 18  1  0
 17 40  1  1
 18 24  1  0
 18 19  2  0
 19 20  1  0
 19 41  1  0
 20 21  1  0
 20 42  1  0
 20 43  1  0
 21 22  1  0
 21 23  1  0
 21 44  1  1
 22 45  1  0
 24 23  1  6
 23 46  1  0
 23 47  1  0
 24 25  1  0
 25 26  1  0
 25 48  1  0
 25 49  1  0
 26 50  1  0
 26 51  1  0
M  CHG  1   2   1
M  END
>  <i_m_ct_stereo_status>  (293) 
1

>  <s_m_source_file>  (293) 
/var/tmp/pbs.5076255.sched01/tmp361ftg5n/90jpawypyp.sdf

>  <i_m_source_file_index>  (293) 
31

>  <i_lp_mmshare_version>  (293) 
48012

>  <i_f3d_flags>  (293) 
0

>  <s_epik_input>  (293) 
W09IXVtDQEBIXShbQ0gyXTEpW0NIMl1bQ0hdPUMoW0NAQF0xMltDQF0zNDUpW0NASF0oTihbQ0gzXSlbQ0gyXVtDSDJdMylbQ0BIXShbT0hdKVtDQEhdNU9jNmM0YyhbQ0gyXVtDSDJdMilbY0hdW2NIXWM2W09IXQ==

>  <s_epik_cmdline>  (293) 
J2VwaWtfcHl0aG9uJywgJy1waHQnLCAnMi4wJywgJy1waCcsICc3LjAnLCAnLXRuJywgJzgnLCAnLW1hJywgJzIwMCcsICctaW1hZScsICc8aW5maWxlLm1hZT4nLCAnLW9tYWUnLCAnPG91dGZpbGUubWFlPic=

>  <r_lp_tautomer_probability>  (293) 
1

>  <r_epik_Ionization_Penalty>  (293) 
0.0510461

>  <r_epik_Ionization_Penalty_Charging>  (293) 
0.0470328

>  <r_epik_Ionization_Penalty_Neutral>  (293) 
0.0040133

>  <r_epik_State_Penalty>  (293) 
0.0400273

>  <r_epik_Charging_Adjusted_Penalty>  (293) 
0.0870601

>  <i_epik_Tot_Q>  (293) 
1

>  <i_epik_Tot_abs_Q>  (293) 
1

>  <s_lp_Force_Field>  (293) 
OPLS3e

>  <r_lp_Energy>  (293) 
79.8622

>  <b_lp_Chiralities_Consistent>  (293) 
1

>  <s_lp_Variant>  (293) 
78:0-1

>  <s_i_glide_gridfile>  (293) 
pfpi4k_grid

>  <i_i_glide_lignum>  (293) 
31

>  <i_i_glide_rotatable_bonds>  (293) 
3

>  <r_i_docking_score>  (293) 
-3.29284

>  <r_i_glide_ligand_efficiency>  (293) 
-0.126648

>  <r_i_glide_ligand_efficiency_sa>  (293) 
-0.375194

>  <r_i_glide_ligand_efficiency_ln>  (293) 
-0.773314

>  <r_i_glide_gscore>  (293) 
-3.29284

>  <r_i_glide_lipo>  (293) 
-0.373718

>  <r_i_glide_hbond>  (293) 
0

>  <r_i_glide_metal>  (293) 
-0

>  <r_i_glide_rewards>  (293) 
-0.978849

>  <r_i_glide_evdw>  (293) 
-23.3039

>  <r_i_glide_ecoul>  (293) 
-5.16722

>  <r_i_glide_erotb>  (293) 
0

>  <r_i_glide_esite>  (293) 
0

>  <r_i_glide_emodel>  (293) 
-36.8623

>  <r_i_glide_energy>  (293) 
-28.4711

>  <r_i_glide_einternal>  (293) 
0.114968

>  <r_i_glide_intrahb_reward>  (293) 
-0

>  <i_i_glide_confnum>  (293) 
2

>  <i_i_glide_posenum>  (293) 
10

>  <r_i_glide_eff_state_penalty>  (293) 
0

>  <ligand_id>  (293) 
78

>  <original_smiles>  (293) 
CN1CCC23c4c5ccc(O)c4OC2C(O)C1C1=CCC(O)CC13CC5

>  <smiles>  (293) 
[H]Oc1c([H])c([H])c2c3c1OC1([H])C([H])(O[H])C4([H])C5=C([H])C([H])([H])C([H])(O[H])C([H])([H])C5(C([H])([H])C2([H])[H])C31C([H])([H])C([H])([H])[N+]4([H])C([H])([H])[H]

$$$$
78:0:2
     RDKit          3D

 52 57  0  0  1  0  0  0  0  0999 V2000
    4.7731   -6.0676    4.3389 C   0  0  0  0  0  0  0  0  0  0  0  0
    4.4904   -5.4931    2.9960 N   0  0  2  0  0  0  0  0  0  0  0  0
    5.7153   -4.8862    2.3971 C   0  0  0  0  0  0  0  0  0  0  0  0
    5.5524   -4.3424    0.9570 C   0  0  0  0  0  0  0  0  0  0  0  0
    4.2270   -3.5509    0.6780 C   0  0  1  0  0  0  0  0  0  0  0  0
    4.1915   -2.8326   -0.6197 C   0  0  0  0  0  0  0  0  0  0  0  0
    4.9656   -1.6988   -0.8948 C   0  0  0  0  0  0  0  0  0  0  0  0
    4.6889   -1.0464   -2.1138 C   0  0  0  0  0  0  0  0  0  0  0  0
    3.6718   -1.5520   -2.9657 C   0  0  0  0  0  0  0  0  0  0  0  0
    2.8757   -2.6549   -2.5767 C   0  0  0  0  0  0  0  0  0  0  0  0
    1.8604   -3.0565   -3.3843 O   0  0  0  0  0  0  0  0  0  0  0  0
    3.1178   -3.3032   -1.3433 C   0  0  0  0  0  0  0  0  0  0  0  0
    2.3601   -4.2408   -0.6866 O   0  0  0  0  0  0  0  0  0  0  0  0
    3.1324   -4.6406    0.4590 C   0  0  2  0  0  0  0  0  0  0  0  0
    2.3694   -4.9150    1.7700 C   0  0  1  0  0  0  0  0  0  0  0  0
    1.8615   -6.2390    1.8102 O   0  0  0  0  0  0  0  0  0  0  0  0
    3.2666   -4.6281    3.0009 C   0  0  2  0  0  0  0  0  0  0  0  0
    3.5625   -3.1229    3.0727 C   0  0  0  0  0  0  0  0  0  0  0  0
    3.1760   -2.3805    4.1266 C   0  0  0  0  0  0  0  0  0  0  0  0
    3.0000   -0.8834    3.9982 C   0  0  0  0  0  0  0  0  0  0  0  0
    2.3481   -0.5363    2.6341 C   0  0  1  0  0  0  0  0  0  0  0  0
    2.6276    0.8035    2.2978 O   0  0  0  0  0  0  0  0  0  0  0  0
    2.7181   -1.4879    1.4574 C   0  0  0  0  0  0  0  0  0  0  0  0
    3.9299   -2.4414    1.7435 C   0  0  2  0  0  0  0  0  0  0  0  0
    5.2160   -1.5373    1.7336 C   0  0  0  0  0  0  0  0  0  0  0  0
    5.7686   -1.1840    0.3071 C   0  0  0  0  0  0  0  0  0  0  0  0
    5.0145   -5.2834    5.0596 H   0  0  0  0  0  0  0  0  0  0  0  0
    5.6145   -6.7584    4.2915 H   0  0  0  0  0  0  0  0  0  0  0  0
    3.9157   -6.6287    4.7160 H   0  0  0  0  0  0  0  0  0  0  0  0
    6.0852   -4.1098    3.0604 H   0  0  0  0  0  0  0  0  0  0  0  0
    6.4880   -5.6491    2.3830 H   0  0  0  0  0  0  0  0  0  0  0  0
    6.4305   -3.7304    0.7588 H   0  0  0  0  0  0  0  0  0  0  0  0
    5.6594   -5.1622    0.2434 H   0  0  0  0  0  0  0  0  0  0  0  0
    5.1852   -0.1244   -2.3672 H   0  0  0  0  0  0  0  0  0  0  0  0
    3.4360   -1.0369   -3.8820 H   0  0  0  0  0  0  0  0  0  0  0  0
    1.4474   -3.8688   -3.1181 H   0  0  0  0  0  0  0  0  0  0  0  0
    3.5936   -5.5791    0.1375 H   0  0  0  0  0  0  0  0  0  0  0  0
    1.5101   -4.2561    1.8315 H   0  0  0  0  0  0  0  0  0  0  0  0
    2.5528   -6.8744    1.6854 H   0  0  0  0  0  0  0  0  0  0  0  0
    2.6680   -4.8821    3.8724 H   0  0  0  0  0  0  0  0  0  0  0  0
    2.8110   -2.8348    5.0401 H   0  0  0  0  0  0  0  0  0  0  0  0
    2.3703   -0.5216    4.8096 H   0  0  0  0  0  0  0  0  0  0  0  0
    3.9660   -0.4005    4.1360 H   0  0  0  0  0  0  0  0  0  0  0  0
    1.2666   -0.5855    2.7699 H   0  0  0  0  0  0  0  0  0  0  0  0
    2.0637    1.0541    1.5786 H   0  0  0  0  0  0  0  0  0  0  0  0
    1.8380   -2.0982    1.2688 H   0  0  0  0  0  0  0  0  0  0  0  0
    2.8409   -0.9073    0.5430 H   0  0  0  0  0  0  0  0  0  0  0  0
    5.0321   -0.5971    2.2450 H   0  0  0  0  0  0  0  0  0  0  0  0
    6.0173   -1.9921    2.3127 H   0  0  0  0  0  0  0  0  0  0  0  0
    6.7938   -1.5383    0.2092 H   0  0  0  0  0  0  0  0  0  0  0  0
    5.8208   -0.1014    0.2188 H   0  0  0  0  0  0  0  0  0  0  0  0
    4.2610   -6.2978    2.4249 H   0  0  0  0  0  0  0  0  0  0  0  0
  1  2  1  0
  1 27  1  0
  1 28  1  0
  1 29  1  0
  2 17  1  0
  2  3  1  0
  2 52  1  6
  3  4  1  0
  3 30  1  0
  3 31  1  0
  5  4  1  1
  4 32  1  0
  4 33  1  0
  5 14  1  0
  5 24  1  0
  5  6  1  0
  6 12  2  0
  6  7  1  0
  7 26  1  0
  7  8  2  0
  8  9  1  0
  8 34  1  0
  9 10  2  0
  9 35  1  0
 10 11  1  0
 10 12  1  0
 11 36  1  0
 12 13  1  0
 13 14  1  0
 14 15  1  0
 14 37  1  6
 15 16  1  0
 15 17  1  0
 15 38  1  1
 16 39  1  0
 17 18  1  0
 17 40  1  1
 18 24  1  0
 18 19  2  0
 19 20  1  0
 19 41  1  0
 20 21  1  0
 20 42  1  0
 20 43  1  0
 21 22  1  0
 21 23  1  0
 21 44  1  1
 22 45  1  0
 24 23  1  6
 23 46  1  0
 23 47  1  0
 24 25  1  0
 25 26  1  0
 25 48  1  0
 25 49  1  0
 26 50  1  0
 26 51  1  0
M  CHG  1   2   1
M  END
>  <i_m_ct_stereo_status>  (294) 
1

>  <s_m_source_file>  (294) 
/var/tmp/pbs.5076255.sched01/tmp361ftg5n/90jpawypyp.sdf

>  <i_m_source_file_index>  (294) 
31

>  <i_lp_mmshare_version>  (294) 
48012

>  <i_f3d_flags>  (294) 
0

>  <s_epik_input>  (294) 
W09IXVtDQEBIXShbQ0gyXTEpW0NIMl1bQ0hdPUMoW0NAQF0xMltDQF0zNDUpW0NASF0oTihbQ0gzXSlbQ0gyXVtDSDJdMylbQ0BIXShbT0hdKVtDQEhdNU9jNmM0YyhbQ0gyXVtDSDJdMilbY0hdW2NIXWM2W09IXQ==

>  <s_epik_cmdline>  (294) 
J2VwaWtfcHl0aG9uJywgJy1waHQnLCAnMi4wJywgJy1waCcsICc3LjAnLCAnLXRuJywgJzgnLCAnLW1hJywgJzIwMCcsICctaW1hZScsICc8aW5maWxlLm1hZT4nLCAnLW9tYWUnLCAnPG91dGZpbGUubWFlPic=

>  <r_lp_tautomer_probability>  (294) 
1

>  <r_epik_Ionization_Penalty>  (294) 
0.0510461

>  <r_epik_Ionization_Penalty_Charging>  (294) 
0.0470328

>  <r_epik_Ionization_Penalty_Neutral>  (294) 
0.0040133

>  <r_epik_State_Penalty>  (294) 
0.0400273

>  <r_epik_Charging_Adjusted_Penalty>  (294) 
0.0870601

>  <i_epik_Tot_Q>  (294) 
1

>  <i_epik_Tot_abs_Q>  (294) 
1

>  <s_lp_Force_Field>  (294) 
OPLS3e

>  <r_lp_Energy>  (294) 
79.8622

>  <b_lp_Chiralities_Consistent>  (294) 
1

>  <s_lp_Variant>  (294) 
78:0-1

>  <s_i_glide_gridfile>  (294) 
pfpi4k_grid

>  <i_i_glide_lignum>  (294) 
31

>  <i_i_glide_rotatable_bonds>  (294) 
3

>  <r_i_docking_score>  (294) 
-3.25872

>  <r_i_glide_ligand_efficiency>  (294) 
-0.125336

>  <r_i_glide_ligand_efficiency_sa>  (294) 
-0.371306

>  <r_i_glide_ligand_efficiency_ln>  (294) 
-0.765301

>  <r_i_glide_gscore>  (294) 
-3.25872

>  <r_i_glide_lipo>  (294) 
-0.377598

>  <r_i_glide_hbond>  (294) 
0

>  <r_i_glide_metal>  (294) 
-0

>  <r_i_glide_rewards>  (294) 
-0.978849

>  <r_i_glide_evdw>  (294) 
-23.1921

>  <r_i_glide_ecoul>  (294) 
-4.95116

>  <r_i_glide_erotb>  (294) 
0

>  <r_i_glide_esite>  (294) 
0

>  <r_i_glide_emodel>  (294) 
-36.2146

>  <r_i_glide_energy>  (294) 
-28.1432

>  <r_i_glide_einternal>  (294) 
0.496454

>  <r_i_glide_intrahb_reward>  (294) 
-0

>  <i_i_glide_confnum>  (294) 
1

>  <i_i_glide_posenum>  (294) 
1

>  <r_i_glide_eff_state_penalty>  (294) 
0

>  <ligand_id>  (294) 
78

>  <original_smiles>  (294) 
CN1CCC23c4c5ccc(O)c4OC2C(O)C1C1=CCC(O)CC13CC5

>  <smiles>  (294) 
[H]Oc1c([H])c([H])c2c3c1OC1([H])C([H])(O[H])C4([H])C5=C([H])C([H])([H])C([H])(O[H])C([H])([H])C5(C([H])([H])C2([H])[H])C31C([H])([H])C([H])([H])[N+]4([H])C([H])([H])[H]

$$$$
78:1:0
     RDKit          3D

 51 56  0  0  1  0  0  0  0  0999 V2000
    4.5958   -5.7359    4.5334 C   0  0  0  0  0  0  0  0  0  0  0  0
    4.3464   -5.3261    3.1507 N   0  0  0  0  0  0  0  0  0  0  0  0
    5.5655   -4.7308    2.5901 C   0  0  0  0  0  0  0  0  0  0  0  0
    5.5094   -4.2420    1.1245 C   0  0  0  0  0  0  0  0  0  0  0  0
    4.2047   -3.4628    0.7508 C   0  0  1  0  0  0  0  0  0  0  0  0
    4.2399   -2.7809   -0.5660 C   0  0  0  0  0  0  0  0  0  0  0  0
    5.0344   -1.6559   -0.8304 C   0  0  0  0  0  0  0  0  0  0  0  0
    4.8252   -1.0420   -2.0802 C   0  0  0  0  0  0  0  0  0  0  0  0
    3.8482   -1.5592   -2.9701 C   0  0  0  0  0  0  0  0  0  0  0  0
    3.0232   -2.6424   -2.5886 C   0  0  0  0  0  0  0  0  0  0  0  0
    2.0502   -3.0581   -3.4434 O   0  0  0  0  0  0  0  0  0  0  0  0
    3.1980   -3.2639   -1.3331 C   0  0  0  0  0  0  0  0  0  0  0  0
    2.4054   -4.1795   -0.6864 O   0  0  0  0  0  0  0  0  0  0  0  0
    3.1149   -4.5521    0.5086 C   0  0  2  0  0  0  0  0  0  0  0  0
    2.2895   -4.7765    1.7875 C   0  0  1  0  0  0  0  0  0  0  0  0
    1.7660   -6.0900    1.8193 O   0  0  0  0  0  0  0  0  0  0  0  0
    3.1337   -4.4829    3.0597 C   0  0  2  0  0  0  0  0  0  0  0  0
    3.4064   -2.9697    3.0935 C   0  0  0  0  0  0  0  0  0  0  0  0
    2.9183   -2.2042    4.0862 C   0  0  0  0  0  0  0  0  0  0  0  0
    2.7283   -0.7149    3.9024 C   0  0  0  0  0  0  0  0  0  0  0  0
    2.1662   -0.4178    2.4877 C   0  0  1  0  0  0  0  0  0  0  0  0
    2.4306    0.9254    2.1394 O   0  0  0  0  0  0  0  0  0  0  0  0
    2.6535   -1.3838    1.3684 C   0  0  0  0  0  0  0  0  0  0  0  0
    3.8456   -2.3264    1.7665 C   0  0  2  0  0  0  0  0  0  0  0  0
    5.1197   -1.4154    1.8041 C   0  0  0  0  0  0  0  0  0  0  0  0
    5.7683   -1.1161    0.4057 C   0  0  0  0  0  0  0  0  0  0  0  0
    5.4568   -6.4072    4.5972 H   0  0  0  0  0  0  0  0  0  0  0  0
    3.7410   -6.2762    4.9465 H   0  0  0  0  0  0  0  0  0  0  0  0
    4.7905   -4.8751    5.1765 H   0  0  0  0  0  0  0  0  0  0  0  0
    5.8825   -3.9121    3.2320 H   0  0  0  0  0  0  0  0  0  0  0  0
    6.3747   -5.4593    2.6507 H   0  0  0  0  0  0  0  0  0  0  0  0
    6.4014   -3.6431    0.9461 H   0  0  0  0  0  0  0  0  0  0  0  0
    5.6417   -5.0941    0.4619 H   0  0  0  0  0  0  0  0  0  0  0  0
    5.3393   -0.1278   -2.3324 H   0  0  0  0  0  0  0  0  0  0  0  0
    3.6587   -1.0667   -3.9068 H   0  0  0  0  0  0  0  0  0  0  0  0
    1.5792   -3.8226   -3.1286 H   0  0  0  0  0  0  0  0  0  0  0  0
    3.5885   -5.5004    0.2374 H   0  0  0  0  0  0  0  0  0  0  0  0
    1.4425   -4.1014    1.8054 H   0  0  0  0  0  0  0  0  0  0  0  0
    2.4934   -6.6955    1.8372 H   0  0  0  0  0  0  0  0  0  0  0  0
    2.4838   -4.7101    3.9075 H   0  0  0  0  0  0  0  0  0  0  0  0
    2.4909   -2.6372    4.9786 H   0  0  0  0  0  0  0  0  0  0  0  0
    2.0370   -0.3391    4.6547 H   0  0  0  0  0  0  0  0  0  0  0  0
    3.6775   -0.2107    4.0825 H   0  0  0  0  0  0  0  0  0  0  0  0
    1.0772   -0.4983    2.5424 H   0  0  0  0  0  0  0  0  0  0  0  0
    1.8914    1.1454    1.3930 H   0  0  0  0  0  0  0  0  0  0  0  0
    1.8021   -2.0107    1.1156 H   0  0  0  0  0  0  0  0  0  0  0  0
    2.8406   -0.8136    0.4603 H   0  0  0  0  0  0  0  0  0  0  0  0
    4.8942   -0.4569    2.2637 H   0  0  0  0  0  0  0  0  0  0  0  0
    5.8821   -1.8423    2.4517 H   0  0  0  0  0  0  0  0  0  0  0  0
    6.7935   -1.4889    0.3834 H   0  0  0  0  0  0  0  0  0  0  0  0
    5.8430   -0.0345    0.2862 H   0  0  0  0  0  0  0  0  0  0  0  0
  1  2  1  0
  1 27  1  0
  1 28  1  0
  1 29  1  0
  2 17  1  0
  2  3  1  0
  3  4  1  0
  3 30  1  0
  3 31  1  0
  5  4  1  1
  4 32  1  0
  4 33  1  0
  5 14  1  0
  5 24  1  0
  5  6  1  0
  6 12  2  0
  6  7  1  0
  7 26  1  0
  7  8  2  0
  8  9  1  0
  8 34  1  0
  9 10  2  0
  9 35  1  0
 10 11  1  0
 10 12  1  0
 11 36  1  0
 12 13  1  0
 13 14  1  0
 14 15  1  0
 14 37  1  6
 15 16  1  0
 15 17  1  0
 15 38  1  6
 16 39  1  0
 17 18  1  0
 17 40  1  1
 18 24  1  0
 18 19  2  0
 19 20  1  0
 19 41  1  0
 20 21  1  0
 20 42  1  0
 20 43  1  0
 21 22  1  0
 21 23  1  0
 21 44  1  1
 22 45  1  0
 24 23  1  6
 23 46  1  0
 23 47  1  0
 24 25  1  0
 25 26  1  0
 25 48  1  0
 25 49  1  0
 26 50  1  0
 26 51  1  0
M  END
>  <i_m_ct_stereo_status>  (295) 
1

>  <s_m_source_file>  (295) 
/var/tmp/pbs.5076255.sched01/tmp361ftg5n/90jpawypyp.sdf

>  <i_m_source_file_index>  (295) 
32

>  <i_lp_mmshare_version>  (295) 
48012

>  <i_f3d_flags>  (295) 
0

>  <s_epik_input>  (295) 
W09IXVtDQEBIXShbQ0gyXTEpW0NIMl1bQ0hdPUMoW0NAQF0xMltDQF0zNDUpW0NASF0oTihbQ0gzXSlbQ0gyXVtDSDJdMylbQ0BIXShbT0hdKVtDQEhdNU9jNmM0YyhbQ0gyXVtDSDJdMilbY0hdW2NIXWM2W09IXQ==

>  <s_epik_cmdline>  (295) 
J2VwaWtfcHl0aG9uJywgJy1waHQnLCAnMi4wJywgJy1waCcsICc3LjAnLCAnLXRuJywgJzgnLCAnLW1hJywgJzIwMCcsICctaW1hZScsICc8aW5maWxlLm1hZT4nLCAnLW9tYWUnLCAnPG91dGZpbGUubWFlPic=

>  <r_lp_tautomer_probability>  (295) 
1

>  <r_epik_Ionization_Penalty>  (295) 
1.52636

>  <r_epik_Ionization_Penalty_Charging>  (295) 
0

>  <r_epik_Ionization_Penalty_Neutral>  (295) 
1.52636

>  <r_epik_State_Penalty>  (295) 
1.61651

>  <r_epik_Charging_Adjusted_Penalty>  (295) 
1.61651

>  <i_epik_Tot_Q>  (295) 
0

>  <i_epik_Tot_abs_Q>  (295) 
0

>  <s_lp_Force_Field>  (295) 
OPLS3e

>  <r_lp_Energy>  (295) 
73.7477

>  <b_lp_Chiralities_Consistent>  (295) 
1

>  <s_lp_Variant>  (295) 
78:0-2

>  <s_i_glide_gridfile>  (295) 
pfpi4k_grid

>  <i_i_glide_lignum>  (295) 
32

>  <i_i_glide_rotatable_bonds>  (295) 
3

>  <r_i_docking_score>  (295) 
-3.09623

>  <r_i_glide_ligand_efficiency>  (295) 
-0.119086

>  <r_i_glide_ligand_efficiency_sa>  (295) 
-0.352791

>  <r_i_glide_ligand_efficiency_ln>  (295) 
-0.72714

>  <r_i_glide_gscore>  (295) 
-3.09623

>  <r_i_glide_lipo>  (295) 
-0.370028

>  <r_i_glide_hbond>  (295) 
0

>  <r_i_glide_metal>  (295) 
-0

>  <r_i_glide_rewards>  (295) 
-0.985722

>  <r_i_glide_evdw>  (295) 
-23.9933

>  <r_i_glide_ecoul>  (295) 
-3.60543

>  <r_i_glide_erotb>  (295) 
0

>  <r_i_glide_esite>  (295) 
0

>  <r_i_glide_emodel>  (295) 
-32.3982

>  <r_i_glide_energy>  (295) 
-27.5988

>  <r_i_glide_einternal>  (295) 
0.43278

>  <r_i_glide_intrahb_reward>  (295) 
-0

>  <i_i_glide_confnum>  (295) 
2

>  <i_i_glide_posenum>  (295) 
33

>  <r_i_glide_eff_state_penalty>  (295) 
0

>  <ligand_id>  (295) 
78

>  <original_smiles>  (295) 
CN1CCC23c4c5ccc(O)c4OC2C(O)C1C1=CCC(O)CC13CC5

>  <smiles>  (295) 
[H]Oc1c([H])c([H])c2c3c1OC1([H])C([H])(O[H])C4([H])C5=C([H])C([H])([H])C([H])(O[H])C([H])([H])C5(C([H])([H])C2([H])[H])C31C([H])([H])C([H])([H])N4C([H])([H])[H]

$$$$
78:1:1
     RDKit          3D

 51 56  0  0  1  0  0  0  0  0999 V2000
    4.4641   -5.3398    4.9192 C   0  0  0  0  0  0  0  0  0  0  0  0
    4.2679   -5.0065    3.5075 N   0  0  0  0  0  0  0  0  0  0  0  0
    5.5191   -4.4757    2.9563 C   0  0  0  0  0  0  0  0  0  0  0  0
    5.5270   -4.0708    1.4647 C   0  0  0  0  0  0  0  0  0  0  0  0
    4.2590   -3.2809    1.0025 C   0  0  1  0  0  0  0  0  0  0  0  0
    4.3551   -2.6816   -0.3491 C   0  0  0  0  0  0  0  0  0  0  0  0
    5.1818   -1.5933   -0.6499 C   0  0  0  0  0  0  0  0  0  0  0  0
    5.0201   -1.0496   -1.9390 C   0  0  0  0  0  0  0  0  0  0  0  0
    4.0657   -1.5946   -2.8324 C   0  0  0  0  0  0  0  0  0  0  0  0
    3.1979   -2.6303   -2.4186 C   0  0  0  0  0  0  0  0  0  0  0  0
    2.2226   -3.0590   -3.2700 O   0  0  0  0  0  0  0  0  0  0  0  0
    3.3269   -3.1857   -1.1264 C   0  0  0  0  0  0  0  0  0  0  0  0
    2.4918   -4.0420   -0.4525 O   0  0  0  0  0  0  0  0  0  0  0  0
    3.1469   -4.3526    0.7893 C   0  0  2  0  0  0  0  0  0  0  0  0
    2.2711   -4.4742    2.0506 C   0  0  1  0  0  0  0  0  0  0  0  0
    1.7179   -5.7744    2.1419 O   0  0  0  0  0  0  0  0  0  0  0  0
    3.0859   -4.1323    3.3293 C   0  0  2  0  0  0  0  0  0  0  0  0
    3.4020   -2.6269    3.2864 C   0  0  0  0  0  0  0  0  0  0  0  0
    2.9027   -1.7922    4.2165 C   0  0  0  0  0  0  0  0  0  0  0  0
    2.7622   -0.3127    3.9442 C   0  0  0  0  0  0  0  0  0  0  0  0
    2.2589   -0.0777    2.4980 C   0  0  1  0  0  0  0  0  0  0  0  0
    2.5945    1.2351    2.0928 O   0  0  0  0  0  0  0  0  0  0  0  0
    2.7502   -1.1218    1.4505 C   0  0  0  0  0  0  0  0  0  0  0  0
    3.9008   -2.0745    1.9392 C   0  0  2  0  0  0  0  0  0  0  0  0
    5.2015   -1.1995    1.9664 C   0  0  0  0  0  0  0  0  0  0  0  0
    5.8997   -1.0000    0.5741 C   0  0  0  0  0  0  0  0  0  0  0  0
    5.3042   -6.0274    5.0516 H   0  0  0  0  0  0  0  0  0  0  0  0
    3.5811   -5.8307    5.3363 H   0  0  0  0  0  0  0  0  0  0  0  0
    4.6642   -4.4476    5.5170 H   0  0  0  0  0  0  0  0  0  0  0  0
    5.8181   -3.6242    3.5615 H   0  0  0  0  0  0  0  0  0  0  0  0
    6.3106   -5.2164    3.0873 H   0  0  0  0  0  0  0  0  0  0  0  0
    6.4418   -3.5074    1.2827 H   0  0  0  0  0  0  0  0  0  0  0  0
    5.6572   -4.9629    0.8556 H   0  0  0  0  0  0  0  0  0  0  0  0
    5.5623   -0.1693   -2.2368 H   0  0  0  0  0  0  0  0  0  0  0  0
    3.9313   -1.1482   -3.8025 H   0  0  0  0  0  0  0  0  0  0  0  0
    1.7190   -3.7780   -2.9128 H   0  0  0  0  0  0  0  0  0  0  0  0
    3.6053   -5.3268    0.5932 H   0  0  0  0  0  0  0  0  0  0  0  0
    1.4446   -3.7712    2.0111 H   0  0  0  0  0  0  0  0  0  0  0  0
    2.4334   -6.3926    2.2202 H   0  0  0  0  0  0  0  0  0  0  0  0
    2.4047   -4.2914    4.1663 H   0  0  0  0  0  0  0  0  0  0  0  0
    2.4364   -2.1652    5.1171 H   0  0  0  0  0  0  0  0  0  0  0  0
    2.0615    0.1239    4.6544 H   0  0  0  0  0  0  0  0  0  0  0  0
    3.7221    0.1690    4.1265 H   0  0  0  0  0  0  0  0  0  0  0  0
    1.1669   -0.1237    2.5082 H   0  0  0  0  0  0  0  0  0  0  0  0
    2.0234    1.8515    2.5301 H   0  0  0  0  0  0  0  0  0  0  0  0
    1.8857   -1.7343    1.2105 H   0  0  0  0  0  0  0  0  0  0  0  0
    2.9791   -0.6111    0.5148 H   0  0  0  0  0  0  0  0  0  0  0  0
    4.9891   -0.2111    2.3635 H   0  0  0  0  0  0  0  0  0  0  0  0
    5.9294   -1.6093    2.6631 H   0  0  0  0  0  0  0  0  0  0  0  0
    6.9151   -1.3990    0.6080 H   0  0  0  0  0  0  0  0  0  0  0  0
    6.0102    0.0693    0.3970 H   0  0  0  0  0  0  0  0  0  0  0  0
  1  2  1  0
  1 27  1  0
  1 28  1  0
  1 29  1  0
  2 17  1  0
  2  3  1  0
  3  4  1  0
  3 30  1  0
  3 31  1  0
  5  4  1  1
  4 32  1  0
  4 33  1  0
  5 14  1  0
  5 24  1  0
  5  6  1  0
  6 12  2  0
  6  7  1  0
  7 26  1  0
  7  8  2  0
  8  9  1  0
  8 34  1  0
  9 10  2  0
  9 35  1  0
 10 11  1  0
 10 12  1  0
 11 36  1  0
 12 13  1  0
 13 14  1  0
 14 15  1  0
 14 37  1  6
 15 16  1  0
 15 17  1  0
 15 38  1  6
 16 39  1  0
 17 18  1  0
 17 40  1  1
 18 24  1  0
 18 19  2  0
 19 20  1  0
 19 41  1  0
 20 21  1  0
 20 42  1  0
 20 43  1  0
 21 22  1  0
 21 23  1  0
 21 44  1  1
 22 45  1  0
 24 23  1  6
 23 46  1  0
 23 47  1  0
 24 25  1  0
 25 26  1  0
 25 48  1  0
 25 49  1  0
 26 50  1  0
 26 51  1  0
M  END
>  <i_m_ct_stereo_status>  (296) 
1

>  <s_m_source_file>  (296) 
/var/tmp/pbs.5076255.sched01/tmp361ftg5n/90jpawypyp.sdf

>  <i_m_source_file_index>  (296) 
32

>  <i_lp_mmshare_version>  (296) 
48012

>  <i_f3d_flags>  (296) 
0

>  <s_epik_input>  (296) 
W09IXVtDQEBIXShbQ0gyXTEpW0NIMl1bQ0hdPUMoW0NAQF0xMltDQF0zNDUpW0NASF0oTihbQ0gzXSlbQ0gyXVtDSDJdMylbQ0BIXShbT0hdKVtDQEhdNU9jNmM0YyhbQ0gyXVtDSDJdMilbY0hdW2NIXWM2W09IXQ==

>  <s_epik_cmdline>  (296) 
J2VwaWtfcHl0aG9uJywgJy1waHQnLCAnMi4wJywgJy1waCcsICc3LjAnLCAnLXRuJywgJzgnLCAnLW1hJywgJzIwMCcsICctaW1hZScsICc8aW5maWxlLm1hZT4nLCAnLW9tYWUnLCAnPG91dGZpbGUubWFlPic=

>  <r_lp_tautomer_probability>  (296) 
1

>  <r_epik_Ionization_Penalty>  (296) 
1.52636

>  <r_epik_Ionization_Penalty_Charging>  (296) 
0

>  <r_epik_Ionization_Penalty_Neutral>  (296) 
1.52636

>  <r_epik_State_Penalty>  (296) 
1.61651

>  <r_epik_Charging_Adjusted_Penalty>  (296) 
1.61651

>  <i_epik_Tot_Q>  (296) 
0

>  <i_epik_Tot_abs_Q>  (296) 
0

>  <s_lp_Force_Field>  (296) 
OPLS3e

>  <r_lp_Energy>  (296) 
73.7477

>  <b_lp_Chiralities_Consistent>  (296) 
1

>  <s_lp_Variant>  (296) 
78:0-2

>  <s_i_glide_gridfile>  (296) 
pfpi4k_grid

>  <i_i_glide_lignum>  (296) 
32

>  <i_i_glide_rotatable_bonds>  (296) 
3

>  <r_i_docking_score>  (296) 
-3.01931

>  <r_i_glide_ligand_efficiency>  (296) 
-0.116127

>  <r_i_glide_ligand_efficiency_sa>  (296) 
-0.344026

>  <r_i_glide_ligand_efficiency_ln>  (296) 
-0.709074

>  <r_i_glide_gscore>  (296) 
-3.01931

>  <r_i_glide_lipo>  (296) 
-0.341619

>  <r_i_glide_hbond>  (296) 
0

>  <r_i_glide_metal>  (296) 
-0

>  <r_i_glide_rewards>  (296) 
-0.985722

>  <r_i_glide_evdw>  (296) 
-24.5258

>  <r_i_glide_ecoul>  (296) 
-3.10451

>  <r_i_glide_erotb>  (296) 
0

>  <r_i_glide_esite>  (296) 
0

>  <r_i_glide_emodel>  (296) 
-32.2371

>  <r_i_glide_energy>  (296) 
-27.6303

>  <r_i_glide_einternal>  (296) 
0.490168

>  <r_i_glide_intrahb_reward>  (296) 
-0

>  <i_i_glide_confnum>  (296) 
1

>  <i_i_glide_posenum>  (296) 
5

>  <r_i_glide_eff_state_penalty>  (296) 
0

>  <ligand_id>  (296) 
78

>  <original_smiles>  (296) 
CN1CCC23c4c5ccc(O)c4OC2C(O)C1C1=CCC(O)CC13CC5

>  <smiles>  (296) 
[H]Oc1c([H])c([H])c2c3c1OC1([H])C([H])(O[H])C4([H])C5=C([H])C([H])([H])C([H])(O[H])C([H])([H])C5(C([H])([H])C2([H])[H])C31C([H])([H])C([H])([H])N4C([H])([H])[H]

$$$$
78:1:2
     RDKit          3D

 51 56  0  0  1  0  0  0  0  0999 V2000
    4.8551   -5.8129    4.2492 C   0  0  0  0  0  0  0  0  0  0  0  0
    4.5560   -5.3328    2.8994 N   0  0  0  0  0  0  0  0  0  0  0  0
    5.7542   -4.7072    2.3239 C   0  0  0  0  0  0  0  0  0  0  0  0
    5.6431   -4.1432    0.8889 C   0  0  0  0  0  0  0  0  0  0  0  0
    4.3256   -3.3486    0.6028 C   0  0  1  0  0  0  0  0  0  0  0  0
    4.3118   -2.6009   -0.6771 C   0  0  0  0  0  0  0  0  0  0  0  0
    5.0905   -1.4660   -0.9093 C   0  0  0  0  0  0  0  0  0  0  0  0
    4.8288   -0.7868   -2.1159 C   0  0  0  0  0  0  0  0  0  0  0  0
    3.8276   -1.2591   -3.0023 C   0  0  0  0  0  0  0  0  0  0  0  0
    3.0213   -2.3678   -2.6548 C   0  0  0  0  0  0  0  0  0  0  0  0
    2.0251   -2.7613   -3.4943 O   0  0  0  0  0  0  0  0  0  0  0  0
    3.2412   -3.0476   -1.4327 C   0  0  0  0  0  0  0  0  0  0  0  0
    2.4688   -3.9786   -0.7875 O   0  0  0  0  0  0  0  0  0  0  0  0
    3.2305   -4.4258    0.3462 C   0  0  2  0  0  0  0  0  0  0  0  0
    2.4544   -4.7199    1.6397 C   0  0  1  0  0  0  0  0  0  0  0  0
    1.9322   -6.0340    1.6286 O   0  0  0  0  0  0  0  0  0  0  0  0
    3.3405   -4.4898    2.8954 C   0  0  2  0  0  0  0  0  0  0  0  0
    3.6116   -2.9797    2.9964 C   0  0  0  0  0  0  0  0  0  0  0  0
    3.1588   -2.2677    4.0439 C   0  0  0  0  0  0  0  0  0  0  0  0
    2.9606   -0.7722    3.9434 C   0  0  0  0  0  0  0  0  0  0  0  0
    2.3465   -0.4053    2.5677 C   0  0  1  0  0  0  0  0  0  0  0  0
    2.5999    0.9535    2.2815 O   0  0  0  0  0  0  0  0  0  0  0  0
    2.7901   -1.3105    1.3812 C   0  0  0  0  0  0  0  0  0  0  0  0
    3.9996   -2.2675    1.6883 C   0  0  2  0  0  0  0  0  0  0  0  0
    5.2740   -1.3561    1.7273 C   0  0  0  0  0  0  0  0  0  0  0  0
    5.8706   -0.9843    0.3248 C   0  0  0  0  0  0  0  0  0  0  0  0
    5.7168   -6.4844    4.2467 H   0  0  0  0  0  0  0  0  0  0  0  0
    4.0152   -6.3761    4.6632 H   0  0  0  0  0  0  0  0  0  0  0  0
    5.0714   -4.9870    4.9287 H   0  0  0  0  0  0  0  0  0  0  0  0
    6.1008   -3.9229    2.9915 H   0  0  0  0  0  0  0  0  0  0  0  0
    6.5635   -5.4383    2.3181 H   0  0  0  0  0  0  0  0  0  0  0  0
    6.5275   -3.5342    0.7102 H   0  0  0  0  0  0  0  0  0  0  0  0
    5.7521   -4.9613    0.1795 H   0  0  0  0  0  0  0  0  0  0  0  0
    5.3431    0.1367   -2.3232 H   0  0  0  0  0  0  0  0  0  0  0  0
    3.6219   -0.7057   -3.9056 H   0  0  0  0  0  0  0  0  0  0  0  0
    1.8482   -2.1566   -4.1977 H   0  0  0  0  0  0  0  0  0  0  0  0
    3.6904   -5.3573    0.0031 H   0  0  0  0  0  0  0  0  0  0  0  0
    1.6123   -4.0427    1.7107 H   0  0  0  0  0  0  0  0  0  0  0  0
    2.6600   -6.6389    1.5967 H   0  0  0  0  0  0  0  0  0  0  0  0
    2.7198   -4.7619    3.7509 H   0  0  0  0  0  0  0  0  0  0  0  0
    2.7655   -2.7479    4.9275 H   0  0  0  0  0  0  0  0  0  0  0  0
    2.2965   -0.4378    4.7392 H   0  0  0  0  0  0  0  0  0  0  0  0
    3.9142   -0.2753    4.1164 H   0  0  0  0  0  0  0  0  0  0  0  0
    1.2606   -0.4901    2.6585 H   0  0  0  0  0  0  0  0  0  0  0  0
    2.0340    1.2155    1.5687 H   0  0  0  0  0  0  0  0  0  0  0  0
    1.9258   -1.9203    1.1280 H   0  0  0  0  0  0  0  0  0  0  0  0
    2.9442   -0.6953    0.4952 H   0  0  0  0  0  0  0  0  0  0  0  0
    5.0652   -0.4239    2.2453 H   0  0  0  0  0  0  0  0  0  0  0  0
    6.0599   -1.8147    2.3244 H   0  0  0  0  0  0  0  0  0  0  0  0
    6.8946   -1.3527    0.2476 H   0  0  0  0  0  0  0  0  0  0  0  0
    5.9425    0.1028    0.2610 H   0  0  0  0  0  0  0  0  0  0  0  0
  1  2  1  0
  1 27  1  0
  1 28  1  0
  1 29  1  0
  2 17  1  0
  2  3  1  0
  3  4  1  0
  3 30  1  0
  3 31  1  0
  5  4  1  1
  4 32  1  0
  4 33  1  0
  5 14  1  0
  5 24  1  0
  5  6  1  0
  6 12  2  0
  6  7  1  0
  7 26  1  0
  7  8  2  0
  8  9  1  0
  8 34  1  0
  9 10  2  0
  9 35  1  0
 10 11  1  0
 10 12  1  0
 11 36  1  0
 12 13  1  0
 13 14  1  0
 14 15  1  0
 14 37  1  6
 15 16  1  0
 15 17  1  0
 15 38  1  1
 16 39  1  0
 17 18  1  0
 17 40  1  1
 18 24  1  0
 18 19  2  0
 19 20  1  0
 19 41  1  0
 20 21  1  0
 20 42  1  0
 20 43  1  0
 21 22  1  0
 21 23  1  0
 21 44  1  1
 22 45  1  0
 24 23  1  6
 23 46  1  0
 23 47  1  0
 24 25  1  0
 25 26  1  0
 25 48  1  0
 25 49  1  0
 26 50  1  0
 26 51  1  0
M  END
>  <i_m_ct_stereo_status>  (297) 
1

>  <s_m_source_file>  (297) 
/var/tmp/pbs.5076255.sched01/tmp361ftg5n/90jpawypyp.sdf

>  <i_m_source_file_index>  (297) 
32

>  <i_lp_mmshare_version>  (297) 
48012

>  <i_f3d_flags>  (297) 
0

>  <s_epik_input>  (297) 
W09IXVtDQEBIXShbQ0gyXTEpW0NIMl1bQ0hdPUMoW0NAQF0xMltDQF0zNDUpW0NASF0oTihbQ0gzXSlbQ0gyXVtDSDJdMylbQ0BIXShbT0hdKVtDQEhdNU9jNmM0YyhbQ0gyXVtDSDJdMilbY0hdW2NIXWM2W09IXQ==

>  <s_epik_cmdline>  (297) 
J2VwaWtfcHl0aG9uJywgJy1waHQnLCAnMi4wJywgJy1waCcsICc3LjAnLCAnLXRuJywgJzgnLCAnLW1hJywgJzIwMCcsICctaW1hZScsICc8aW5maWxlLm1hZT4nLCAnLW9tYWUnLCAnPG91dGZpbGUubWFlPic=

>  <r_lp_tautomer_probability>  (297) 
1

>  <r_epik_Ionization_Penalty>  (297) 
1.52636

>  <r_epik_Ionization_Penalty_Charging>  (297) 
0

>  <r_epik_Ionization_Penalty_Neutral>  (297) 
1.52636

>  <r_epik_State_Penalty>  (297) 
1.61651

>  <r_epik_Charging_Adjusted_Penalty>  (297) 
1.61651

>  <i_epik_Tot_Q>  (297) 
0

>  <i_epik_Tot_abs_Q>  (297) 
0

>  <s_lp_Force_Field>  (297) 
OPLS3e

>  <r_lp_Energy>  (297) 
73.7477

>  <b_lp_Chiralities_Consistent>  (297) 
1

>  <s_lp_Variant>  (297) 
78:0-2

>  <s_i_glide_gridfile>  (297) 
pfpi4k_grid

>  <i_i_glide_lignum>  (297) 
32

>  <i_i_glide_rotatable_bonds>  (297) 
3

>  <r_i_docking_score>  (297) 
-2.50034

>  <r_i_glide_ligand_efficiency>  (297) 
-0.0961671

>  <r_i_glide_ligand_efficiency_sa>  (297) 
-0.284895

>  <r_i_glide_ligand_efficiency_ln>  (297) 
-0.587198

>  <r_i_glide_gscore>  (297) 
-2.50034

>  <r_i_glide_lipo>  (297) 
-0.327982

>  <r_i_glide_hbond>  (297) 
0

>  <r_i_glide_metal>  (297) 
-0

>  <r_i_glide_rewards>  (297) 
-0.985722

>  <r_i_glide_evdw>  (297) 
-23.7731

>  <r_i_glide_ecoul>  (297) 
0.013442

>  <r_i_glide_erotb>  (297) 
0

>  <r_i_glide_esite>  (297) 
0

>  <r_i_glide_emodel>  (297) 
-27.5751

>  <r_i_glide_energy>  (297) 
-23.7597

>  <r_i_glide_einternal>  (297) 
0.391626

>  <r_i_glide_intrahb_reward>  (297) 
-0

>  <i_i_glide_confnum>  (297) 
2

>  <i_i_glide_posenum>  (297) 
12

>  <r_i_glide_eff_state_penalty>  (297) 
0

>  <ligand_id>  (297) 
78

>  <original_smiles>  (297) 
CN1CCC23c4c5ccc(O)c4OC2C(O)C1C1=CCC(O)CC13CC5

>  <smiles>  (297) 
[H]Oc1c([H])c([H])c2c3c1OC1([H])C([H])(O[H])C4([H])C5=C([H])C([H])([H])C([H])(O[H])C([H])([H])C5(C([H])([H])C2([H])[H])C31C([H])([H])C([H])([H])N4C([H])([H])[H]

$$$$
79:0:0
     RDKit          3D

 29 32  0  0  1  0  0  0  0  0999 V2000
    4.3892   -9.4518    1.2484 N   0  0  0  0  0  0  0  0  0  0  0  0
    5.2402   -8.4072    1.3147 C   0  0  0  0  0  0  0  0  0  0  0  0
    6.5500   -8.6301    1.5409 N   0  0  0  0  0  0  0  0  0  0  0  0
    7.3899   -7.5849    1.6135 C   0  0  0  0  0  0  0  0  0  0  0  0
    7.1279   -6.2797    1.4812 N   0  0  0  0  0  0  0  0  0  0  0  0
    5.7936   -6.0627    1.2491 C   0  0  0  0  0  0  0  0  0  0  0  0
    4.7914   -7.0786    1.1460 C   0  0  0  0  0  0  0  0  0  0  0  0
    3.5511   -6.5109    0.8837 N   0  0  0  0  0  0  0  0  0  0  0  0
    3.8058   -5.2296    0.8385 C   0  0  0  0  0  0  0  0  0  0  0  0
    5.1244   -4.8507    1.0596 N   0  0  0  0  0  0  0  0  0  0  0  0
    5.7175   -3.4656    1.0219 C   0  0  2  0  0  0  0  0  0  0  0  0
    4.7996   -2.5903    1.6237 O   0  0  0  0  0  0  0  0  0  0  0  0
    3.9595   -1.9260    0.6678 C   0  0  1  0  0  0  0  0  0  0  0  0
    3.6229   -0.4523    0.9926 C   0  0  0  0  0  0  0  0  0  0  0  0
    2.2430   -0.3302    1.3357 O   0  0  0  0  0  0  0  0  0  0  0  0
    4.6763   -2.1171   -0.6384 C   0  0  1  0  0  0  0  0  0  0  0  0
    6.0458   -1.6788   -0.7019 O   0  0  0  0  0  0  0  0  0  0  0  0
    5.7870   -3.0649   -0.4178 C   0  0  1  0  0  0  0  0  0  0  0  0
    4.6967  -10.4078    1.2846 H   0  0  0  0  0  0  0  0  0  0  0  0
    3.4233   -9.2539    1.0592 H   0  0  0  0  0  0  0  0  0  0  0  0
    8.4289   -7.8510    1.7904 H   0  0  0  0  0  0  0  0  0  0  0  0
    3.0003   -4.5525    0.6204 H   0  0  0  0  0  0  0  0  0  0  0  0
    6.6698   -3.5098    1.5578 H   0  0  0  0  0  0  0  0  0  0  0  0
    3.0146   -2.4522    0.5834 H   0  0  0  0  0  0  0  0  0  0  0  0
    4.2340   -0.0519    1.8039 H   0  0  0  0  0  0  0  0  0  0  0  0
    3.8256    0.1606    0.1132 H   0  0  0  0  0  0  0  0  0  0  0  0
    1.7014   -0.5709    0.5727 H   0  0  0  0  0  0  0  0  0  0  0  0
    4.1350   -2.1099   -1.5790 H   0  0  0  0  0  0  0  0  0  0  0  0
    6.0288   -3.7820   -1.2016 H   0  0  0  0  0  0  0  0  0  0  0  0
  1  2  1  0
  1 20  1  0
  1 19  1  0
  2  3  2  0
  2  7  1  0
  3  4  1  0
  4 21  1  0
  4  5  2  0
  5  6  1  0
  6 10  1  0
  6  7  2  0
  7  8  1  0
  8  9  2  0
  9 22  1  0
  9 10  1  0
 10 11  1  0
 11 18  1  0
 11 12  1  0
 11 23  1  1
 12 13  1  0
 13 14  1  0
 13 16  1  0
 13 24  1  6
 14 15  1  0
 14 25  1  0
 14 26  1  0
 15 27  1  0
 16 18  1  0
 16 17  1  0
 16 28  1  6
 17 18  1  0
 18 29  1  6
M  END
>  <i_m_ct_stereo_status>  (298) 
1

>  <s_m_source_file>  (298) 
/var/tmp/pbs.5076255.sched01/tmp361ftg5n/90jpawypyp.sdf

>  <i_m_source_file_index>  (298) 
33

>  <i_lp_mmshare_version>  (298) 
48012

>  <i_f3d_flags>  (298) 
0

>  <s_epik_input>  (298) 
bjFbY0hdW25IXVxjKD1OXFtIXSljKGMxMiluW2NIXW4yW0NAQEhdKFtDQEhdKE8zKVtDQEhdMzQpT1tDQEhdNFtDSDJdW09IXQ==

>  <s_epik_cmdline>  (298) 
J2VwaWtfcHl0aG9uJywgJy1waHQnLCAnMi4wJywgJy1waCcsICc3LjAnLCAnLXRuJywgJzgnLCAnLW1hJywgJzIwMCcsICctaW1hZScsICc8aW5maWxlLm1hZT4nLCAnLW9tYWUnLCAnPG91dGZpbGUubWFlPic=

>  <r_lp_tautomer_probability>  (298) 
1

>  <r_epik_Ionization_Penalty>  (298) 
0.000546583

>  <r_epik_Ionization_Penalty_Charging>  (298) 
0

>  <r_epik_Ionization_Penalty_Neutral>  (298) 
0.000546583

>  <r_epik_State_Penalty>  (298) 
-0

>  <r_epik_Charging_Adjusted_Penalty>  (298) 
0

>  <i_epik_Tot_Q>  (298) 
0

>  <i_epik_Tot_abs_Q>  (298) 
0

>  <s_epik_Chemistry_Notes>  (298) 
This compound contains an acetal/aminal-like group ( X-CH(R)-Y where X, Y are N, S, or O) that may be acid/base labile, releasing an aldehyde.

>  <s_lp_Force_Field>  (298) 
OPLS3e

>  <r_lp_Energy>  (298) 
12.7537

>  <b_lp_Chiralities_Consistent>  (298) 
1

>  <s_lp_Variant>  (298) 
79:0-1

>  <s_i_glide_gridfile>  (298) 
pfpi4k_grid

>  <i_i_glide_lignum>  (298) 
33

>  <i_i_glide_rotatable_bonds>  (298) 
3

>  <r_i_docking_score>  (298) 
-4.00268

>  <r_i_glide_ligand_efficiency>  (298) 
-0.222371

>  <r_i_glide_ligand_efficiency_sa>  (298) 
-0.582777

>  <r_i_glide_ligand_efficiency_ln>  (298) 
-1.02887

>  <r_i_glide_gscore>  (298) 
-4.00268

>  <r_i_glide_lipo>  (298) 
-0.187236

>  <r_i_glide_hbond>  (298) 
-0.152947

>  <r_i_glide_metal>  (298) 
-0

>  <r_i_glide_rewards>  (298) 
-2.00725

>  <r_i_glide_evdw>  (298) 
-18.34

>  <r_i_glide_ecoul>  (298) 
-8.13156

>  <r_i_glide_erotb>  (298) 
0.562984

>  <r_i_glide_esite>  (298) 
-0.0814942

>  <r_i_glide_emodel>  (298) 
-32.9064

>  <r_i_glide_energy>  (298) 
-26.4716

>  <r_i_glide_einternal>  (298) 
1.51368

>  <r_i_glide_intrahb_reward>  (298) 
-0

>  <i_i_glide_confnum>  (298) 
5

>  <i_i_glide_posenum>  (298) 
37

>  <r_i_glide_eff_state_penalty>  (298) 
0

>  <ligand_id>  (298) 
79

>  <original_smiles>  (298) 
N=c1[nH]cnc2c1ncn2C1OC(CO)C2OC21

>  <smiles>  (298) 
[H]OC([H])([H])C1([H])OC([H])(n2c([H])nc3c(N([H])[H])nc([H])nc32)C2([H])OC12[H]

$$$$
79:0:1
     RDKit          3D

 29 32  0  0  1  0  0  0  0  0999 V2000
   -0.0711   -8.0634    2.7095 N   0  0  0  0  0  0  0  0  0  0  0  0
    0.9870   -7.2305    2.8236 C   0  0  0  0  0  0  0  0  0  0  0  0
    1.6373   -7.1437    3.9906 N   0  0  0  0  0  0  0  0  0  0  0  0
    2.6663   -6.2955    4.1104 C   0  0  0  0  0  0  0  0  0  0  0  0
    3.1806   -5.4565    3.2021 N   0  0  0  0  0  0  0  0  0  0  0  0
    2.5115   -5.5617    2.0142 C   0  0  0  0  0  0  0  0  0  0  0  0
    1.4050   -6.4239    1.7449 C   0  0  0  0  0  0  0  0  0  0  0  0
    0.9596   -6.2698    0.4485 N   0  0  0  0  0  0  0  0  0  0  0  0
    1.8126   -5.3994   -0.0480 C   0  0  0  0  0  0  0  0  0  0  0  0
    2.7390   -4.8631    0.8180 N   0  0  0  0  0  0  0  0  0  0  0  0
    3.8089   -3.8415    0.5237 C   0  0  2  0  0  0  0  0  0  0  0  0
    3.2341   -2.8299   -0.2577 O   0  0  0  0  0  0  0  0  0  0  0  0
    3.4543   -3.0009   -1.6642 C   0  0  1  0  0  0  0  0  0  0  0  0
    3.7305   -1.7115   -2.4749 C   0  0  0  0  0  0  0  0  0  0  0  0
    3.7197   -2.0163   -3.8692 O   0  0  0  0  0  0  0  0  0  0  0  0
    4.5593   -4.0048   -1.7288 C   0  0  1  0  0  0  0  0  0  0  0  0
    5.7586   -3.6735   -1.0082 O   0  0  0  0  0  0  0  0  0  0  0  0
    4.7943   -4.5204   -0.3601 C   0  0  1  0  0  0  0  0  0  0  0  0
   -0.2992   -8.6731    3.4646 H   0  0  0  0  0  0  0  0  0  0  0  0
   -0.4770   -8.1890    1.8012 H   0  0  0  0  0  0  0  0  0  0  0  0
    3.1434   -6.2864    5.0813 H   0  0  0  0  0  0  0  0  0  0  0  0
    1.6918   -5.0945   -1.0748 H   0  0  0  0  0  0  0  0  0  0  0  0
    4.1796   -3.4780    1.4824 H   0  0  0  0  0  0  0  0  0  0  0  0
    2.5576   -3.4345   -2.0947 H   0  0  0  0  0  0  0  0  0  0  0  0
    2.9541   -0.9664   -2.2894 H   0  0  0  0  0  0  0  0  0  0  0  0
    4.6933   -1.2703   -2.2059 H   0  0  0  0  0  0  0  0  0  0  0  0
    2.8376   -2.2798   -4.1109 H   0  0  0  0  0  0  0  0  0  0  0  0
    4.6982   -4.6504   -2.5892 H   0  0  0  0  0  0  0  0  0  0  0  0
    5.0628   -5.5706   -0.2405 H   0  0  0  0  0  0  0  0  0  0  0  0
  1  2  1  0
  1 20  1  0
  1 19  1  0
  2  3  2  0
  2  7  1  0
  3  4  1  0
  4 21  1  0
  4  5  2  0
  5  6  1  0
  6 10  1  0
  6  7  2  0
  7  8  1  0
  8  9  2  0
  9 22  1  0
  9 10  1  0
 10 11  1  0
 11 18  1  0
 11 12  1  0
 11 23  1  1
 12 13  1  0
 13 14  1  0
 13 16  1  0
 13 24  1  6
 14 15  1  0
 14 25  1  0
 14 26  1  0
 15 27  1  0
 16 18  1  0
 16 17  1  0
 16 28  1  6
 17 18  1  0
 18 29  1  6
M  END
>  <i_m_ct_stereo_status>  (299) 
1

>  <s_m_source_file>  (299) 
/var/tmp/pbs.5076255.sched01/tmp361ftg5n/90jpawypyp.sdf

>  <i_m_source_file_index>  (299) 
33

>  <i_lp_mmshare_version>  (299) 
48012

>  <i_f3d_flags>  (299) 
0

>  <s_epik_input>  (299) 
bjFbY0hdW25IXVxjKD1OXFtIXSljKGMxMiluW2NIXW4yW0NAQEhdKFtDQEhdKE8zKVtDQEhdMzQpT1tDQEhdNFtDSDJdW09IXQ==

>  <s_epik_cmdline>  (299) 
J2VwaWtfcHl0aG9uJywgJy1waHQnLCAnMi4wJywgJy1waCcsICc3LjAnLCAnLXRuJywgJzgnLCAnLW1hJywgJzIwMCcsICctaW1hZScsICc8aW5maWxlLm1hZT4nLCAnLW9tYWUnLCAnPG91dGZpbGUubWFlPic=

>  <r_lp_tautomer_probability>  (299) 
1

>  <r_epik_Ionization_Penalty>  (299) 
0.000546583

>  <r_epik_Ionization_Penalty_Charging>  (299) 
0

>  <r_epik_Ionization_Penalty_Neutral>  (299) 
0.000546583

>  <r_epik_State_Penalty>  (299) 
-0

>  <r_epik_Charging_Adjusted_Penalty>  (299) 
0

>  <i_epik_Tot_Q>  (299) 
0

>  <i_epik_Tot_abs_Q>  (299) 
0

>  <s_epik_Chemistry_Notes>  (299) 
This compound contains an acetal/aminal-like group ( X-CH(R)-Y where X, Y are N, S, or O) that may be acid/base labile, releasing an aldehyde.

>  <s_lp_Force_Field>  (299) 
OPLS3e

>  <r_lp_Energy>  (299) 
12.7537

>  <b_lp_Chiralities_Consistent>  (299) 
1

>  <s_lp_Variant>  (299) 
79:0-1

>  <s_i_glide_gridfile>  (299) 
pfpi4k_grid

>  <i_i_glide_lignum>  (299) 
33

>  <i_i_glide_rotatable_bonds>  (299) 
3

>  <r_i_docking_score>  (299) 
-3.80797

>  <r_i_glide_ligand_efficiency>  (299) 
-0.211554

>  <r_i_glide_ligand_efficiency_sa>  (299) 
-0.554428

>  <r_i_glide_ligand_efficiency_ln>  (299) 
-0.978818

>  <r_i_glide_gscore>  (299) 
-3.80797

>  <r_i_glide_lipo>  (299) 
-0.00740525

>  <r_i_glide_hbond>  (299) 
-0.287334

>  <r_i_glide_metal>  (299) 
-0

>  <r_i_glide_rewards>  (299) 
-1.71772

>  <r_i_glide_evdw>  (299) 
-17.8564

>  <r_i_glide_ecoul>  (299) 
-8.52049

>  <r_i_glide_erotb>  (299) 
0.562984

>  <r_i_glide_esite>  (299) 
-0.187594

>  <r_i_glide_emodel>  (299) 
-32.7183

>  <r_i_glide_energy>  (299) 
-26.3769

>  <r_i_glide_einternal>  (299) 
0.05184

>  <r_i_glide_intrahb_reward>  (299) 
-0

>  <i_i_glide_confnum>  (299) 
1

>  <i_i_glide_posenum>  (299) 
23

>  <r_i_glide_eff_state_penalty>  (299) 
0

>  <ligand_id>  (299) 
79

>  <original_smiles>  (299) 
N=c1[nH]cnc2c1ncn2C1OC(CO)C2OC21

>  <smiles>  (299) 
[H]OC([H])([H])C1([H])OC([H])(n2c([H])nc3c(N([H])[H])nc([H])nc32)C2([H])OC12[H]

$$$$
79:0:2
     RDKit          3D

 29 32  0  0  1  0  0  0  0  0999 V2000
    2.9648   -9.8564    2.1369 N   0  0  0  0  0  0  0  0  0  0  0  0
    2.3334   -8.6870    2.0351 C   0  0  0  0  0  0  0  0  0  0  0  0
    1.0676   -8.5791    2.4848 N   0  0  0  0  0  0  0  0  0  0  0  0
    0.4192   -7.4174    2.3699 C   0  0  0  0  0  0  0  0  0  0  0  0
    0.8509   -6.2601    1.8423 N   0  0  0  0  0  0  0  0  0  0  0  0
    2.1445   -6.3710    1.3990 C   0  0  0  0  0  0  0  0  0  0  0  0
    2.9460   -7.5464    1.4622 C   0  0  0  0  0  0  0  0  0  0  0  0
    4.1984   -7.3181    0.9179 N   0  0  0  0  0  0  0  0  0  0  0  0
    4.1491   -6.0720    0.5475 C   0  0  0  0  0  0  0  0  0  0  0  0
    2.9651   -5.4077    0.8240 N   0  0  0  0  0  0  0  0  0  0  0  0
    2.6428   -3.9654    0.5695 C   0  0  2  0  0  0  0  0  0  0  0  0
    2.3665   -3.8119   -0.8081 O   0  0  0  0  0  0  0  0  0  0  0  0
    3.5419   -3.3952   -1.5341 C   0  0  1  0  0  0  0  0  0  0  0  0
    3.2564   -2.3785   -2.6608 C   0  0  0  0  0  0  0  0  0  0  0  0
    3.0113   -3.0547   -3.8790 O   0  0  0  0  0  0  0  0  0  0  0  0
    4.4538   -2.8327   -0.4754 C   0  0  1  0  0  0  0  0  0  0  0  0
    3.9187   -1.8074    0.3706 O   0  0  0  0  0  0  0  0  0  0  0  0
    3.8898   -3.1660    0.8352 C   0  0  1  0  0  0  0  0  0  0  0  0
    2.4803  -10.6650    2.4989 H   0  0  0  0  0  0  0  0  0  0  0  0
    3.8817   -9.9662    1.7277 H   0  0  0  0  0  0  0  0  0  0  0  0
   -0.5825   -7.4416    2.7785 H   0  0  0  0  0  0  0  0  0  0  0  0
    5.0085   -5.5918    0.0896 H   0  0  0  0  0  0  0  0  0  0  0  0
    1.8199   -3.6898    1.2210 H   0  0  0  0  0  0  0  0  0  0  0  0
    4.0525   -4.2660   -1.9319 H   0  0  0  0  0  0  0  0  0  0  0  0
    2.4541   -1.6729   -2.4212 H   0  0  0  0  0  0  0  0  0  0  0  0
    4.1501   -1.7795   -2.8447 H   0  0  0  0  0  0  0  0  0  0  0  0
    2.2490   -3.6075   -3.7665 H   0  0  0  0  0  0  0  0  0  0  0  0
    5.5367   -2.8277   -0.6186 H   0  0  0  0  0  0  0  0  0  0  0  0
    4.5568   -3.4339    1.6605 H   0  0  0  0  0  0  0  0  0  0  0  0
  1  2  1  0
  1 20  1  0
  1 19  1  0
  2  3  2  0
  2  7  1  0
  3  4  1  0
  4 21  1  0
  4  5  2  0
  5  6  1  0
  6 10  1  0
  6  7  2  0
  7  8  1  0
  8  9  2  0
  9 22  1  0
  9 10  1  0
 10 11  1  0
 11 18  1  0
 11 12  1  0
 11 23  1  1
 12 13  1  0
 13 14  1  0
 13 16  1  0
 13 24  1  6
 14 15  1  0
 14 25  1  0
 14 26  1  0
 15 27  1  0
 16 18  1  0
 16 17  1  0
 16 28  1  1
 17 18  1  0
 18 29  1  1
M  END
>  <i_m_ct_stereo_status>  (300) 
1

>  <s_m_source_file>  (300) 
/var/tmp/pbs.5076255.sched01/tmp361ftg5n/90jpawypyp.sdf

>  <i_m_source_file_index>  (300) 
33

>  <i_lp_mmshare_version>  (300) 
48012

>  <i_f3d_flags>  (300) 
0

>  <s_epik_input>  (300) 
bjFbY0hdW25IXVxjKD1OXFtIXSljKGMxMiluW2NIXW4yW0NAQEhdKFtDQEhdKE8zKVtDQEhdMzQpT1tDQEhdNFtDSDJdW09IXQ==

>  <s_epik_cmdline>  (300) 
J2VwaWtfcHl0aG9uJywgJy1waHQnLCAnMi4wJywgJy1waCcsICc3LjAnLCAnLXRuJywgJzgnLCAnLW1hJywgJzIwMCcsICctaW1hZScsICc8aW5maWxlLm1hZT4nLCAnLW9tYWUnLCAnPG91dGZpbGUubWFlPic=

>  <r_lp_tautomer_probability>  (300) 
1

>  <r_epik_Ionization_Penalty>  (300) 
0.000546583

>  <r_epik_Ionization_Penalty_Charging>  (300) 
0

>  <r_epik_Ionization_Penalty_Neutral>  (300) 
0.000546583

>  <r_epik_State_Penalty>  (300) 
-0

>  <r_epik_Charging_Adjusted_Penalty>  (300) 
0

>  <i_epik_Tot_Q>  (300) 
0

>  <i_epik_Tot_abs_Q>  (300) 
0

>  <s_epik_Chemistry_Notes>  (300) 
This compound contains an acetal/aminal-like group ( X-CH(R)-Y where X, Y are N, S, or O) that may be acid/base labile, releasing an aldehyde.

>  <s_lp_Force_Field>  (300) 
OPLS3e

>  <r_lp_Energy>  (300) 
12.7537

>  <b_lp_Chiralities_Consistent>  (300) 
1

>  <s_lp_Variant>  (300) 
79:0-1

>  <s_i_glide_gridfile>  (300) 
pfpi4k_grid

>  <i_i_glide_lignum>  (300) 
33

>  <i_i_glide_rotatable_bonds>  (300) 
3

>  <r_i_docking_score>  (300) 
-3.46592

>  <r_i_glide_ligand_efficiency>  (300) 
-0.192551

>  <r_i_glide_ligand_efficiency_sa>  (300) 
-0.504626

>  <r_i_glide_ligand_efficiency_ln>  (300) 
-0.890897

>  <r_i_glide_gscore>  (300) 
-3.46592

>  <r_i_glide_lipo>  (300) 
-0.0642959

>  <r_i_glide_hbond>  (300) 
-0.0992977

>  <r_i_glide_metal>  (300) 
-0

>  <r_i_glide_rewards>  (300) 
-1.85839

>  <r_i_glide_evdw>  (300) 
-22.1985

>  <r_i_glide_ecoul>  (300) 
-4.85952

>  <r_i_glide_erotb>  (300) 
0.562984

>  <r_i_glide_esite>  (300) 
-0.168068

>  <r_i_glide_emodel>  (300) 
-33.1624

>  <r_i_glide_energy>  (300) 
-27.058

>  <r_i_glide_einternal>  (300) 
0.816237

>  <r_i_glide_intrahb_reward>  (300) 
-0

>  <i_i_glide_confnum>  (300) 
5

>  <i_i_glide_posenum>  (300) 
26

>  <r_i_glide_eff_state_penalty>  (300) 
0

>  <ligand_id>  (300) 
79

>  <original_smiles>  (300) 
N=c1[nH]cnc2c1ncn2C1OC(CO)C2OC21

>  <smiles>  (300) 
[H]OC([H])([H])C1([H])OC([H])(n2c([H])nc3c(N([H])[H])nc([H])nc32)C2([H])OC12[H]

$$$$
80:0:0
     RDKit          3D

 34 37  0  0  1  0  0  0  0  0999 V2000
    4.9210   -6.3357    0.1315 N   0  0  0  0  0  0  0  0  0  0  0  0
    5.1227   -5.0088    0.0894 C   0  0  0  0  0  0  0  0  0  0  0  0
    4.6918   -4.3151   -0.9714 N   0  0  0  0  0  0  0  0  0  0  0  0
    5.0576   -2.9036   -1.1544 C   0  0  2  0  0  0  0  0  0  0  0  0
    4.1891   -2.3150   -2.2282 C   0  0  0  0  0  0  0  0  0  0  0  0
    3.2214   -2.9407   -2.9711 C   0  0  0  0  0  0  0  0  0  0  0  0
    2.5916   -2.0901   -3.9150 C   0  0  0  0  0  0  0  0  0  0  0  0
    3.0639   -0.8183   -3.8931 C   0  0  0  0  0  0  0  0  0  0  0  0
    4.2960   -0.6363   -2.6766 S   0  0  0  0  0  0  0  0  0  0  0  0
    6.5486   -2.9231   -1.5427 C   0  0  0  0  0  0  0  0  0  0  0  0
    7.2861   -2.6624   -0.2225 C   0  0  1  0  0  0  0  0  0  0  0  0
    6.4492   -1.5094    0.3268 C   0  0  0  0  0  0  0  0  0  0  0  0
    5.0437   -2.1176    0.2124 C   0  0  2  0  0  0  0  0  0  0  0  0
    4.9111   -3.0424    1.4434 C   0  0  0  0  0  0  0  0  0  0  0  0
    5.8057   -4.2778    1.2051 C   0  0  1  0  0  0  0  0  0  0  0  0
    5.8593   -5.0399    2.3890 O   0  0  0  0  0  0  0  0  0  0  0  0
    7.2445   -3.8675    0.7673 C   0  0  0  0  0  0  0  0  0  0  0  0
    4.4785   -6.8053   -0.6476 H   0  0  0  0  0  0  0  0  0  0  0  0
    4.1775   -4.7661   -1.7201 H   0  0  0  0  0  0  0  0  0  0  0  0
    2.8847   -3.9582   -2.8818 H   0  0  0  0  0  0  0  0  0  0  0  0
    1.7706   -2.4627   -4.5071 H   0  0  0  0  0  0  0  0  0  0  0  0
    2.7258    0.0342   -4.4655 H   0  0  0  0  0  0  0  0  0  0  0  0
    6.8594   -3.8482   -2.0215 H   0  0  0  0  0  0  0  0  0  0  0  0
    6.7742   -2.1261   -2.2549 H   0  0  0  0  0  0  0  0  0  0  0  0
    8.3213   -2.3700   -0.4008 H   0  0  0  0  0  0  0  0  0  0  0  0
    6.7381   -1.2150    1.3394 H   0  0  0  0  0  0  0  0  0  0  0  0
    6.5326   -0.6289   -0.3094 H   0  0  0  0  0  0  0  0  0  0  0  0
    4.2811   -1.3356    0.2486 H   0  0  0  0  0  0  0  0  0  0  0  0
    5.1840   -2.5233    2.3657 H   0  0  0  0  0  0  0  0  0  0  0  0
    3.8716   -3.3642    1.5594 H   0  0  0  0  0  0  0  0  0  0  0  0
    6.4323   -5.7804    2.2569 H   0  0  0  0  0  0  0  0  0  0  0  0
    7.7628   -4.7335    0.3499 H   0  0  0  0  0  0  0  0  0  0  0  0
    7.7983   -3.5802    1.6591 H   0  0  0  0  0  0  0  0  0  0  0  0
    5.2387   -6.8661    0.9341 H   0  0  0  0  0  0  0  0  0  0  0  0
  1  2  1  0
  1 18  1  0
  1 34  1  0
  2 15  1  0
  2  3  2  0
  3  4  1  0
  3 19  1  0
  4 13  1  0
  4  5  1  6
  4 10  1  0
  5  9  1  0
  5  6  2  0
  6  7  1  0
  6 20  1  0
  7  8  2  0
  7 21  1  0
  8  9  1  0
  8 22  1  0
 10 11  1  0
 10 23  1  0
 10 24  1  0
 11 17  1  0
 11 12  1  0
 11 25  1  6
 12 13  1  0
 12 26  1  0
 12 27  1  0
 13 14  1  0
 13 28  1  6
 14 15  1  0
 14 29  1  0
 14 30  1  0
 15 16  1  1
 15 17  1  0
 16 31  1  0
 17 32  1  0
 17 33  1  0
M  CHG  1   3   1
M  END
>  <i_m_ct_stereo_status>  (301) 
1

>  <s_m_source_file>  (301) 
/var/tmp/pbs.5076255.sched01/tmp361ftg5n/90jpawypyp.sdf

>  <i_m_source_file_index>  (301) 
34

>  <i_lp_mmshare_version>  (301) 
48012

>  <i_f3d_flags>  (301) 
0

>  <s_epik_input>  (301) 
W0hdL049QyhcW05IXTEpW0NAQF0oW0NIMl0yKShbT0hdKVtDSDJdW0NAQEhdKFtDSDJdMylbQ0gyXVtDQEhdMltDQF0xM2M0W2NIXVtjSF1bY0hdczQ=

>  <s_epik_cmdline>  (301) 
J2VwaWtfcHl0aG9uJywgJy1waHQnLCAnMi4wJywgJy1waCcsICc3LjAnLCAnLXRuJywgJzgnLCAnLW1hJywgJzIwMCcsICctaW1hZScsICc8aW5maWxlLm1hZT4nLCAnLW9tYWUnLCAnPG91dGZpbGUubWFlPic=

>  <r_lp_tautomer_probability>  (301) 
1

>  <r_epik_Ionization_Penalty>  (301) 
5.23556e-05

>  <r_epik_Ionization_Penalty_Charging>  (301) 
4.02751e-05

>  <r_epik_Ionization_Penalty_Neutral>  (301) 
1.20805e-05

>  <r_epik_State_Penalty>  (301) 
-0

>  <r_epik_Charging_Adjusted_Penalty>  (301) 
4.02751e-05

>  <i_epik_Tot_Q>  (301) 
1

>  <i_epik_Tot_abs_Q>  (301) 
1

>  <s_epik_Chemistry_Notes>  (301) 
This compound has an imine and may undergo hydrolysis.

>  <s_lp_Force_Field>  (301) 
OPLS3e

>  <r_lp_Energy>  (301) 
47.0769

>  <b_lp_Chiralities_Consistent>  (301) 
1

>  <s_lp_Variant>  (301) 
80:0-1

>  <s_i_glide_gridfile>  (301) 
pfpi4k_grid

>  <i_i_glide_lignum>  (301) 
34

>  <i_i_glide_rotatable_bonds>  (301) 
2

>  <r_i_docking_score>  (301) 
-4.05428

>  <r_i_glide_ligand_efficiency>  (301) 
-0.238487

>  <r_i_glide_ligand_efficiency_sa>  (301) 
-0.613217

>  <r_i_glide_ligand_efficiency_ln>  (301) 
-1.05767

>  <r_i_glide_gscore>  (301) 
-4.05428

>  <r_i_glide_lipo>  (301) 
-0.732077

>  <r_i_glide_hbond>  (301) 
0

>  <r_i_glide_metal>  (301) 
-0

>  <r_i_glide_rewards>  (301) 
-1.77413

>  <r_i_glide_evdw>  (301) 
-20.8588

>  <r_i_glide_ecoul>  (301) 
-5.12899

>  <r_i_glide_erotb>  (301) 
0.281247

>  <r_i_glide_esite>  (301) 
-0.0170305

>  <r_i_glide_emodel>  (301) 
-33.4823

>  <r_i_glide_energy>  (301) 
-25.9878

>  <r_i_glide_einternal>  (301) 
0.00539214

>  <r_i_glide_intrahb_reward>  (301) 
-0

>  <i_i_glide_confnum>  (301) 
1

>  <i_i_glide_posenum>  (301) 
8

>  <r_i_glide_eff_state_penalty>  (301) 
0

>  <ligand_id>  (301) 
80

>  <original_smiles>  (301) 
N=C1NC2(c3cccs3)CC3CC2CC1(O)C3

>  <smiles>  (301) 
[H]OC12C(N([H])[H])=[N+]([H])C3(c4sc([H])c([H])c4[H])C([H])([H])C([H])(C1([H])[H])C([H])([H])C3([H])C2([H])[H]

$$$$
80:0:1
     RDKit          3D

 34 37  0  0  1  0  0  0  0  0999 V2000
    4.6103   -6.1839   -0.1348 N   0  0  0  0  0  0  0  0  0  0  0  0
    4.9524   -4.8913   -0.0410 C   0  0  0  0  0  0  0  0  0  0  0  0
    4.7569   -4.0732   -1.0855 N   0  0  0  0  0  0  0  0  0  0  0  0
    5.3174   -2.7203   -1.0996 C   0  0  2  0  0  0  0  0  0  0  0  0
    4.6741   -1.9552   -2.2166 C   0  0  0  0  0  0  0  0  0  0  0  0
    4.4236   -0.6160   -2.2699 C   0  0  0  0  0  0  0  0  0  0  0  0
    3.7830   -0.1945   -3.4675 C   0  0  0  0  0  0  0  0  0  0  0  0
    3.5332   -1.2217   -4.3209 C   0  0  0  0  0  0  0  0  0  0  0  0
    4.0851   -2.7403   -3.6718 S   0  0  0  0  0  0  0  0  0  0  0  0
    6.8308   -2.9166   -1.3013 C   0  0  0  0  0  0  0  0  0  0  0  0
    7.4064   -2.8439    0.1215 C   0  0  1  0  0  0  0  0  0  0  0  0
    6.6606   -1.6197    0.6450 C   0  0  0  0  0  0  0  0  0  0  0  0
    5.2185   -2.0257    0.3180 C   0  0  2  0  0  0  0  0  0  0  0  0
    4.8012   -2.9987    1.4351 C   0  0  0  0  0  0  0  0  0  0  0  0
    5.5526   -4.3238    1.2118 C   0  0  1  0  0  0  0  0  0  0  0  0
    5.3392   -5.1557    2.3347 O   0  0  0  0  0  0  0  0  0  0  0  0
    7.0732   -4.0950    0.9961 C   0  0  0  0  0  0  0  0  0  0  0  0
    4.1734   -6.5109   -0.9882 H   0  0  0  0  0  0  0  0  0  0  0  0
    4.3026   -4.3999   -1.9241 H   0  0  0  0  0  0  0  0  0  0  0  0
    4.6369    0.1172   -1.5034 H   0  0  0  0  0  0  0  0  0  0  0  0
    3.5019    0.8306   -3.6575 H   0  0  0  0  0  0  0  0  0  0  0  0
    3.0168   -1.1386   -5.2596 H   0  0  0  0  0  0  0  0  0  0  0  0
    7.0875   -3.8483   -1.7922 H   0  0  0  0  0  0  0  0  0  0  0  0
    7.2496   -2.1167   -1.9169 H   0  0  0  0  0  0  0  0  0  0  0  0
    8.4881   -2.6827    0.1075 H   0  0  0  0  0  0  0  0  0  0  0  0
    6.8435   -1.4215    1.7015 H   0  0  0  0  0  0  0  0  0  0  0  0
    6.9549   -0.7266    0.0954 H   0  0  0  0  0  0  0  0  0  0  0  0
    4.5620   -1.1546    0.3486 H   0  0  0  0  0  0  0  0  0  0  0  0
    5.0048   -2.5795    2.4217 H   0  0  0  0  0  0  0  0  0  0  0  0
    3.7242   -3.1750    1.3827 H   0  0  0  0  0  0  0  0  0  0  0  0
    5.8373   -5.9492    2.2288 H   0  0  0  0  0  0  0  0  0  0  0  0
    7.5301   -4.9966    0.5810 H   0  0  0  0  0  0  0  0  0  0  0  0
    7.5176   -3.9517    1.9736 H   0  0  0  0  0  0  0  0  0  0  0  0
    4.7052   -6.7995    0.6629 H   0  0  0  0  0  0  0  0  0  0  0  0
  1  2  1  0
  1 18  1  0
  1 34  1  0
  2 15  1  0
  2  3  2  0
  3  4  1  0
  3 19  1  0
  4 13  1  0
  4  5  1  6
  4 10  1  0
  5  9  1  0
  5  6  2  0
  6  7  1  0
  6 20  1  0
  7  8  2  0
  7 21  1  0
  8  9  1  0
  8 22  1  0
 10 11  1  0
 10 23  1  0
 10 24  1  0
 11 17  1  0
 11 12  1  0
 11 25  1  6
 12 13  1  0
 12 26  1  0
 12 27  1  0
 13 14  1  0
 13 28  1  6
 14 15  1  0
 14 29  1  0
 14 30  1  0
 15 16  1  1
 15 17  1  0
 16 31  1  0
 17 32  1  0
 17 33  1  0
M  CHG  1   3   1
M  END
>  <i_m_ct_stereo_status>  (302) 
1

>  <s_m_source_file>  (302) 
/var/tmp/pbs.5076255.sched01/tmp361ftg5n/90jpawypyp.sdf

>  <i_m_source_file_index>  (302) 
34

>  <i_lp_mmshare_version>  (302) 
48012

>  <i_f3d_flags>  (302) 
0

>  <s_epik_input>  (302) 
W0hdL049QyhcW05IXTEpW0NAQF0oW0NIMl0yKShbT0hdKVtDSDJdW0NAQEhdKFtDSDJdMylbQ0gyXVtDQEhdMltDQF0xM2M0W2NIXVtjSF1bY0hdczQ=

>  <s_epik_cmdline>  (302) 
J2VwaWtfcHl0aG9uJywgJy1waHQnLCAnMi4wJywgJy1waCcsICc3LjAnLCAnLXRuJywgJzgnLCAnLW1hJywgJzIwMCcsICctaW1hZScsICc8aW5maWxlLm1hZT4nLCAnLW9tYWUnLCAnPG91dGZpbGUubWFlPic=

>  <r_lp_tautomer_probability>  (302) 
1

>  <r_epik_Ionization_Penalty>  (302) 
5.23556e-05

>  <r_epik_Ionization_Penalty_Charging>  (302) 
4.02751e-05

>  <r_epik_Ionization_Penalty_Neutral>  (302) 
1.20805e-05

>  <r_epik_State_Penalty>  (302) 
-0

>  <r_epik_Charging_Adjusted_Penalty>  (302) 
4.02751e-05

>  <i_epik_Tot_Q>  (302) 
1

>  <i_epik_Tot_abs_Q>  (302) 
1

>  <s_epik_Chemistry_Notes>  (302) 
This compound has an imine and may undergo hydrolysis.

>  <s_lp_Force_Field>  (302) 
OPLS3e

>  <r_lp_Energy>  (302) 
47.0769

>  <b_lp_Chiralities_Consistent>  (302) 
1

>  <s_lp_Variant>  (302) 
80:0-1

>  <s_i_glide_gridfile>  (302) 
pfpi4k_grid

>  <i_i_glide_lignum>  (302) 
34

>  <i_i_glide_rotatable_bonds>  (302) 
2

>  <r_i_docking_score>  (302) 
-4.03117

>  <r_i_glide_ligand_efficiency>  (302) 
-0.237128

>  <r_i_glide_ligand_efficiency_sa>  (302) 
-0.609722

>  <r_i_glide_ligand_efficiency_ln>  (302) 
-1.05164

>  <r_i_glide_gscore>  (302) 
-4.03117

>  <r_i_glide_lipo>  (302) 
-0.720681

>  <r_i_glide_hbond>  (302) 
0

>  <r_i_glide_metal>  (302) 
-0

>  <r_i_glide_rewards>  (302) 
-1.74087

>  <r_i_glide_evdw>  (302) 
-21.4969

>  <r_i_glide_ecoul>  (302) 
-5.09637

>  <r_i_glide_erotb>  (302) 
0.281247

>  <r_i_glide_esite>  (302) 
-0.0115687

>  <r_i_glide_emodel>  (302) 
-32.4468

>  <r_i_glide_energy>  (302) 
-26.5933

>  <r_i_glide_einternal>  (302) 
3.20057

>  <r_i_glide_intrahb_reward>  (302) 
-0

>  <i_i_glide_confnum>  (302) 
3

>  <i_i_glide_posenum>  (302) 
2

>  <r_i_glide_eff_state_penalty>  (302) 
0

>  <ligand_id>  (302) 
80

>  <original_smiles>  (302) 
N=C1NC2(c3cccs3)CC3CC2CC1(O)C3

>  <smiles>  (302) 
[H]OC12C(N([H])[H])=[N+]([H])C3(c4sc([H])c([H])c4[H])C([H])([H])C([H])(C1([H])[H])C([H])([H])C3([H])C2([H])[H]

$$$$
80:0:2
     RDKit          3D

 34 37  0  0  1  0  0  0  0  0999 V2000
    3.1636   -6.3668    0.8779 N   0  0  0  0  0  0  0  0  0  0  0  0
    3.5075   -5.0631    0.8592 C   0  0  0  0  0  0  0  0  0  0  0  0
    3.6120   -4.4221   -0.3165 N   0  0  0  0  0  0  0  0  0  0  0  0
    4.1758   -3.0667   -0.3824 C   0  0  2  0  0  0  0  0  0  0  0  0
    3.8643   -2.4837   -1.7365 C   0  0  0  0  0  0  0  0  0  0  0  0
    2.9940   -2.9574   -2.6812 C   0  0  0  0  0  0  0  0  0  0  0  0
    2.9554   -2.1649   -3.8666 C   0  0  0  0  0  0  0  0  0  0  0  0
    3.7573   -1.0713   -3.7982 C   0  0  0  0  0  0  0  0  0  0  0  0
    4.5992   -0.9971   -2.2784 S   0  0  0  0  0  0  0  0  0  0  0  0
    5.6840   -3.2860   -0.1324 C   0  0  0  0  0  0  0  0  0  0  0  0
    5.8685   -2.9770    1.3595 C   0  0  1  0  0  0  0  0  0  0  0  0
    5.0398   -1.7002    1.4765 C   0  0  0  0  0  0  0  0  0  0  0  0
    3.7282   -2.1772    0.8358 C   0  0  2  0  0  0  0  0  0  0  0  0
    3.0159   -2.9795    1.9536 C   0  0  0  0  0  0  0  0  0  0  0  0
    3.7689   -4.3152    2.1296 C   0  0  1  0  0  0  0  0  0  0  0  0
    3.2646   -4.9862    3.2664 O   0  0  0  0  0  0  0  0  0  0  0  0
    5.2963   -4.0771    2.2997 C   0  0  0  0  0  0  0  0  0  0  0  0
    3.0199   -6.8586    0.0112 H   0  0  0  0  0  0  0  0  0  0  0  0
    3.4189   -4.8792   -1.2024 H   0  0  0  0  0  0  0  0  0  0  0  0
    2.3783   -3.8384   -2.5947 H   0  0  0  0  0  0  0  0  0  0  0  0
    2.3131   -2.4248   -4.6915 H   0  0  0  0  0  0  0  0  0  0  0  0
    3.8856   -0.2942   -4.5334 H   0  0  0  0  0  0  0  0  0  0  0  0
    6.0339   -4.2878   -0.3979 H   0  0  0  0  0  0  0  0  0  0  0  0
    6.2850   -2.5826   -0.7077 H   0  0  0  0  0  0  0  0  0  0  0  0
    6.9185   -2.7992    1.5895 H   0  0  0  0  0  0  0  0  0  0  0  0
    4.9485   -1.3486    2.5037 H   0  0  0  0  0  0  0  0  0  0  0  0
    5.4945   -0.8977    0.8932 H   0  0  0  0  0  0  0  0  0  0  0  0
    3.1118   -1.3244    0.5360 H   0  0  0  0  0  0  0  0  0  0  0  0
    2.9647   -2.4205    2.8866 H   0  0  0  0  0  0  0  0  0  0  0  0
    1.9843   -3.1875    1.6613 H   0  0  0  0  0  0  0  0  0  0  0  0
    3.7796   -5.7508    3.4307 H   0  0  0  0  0  0  0  0  0  0  0  0
    5.8333   -5.0172    2.1590 H   0  0  0  0  0  0  0  0  0  0  0  0
    5.4852   -3.7660    3.3298 H   0  0  0  0  0  0  0  0  0  0  0  0
    3.0821   -6.8582    1.7562 H   0  0  0  0  0  0  0  0  0  0  0  0
  1  2  1  0
  1 18  1  0
  1 34  1  0
  2 15  1  0
  2  3  2  0
  3  4  1  0
  3 19  1  0
  4 13  1  0
  4  5  1  6
  4 10  1  0
  5  9  1  0
  5  6  2  0
  6  7  1  0
  6 20  1  0
  7  8  2  0
  7 21  1  0
  8  9  1  0
  8 22  1  0
 10 11  1  0
 10 23  1  0
 10 24  1  0
 11 17  1  0
 11 12  1  0
 11 25  1  6
 12 13  1  0
 12 26  1  0
 12 27  1  0
 13 14  1  0
 13 28  1  6
 14 15  1  0
 14 29  1  0
 14 30  1  0
 15 16  1  1
 15 17  1  0
 16 31  1  0
 17 32  1  0
 17 33  1  0
M  CHG  1   3   1
M  END
>  <i_m_ct_stereo_status>  (303) 
1

>  <s_m_source_file>  (303) 
/var/tmp/pbs.5076255.sched01/tmp361ftg5n/90jpawypyp.sdf

>  <i_m_source_file_index>  (303) 
34

>  <i_lp_mmshare_version>  (303) 
48012

>  <i_f3d_flags>  (303) 
0

>  <s_epik_input>  (303) 
W0hdL049QyhcW05IXTEpW0NAQF0oW0NIMl0yKShbT0hdKVtDSDJdW0NAQEhdKFtDSDJdMylbQ0gyXVtDQEhdMltDQF0xM2M0W2NIXVtjSF1bY0hdczQ=

>  <s_epik_cmdline>  (303) 
J2VwaWtfcHl0aG9uJywgJy1waHQnLCAnMi4wJywgJy1waCcsICc3LjAnLCAnLXRuJywgJzgnLCAnLW1hJywgJzIwMCcsICctaW1hZScsICc8aW5maWxlLm1hZT4nLCAnLW9tYWUnLCAnPG91dGZpbGUubWFlPic=

>  <r_lp_tautomer_probability>  (303) 
1

>  <r_epik_Ionization_Penalty>  (303) 
5.23556e-05

>  <r_epik_Ionization_Penalty_Charging>  (303) 
4.02751e-05

>  <r_epik_Ionization_Penalty_Neutral>  (303) 
1.20805e-05

>  <r_epik_State_Penalty>  (303) 
-0

>  <r_epik_Charging_Adjusted_Penalty>  (303) 
4.02751e-05

>  <i_epik_Tot_Q>  (303) 
1

>  <i_epik_Tot_abs_Q>  (303) 
1

>  <s_epik_Chemistry_Notes>  (303) 
This compound has an imine and may undergo hydrolysis.

>  <s_lp_Force_Field>  (303) 
OPLS3e

>  <r_lp_Energy>  (303) 
47.0769

>  <b_lp_Chiralities_Consistent>  (303) 
1

>  <s_lp_Variant>  (303) 
80:0-1

>  <s_i_glide_gridfile>  (303) 
pfpi4k_grid

>  <i_i_glide_lignum>  (303) 
34

>  <i_i_glide_rotatable_bonds>  (303) 
2

>  <r_i_docking_score>  (303) 
-3.79978

>  <r_i_glide_ligand_efficiency>  (303) 
-0.223516

>  <r_i_glide_ligand_efficiency_sa>  (303) 
-0.574723

>  <r_i_glide_ligand_efficiency_ln>  (303) 
-0.991277

>  <r_i_glide_gscore>  (303) 
-3.79978

>  <r_i_glide_lipo>  (303) 
-0.589849

>  <r_i_glide_hbond>  (303) 
0

>  <r_i_glide_metal>  (303) 
-0

>  <r_i_glide_rewards>  (303) 
-1.70896

>  <r_i_glide_evdw>  (303) 
-20.3327

>  <r_i_glide_ecoul>  (303) 
-4.87661

>  <r_i_glide_erotb>  (303) 
0.281247

>  <r_i_glide_esite>  (303) 
-0.0340916

>  <r_i_glide_emodel>  (303) 
-32.1765

>  <r_i_glide_energy>  (303) 
-25.2093

>  <r_i_glide_einternal>  (303) 
0.172838

>  <r_i_glide_intrahb_reward>  (303) 
-0

>  <i_i_glide_confnum>  (303) 
5

>  <i_i_glide_posenum>  (303) 
14

>  <r_i_glide_eff_state_penalty>  (303) 
0

>  <ligand_id>  (303) 
80

>  <original_smiles>  (303) 
N=C1NC2(c3cccs3)CC3CC2CC1(O)C3

>  <smiles>  (303) 
[H]OC12C(N([H])[H])=[N+]([H])C3(c4sc([H])c([H])c4[H])C([H])([H])C([H])(C1([H])[H])C([H])([H])C3([H])C2([H])[H]

$$$$
81:0:0
     RDKit          3D

 16 15  0  0  1  0  0  0  0  0999 V2000
    2.8270    1.2124   -5.1224 C   0  0  0  0  0  0  0  0  0  0  0  0
    3.4372   -0.1261   -4.6896 C   0  0  0  0  0  0  0  0  0  0  0  0
    3.4974   -0.3084   -3.1663 C   0  0  0  0  0  0  0  0  0  0  0  0
    4.2214   -1.9409   -2.7178 S   0  0  0  0  0  0  0  0  0  0  0  0
    3.0351   -2.6473   -1.7066 N   0  0  0  0  0  0  0  0  0  0  0  0
    4.3110   -2.7820   -3.9204 O   0  0  0  0  0  0  0  0  0  0  0  0
    5.4110   -1.6910   -1.8897 O   0  0  0  0  0  0  0  0  0  0  0  0
    2.7854    1.2753   -6.2083 H   0  0  0  0  0  0  0  0  0  0  0  0
    3.4126    2.0567   -4.7569 H   0  0  0  0  0  0  0  0  0  0  0  0
    1.8058    1.3147   -4.7479 H   0  0  0  0  0  0  0  0  0  0  0  0
    2.8427   -0.9369   -5.1139 H   0  0  0  0  0  0  0  0  0  0  0  0
    4.4391   -0.2136   -5.1088 H   0  0  0  0  0  0  0  0  0  0  0  0
    4.1285    0.4564   -2.7172 H   0  0  0  0  0  0  0  0  0  0  0  0
    2.5017   -0.2403   -2.7200 H   0  0  0  0  0  0  0  0  0  0  0  0
    2.8659   -2.0822   -0.8685 H   0  0  0  0  0  0  0  0  0  0  0  0
    2.1740   -2.8539   -2.2144 H   0  0  0  0  0  0  0  0  0  0  0  0
  1  2  1  0
  1  8  1  0
  1  9  1  0
  1 10  1  0
  2  3  1  0
  2 11  1  0
  2 12  1  0
  3  4  1  0
  3 13  1  0
  3 14  1  0
  4  5  1  0
  4  6  2  0
  4  7  2  0
  5 15  1  0
  5 16  1  0
M  END
>  <i_m_ct_stereo_status>  (304) 
1

>  <s_m_source_file>  (304) 
/var/tmp/pbs.5076255.sched01/tmp361ftg5n/90jpawypyp.sdf

>  <i_m_source_file_index>  (304) 
35

>  <i_lp_mmshare_version>  (304) 
48012

>  <i_f3d_flags>  (304) 
0

>  <s_epik_input>  (304) 
W0NIM11bQ0gyXVtDSDJdUyg9TykoPU8pW05IMl0=

>  <s_epik_cmdline>  (304) 
J2VwaWtfcHl0aG9uJywgJy1waHQnLCAnMi4wJywgJy1waCcsICc3LjAnLCAnLXRuJywgJzgnLCAnLW1hJywgJzIwMCcsICctaW1hZScsICc8aW5maWxlLm1hZT4nLCAnLW9tYWUnLCAnPG91dGZpbGUubWFlPic=

>  <r_lp_tautomer_probability>  (304) 
1

>  <r_epik_Ionization_Penalty>  (304) 
7.95576e-05

>  <r_epik_Ionization_Penalty_Charging>  (304) 
0

>  <r_epik_Ionization_Penalty_Neutral>  (304) 
7.95576e-05

>  <r_epik_State_Penalty>  (304) 
-0

>  <r_epik_Charging_Adjusted_Penalty>  (304) 
0

>  <i_epik_Tot_Q>  (304) 
0

>  <i_epik_Tot_abs_Q>  (304) 
0

>  <s_lp_Force_Field>  (304) 
OPLS3e

>  <r_lp_Energy>  (304) 
-6.20692

>  <b_lp_Chiralities_Consistent>  (304) 
1

>  <s_lp_Variant>  (304) 
81:0-1

>  <s_i_glide_gridfile>  (304) 
pfpi4k_grid

>  <i_i_glide_lignum>  (304) 
35

>  <i_i_glide_rotatable_bonds>  (304) 
2

>  <r_i_docking_score>  (304) 
-4.15986

>  <r_i_glide_ligand_efficiency>  (304) 
-0.594265

>  <r_i_glide_ligand_efficiency_sa>  (304) 
-1.13679

>  <r_i_glide_ligand_efficiency_ln>  (304) 
-1.41208

>  <r_i_glide_gscore>  (304) 
-4.15986

>  <r_i_glide_lipo>  (304) 
-0.363892

>  <r_i_glide_hbond>  (304) 
-0.00394472

>  <r_i_glide_metal>  (304) 
-0

>  <r_i_glide_rewards>  (304) 
-2.29336

>  <r_i_glide_evdw>  (304) 
-16.0209

>  <r_i_glide_ecoul>  (304) 
-4.11282

>  <r_i_glide_erotb>  (304) 
0

>  <r_i_glide_esite>  (304) 
-0.0806897

>  <r_i_glide_emodel>  (304) 
-24.3828

>  <r_i_glide_energy>  (304) 
-20.1337

>  <r_i_glide_einternal>  (304) 
2.95148

>  <r_i_glide_intrahb_reward>  (304) 
-0

>  <i_i_glide_confnum>  (304) 
2

>  <i_i_glide_posenum>  (304) 
4

>  <r_i_glide_eff_state_penalty>  (304) 
0

>  <ligand_id>  (304) 
81

>  <original_smiles>  (304) 
CCCS(N)(=O)=O

>  <smiles>  (304) 
[H]N([H])S(=O)(=O)C([H])([H])C([H])([H])C([H])([H])[H]

$$$$
81:0:1
     RDKit          3D

 16 15  0  0  1  0  0  0  0  0999 V2000
   -1.4195    0.7369    5.1538 C   0  0  0  0  0  0  0  0  0  0  0  0
   -1.5449    1.3211    3.7259 C   0  0  0  0  0  0  0  0  0  0  0  0
   -0.4470    2.3230    3.3003 C   0  0  0  0  0  0  0  0  0  0  0  0
   -0.4732    3.8761    4.2954 S   0  0  0  0  0  0  0  0  0  0  0  0
    0.7479    4.8431    3.5792 N   0  0  0  0  0  0  0  0  0  0  0  0
   -1.7693    4.5353    4.0612 O   0  0  0  0  0  0  0  0  0  0  0  0
   -0.0509    3.5781    5.6728 O   0  0  0  0  0  0  0  0  0  0  0  0
   -2.1571   -0.0677    5.3016 H   0  0  0  0  0  0  0  0  0  0  0  0
   -1.5422    1.5158    5.9220 H   0  0  0  0  0  0  0  0  0  0  0  0
   -0.4333    0.2829    5.2777 H   0  0  0  0  0  0  0  0  0  0  0  0
   -1.5217    0.5054    3.0056 H   0  0  0  0  0  0  0  0  0  0  0  0
   -2.5364    1.7801    3.6252 H   0  0  0  0  0  0  0  0  0  0  0  0
    0.5488    1.8764    3.3295 H   0  0  0  0  0  0  0  0  0  0  0  0
   -0.6369    2.6089    2.2646 H   0  0  0  0  0  0  0  0  0  0  0  0
    1.6503    4.4089    3.7588 H   0  0  0  0  0  0  0  0  0  0  0  0
    0.5890    4.9827    2.5699 H   0  0  0  0  0  0  0  0  0  0  0  0
  1  2  1  0
  1  8  1  0
  1  9  1  0
  1 10  1  0
  2  3  1  0
  2 11  1  0
  2 12  1  0
  3  4  1  0
  3 13  1  0
  3 14  1  0
  4  5  1  0
  4  6  2  0
  4  7  2  0
  5 15  1  0
  5 16  1  0
M  END
>  <i_m_ct_stereo_status>  (305) 
1

>  <s_m_source_file>  (305) 
/var/tmp/pbs.5076255.sched01/tmp361ftg5n/90jpawypyp.sdf

>  <i_m_source_file_index>  (305) 
35

>  <i_lp_mmshare_version>  (305) 
48012

>  <i_f3d_flags>  (305) 
0

>  <s_epik_input>  (305) 
W0NIM11bQ0gyXVtDSDJdUyg9TykoPU8pW05IMl0=

>  <s_epik_cmdline>  (305) 
J2VwaWtfcHl0aG9uJywgJy1waHQnLCAnMi4wJywgJy1waCcsICc3LjAnLCAnLXRuJywgJzgnLCAnLW1hJywgJzIwMCcsICctaW1hZScsICc8aW5maWxlLm1hZT4nLCAnLW9tYWUnLCAnPG91dGZpbGUubWFlPic=

>  <r_lp_tautomer_probability>  (305) 
1

>  <r_epik_Ionization_Penalty>  (305) 
7.95576e-05

>  <r_epik_Ionization_Penalty_Charging>  (305) 
0

>  <r_epik_Ionization_Penalty_Neutral>  (305) 
7.95576e-05

>  <r_epik_State_Penalty>  (305) 
-0

>  <r_epik_Charging_Adjusted_Penalty>  (305) 
0

>  <i_epik_Tot_Q>  (305) 
0

>  <i_epik_Tot_abs_Q>  (305) 
0

>  <s_lp_Force_Field>  (305) 
OPLS3e

>  <r_lp_Energy>  (305) 
-6.20692

>  <b_lp_Chiralities_Consistent>  (305) 
1

>  <s_lp_Variant>  (305) 
81:0-1

>  <s_i_glide_gridfile>  (305) 
pfpi4k_grid

>  <i_i_glide_lignum>  (305) 
35

>  <i_i_glide_rotatable_bonds>  (305) 
2

>  <r_i_docking_score>  (305) 
-4.07951

>  <r_i_glide_ligand_efficiency>  (305) 
-0.582787

>  <r_i_glide_ligand_efficiency_sa>  (305) 
-1.11483

>  <r_i_glide_ligand_efficiency_ln>  (305) 
-1.3848

>  <r_i_glide_gscore>  (305) 
-4.07951

>  <r_i_glide_lipo>  (305) 
0

>  <r_i_glide_hbond>  (305) 
-0.16

>  <r_i_glide_metal>  (305) 
-0

>  <r_i_glide_rewards>  (305) 
-2.25

>  <r_i_glide_evdw>  (305) 
-7.14987

>  <r_i_glide_ecoul>  (305) 
-7.0395

>  <r_i_glide_erotb>  (305) 
0

>  <r_i_glide_esite>  (305) 
-0.256088

>  <r_i_glide_emodel>  (305) 
-19.744

>  <r_i_glide_energy>  (305) 
-14.1894

>  <r_i_glide_einternal>  (305) 
0.0074355

>  <r_i_glide_intrahb_reward>  (305) 
-0

>  <i_i_glide_confnum>  (305) 
1

>  <i_i_glide_posenum>  (305) 
22

>  <r_i_glide_eff_state_penalty>  (305) 
0

>  <ligand_id>  (305) 
81

>  <original_smiles>  (305) 
CCCS(N)(=O)=O

>  <smiles>  (305) 
[H]N([H])S(=O)(=O)C([H])([H])C([H])([H])C([H])([H])[H]

$$$$
81:0:2
     RDKit          3D

 16 15  0  0  1  0  0  0  0  0999 V2000
   -4.5708    3.6989    1.8623 C   0  0  0  0  0  0  0  0  0  0  0  0
   -3.4257    2.9518    2.5585 C   0  0  0  0  0  0  0  0  0  0  0  0
   -2.2243    3.8174    2.9332 C   0  0  0  0  0  0  0  0  0  0  0  0
   -0.9117    2.8535    3.7845 S   0  0  0  0  0  0  0  0  0  0  0  0
   -0.0373    2.1473    2.4881 N   0  0  0  0  0  0  0  0  0  0  0  0
   -0.0184    3.8159    4.4449 O   0  0  0  0  0  0  0  0  0  0  0  0
   -1.5368    1.7602    4.5470 O   0  0  0  0  0  0  0  0  0  0  0  0
   -5.3796    3.0024    1.6294 H   0  0  0  0  0  0  0  0  0  0  0  0
   -4.2422    4.1481    0.9273 H   0  0  0  0  0  0  0  0  0  0  0  0
   -4.9836    4.4918    2.4872 H   0  0  0  0  0  0  0  0  0  0  0  0
   -3.8107    2.5043    3.4792 H   0  0  0  0  0  0  0  0  0  0  0  0
   -3.0761    2.1414    1.9131 H   0  0  0  0  0  0  0  0  0  0  0  0
   -1.7757    4.3414    2.0844 H   0  0  0  0  0  0  0  0  0  0  0  0
   -2.5533    4.5515    3.6532 H   0  0  0  0  0  0  0  0  0  0  0  0
   -0.6078    1.4920    1.9609 H   0  0  0  0  0  0  0  0  0  0  0  0
    0.3562    2.8792    1.8767 H   0  0  0  0  0  0  0  0  0  0  0  0
  1  2  1  0
  1  8  1  0
  1  9  1  0
  1 10  1  0
  2  3  1  0
  2 11  1  0
  2 12  1  0
  3  4  1  0
  3 13  1  0
  3 14  1  0
  4  5  1  0
  4  6  2  0
  4  7  2  0
  5 15  1  0
  5 16  1  0
M  END
>  <i_m_ct_stereo_status>  (306) 
1

>  <s_m_source_file>  (306) 
/var/tmp/pbs.5076255.sched01/tmp361ftg5n/90jpawypyp.sdf

>  <i_m_source_file_index>  (306) 
35

>  <i_lp_mmshare_version>  (306) 
48012

>  <i_f3d_flags>  (306) 
0

>  <s_epik_input>  (306) 
W0NIM11bQ0gyXVtDSDJdUyg9TykoPU8pW05IMl0=

>  <s_epik_cmdline>  (306) 
J2VwaWtfcHl0aG9uJywgJy1waHQnLCAnMi4wJywgJy1waCcsICc3LjAnLCAnLXRuJywgJzgnLCAnLW1hJywgJzIwMCcsICctaW1hZScsICc8aW5maWxlLm1hZT4nLCAnLW9tYWUnLCAnPG91dGZpbGUubWFlPic=

>  <r_lp_tautomer_probability>  (306) 
1

>  <r_epik_Ionization_Penalty>  (306) 
7.95576e-05

>  <r_epik_Ionization_Penalty_Charging>  (306) 
0

>  <r_epik_Ionization_Penalty_Neutral>  (306) 
7.95576e-05

>  <r_epik_State_Penalty>  (306) 
-0

>  <r_epik_Charging_Adjusted_Penalty>  (306) 
0

>  <i_epik_Tot_Q>  (306) 
0

>  <i_epik_Tot_abs_Q>  (306) 
0

>  <s_lp_Force_Field>  (306) 
OPLS3e

>  <r_lp_Energy>  (306) 
-6.20692

>  <b_lp_Chiralities_Consistent>  (306) 
1

>  <s_lp_Variant>  (306) 
81:0-1

>  <s_i_glide_gridfile>  (306) 
pfpi4k_grid

>  <i_i_glide_lignum>  (306) 
35

>  <i_i_glide_rotatable_bonds>  (306) 
2

>  <r_i_docking_score>  (306) 
-3.86645

>  <r_i_glide_ligand_efficiency>  (306) 
-0.55235

>  <r_i_glide_ligand_efficiency_sa>  (306) 
-1.05661

>  <r_i_glide_ligand_efficiency_ln>  (306) 
-1.31248

>  <r_i_glide_gscore>  (306) 
-3.86645

>  <r_i_glide_lipo>  (306) 
-0.27782

>  <r_i_glide_hbond>  (306) 
-0.157766

>  <r_i_glide_metal>  (306) 
-0

>  <r_i_glide_rewards>  (306) 
-2.25

>  <r_i_glide_evdw>  (306) 
-10.8682

>  <r_i_glide_ecoul>  (306) 
-2.86076

>  <r_i_glide_erotb>  (306) 
0

>  <r_i_glide_esite>  (306) 
-0.208338

>  <r_i_glide_emodel>  (306) 
-17.8185

>  <r_i_glide_energy>  (306) 
-13.729

>  <r_i_glide_einternal>  (306) 
2.39139

>  <r_i_glide_intrahb_reward>  (306) 
-0

>  <i_i_glide_confnum>  (306) 
2

>  <i_i_glide_posenum>  (306) 
12

>  <r_i_glide_eff_state_penalty>  (306) 
0

>  <ligand_id>  (306) 
81

>  <original_smiles>  (306) 
CCCS(N)(=O)=O

>  <smiles>  (306) 
[H]N([H])S(=O)(=O)C([H])([H])C([H])([H])C([H])([H])[H]

$$$$
82:0:0
     RDKit          3D

 42 47  0  0  1  0  0  0  0  0999 V2000
    5.0857   -0.7063    3.9128 C   0  0  0  0  0  0  0  0  0  0  0  0
    5.0956   -1.3602    2.7492 N   0  0  0  0  0  0  0  0  0  0  0  0
    4.1202   -0.8785    1.8820 N   0  0  0  0  0  0  0  0  0  0  0  0
    3.4381    0.1458    2.4038 C   0  0  0  0  0  0  0  0  0  0  0  0
    2.3526    0.8556    1.6469 C   0  0  0  0  0  0  0  0  0  0  0  0
    0.9879    0.6388    2.2833 C   0  0  0  0  0  0  0  0  0  0  0  0
   -0.0993    1.4370    1.6613 N   0  0  0  0  0  0  0  0  0  0  0  0
   -1.3547    1.4950    2.4466 C   0  0  0  0  0  0  0  0  0  0  0  0
   -1.1427    2.1820    3.8038 C   0  0  2  0  0  0  0  0  0  0  0  0
   -0.5842    1.3184    4.9790 C   0  0  1  0  0  0  0  0  0  0  0  0
    0.1483    1.9590    6.1950 C   0  0  1  0  0  0  0  0  0  0  0  0
    0.2157    3.5005    6.0865 C   0  0  0  0  0  0  0  0  0  0  0  0
   -1.1257    3.9027    6.7298 C   0  0  2  0  0  0  0  0  0  0  0  0
   -0.9054    3.1734    8.0611 C   0  0  0  0  0  0  0  0  0  0  0  0
   -0.8273    1.7909    7.4137 C   0  0  1  0  0  0  0  0  0  0  0  0
   -2.1796    1.7186    6.7393 C   0  0  1  0  0  0  0  0  0  0  0  0
   -2.3413    3.1271    6.1358 C   0  0  2  0  0  0  0  0  0  0  0  0
   -2.3642    2.4819    4.7059 C   0  0  2  0  0  0  0  0  0  0  0  0
   -2.0277    1.1529    5.3726 C   0  0  1  0  0  0  0  0  0  0  0  0
    3.8882    0.5710    4.0690 S   0  0  0  0  0  0  0  0  0  0  0  0
    5.7918   -0.9893    4.6816 H   0  0  0  0  0  0  0  0  0  0  0  0
    2.5810    1.9177    1.6698 H   0  0  0  0  0  0  0  0  0  0  0  0
    2.3496    0.5057    0.6145 H   0  0  0  0  0  0  0  0  0  0  0  0
    0.7108   -0.4177    2.3140 H   0  0  0  0  0  0  0  0  0  0  0  0
    1.1589    0.9784    3.2967 H   0  0  0  0  0  0  0  0  0  0  0  0
    0.2120    2.3891    1.5113 H   0  0  0  0  0  0  0  0  0  0  0  0
   -2.0919    2.0587    1.8875 H   0  0  0  0  0  0  0  0  0  0  0  0
   -1.7682    0.4991    2.5641 H   0  0  0  0  0  0  0  0  0  0  0  0
   -0.6470    3.1306    3.6237 H   0  0  0  0  0  0  0  0  0  0  0  0
   -0.2530    0.3083    4.7384 H   0  0  0  0  0  0  0  0  0  0  0  0
    1.1372    1.5260    6.3445 H   0  0  0  0  0  0  0  0  0  0  0  0
    1.0502    3.8755    6.6851 H   0  0  0  0  0  0  0  0  0  0  0  0
    0.4088    3.9192    5.1045 H   0  0  0  0  0  0  0  0  0  0  0  0
   -1.2758    4.9767    6.8249 H   0  0  0  0  0  0  0  0  0  0  0  0
    0.0039    3.4630    8.5987 H   0  0  0  0  0  0  0  0  0  0  0  0
   -1.7589    3.2631    8.7335 H   0  0  0  0  0  0  0  0  0  0  0  0
   -0.5945    0.9537    8.0713 H   0  0  0  0  0  0  0  0  0  0  0  0
   -3.0350    1.3661    7.3101 H   0  0  0  0  0  0  0  0  0  0  0  0
   -3.3185    3.5272    6.4015 H   0  0  0  0  0  0  0  0  0  0  0  0
   -3.3351    2.4967    4.2135 H   0  0  0  0  0  0  0  0  0  0  0  0
   -2.5533    0.2538    5.0508 H   0  0  0  0  0  0  0  0  0  0  0  0
   -0.3199    1.0589    0.7417 H   0  0  0  0  0  0  0  0  0  0  0  0
  1 20  1  0
  1  2  2  0
  1 21  1  0
  2  3  1  0
  3  4  2  0
  4  5  1  0
  4 20  1  0
  5  6  1  0
  5 22  1  0
  5 23  1  0
  6  7  1  0
  6 24  1  0
  6 25  1  0
  7  8  1  0
  7 26  1  0
  7 42  1  0
  8  9  1  0
  8 27  1  0
  8 28  1  0
  9 18  1  0
  9 10  1  0
  9 29  1  6
 10 19  1  0
 10 11  1  0
 10 30  1  6
 11 15  1  0
 11 12  1  0
 11 31  1  1
 12 13  1  0
 12 32  1  0
 12 33  1  0
 13 17  1  0
 13 14  1  0
 13 34  1  1
 14 15  1  0
 14 35  1  0
 14 36  1  0
 15 16  1  0
 15 37  1  1
 16 19  1  0
 16 17  1  0
 16 38  1  1
 17 18  1  0
 17 39  1  1
 18 19  1  0
 18 40  1  6
 19 41  1  6
M  CHG  1   7   1
M  END
>  <i_m_ct_stereo_status>  (307) 
1

>  <s_m_source_file>  (307) 
/var/tmp/pbs.5076255.sched01/tmp361ftg5n/90jpawypyp.sdf

>  <i_m_source_file_index>  (307) 
36

>  <i_lp_mmshare_version>  (307) 
48012

>  <i_f3d_flags>  (307) 
0

>  <s_epik_input>  (307) 
czFbY0hdbm5jMVtDSDJdW0NIMl1bTkhdW0NIMl1bQ0BIXTJbQ0BASF0oW0NAQEhdMzQpW0NASF0oW0NASF0oW0NIMl01KVtDSDJdNilbQ0BASF00W0NASF02W0NASF01W0NASF0yMw==

>  <s_epik_cmdline>  (307) 
J2VwaWtfcHl0aG9uJywgJy1waHQnLCAnMi4wJywgJy1waCcsICc3LjAnLCAnLXRuJywgJzgnLCAnLW1hJywgJzIwMCcsICctaW1hZScsICc8aW5maWxlLm1hZT4nLCAnLW9tYWUnLCAnPG91dGZpbGUubWFlPic=

>  <r_lp_tautomer_probability>  (307) 
1

>  <r_epik_Ionization_Penalty>  (307) 
0.00108533

>  <r_epik_Ionization_Penalty_Charging>  (307) 
0.0010853

>  <r_epik_Ionization_Penalty_Neutral>  (307) 
3.31762e-08

>  <r_epik_State_Penalty>  (307) 
0.000711387

>  <r_epik_Charging_Adjusted_Penalty>  (307) 
0.00179669

>  <i_epik_Tot_Q>  (307) 
1

>  <i_epik_Tot_abs_Q>  (307) 
1

>  <s_lp_Force_Field>  (307) 
OPLS3e

>  <r_lp_Energy>  (307) 
90.6424

>  <b_lp_Chiralities_Consistent>  (307) 
1

>  <s_lp_Variant>  (307) 
82:0-1

>  <s_i_glide_gridfile>  (307) 
pfpi4k_grid

>  <i_i_glide_lignum>  (307) 
36

>  <i_i_glide_rotatable_bonds>  (307) 
5

>  <r_i_docking_score>  (307) 
-3.15934

>  <r_i_glide_ligand_efficiency>  (307) 
-0.157967

>  <r_i_glide_ligand_efficiency_sa>  (307) 
-0.428789

>  <r_i_glide_ligand_efficiency_ln>  (307) 
-0.79068

>  <r_i_glide_gscore>  (307) 
-3.15934

>  <r_i_glide_lipo>  (307) 
-0.210019

>  <r_i_glide_hbond>  (307) 
-0.379427

>  <r_i_glide_metal>  (307) 
-0

>  <r_i_glide_rewards>  (307) 
-1.44251

>  <r_i_glide_evdw>  (307) 
-16.0014

>  <r_i_glide_ecoul>  (307) 
-5.96741

>  <r_i_glide_erotb>  (307) 
0.656038

>  <r_i_glide_esite>  (307) 
-0.0882465

>  <r_i_glide_emodel>  (307) 
-26.8332

>  <r_i_glide_energy>  (307) 
-21.9688

>  <r_i_glide_einternal>  (307) 
2.23408

>  <r_i_glide_intrahb_reward>  (307) 
-0

>  <i_i_glide_confnum>  (307) 
4

>  <i_i_glide_posenum>  (307) 
36

>  <r_i_glide_eff_state_penalty>  (307) 
0

>  <ligand_id>  (307) 
82

>  <original_smiles>  (307) 
c1nnc(CCNCC2C3C4CC5CC4C4C5C2C34)s1

>  <smiles>  (307) 
[H]c1nnc(C([H])([H])C([H])([H])[N+]([H])([H])C([H])([H])C2([H])C3([H])C4([H])C([H])([H])C5([H])C([H])([H])C4([H])C4([H])C5([H])C2([H])C43[H])s1

$$$$
82:0:1
     RDKit          3D

 42 47  0  0  1  0  0  0  0  0999 V2000
    4.1000   -2.7198   -0.3580 C   0  0  0  0  0  0  0  0  0  0  0  0
    3.2438   -3.4165    0.3933 N   0  0  0  0  0  0  0  0  0  0  0  0
    2.6155   -2.6075    1.3293 N   0  0  0  0  0  0  0  0  0  0  0  0
    3.0252   -1.3332    1.2597 C   0  0  0  0  0  0  0  0  0  0  0  0
    2.5078   -0.2941    2.1908 C   0  0  0  0  0  0  0  0  0  0  0  0
    1.1902    0.3658    1.7266 C   0  0  0  0  0  0  0  0  0  0  0  0
    0.6586    1.3140    2.7281 N   0  0  0  0  0  0  0  0  0  0  0  0
    0.1577    0.6771    3.9745 C   0  0  0  0  0  0  0  0  0  0  0  0
   -0.1246    1.7080    5.0543 C   0  0  2  0  0  0  0  0  0  0  0  0
   -0.4534    1.1938    6.4928 C   0  0  1  0  0  0  0  0  0  0  0  0
   -0.3447    2.0990    7.7613 C   0  0  1  0  0  0  0  0  0  0  0  0
    0.1818    3.5078    7.4077 C   0  0  0  0  0  0  0  0  0  0  0  0
   -1.1287    4.2413    7.0500 C   0  0  2  0  0  0  0  0  0  0  0  0
   -1.8424    3.9782    8.3780 C   0  0  0  0  0  0  0  0  0  0  0  0
   -1.8174    2.4568    8.2057 C   0  0  1  0  0  0  0  0  0  0  0  0
   -2.5853    2.2988    6.9135 C   0  0  1  0  0  0  0  0  0  0  0  0
   -2.0302    3.4456    6.0480 C   0  0  2  0  0  0  0  0  0  0  0  0
   -1.5120    2.3778    5.0438 C   0  0  2  0  0  0  0  0  0  0  0  0
   -1.9007    1.2919    6.0386 C   0  0  1  0  0  0  0  0  0  0  0  0
    4.2322   -1.0125    0.0179 S   0  0  0  0  0  0  0  0  0  0  0  0
    4.6655   -3.2141   -1.1319 H   0  0  0  0  0  0  0  0  0  0  0  0
    2.3929   -0.7889    3.1542 H   0  0  0  0  0  0  0  0  0  0  0  0
    3.2800    0.4641    2.3183 H   0  0  0  0  0  0  0  0  0  0  0  0
    1.3599    0.9211    0.8058 H   0  0  0  0  0  0  0  0  0  0  0  0
    0.4266   -0.3804    1.5064 H   0  0  0  0  0  0  0  0  0  0  0  0
    1.3793    1.9845    2.9532 H   0  0  0  0  0  0  0  0  0  0  0  0
   -0.7252    0.0797    3.7357 H   0  0  0  0  0  0  0  0  0  0  0  0
    0.8977   -0.0182    4.3717 H   0  0  0  0  0  0  0  0  0  0  0  0
    0.6727    2.4461    5.0338 H   0  0  0  0  0  0  0  0  0  0  0  0
   -0.1482    0.1587    6.6548 H   0  0  0  0  0  0  0  0  0  0  0  0
    0.2441    1.6382    8.5584 H   0  0  0  0  0  0  0  0  0  0  0  0
    0.6451    3.9638    8.2850 H   0  0  0  0  0  0  0  0  0  0  0  0
    0.9614    3.5635    6.6549 H   0  0  0  0  0  0  0  0  0  0  0  0
   -0.9853    5.2931    6.8026 H   0  0  0  0  0  0  0  0  0  0  0  0
   -1.3124    4.3292    9.2641 H   0  0  0  0  0  0  0  0  0  0  0  0
   -2.8552    4.3793    8.3975 H   0  0  0  0  0  0  0  0  0  0  0  0
   -2.2136    1.8708    9.0348 H   0  0  0  0  0  0  0  0  0  0  0  0
   -3.6734    2.2627    6.9537 H   0  0  0  0  0  0  0  0  0  0  0  0
   -2.8440    4.0292    5.6181 H   0  0  0  0  0  0  0  0  0  0  0  0
   -2.0743    2.3184    4.1082 H   0  0  0  0  0  0  0  0  0  0  0  0
   -2.4175    0.4066    5.6697 H   0  0  0  0  0  0  0  0  0  0  0  0
   -0.0973    1.8362    2.3000 H   0  0  0  0  0  0  0  0  0  0  0  0
  1 20  1  0
  1  2  2  0
  1 21  1  0
  2  3  1  0
  3  4  2  0
  4  5  1  0
  4 20  1  0
  5  6  1  0
  5 22  1  0
  5 23  1  0
  6  7  1  0
  6 24  1  0
  6 25  1  0
  7  8  1  0
  7 26  1  0
  7 42  1  0
  8  9  1  0
  8 27  1  0
  8 28  1  0
  9 18  1  0
  9 10  1  0
  9 29  1  1
 10 19  1  0
 10 11  1  0
 10 30  1  1
 11 15  1  0
 11 12  1  0
 11 31  1  1
 12 13  1  0
 12 32  1  0
 12 33  1  0
 13 17  1  0
 13 14  1  0
 13 34  1  6
 14 15  1  0
 14 35  1  0
 14 36  1  0
 15 16  1  0
 15 37  1  1
 16 19  1  0
 16 17  1  0
 16 38  1  1
 17 18  1  0
 17 39  1  6
 18 19  1  0
 18 40  1  6
 19 41  1  6
M  CHG  1   7   1
M  END
>  <i_m_ct_stereo_status>  (308) 
1

>  <s_m_source_file>  (308) 
/var/tmp/pbs.5076255.sched01/tmp361ftg5n/90jpawypyp.sdf

>  <i_m_source_file_index>  (308) 
36

>  <i_lp_mmshare_version>  (308) 
48012

>  <i_f3d_flags>  (308) 
0

>  <s_epik_input>  (308) 
czFbY0hdbm5jMVtDSDJdW0NIMl1bTkhdW0NIMl1bQ0BIXTJbQ0BASF0oW0NAQEhdMzQpW0NASF0oW0NASF0oW0NIMl01KVtDSDJdNilbQ0BASF00W0NASF02W0NASF01W0NASF0yMw==

>  <s_epik_cmdline>  (308) 
J2VwaWtfcHl0aG9uJywgJy1waHQnLCAnMi4wJywgJy1waCcsICc3LjAnLCAnLXRuJywgJzgnLCAnLW1hJywgJzIwMCcsICctaW1hZScsICc8aW5maWxlLm1hZT4nLCAnLW9tYWUnLCAnPG91dGZpbGUubWFlPic=

>  <r_lp_tautomer_probability>  (308) 
1

>  <r_epik_Ionization_Penalty>  (308) 
0.00108533

>  <r_epik_Ionization_Penalty_Charging>  (308) 
0.0010853

>  <r_epik_Ionization_Penalty_Neutral>  (308) 
3.31762e-08

>  <r_epik_State_Penalty>  (308) 
0.000711387

>  <r_epik_Charging_Adjusted_Penalty>  (308) 
0.00179669

>  <i_epik_Tot_Q>  (308) 
1

>  <i_epik_Tot_abs_Q>  (308) 
1

>  <s_lp_Force_Field>  (308) 
OPLS3e

>  <r_lp_Energy>  (308) 
90.6424

>  <b_lp_Chiralities_Consistent>  (308) 
1

>  <s_lp_Variant>  (308) 
82:0-1

>  <s_i_glide_gridfile>  (308) 
pfpi4k_grid

>  <i_i_glide_lignum>  (308) 
36

>  <i_i_glide_rotatable_bonds>  (308) 
5

>  <r_i_docking_score>  (308) 
-2.29905

>  <r_i_glide_ligand_efficiency>  (308) 
-0.114952

>  <r_i_glide_ligand_efficiency_sa>  (308) 
-0.312029

>  <r_i_glide_ligand_efficiency_ln>  (308) 
-0.575376

>  <r_i_glide_gscore>  (308) 
-2.29905

>  <r_i_glide_lipo>  (308) 
-0.10658

>  <r_i_glide_hbond>  (308) 
0

>  <r_i_glide_metal>  (308) 
-0

>  <r_i_glide_rewards>  (308) 
-1.44251

>  <r_i_glide_evdw>  (308) 
-17.5648

>  <r_i_glide_ecoul>  (308) 
-2.98293

>  <r_i_glide_erotb>  (308) 
0.656038

>  <r_i_glide_esite>  (308) 
-0.080316

>  <r_i_glide_emodel>  (308) 
-24.3118

>  <r_i_glide_energy>  (308) 
-20.5477

>  <r_i_glide_einternal>  (308) 
1.68405

>  <r_i_glide_intrahb_reward>  (308) 
-0

>  <i_i_glide_confnum>  (308) 
4

>  <i_i_glide_posenum>  (308) 
1

>  <r_i_glide_eff_state_penalty>  (308) 
0

>  <ligand_id>  (308) 
82

>  <original_smiles>  (308) 
c1nnc(CCNCC2C3C4CC5CC4C4C5C2C34)s1

>  <smiles>  (308) 
[H]c1nnc(C([H])([H])C([H])([H])[N+]([H])([H])C([H])([H])C2([H])C3([H])C4([H])C([H])([H])C5([H])C([H])([H])C4([H])C4([H])C5([H])C2([H])C43[H])s1

$$$$
83:0:0
     RDKit          3D

 70 76  0  0  1  0  0  0  0  0999 V2000
    5.3857   -1.3527    0.6112 C   0  0  0  0  0  0  0  0  0  0  0  0
    4.8723   -2.6832    1.2133 C   0  0  2  0  0  0  0  0  0  0  0  0
    3.3660   -2.8646    0.9308 C   0  0  0  0  0  0  0  0  0  0  0  0
    2.5327   -1.7256    1.5284 C   0  0  0  0  0  0  0  0  0  0  0  0
    2.7270   -1.4970    3.0575 C   0  0  1  0  0  0  0  0  0  0  0  0
    4.1933   -1.7060    3.5641 C   0  0  2  0  0  0  0  0  0  0  0  0
    4.9095   -0.4051    3.9523 C   0  0  0  0  0  0  0  0  0  0  0  0
    4.1440    0.3864    5.0340 C   0  0  1  0  0  0  0  0  0  0  0  0
    4.5560    1.7380    4.9876 O   0  0  0  0  0  0  0  0  0  0  0  0
    2.5748    0.2910    5.0227 C   0  0  1  0  0  0  0  0  0  0  0  0
    2.0154   -0.1842    3.6131 C   0  0  1  0  0  0  0  0  0  0  0  0
    2.3132    1.0028    2.6297 C   0  0  0  0  0  0  0  0  0  0  0  0
    0.4488   -0.3633    3.6137 C   0  0  1  0  0  0  0  0  0  0  0  0
   -0.1245   -1.5462    4.4775 C   0  0  0  0  0  0  0  0  0  0  0  0
   -0.6382   -1.0666    5.8015 C   0  0  1  0  0  0  0  0  0  0  0  0
   -0.1741   -1.2950    7.1392 O   0  0  0  0  0  0  0  0  0  0  0  0
    0.4158   -0.1879    6.4479 C   0  0  2  0  0  0  0  0  0  0  0  0
   -0.1562    1.2257    6.4487 C   0  0  0  0  0  0  0  0  0  0  0  0
   -0.5190    1.6062    5.0409 C   0  0  0  0  0  0  0  0  0  0  0  0
   -1.2181    2.7620    4.8678 O   0  0  0  0  0  0  0  0  0  0  0  0
   -1.4524    2.8576    3.5317 C   0  0  0  0  0  0  0  0  0  0  0  0
   -0.9335    1.7822    2.8678 C   0  0  0  0  0  0  0  0  0  0  0  0
   -0.3055    0.9570    3.8472 C   0  0  0  0  0  0  0  0  0  0  0  0
    1.9717   -0.3110    6.3636 C   0  0  0  0  0  0  0  0  0  0  0  0
    2.4440   -1.7769    6.5891 C   0  0  0  0  0  0  0  0  0  0  0  0
    2.5317    0.4535    7.5987 C   0  0  0  0  0  0  0  0  0  0  0  0
    5.0808   -2.7160    2.7593 C   0  0  1  0  0  0  0  0  0  0  0  0
    4.9389   -4.1521    3.3482 C   0  0  0  0  0  0  0  0  0  0  0  0
    5.8027   -5.2105    2.6382 C   0  0  0  0  0  0  0  0  0  0  0  0
    5.5472   -5.1636    1.1428 C   0  0  0  0  0  0  0  0  0  0  0  0
    5.2588   -6.1689    0.4929 O   0  0  0  0  0  0  0  0  0  0  0  0
    5.6978   -3.7926    0.5020 C   0  0  0  0  0  0  0  0  0  0  0  0
    5.2478   -1.3357   -0.4725 H   0  0  0  0  0  0  0  0  0  0  0  0
    6.4493   -1.2154    0.8149 H   0  0  0  0  0  0  0  0  0  0  0  0
    4.8756   -0.4779    1.0066 H   0  0  0  0  0  0  0  0  0  0  0  0
    3.1883   -2.9222   -0.1446 H   0  0  0  0  0  0  0  0  0  0  0  0
    3.0067   -3.8116    1.3315 H   0  0  0  0  0  0  0  0  0  0  0  0
    2.7348   -0.8343    0.9401 H   0  0  0  0  0  0  0  0  0  0  0  0
    1.4844   -1.9507    1.3384 H   0  0  0  0  0  0  0  0  0  0  0  0
    2.2253   -2.3629    3.4769 H   0  0  0  0  0  0  0  0  0  0  0  0
    4.0817   -2.1884    4.5312 H   0  0  0  0  0  0  0  0  0  0  0  0
    5.8863   -0.6482    4.3676 H   0  0  0  0  0  0  0  0  0  0  0  0
    5.1302    0.2025    3.0775 H   0  0  0  0  0  0  0  0  0  0  0  0
    4.5279    0.0154    5.9793 H   0  0  0  0  0  0  0  0  0  0  0  0
    4.3058    2.1042    4.1482 H   0  0  0  0  0  0  0  0  0  0  0  0
    2.2404    1.3254    5.1111 H   0  0  0  0  0  0  0  0  0  0  0  0
    2.0781    1.9818    3.0506 H   0  0  0  0  0  0  0  0  0  0  0  0
    1.7304    0.9385    1.7082 H   0  0  0  0  0  0  0  0  0  0  0  0
    3.3561    1.0562    2.3207 H   0  0  0  0  0  0  0  0  0  0  0  0
    0.1938   -0.6114    2.5840 H   0  0  0  0  0  0  0  0  0  0  0  0
   -1.0048   -1.9249    3.9652 H   0  0  0  0  0  0  0  0  0  0  0  0
    0.5002   -2.4255    4.5906 H   0  0  0  0  0  0  0  0  0  0  0  0
   -1.6766   -0.7411    5.7755 H   0  0  0  0  0  0  0  0  0  0  0  0
   -1.0576    1.2313    7.0619 H   0  0  0  0  0  0  0  0  0  0  0  0
    0.5184    1.9591    6.8798 H   0  0  0  0  0  0  0  0  0  0  0  0
   -1.9837    3.7367    3.2087 H   0  0  0  0  0  0  0  0  0  0  0  0
   -0.9817    1.6280    1.8000 H   0  0  0  0  0  0  0  0  0  0  0  0
    2.0594   -2.1899    7.5248 H   0  0  0  0  0  0  0  0  0  0  0  0
    3.5281   -1.8396    6.6736 H   0  0  0  0  0  0  0  0  0  0  0  0
    2.1623   -2.4627    5.7992 H   0  0  0  0  0  0  0  0  0  0  0  0
    1.9255    0.2689    8.4879 H   0  0  0  0  0  0  0  0  0  0  0  0
    2.5675    1.5311    7.4409 H   0  0  0  0  0  0  0  0  0  0  0  0
    3.5444    0.1541    7.8645 H   0  0  0  0  0  0  0  0  0  0  0  0
    6.1203   -2.4429    2.9293 H   0  0  0  0  0  0  0  0  0  0  0  0
    5.2247   -4.1425    4.4022 H   0  0  0  0  0  0  0  0  0  0  0  0
    3.8960   -4.4719    3.3286 H   0  0  0  0  0  0  0  0  0  0  0  0
    6.8623   -5.0170    2.8073 H   0  0  0  0  0  0  0  0  0  0  0  0
    5.5985   -6.2103    3.0235 H   0  0  0  0  0  0  0  0  0  0  0  0
    5.4304   -3.8558   -0.5538 H   0  0  0  0  0  0  0  0  0  0  0  0
    6.7573   -3.5409    0.5413 H   0  0  0  0  0  0  0  0  0  0  0  0
  2  1  1  6
  1 33  1  0
  1 34  1  0
  1 35  1  0
  2 27  1  0
  2 32  1  0
  2  3  1  0
  3  4  1  0
  3 36  1  0
  3 37  1  0
  4  5  1  0
  4 38  1  0
  4 39  1  0
  5 11  1  0
  5  6  1  0
  5 40  1  1
  6  7  1  0
  6 27  1  0
  6 41  1  1
  7  8  1  0
  7 42  1  0
  7 43  1  0
  8  9  1  0
  8 10  1  0
  8 44  1  1
  9 45  1  0
 10 24  1  0
 10 11  1  0
 10 46  1  1
 11 12  1  6
 11 13  1  0
 12 47  1  0
 12 48  1  0
 12 49  1  0
 13 23  1  0
 13 14  1  0
 13 50  1  6
 14 15  1  0
 14 51  1  0
 14 52  1  0
 15 17  1  0
 15 16  1  0
 15 53  1  1
 17 16  1  1
 17 18  1  0
 17 24  1  0
 18 19  1  0
 18 54  1  0
 18 55  1  0
 19 23  2  0
 19 20  1  0
 20 21  1  0
 21 22  2  0
 21 56  1  0
 22 23  1  0
 22 57  1  0
 24 25  1  0
 24 26  1  0
 25 58  1  0
 25 59  1  0
 25 60  1  0
 26 61  1  0
 26 62  1  0
 26 63  1  0
 27 28  1  0
 27 64  1  6
 28 29  1  0
 28 65  1  0
 28 66  1  0
 29 30  1  0
 29 67  1  0
 29 68  1  0
 30 31  2  0
 30 32  1  0
 32 69  1  0
 32 70  1  0
M  END
>  <i_m_ct_stereo_status>  (309) 
1

>  <s_m_source_file>  (309) 
/var/tmp/pbs.5076255.sched01/tmp361ftg5n/90jpawypyp.sdf

>  <i_m_source_file_index>  (309) 
37

>  <i_lp_mmshare_version>  (309) 
48012

>  <i_f3d_flags>  (309) 
0

>  <s_epik_input>  (309) 
W0NIMl0xW0NIMl1DKD1PKVtDSDJdW0NAQF0oW0NIM10pKFtDSDJdW0NIMl0yKVtDQEhdMVtDQEBIXShbQ0gyXVtDQEBIXShbT0hdKVtDQEBIXTNDNChbQ0gzXSlbQ0gzXSlbQ0BIXTJbQ0BAXTMoW0NIM10pW0NAQEhdKFtDSDJdW0NAQEhdKE81KVtDQF00NTYpYzdjKFtDSDJdNilvW2NIXVtjSF03

>  <s_epik_cmdline>  (309) 
J2VwaWtfcHl0aG9uJywgJy1waHQnLCAnMi4wJywgJy1waCcsICc3LjAnLCAnLXRuJywgJzgnLCAnLW1hJywgJzIwMCcsICctaW1hZScsICc8aW5maWxlLm1hZT4nLCAnLW9tYWUnLCAnPG91dGZpbGUubWFlPic=

>  <r_lp_tautomer_probability>  (309) 
1

>  <r_epik_Ionization_Penalty>  (309) 
1.23535e-06

>  <r_epik_Ionization_Penalty_Charging>  (309) 
0

>  <r_epik_Ionization_Penalty_Neutral>  (309) 
1.23535e-06

>  <r_epik_State_Penalty>  (309) 
-0

>  <r_epik_Charging_Adjusted_Penalty>  (309) 
0

>  <i_epik_Tot_Q>  (309) 
0

>  <i_epik_Tot_abs_Q>  (309) 
0

>  <s_lp_Force_Field>  (309) 
OPLS3e

>  <r_lp_Energy>  (309) 
94.8289

>  <b_lp_Chiralities_Consistent>  (309) 
1

>  <s_lp_Variant>  (309) 
83:0-1

>  <s_i_glide_gridfile>  (309) 
pfpi4k_grid

>  <i_i_glide_lignum>  (309) 
37

>  <i_i_glide_rotatable_bonds>  (309) 
1

>  <r_i_docking_score>  (309) 
-2.64877

>  <r_i_glide_ligand_efficiency>  (309) 
-0.0827742

>  <r_i_glide_ligand_efficiency_sa>  (309) 
-0.262792

>  <r_i_glide_ligand_efficiency_ln>  (309) 
-0.593133

>  <r_i_glide_gscore>  (309) 
-2.64877

>  <r_i_glide_lipo>  (309) 
-0.377827

>  <r_i_glide_hbond>  (309) 
0

>  <r_i_glide_metal>  (309) 
-0

>  <r_i_glide_rewards>  (309) 
-0.515634

>  <r_i_glide_evdw>  (309) 
-27.0737

>  <r_i_glide_ecoul>  (309) 
-2.67753

>  <r_i_glide_erotb>  (309) 
0

>  <r_i_glide_esite>  (309) 
0

>  <r_i_glide_emodel>  (309) 
-34.4504

>  <r_i_glide_energy>  (309) 
-29.7512

>  <r_i_glide_einternal>  (309) 
0.00144047

>  <r_i_glide_intrahb_reward>  (309) 
-0

>  <i_i_glide_confnum>  (309) 
2

>  <i_i_glide_posenum>  (309) 
1

>  <r_i_glide_eff_state_penalty>  (309) 
0

>  <ligand_id>  (309) 
83

>  <original_smiles>  (309) 
CC12CCC3C(CC(O)C4C3(C)C3CC5OC5(Cc5occc53)C4(C)C)C1CCC(=O)C2

>  <smiles>  (309) 
[H]OC1([H])C([H])([H])C2([H])C3([H])C([H])([H])C([H])([H])C(=O)C([H])([H])C3(C([H])([H])[H])C([H])([H])C([H])([H])C2([H])C2(C([H])([H])[H])C3([H])c4c(oc([H])c4[H])C([H])([H])C4(OC4([H])C3([H])[H])C(C([H])([H])[H])(C([H])([H])[H])C12[H]

$$$$
83:0:1
     RDKit          3D

 70 76  0  0  1  0  0  0  0  0999 V2000
    4.5463   -0.9983    1.3532 C   0  0  0  0  0  0  0  0  0  0  0  0
    4.0539   -2.1504    2.2612 C   0  0  2  0  0  0  0  0  0  0  0  0
    2.5461   -2.4046    2.0447 C   0  0  0  0  0  0  0  0  0  0  0  0
    1.6997   -1.1670    2.3618 C   0  0  0  0  0  0  0  0  0  0  0  0
    1.9108   -0.5838    3.7926 C   0  0  1  0  0  0  0  0  0  0  0  0
    3.3830   -0.6579    4.3244 C   0  0  2  0  0  0  0  0  0  0  0  0
    4.0924    0.7004    4.3855 C   0  0  0  0  0  0  0  0  0  0  0  0
    3.3325    1.7276    5.2516 C   0  0  1  0  0  0  0  0  0  0  0  0
    3.7463    3.0290    4.8776 O   0  0  0  0  0  0  0  0  0  0  0  0
    1.7632    1.6229    5.2767 C   0  0  1  0  0  0  0  0  0  0  0  0
    1.1896    0.8182    4.0288 C   0  0  1  0  0  0  0  0  0  0  0  0
    1.4685    1.7408    2.7888 C   0  0  0  0  0  0  0  0  0  0  0  0
   -0.3791    0.6363    4.0809 C   0  0  1  0  0  0  0  0  0  0  0  0
   -0.9432   -0.3155    5.1942 C   0  0  0  0  0  0  0  0  0  0  0  0
   -1.4307    0.4775    6.3709 C   0  0  1  0  0  0  0  0  0  0  0  0
   -0.9488    0.5508    7.7168 O   0  0  0  0  0  0  0  0  0  0  0  0
   -0.3734    1.4812    6.7950 C   0  0  2  0  0  0  0  0  0  0  0  0
   -0.9585    2.8521    6.4804 C   0  0  0  0  0  0  0  0  0  0  0  0
   -1.3352    2.8909    5.0292 C   0  0  0  0  0  0  0  0  0  0  0  0
   -2.0441    3.9664    4.5929 O   0  0  0  0  0  0  0  0  0  0  0  0
   -2.2985    3.7327    3.2752 C   0  0  0  0  0  0  0  0  0  0  0  0
   -1.7856    2.5338    2.8872 C   0  0  0  0  0  0  0  0  0  0  0  0
   -1.1320    1.9731    4.0179 C   0  0  0  0  0  0  0  0  0  0  0  0
    1.1785    1.3505    6.7288 C   0  0  0  0  0  0  0  0  0  0  0  0
    1.6632   -0.0157    7.2916 C   0  0  0  0  0  0  0  0  0  0  0  0
    1.7402    2.3899    7.7434 C   0  0  0  0  0  0  0  0  0  0  0  0
    4.2793   -1.8160    3.7719 C   0  0  1  0  0  0  0  0  0  0  0  0
    4.1500   -3.0725    4.6818 C   0  0  0  0  0  0  0  0  0  0  0  0
    5.0130   -4.2624    4.2338 C   0  0  0  0  0  0  0  0  0  0  0  0
    4.7506   -4.5752    2.7693 C   0  0  0  0  0  0  0  0  0  0  0  0
    4.4659   -5.7027    2.3791 O   0  0  0  0  0  0  0  0  0  0  0  0
    4.8812   -3.3901    1.8218 C   0  0  0  0  0  0  0  0  0  0  0  0
    4.3950   -1.2424    0.2988 H   0  0  0  0  0  0  0  0  0  0  0  0
    5.6112   -0.8118    1.5044 H   0  0  0  0  0  0  0  0  0  0  0  0
    4.0297   -0.0585    1.5380 H   0  0  0  0  0  0  0  0  0  0  0  0
    2.3605   -2.7170    1.0158 H   0  0  0  0  0  0  0  0  0  0  0  0
    2.1977   -3.2308    2.6620 H   0  0  0  0  0  0  0  0  0  0  0  0
    1.8872   -0.4369    1.5794 H   0  0  0  0  0  0  0  0  0  0  0  0
    0.6533   -1.4462    2.2451 H   0  0  0  0  0  0  0  0  0  0  0  0
    1.4217   -1.3300    4.4090 H   0  0  0  0  0  0  0  0  0  0  0  0
    3.2867   -0.8968    5.3794 H   0  0  0  0  0  0  0  0  0  0  0  0
    5.0822    0.5712    4.8261 H   0  0  0  0  0  0  0  0  0  0  0  0
    4.2808    1.0810    3.3860 H   0  0  0  0  0  0  0  0  0  0  0  0
    3.7238    1.5977    6.2558 H   0  0  0  0  0  0  0  0  0  0  0  0
    3.5505    3.1557    3.9573 H   0  0  0  0  0  0  0  0  0  0  0  0
    1.4230    2.6469    5.1195 H   0  0  0  0  0  0  0  0  0  0  0  0
    1.2240    2.7896    2.9694 H   0  0  0  0  0  0  0  0  0  0  0  0
    0.8762    1.4574    1.9164 H   0  0  0  0  0  0  0  0  0  0  0  0
    2.5069    1.7288    2.4649 H   0  0  0  0  0  0  0  0  0  0  0  0
   -0.6519    0.1564    3.1407 H   0  0  0  0  0  0  0  0  0  0  0  0
   -1.8284   -0.8071    4.7863 H   0  0  0  0  0  0  0  0  0  0  0  0
   -0.3056   -1.1303    5.5146 H   0  0  0  0  0  0  0  0  0  0  0  0
   -2.4733    0.7838    6.2954 H   0  0  0  0  0  0  0  0  0  0  0  0
   -1.8553    2.9903    7.0839 H   0  0  0  0  0  0  0  0  0  0  0  0
   -0.2878    3.6736    6.7127 H   0  0  0  0  0  0  0  0  0  0  0  0
   -2.8502    4.5021    2.7576 H   0  0  0  0  0  0  0  0  0  0  0  0
   -1.8510    2.0986    1.9028 H   0  0  0  0  0  0  0  0  0  0  0  0
    1.2890   -0.1941    8.3026 H   0  0  0  0  0  0  0  0  0  0  0  0
    2.7480   -0.0505    7.3779 H   0  0  0  0  0  0  0  0  0  0  0  0
    1.3766   -0.8689    6.6882 H   0  0  0  0  0  0  0  0  0  0  0  0
    1.1421    2.4143    8.6578 H   0  0  0  0  0  0  0  0  0  0  0  0
    1.7632    3.4017    7.3375 H   0  0  0  0  0  0  0  0  0  0  0  0
    2.7577    2.1691    8.0633 H   0  0  0  0  0  0  0  0  0  0  0  0
    5.3201   -1.5064    3.8705 H   0  0  0  0  0  0  0  0  0  0  0  0
    4.4450   -2.8142    5.7004 H   0  0  0  0  0  0  0  0  0  0  0  0
    3.1086   -3.3929    4.7464 H   0  0  0  0  0  0  0  0  0  0  0  0
    6.0689   -4.0213    4.3483 H   0  0  0  0  0  0  0  0  0  0  0  0
    4.8216   -5.1451    4.8458 H   0  0  0  0  0  0  0  0  0  0  0  0
    4.6017   -3.7040    0.8157 H   0  0  0  0  0  0  0  0  0  0  0  0
    5.9382   -3.1304    1.7847 H   0  0  0  0  0  0  0  0  0  0  0  0
  2  1  1  6
  1 33  1  0
  1 34  1  0
  1 35  1  0
  2 27  1  0
  2 32  1  0
  2  3  1  0
  3  4  1  0
  3 36  1  0
  3 37  1  0
  4  5  1  0
  4 38  1  0
  4 39  1  0
  5 11  1  0
  5  6  1  0
  5 40  1  1
  6  7  1  0
  6 27  1  0
  6 41  1  1
  7  8  1  0
  7 42  1  0
  7 43  1  0
  8  9  1  0
  8 10  1  0
  8 44  1  1
  9 45  1  0
 10 24  1  0
 10 11  1  0
 10 46  1  6
 11 12  1  6
 11 13  1  0
 12 47  1  0
 12 48  1  0
 12 49  1  0
 13 23  1  0
 13 14  1  0
 13 50  1  6
 14 15  1  0
 14 51  1  0
 14 52  1  0
 15 17  1  0
 15 16  1  0
 15 53  1  1
 17 16  1  1
 17 18  1  0
 17 24  1  0
 18 19  1  0
 18 54  1  0
 18 55  1  0
 19 23  2  0
 19 20  1  0
 20 21  1  0
 21 22  2  0
 21 56  1  0
 22 23  1  0
 22 57  1  0
 24 25  1  0
 24 26  1  0
 25 58  1  0
 25 59  1  0
 25 60  1  0
 26 61  1  0
 26 62  1  0
 26 63  1  0
 27 28  1  0
 27 64  1  6
 28 29  1  0
 28 65  1  0
 28 66  1  0
 29 30  1  0
 29 67  1  0
 29 68  1  0
 30 31  2  0
 30 32  1  0
 32 69  1  0
 32 70  1  0
M  END
>  <i_m_ct_stereo_status>  (310) 
1

>  <s_m_source_file>  (310) 
/var/tmp/pbs.5076255.sched01/tmp361ftg5n/90jpawypyp.sdf

>  <i_m_source_file_index>  (310) 
37

>  <i_lp_mmshare_version>  (310) 
48012

>  <i_f3d_flags>  (310) 
0

>  <s_epik_input>  (310) 
W0NIMl0xW0NIMl1DKD1PKVtDSDJdW0NAQF0oW0NIM10pKFtDSDJdW0NIMl0yKVtDQEhdMVtDQEBIXShbQ0gyXVtDQEBIXShbT0hdKVtDQEBIXTNDNChbQ0gzXSlbQ0gzXSlbQ0BIXTJbQ0BAXTMoW0NIM10pW0NAQEhdKFtDSDJdW0NAQEhdKE81KVtDQF00NTYpYzdjKFtDSDJdNilvW2NIXVtjSF03

>  <s_epik_cmdline>  (310) 
J2VwaWtfcHl0aG9uJywgJy1waHQnLCAnMi4wJywgJy1waCcsICc3LjAnLCAnLXRuJywgJzgnLCAnLW1hJywgJzIwMCcsICctaW1hZScsICc8aW5maWxlLm1hZT4nLCAnLW9tYWUnLCAnPG91dGZpbGUubWFlPic=

>  <r_lp_tautomer_probability>  (310) 
1

>  <r_epik_Ionization_Penalty>  (310) 
1.23535e-06

>  <r_epik_Ionization_Penalty_Charging>  (310) 
0

>  <r_epik_Ionization_Penalty_Neutral>  (310) 
1.23535e-06

>  <r_epik_State_Penalty>  (310) 
-0

>  <r_epik_Charging_Adjusted_Penalty>  (310) 
0

>  <i_epik_Tot_Q>  (310) 
0

>  <i_epik_Tot_abs_Q>  (310) 
0

>  <s_lp_Force_Field>  (310) 
OPLS3e

>  <r_lp_Energy>  (310) 
94.8289

>  <b_lp_Chiralities_Consistent>  (310) 
1

>  <s_lp_Variant>  (310) 
83:0-1

>  <s_i_glide_gridfile>  (310) 
pfpi4k_grid

>  <i_i_glide_lignum>  (310) 
37

>  <i_i_glide_rotatable_bonds>  (310) 
1

>  <r_i_docking_score>  (310) 
-2.37061

>  <r_i_glide_ligand_efficiency>  (310) 
-0.0740817

>  <r_i_glide_ligand_efficiency_sa>  (310) 
-0.235195

>  <r_i_glide_ligand_efficiency_ln>  (310) 
-0.530845

>  <r_i_glide_gscore>  (310) 
-2.37061

>  <r_i_glide_lipo>  (310) 
-0.128313

>  <r_i_glide_hbond>  (310) 
-0.0931422

>  <r_i_glide_metal>  (310) 
-0

>  <r_i_glide_rewards>  (310) 
-0.433217

>  <r_i_glide_evdw>  (310) 
-26.3568

>  <r_i_glide_ecoul>  (310) 
-2.654

>  <r_i_glide_erotb>  (310) 
0

>  <r_i_glide_esite>  (310) 
0

>  <r_i_glide_emodel>  (310) 
-33.173

>  <r_i_glide_energy>  (310) 
-29.0108

>  <r_i_glide_einternal>  (310) 
0.0441244

>  <r_i_glide_intrahb_reward>  (310) 
-0

>  <i_i_glide_confnum>  (310) 
1

>  <i_i_glide_posenum>  (310) 
38

>  <r_i_glide_eff_state_penalty>  (310) 
0

>  <ligand_id>  (310) 
83

>  <original_smiles>  (310) 
CC12CCC3C(CC(O)C4C3(C)C3CC5OC5(Cc5occc53)C4(C)C)C1CCC(=O)C2

>  <smiles>  (310) 
[H]OC1([H])C([H])([H])C2([H])C3([H])C([H])([H])C([H])([H])C(=O)C([H])([H])C3(C([H])([H])[H])C([H])([H])C([H])([H])C2([H])C2(C([H])([H])[H])C3([H])c4c(oc([H])c4[H])C([H])([H])C4(OC4([H])C3([H])[H])C(C([H])([H])[H])(C([H])([H])[H])C12[H]

$$$$
83:0:2
     RDKit          3D

 70 76  0  0  1  0  0  0  0  0999 V2000
    0.8494   -3.2651    4.1649 C   0  0  0  0  0  0  0  0  0  0  0  0
    1.1505   -2.8144    5.6118 C   0  0  2  0  0  0  0  0  0  0  0  0
   -0.1017   -2.1807    6.2576 C   0  0  0  0  0  0  0  0  0  0  0  0
   -0.5949   -0.9545    5.4785 C   0  0  0  0  0  0  0  0  0  0  0  0
    0.4823    0.1553    5.2619 C   0  0  1  0  0  0  0  0  0  0  0  0
    1.9331   -0.3784    5.0068 C   0  0  2  0  0  0  0  0  0  0  0  0
    2.4234   -0.1994    3.5634 C   0  0  0  0  0  0  0  0  0  0  0  0
    2.3728    1.2705    3.0971 C   0  0  1  0  0  0  0  0  0  0  0  0
    2.3398    1.2789    1.6826 O   0  0  0  0  0  0  0  0  0  0  0  0
    1.2365    2.1795    3.6987 C   0  0  1  0  0  0  0  0  0  0  0  0
    0.0266    1.3230    4.2768 C   0  0  1  0  0  0  0  0  0  0  0  0
   -0.6402    0.6791    3.0157 C   0  0  0  0  0  0  0  0  0  0  0  0
   -1.0917    2.2111    4.9519 C   0  0  1  0  0  0  0  0  0  0  0  0
   -0.7021    2.9282    6.2956 C   0  0  0  0  0  0  0  0  0  0  0  0
   -0.3181    4.3594    6.0627 C   0  0  1  0  0  0  0  0  0  0  0  0
    0.9367    5.0393    6.1839 O   0  0  0  0  0  0  0  0  0  0  0  0
    0.6709    4.4368    4.9149 C   0  0  2  0  0  0  0  0  0  0  0  0
   -0.0669    5.1246    3.7710 C   0  0  0  0  0  0  0  0  0  0  0  0
   -1.3246    4.3588    3.4687 C   0  0  0  0  0  0  0  0  0  0  0  0
   -2.2158    4.9241    2.6065 O   0  0  0  0  0  0  0  0  0  0  0  0
   -3.2463    4.0412    2.4961 C   0  0  0  0  0  0  0  0  0  0  0  0
   -3.0476    2.9738    3.3250 C   0  0  0  0  0  0  0  0  0  0  0  0
   -1.7841    3.1576    3.9546 C   0  0  0  0  0  0  0  0  0  0  0  0
    1.7882    3.4205    4.5194 C   0  0  0  0  0  0  0  0  0  0  0  0
    2.6062    2.9645    5.7636 C   0  0  0  0  0  0  0  0  0  0  0  0
    2.8168    4.2206    3.6690 C   0  0  0  0  0  0  0  0  0  0  0  0
    2.3031   -1.7633    5.6396 C   0  0  1  0  0  0  0  0  0  0  0  0
    2.8941   -1.5689    7.0679 C   0  0  0  0  0  0  0  0  0  0  0  0
    3.3124   -2.8815    7.7536 C   0  0  0  0  0  0  0  0  0  0  0  0
    2.1553   -3.8638    7.7310 C   0  0  0  0  0  0  0  0  0  0  0  0
    1.7438   -4.4224    8.7476 O   0  0  0  0  0  0  0  0  0  0  0  0
    1.5483   -4.1180    6.3606 C   0  0  0  0  0  0  0  0  0  0  0  0
    0.0563   -4.0149    4.1524 H   0  0  0  0  0  0  0  0  0  0  0  0
    1.7303   -3.7118    3.7005 H   0  0  0  0  0  0  0  0  0  0  0  0
    0.5297   -2.4518    3.5181 H   0  0  0  0  0  0  0  0  0  0  0  0
   -0.9014   -2.9200    6.3271 H   0  0  0  0  0  0  0  0  0  0  0  0
    0.1064   -1.8839    7.2844 H   0  0  0  0  0  0  0  0  0  0  0  0
   -1.0159   -1.3140    4.5435 H   0  0  0  0  0  0  0  0  0  0  0  0
   -1.4351   -0.5283    6.0243 H   0  0  0  0  0  0  0  0  0  0  0  0
    0.5794    0.5706    6.2592 H   0  0  0  0  0  0  0  0  0  0  0  0
    2.5769    0.3157    5.5379 H   0  0  0  0  0  0  0  0  0  0  0  0
    3.4629   -0.5225    3.4988 H   0  0  0  0  0  0  0  0  0  0  0  0
    1.8921   -0.8556    2.8775 H   0  0  0  0  0  0  0  0  0  0  0  0
    3.3431    1.6840    3.3568 H   0  0  0  0  0  0  0  0  0  0  0  0
    1.4966    0.9660    1.3823 H   0  0  0  0  0  0  0  0  0  0  0  0
    0.8193    2.6972    2.8330 H   0  0  0  0  0  0  0  0  0  0  0  0
   -0.7610    1.3748    2.1825 H   0  0  0  0  0  0  0  0  0  0  0  0
   -1.6428    0.3057    3.2280 H   0  0  0  0  0  0  0  0  0  0  0  0
   -0.0810   -0.1654    2.6164 H   0  0  0  0  0  0  0  0  0  0  0  0
   -1.8908    1.5232    5.2272 H   0  0  0  0  0  0  0  0  0  0  0  0
   -1.6022    2.9661    6.9139 H   0  0  0  0  0  0  0  0  0  0  0  0
    0.0267    2.4312    6.9263 H   0  0  0  0  0  0  0  0  0  0  0  0
   -1.1560    5.0483    6.1018 H   0  0  0  0  0  0  0  0  0  0  0  0
   -0.3187    6.1377    4.0773 H   0  0  0  0  0  0  0  0  0  0  0  0
    0.5436    5.2275    2.8771 H   0  0  0  0  0  0  0  0  0  0  0  0
   -4.0425    4.3257    1.8273 H   0  0  0  0  0  0  0  0  0  0  0  0
   -3.7298    2.1507    3.4607 H   0  0  0  0  0  0  0  0  0  0  0  0
    3.0145    3.8136    6.3181 H   0  0  0  0  0  0  0  0  0  0  0  0
    3.4717    2.3694    5.4763 H   0  0  0  0  0  0  0  0  0  0  0  0
    2.0439    2.3669    6.4710 H   0  0  0  0  0  0  0  0  0  0  0  0
    2.9799    5.2206    4.0765 H   0  0  0  0  0  0  0  0  0  0  0  0
    2.5012    4.3349    2.6313 H   0  0  0  0  0  0  0  0  0  0  0  0
    3.7977    3.7501    3.6383 H   0  0  0  0  0  0  0  0  0  0  0  0
    3.1241   -2.1807    5.0566 H   0  0  0  0  0  0  0  0  0  0  0  0
    3.7768   -0.9283    7.0118 H   0  0  0  0  0  0  0  0  0  0  0  0
    2.1857   -1.0412    7.7076 H   0  0  0  0  0  0  0  0  0  0  0  0
    4.1534   -3.3329    7.2258 H   0  0  0  0  0  0  0  0  0  0  0  0
    3.6352   -2.7064    8.7807 H   0  0  0  0  0  0  0  0  0  0  0  0
    0.6909   -4.7846    6.4621 H   0  0  0  0  0  0  0  0  0  0  0  0
    2.2950   -4.6601    5.7808 H   0  0  0  0  0  0  0  0  0  0  0  0
  2  1  1  6
  1 33  1  0
  1 34  1  0
  1 35  1  0
  2 27  1  0
  2 32  1  0
  2  3  1  0
  3  4  1  0
  3 36  1  0
  3 37  1  0
  4  5  1  0
  4 38  1  0
  4 39  1  0
  5 11  1  0
  5  6  1  0
  5 40  1  1
  6  7  1  0
  6 27  1  0
  6 41  1  1
  7  8  1  0
  7 42  1  0
  7 43  1  0
  8  9  1  0
  8 10  1  0
  8 44  1  6
  9 45  1  0
 10 24  1  0
 10 11  1  0
 10 46  1  6
 11 12  1  6
 11 13  1  0
 12 47  1  0
 12 48  1  0
 12 49  1  0
 13 23  1  0
 13 14  1  0
 13 50  1  1
 14 15  1  0
 14 51  1  0
 14 52  1  0
 15 17  1  0
 15 16  1  0
 15 53  1  6
 17 16  1  1
 17 18  1  0
 17 24  1  0
 18 19  1  0
 18 54  1  0
 18 55  1  0
 19 23  2  0
 19 20  1  0
 20 21  1  0
 21 22  2  0
 21 56  1  0
 22 23  1  0
 22 57  1  0
 24 25  1  0
 24 26  1  0
 25 58  1  0
 25 59  1  0
 25 60  1  0
 26 61  1  0
 26 62  1  0
 26 63  1  0
 27 28  1  0
 27 64  1  6
 28 29  1  0
 28 65  1  0
 28 66  1  0
 29 30  1  0
 29 67  1  0
 29 68  1  0
 30 31  2  0
 30 32  1  0
 32 69  1  0
 32 70  1  0
M  END
>  <i_m_ct_stereo_status>  (311) 
1

>  <s_m_source_file>  (311) 
/var/tmp/pbs.5076255.sched01/tmp361ftg5n/90jpawypyp.sdf

>  <i_m_source_file_index>  (311) 
37

>  <i_lp_mmshare_version>  (311) 
48012

>  <i_f3d_flags>  (311) 
0

>  <s_epik_input>  (311) 
W0NIMl0xW0NIMl1DKD1PKVtDSDJdW0NAQF0oW0NIM10pKFtDSDJdW0NIMl0yKVtDQEhdMVtDQEBIXShbQ0gyXVtDQEBIXShbT0hdKVtDQEBIXTNDNChbQ0gzXSlbQ0gzXSlbQ0BIXTJbQ0BAXTMoW0NIM10pW0NAQEhdKFtDSDJdW0NAQEhdKE81KVtDQF00NTYpYzdjKFtDSDJdNilvW2NIXVtjSF03

>  <s_epik_cmdline>  (311) 
J2VwaWtfcHl0aG9uJywgJy1waHQnLCAnMi4wJywgJy1waCcsICc3LjAnLCAnLXRuJywgJzgnLCAnLW1hJywgJzIwMCcsICctaW1hZScsICc8aW5maWxlLm1hZT4nLCAnLW9tYWUnLCAnPG91dGZpbGUubWFlPic=

>  <r_lp_tautomer_probability>  (311) 
1

>  <r_epik_Ionization_Penalty>  (311) 
1.23535e-06

>  <r_epik_Ionization_Penalty_Charging>  (311) 
0

>  <r_epik_Ionization_Penalty_Neutral>  (311) 
1.23535e-06

>  <r_epik_State_Penalty>  (311) 
-0

>  <r_epik_Charging_Adjusted_Penalty>  (311) 
0

>  <i_epik_Tot_Q>  (311) 
0

>  <i_epik_Tot_abs_Q>  (311) 
0

>  <s_lp_Force_Field>  (311) 
OPLS3e

>  <r_lp_Energy>  (311) 
94.8289

>  <b_lp_Chiralities_Consistent>  (311) 
1

>  <s_lp_Variant>  (311) 
83:0-1

>  <s_i_glide_gridfile>  (311) 
pfpi4k_grid

>  <i_i_glide_lignum>  (311) 
37

>  <i_i_glide_rotatable_bonds>  (311) 
1

>  <r_i_docking_score>  (311) 
-2.24534

>  <r_i_glide_ligand_efficiency>  (311) 
-0.0701667

>  <r_i_glide_ligand_efficiency_sa>  (311) 
-0.222765

>  <r_i_glide_ligand_efficiency_ln>  (311) 
-0.502792

>  <r_i_glide_gscore>  (311) 
-2.24534

>  <r_i_glide_lipo>  (311) 
-0.0281779

>  <r_i_glide_hbond>  (311) 
-0.16

>  <r_i_glide_metal>  (311) 
-0

>  <r_i_glide_rewards>  (311) 
-0.418644

>  <r_i_glide_evdw>  (311) 
-24.3898

>  <r_i_glide_ecoul>  (311) 
-2.7935

>  <r_i_glide_erotb>  (311) 
0

>  <r_i_glide_esite>  (311) 
0

>  <r_i_glide_emodel>  (311) 
-31.1143

>  <r_i_glide_energy>  (311) 
-27.1833

>  <r_i_glide_einternal>  (311) 
0.00881976

>  <r_i_glide_intrahb_reward>  (311) 
-0

>  <i_i_glide_confnum>  (311) 
2

>  <i_i_glide_posenum>  (311) 
11

>  <r_i_glide_eff_state_penalty>  (311) 
0

>  <ligand_id>  (311) 
83

>  <original_smiles>  (311) 
CC12CCC3C(CC(O)C4C3(C)C3CC5OC5(Cc5occc53)C4(C)C)C1CCC(=O)C2

>  <smiles>  (311) 
[H]OC1([H])C([H])([H])C2([H])C3([H])C([H])([H])C([H])([H])C(=O)C([H])([H])C3(C([H])([H])[H])C([H])([H])C([H])([H])C2([H])C2(C([H])([H])[H])C3([H])c4c(oc([H])c4[H])C([H])([H])C4(OC4([H])C3([H])[H])C(C([H])([H])[H])(C([H])([H])[H])C12[H]

$$$$
84:0:0
     RDKit          3D

 28 29  0  0  1  0  0  0  0  0999 V2000
    3.6379   -1.0294   -3.8445 C   0  0  0  0  0  0  0  0  0  0  0  0
    3.6356   -1.5268   -2.3859 C   0  0  2  0  0  0  0  0  0  0  0  0
    4.8028   -0.9991   -1.5322 C   0  0  0  0  0  0  0  0  0  0  0  0
    5.4057   -2.2897   -0.9266 C   0  0  2  0  0  0  0  0  0  0  0  0
    6.1608   -3.0202   -2.0598 C   0  0  0  0  0  0  0  0  0  0  0  0
    5.0086   -3.5732   -2.9245 C   0  0  0  0  0  0  0  0  0  0  0  0
    3.7553   -3.0582   -2.1816 C   0  0  1  0  0  0  0  0  0  0  0  0
    4.1712   -3.1840   -0.6982 C   0  0  0  0  0  0  0  0  0  0  0  0
    4.4936   -4.6319   -0.2291 C   0  0  0  0  0  0  0  0  0  0  0  0
    3.1478   -2.6294    0.3286 C   0  0  0  0  0  0  0  0  0  0  0  0
    4.6012   -1.1707   -4.3386 H   0  0  0  0  0  0  0  0  0  0  0  0
    3.4075    0.0362   -3.8895 H   0  0  0  0  0  0  0  0  0  0  0  0
    2.8773   -1.5452   -4.4299 H   0  0  0  0  0  0  0  0  0  0  0  0
    2.6897   -1.1974   -1.9570 H   0  0  0  0  0  0  0  0  0  0  0  0
    5.5250   -0.4370   -2.1201 H   0  0  0  0  0  0  0  0  0  0  0  0
    4.4424   -0.3239   -0.7582 H   0  0  0  0  0  0  0  0  0  0  0  0
    6.0135   -2.1054   -0.0415 H   0  0  0  0  0  0  0  0  0  0  0  0
    6.8131   -2.3465   -2.6156 H   0  0  0  0  0  0  0  0  0  0  0  0
    6.7866   -3.8256   -1.6735 H   0  0  0  0  0  0  0  0  0  0  0  0
    5.0654   -3.2562   -3.9644 H   0  0  0  0  0  0  0  0  0  0  0  0
    5.0216   -4.6601   -2.9447 H   0  0  0  0  0  0  0  0  0  0  0  0
    2.8500   -3.5973   -2.4441 H   0  0  0  0  0  0  0  0  0  0  0  0
    3.5960   -5.2523   -0.2483 H   0  0  0  0  0  0  0  0  0  0  0  0
    4.8594   -4.6430    0.7993 H   0  0  0  0  0  0  0  0  0  0  0  0
    5.2418   -5.1567   -0.8225 H   0  0  0  0  0  0  0  0  0  0  0  0
    2.2197   -3.2003    0.2996 H   0  0  0  0  0  0  0  0  0  0  0  0
    2.8725   -1.5847    0.1877 H   0  0  0  0  0  0  0  0  0  0  0  0
    3.5247   -2.7056    1.3504 H   0  0  0  0  0  0  0  0  0  0  0  0
  1  2  1  0
  1 11  1  0
  1 12  1  0
  1 13  1  0
  2  7  1  0
  2  3  1  0
  2 14  1  1
  3  4  1  0
  3 15  1  0
  3 16  1  0
  4  8  1  0
  4  5  1  0
  4 17  1  1
  5  6  1  0
  5 18  1  0
  5 19  1  0
  6  7  1  0
  6 20  1  0
  6 21  1  0
  7  8  1  0
  7 22  1  1
  8  9  1  0
  8 10  1  0
  9 23  1  0
  9 24  1  0
  9 25  1  0
 10 26  1  0
 10 27  1  0
 10 28  1  0
M  END
>  <i_m_ct_stereo_status>  (312) 
1

>  <s_m_source_file>  (312) 
/var/tmp/pbs.5076255.sched01/tmp361ftg5n/90jpawypyp.sdf

>  <i_m_source_file_index>  (312) 
38

>  <i_lp_mmshare_version>  (312) 
48012

>  <i_f3d_flags>  (312) 
0

>  <s_epik_input>  (312) 
W0NAQEhdMTJbQ0gyXVtDQEBIXShbQ0gzXSlbQ0BASF0oW0NIMl1bQ0gyXTEpQzIoW0NIM10pW0NIM10=

>  <s_epik_cmdline>  (312) 
J2VwaWtfcHl0aG9uJywgJy1waHQnLCAnMi4wJywgJy1waCcsICc3LjAnLCAnLXRuJywgJzgnLCAnLW1hJywgJzIwMCcsICctaW1hZScsICc8aW5maWxlLm1hZT4nLCAnLW9tYWUnLCAnPG91dGZpbGUubWFlPic=

>  <r_lp_tautomer_probability>  (312) 
1

>  <r_epik_Ionization_Penalty>  (312) 
0

>  <r_epik_Ionization_Penalty_Charging>  (312) 
0

>  <r_epik_Ionization_Penalty_Neutral>  (312) 
0

>  <r_epik_State_Penalty>  (312) 
-0

>  <r_epik_Charging_Adjusted_Penalty>  (312) 
0

>  <i_epik_Tot_Q>  (312) 
0

>  <i_epik_Tot_abs_Q>  (312) 
0

>  <s_lp_Force_Field>  (312) 
OPLS3e

>  <r_lp_Energy>  (312) 
39.2633

>  <b_lp_Chiralities_Consistent>  (312) 
1

>  <s_lp_Variant>  (312) 
84:0-1

>  <s_i_glide_gridfile>  (312) 
pfpi4k_grid

>  <i_i_glide_lignum>  (312) 
38

>  <i_i_glide_rotatable_bonds>  (312) 
0

>  <r_i_docking_score>  (312) 
-3.67546

>  <r_i_glide_ligand_efficiency>  (312) 
-0.367546

>  <r_i_glide_ligand_efficiency_sa>  (312) 
-0.791855

>  <r_i_glide_ligand_efficiency_ln>  (312) 
-1.11291

>  <r_i_glide_gscore>  (312) 
-3.67546

>  <r_i_glide_lipo>  (312) 
-0.448106

>  <r_i_glide_hbond>  (312) 
0

>  <r_i_glide_metal>  (312) 
-0

>  <r_i_glide_rewards>  (312) 
-2.25

>  <r_i_glide_evdw>  (312) 
-18.6275

>  <r_i_glide_ecoul>  (312) 
-0.30654

>  <r_i_glide_erotb>  (312) 
0

>  <r_i_glide_esite>  (312) 
0

>  <r_i_glide_emodel>  (312) 
-23.2008

>  <r_i_glide_energy>  (312) 
-18.9341

>  <r_i_glide_einternal>  (312) 
0

>  <r_i_glide_intrahb_reward>  (312) 
-0

>  <i_i_glide_confnum>  (312) 
1

>  <i_i_glide_posenum>  (312) 
1

>  <r_i_glide_eff_state_penalty>  (312) 
0

>  <ligand_id>  (312) 
84

>  <original_smiles>  (312) 
CC1CC2CCC1C2(C)C

>  <smiles>  (312) 
[H]C([H])([H])C1([H])C([H])([H])C2([H])C([H])([H])C([H])([H])C1([H])C2(C([H])([H])[H])C([H])([H])[H]

$$$$
84:0:1
     RDKit          3D

 28 29  0  0  1  0  0  0  0  0999 V2000
    3.7515   -4.3210    0.8493 C   0  0  0  0  0  0  0  0  0  0  0  0
    3.7415   -3.8256   -0.6147 C   0  0  2  0  0  0  0  0  0  0  0  0
    5.0145   -4.1673   -1.4169 C   0  0  0  0  0  0  0  0  0  0  0  0
    5.4252   -2.8053   -2.0191 C   0  0  2  0  0  0  0  0  0  0  0  0
    6.0027   -1.9878   -0.8471 C   0  0  0  0  0  0  0  0  0  0  0  0
    4.7563   -1.5862   -0.0499 C   0  0  0  0  0  0  0  0  0  0  0  0
    3.6328   -2.2957   -0.8301 C   0  0  1  0  0  0  0  0  0  0  0  0
    4.0675   -2.1069   -2.3237 C   0  0  0  0  0  0  0  0  0  0  0  0
    4.1781   -0.6455   -2.7914 C   0  0  0  0  0  0  0  0  0  0  0  0
    3.1721   -2.7980   -3.3752 C   0  0  0  0  0  0  0  0  0  0  0  0
    4.6608   -4.0510    1.3727 H   0  0  0  0  0  0  0  0  0  0  0  0
    3.6824   -5.4114    0.8797 H   0  0  0  0  0  0  0  0  0  0  0  0
    2.9021   -3.9163    1.3950 H   0  0  0  0  0  0  0  0  0  0  0  0
    2.8784   -4.2753   -1.0891 H   0  0  0  0  0  0  0  0  0  0  0  0
    5.8008   -4.6019   -0.8029 H   0  0  0  0  0  0  0  0  0  0  0  0
    4.8217   -4.8934   -2.2023 H   0  0  0  0  0  0  0  0  0  0  0  0
    6.0897   -2.9009   -2.8759 H   0  0  0  0  0  0  0  0  0  0  0  0
    6.7269   -2.5582   -0.2614 H   0  0  0  0  0  0  0  0  0  0  0  0
    6.5160   -1.0905   -1.1925 H   0  0  0  0  0  0  0  0  0  0  0  0
    4.8232   -1.8670    1.0058 H   0  0  0  0  0  0  0  0  0  0  0  0
    4.6190   -0.5086   -0.0383 H   0  0  0  0  0  0  0  0  0  0  0  0
    2.6453   -1.9044   -0.6072 H   0  0  0  0  0  0  0  0  0  0  0  0
    3.1808   -0.1809   -2.8021 H   0  0  0  0  0  0  0  0  0  0  0  0
    4.5538   -0.5851   -3.8218 H   0  0  0  0  0  0  0  0  0  0  0  0
    4.8028    0.0126   -2.2013 H   0  0  0  0  0  0  0  0  0  0  0  0
    2.1645   -2.3674   -3.3866 H   0  0  0  0  0  0  0  0  0  0  0  0
    3.0363   -3.8611   -3.2512 H   0  0  0  0  0  0  0  0  0  0  0  0
    3.5723   -2.6721   -4.3898 H   0  0  0  0  0  0  0  0  0  0  0  0
  1  2  1  0
  1 11  1  0
  1 12  1  0
  1 13  1  0
  2  7  1  0
  2  3  1  0
  2 14  1  6
  3  4  1  0
  3 15  1  0
  3 16  1  0
  4  8  1  0
  4  5  1  0
  4 17  1  6
  5  6  1  0
  5 18  1  0
  5 19  1  0
  6  7  1  0
  6 20  1  0
  6 21  1  0
  7  8  1  0
  7 22  1  6
  8  9  1  0
  8 10  1  0
  9 23  1  0
  9 24  1  0
  9 25  1  0
 10 26  1  0
 10 27  1  0
 10 28  1  0
M  END
>  <i_m_ct_stereo_status>  (313) 
1

>  <s_m_source_file>  (313) 
/var/tmp/pbs.5076255.sched01/tmp361ftg5n/90jpawypyp.sdf

>  <i_m_source_file_index>  (313) 
38

>  <i_lp_mmshare_version>  (313) 
48012

>  <i_f3d_flags>  (313) 
0

>  <s_epik_input>  (313) 
W0NAQEhdMTJbQ0gyXVtDQEBIXShbQ0gzXSlbQ0BASF0oW0NIMl1bQ0gyXTEpQzIoW0NIM10pW0NIM10=

>  <s_epik_cmdline>  (313) 
J2VwaWtfcHl0aG9uJywgJy1waHQnLCAnMi4wJywgJy1waCcsICc3LjAnLCAnLXRuJywgJzgnLCAnLW1hJywgJzIwMCcsICctaW1hZScsICc8aW5maWxlLm1hZT4nLCAnLW9tYWUnLCAnPG91dGZpbGUubWFlPic=

>  <r_lp_tautomer_probability>  (313) 
1

>  <r_epik_Ionization_Penalty>  (313) 
0

>  <r_epik_Ionization_Penalty_Charging>  (313) 
0

>  <r_epik_Ionization_Penalty_Neutral>  (313) 
0

>  <r_epik_State_Penalty>  (313) 
-0

>  <r_epik_Charging_Adjusted_Penalty>  (313) 
0

>  <i_epik_Tot_Q>  (313) 
0

>  <i_epik_Tot_abs_Q>  (313) 
0

>  <s_lp_Force_Field>  (313) 
OPLS3e

>  <r_lp_Energy>  (313) 
39.2633

>  <b_lp_Chiralities_Consistent>  (313) 
1

>  <s_lp_Variant>  (313) 
84:0-1

>  <s_i_glide_gridfile>  (313) 
pfpi4k_grid

>  <i_i_glide_lignum>  (313) 
38

>  <i_i_glide_rotatable_bonds>  (313) 
0

>  <r_i_docking_score>  (313) 
-3.42433

>  <r_i_glide_ligand_efficiency>  (313) 
-0.342433

>  <r_i_glide_ligand_efficiency_sa>  (313) 
-0.73775

>  <r_i_glide_ligand_efficiency_ln>  (313) 
-1.03686

>  <r_i_glide_gscore>  (313) 
-3.42433

>  <r_i_glide_lipo>  (313) 
-0.352295

>  <r_i_glide_hbond>  (313) 
0

>  <r_i_glide_metal>  (313) 
-0

>  <r_i_glide_rewards>  (313) 
-2.25

>  <r_i_glide_evdw>  (313) 
-16.0229

>  <r_i_glide_ecoul>  (313) 
-0.139278

>  <r_i_glide_erotb>  (313) 
0

>  <r_i_glide_esite>  (313) 
0

>  <r_i_glide_emodel>  (313) 
-20.1344

>  <r_i_glide_energy>  (313) 
-16.1622

>  <r_i_glide_einternal>  (313) 
0

>  <r_i_glide_intrahb_reward>  (313) 
-0

>  <i_i_glide_confnum>  (313) 
1

>  <i_i_glide_posenum>  (313) 
2

>  <r_i_glide_eff_state_penalty>  (313) 
0

>  <ligand_id>  (313) 
84

>  <original_smiles>  (313) 
CC1CC2CCC1C2(C)C

>  <smiles>  (313) 
[H]C([H])([H])C1([H])C([H])([H])C2([H])C([H])([H])C([H])([H])C1([H])C2(C([H])([H])[H])C([H])([H])[H]

$$$$
85:0:0
     RDKit          3D

 71 77  0  0  1  0  0  0  0  0999 V2000
    0.2757   -9.5498    6.0086 C   0  0  0  0  0  0  0  0  0  0  0  0
    1.0822   -8.8681    5.1866 C   0  0  0  0  0  0  0  0  0  0  0  0
    2.5851   -9.0456    5.2275 C   0  0  0  0  0  0  0  0  0  0  0  0
    3.0092   -9.6895    4.1257 C   0  0  0  0  0  0  0  0  0  0  0  0
    2.2778  -10.8275    3.4039 C   0  0  0  0  0  0  0  0  0  0  0  0
    3.7490   -8.7332    3.2280 C   0  0  1  0  0  0  0  0  0  0  0  0
    4.3855   -9.3641    2.0875 O   0  0  0  0  0  0  0  0  0  0  0  0
    5.4774   -8.8466    1.4280 C   0  0  0  0  0  0  0  0  0  0  0  0
    6.3355   -9.5725    0.8907 O   0  0  0  0  0  0  0  0  0  0  0  0
    5.4764   -7.3513    1.3245 C   0  0  0  0  0  0  0  0  0  0  0  0
    6.5347   -6.6123    0.9282 C   0  0  0  0  0  0  0  0  0  0  0  0
    6.4818   -5.1239    0.9279 C   0  0  0  0  0  0  0  0  0  0  0  0
    5.3802   -4.3345    1.3665 C   0  0  0  0  0  0  0  0  0  0  0  0
    5.4456   -2.9234    1.3330 C   0  0  0  0  0  0  0  0  0  0  0  0
    6.6144   -2.2869    0.8617 C   0  0  0  0  0  0  0  0  0  0  0  0
    7.7058   -3.0635    0.4345 C   0  0  0  0  0  0  0  0  0  0  0  0
    7.6431   -4.4613    0.4762 C   0  0  0  0  0  0  0  0  0  0  0  0
    2.7428   -7.5262    2.9783 C   0  0  1  0  0  0  0  0  0  0  0  0
    2.1155   -7.9385    1.7472 O   0  0  0  0  0  0  0  0  0  0  0  0
    1.5809   -6.9092    3.9678 C   0  0  1  0  0  0  0  0  0  0  0  0
    1.1940   -5.9391    2.9222 O   0  0  0  0  0  0  0  0  0  0  0  0
    0.4477   -7.7662    4.2198 C   0  0  2  0  0  0  0  0  0  0  0  0
   -0.3554   -6.4444    4.7305 C   0  0  0  0  0  0  0  0  0  0  0  0
    0.6219   -5.2597    5.3621 C   0  0  2  0  0  0  0  0  0  0  0  0
   -0.1632   -4.5359    6.4842 C   0  0  0  0  0  0  0  0  0  0  0  0
    2.1518   -4.6379    5.1045 C   0  0  0  0  0  0  0  0  0  0  0  0
    3.3340   -5.5267    5.8027 C   0  0  2  0  0  0  0  0  0  0  0  0
    3.9460   -6.7723    5.2686 O   0  0  0  0  0  0  0  0  0  0  0  0
    3.7333   -8.0914    5.9006 C   0  0  2  0  0  0  0  0  0  0  0  0
    4.8988   -8.8804    5.8776 O   0  0  0  0  0  0  0  0  0  0  0  0
    4.8433   -9.8341    6.9620 C   0  0  0  0  0  0  0  0  0  0  0  0
    3.7603   -9.2988    7.9140 C   0  0  0  0  0  0  0  0  0  0  0  0
    3.7082   -7.8661    7.4146 C   0  0  1  0  0  0  0  0  0  0  0  0
    4.9418   -7.0973    7.9926 C   0  0  0  0  0  0  0  0  0  0  0  0
    2.5828   -7.1104    7.7105 O   0  0  0  0  0  0  0  0  0  0  0  0
    2.3872   -6.0366    6.7714 C   0  0  2  0  0  0  0  0  0  0  0  0
    1.4111   -6.3924    5.6504 C   0  0  2  0  0  0  0  0  0  0  0  0
   -0.7879   -9.3826    5.9900 H   0  0  0  0  0  0  0  0  0  0  0  0
    0.6559  -10.2854    6.6939 H   0  0  0  0  0  0  0  0  0  0  0  0
    2.9416  -11.6901    3.3128 H   0  0  0  0  0  0  0  0  0  0  0  0
    1.9712  -10.5591    2.3935 H   0  0  0  0  0  0  0  0  0  0  0  0
    1.4009  -11.1775    3.9465 H   0  0  0  0  0  0  0  0  0  0  0  0
    4.6204   -8.3414    3.7355 H   0  0  0  0  0  0  0  0  0  0  0  0
    4.6101   -6.8047    1.5344 H   0  0  0  0  0  0  0  0  0  0  0  0
    7.4673   -7.0801    0.6050 H   0  0  0  0  0  0  0  0  0  0  0  0
    4.4575   -4.7719    1.7414 H   0  0  0  0  0  0  0  0  0  0  0  0
    4.6067   -2.3212    1.6630 H   0  0  0  0  0  0  0  0  0  0  0  0
    6.6773   -1.2064    0.8386 H   0  0  0  0  0  0  0  0  0  0  0  0
    8.6166   -2.5939    0.0779 H   0  0  0  0  0  0  0  0  0  0  0  0
    8.4778   -5.0679    0.1529 H   0  0  0  0  0  0  0  0  0  0  0  0
    3.3298   -6.6426    2.8791 H   0  0  0  0  0  0  0  0  0  0  0  0
    1.6917   -8.7832    1.8560 H   0  0  0  0  0  0  0  0  0  0  0  0
    1.9437   -5.3908    2.7574 H   0  0  0  0  0  0  0  0  0  0  0  0
    0.0269   -8.2033    3.3090 H   0  0  0  0  0  0  0  0  0  0  0  0
   -0.9523   -6.0329    3.9233 H   0  0  0  0  0  0  0  0  0  0  0  0
   -1.0982   -6.7668    5.4510 H   0  0  0  0  0  0  0  0  0  0  0  0
    0.4088   -3.7499    6.9717 H   0  0  0  0  0  0  0  0  0  0  0  0
   -0.5011   -5.2276    7.2549 H   0  0  0  0  0  0  0  0  0  0  0  0
   -1.0506   -4.0582    6.0760 H   0  0  0  0  0  0  0  0  0  0  0  0
    2.4286   -4.3381    4.0952 H   0  0  0  0  0  0  0  0  0  0  0  0
    2.1697   -3.6653    5.5927 H   0  0  0  0  0  0  0  0  0  0  0  0
    4.1096   -4.8787    6.2113 H   0  0  0  0  0  0  0  0  0  0  0  0
    4.6220  -10.8427    6.6182 H   0  0  0  0  0  0  0  0  0  0  0  0
    5.8151   -9.8711    7.4524 H   0  0  0  0  0  0  0  0  0  0  0  0
    2.8148   -9.8212    7.7602 H   0  0  0  0  0  0  0  0  0  0  0  0
    4.0271   -9.3995    8.9701 H   0  0  0  0  0  0  0  0  0  0  0  0
    5.9026   -7.4937    7.6620 H   0  0  0  0  0  0  0  0  0  0  0  0
    4.9368   -7.1506    9.0803 H   0  0  0  0  0  0  0  0  0  0  0  0
    4.9564   -6.0391    7.7654 H   0  0  0  0  0  0  0  0  0  0  0  0
    2.0561   -5.2258    7.4118 H   0  0  0  0  0  0  0  0  0  0  0  0
    0.8367   -6.9678    6.3963 H   0  0  0  0  0  0  0  0  0  0  0  0
  1  2  2  0
  1 38  1  0
  1 39  1  0
  2 22  1  0
  2  3  1  0
  3 29  1  0
  3  4  2  0
  4  5  1  0
  4  6  1  0
  5 40  1  0
  5 41  1  0
  5 42  1  0
  6  7  1  0
  6 18  1  0
  6 43  1  1
  7  8  1  0
  8  9  2  0
  8 10  1  0
 10 11  2  3
 10 44  1  0
 11 12  1  0
 11 45  1  0
 12 17  1  0
 12 13  2  0
 13 14  1  0
 13 46  1  0
 14 15  2  0
 14 47  1  0
 15 16  1  0
 15 48  1  0
 16 17  2  0
 16 49  1  0
 17 50  1  0
 18 19  1  0
 18 20  1  0
 18 51  1  6
 19 52  1  0
 20 37  1  0
 20 21  1  6
 20 22  1  0
 21 53  1  0
 22 23  1  0
 22 54  1  6
 23 24  1  0
 23 55  1  0
 23 56  1  0
 24 37  1  0
 24 25  1  1
 24 26  1  0
 25 57  1  0
 25 58  1  0
 25 59  1  0
 26 27  1  0
 26 60  1  0
 26 61  1  0
 27 36  1  0
 27 28  1  0
 27 62  1  1
 28 29  1  0
 29 33  1  0
 29 30  1  1
 30 31  1  0
 31 32  1  0
 31 63  1  0
 31 64  1  0
 32 33  1  0
 32 65  1  0
 32 66  1  0
 33 34  1  1
 33 35  1  0
 34 67  1  0
 34 68  1  0
 34 69  1  0
 35 36  1  0
 36 37  1  0
 36 70  1  1
 37 71  1  1
M  END
>  <i_m_ct_stereo_status>  (314) 
1

>  <s_m_source_file>  (314) 
/var/tmp/pbs.5076255.sched01/tmp361ftg5n/90jpawypyp.sdf

>  <i_m_source_file_index>  (314) 
39

>  <i_lp_mmshare_version>  (314) 
48012

>  <i_f3d_flags>  (314) 
0

>  <s_epik_input>  (314) 
TzFbQ0gyXVtDSDJdW0NAXTIoW0NIM10pT1tDQEBIXShbQ0BASF0oTzMpW0NIMl00KVtDQEhdNVtDQF00KFtDSDNdKVtDSDJdW0NASF0oQzY9W0NIMl0pW0NAXTUoW09IXSlbQ0BIXShbT0hdKVtDQEBIXShDKD1DNltDQF0xMjMpW0NIM10pT0MoPU8pL1tDSF09W0NIXS9jN1tjSF1bY0hdW2NIXVtjSF1bY0hdNw==

>  <s_epik_cmdline>  (314) 
J2VwaWtfcHl0aG9uJywgJy1waHQnLCAnMi4wJywgJy1waCcsICc3LjAnLCAnLXRuJywgJzgnLCAnLW1hJywgJzIwMCcsICctaW1hZScsICc8aW5maWxlLm1hZT4nLCAnLW9tYWUnLCAnPG91dGZpbGUubWFlPic=

>  <r_lp_tautomer_probability>  (314) 
1

>  <r_epik_Ionization_Penalty>  (314) 
7.66635e-06

>  <r_epik_Ionization_Penalty_Charging>  (314) 
0

>  <r_epik_Ionization_Penalty_Neutral>  (314) 
7.66635e-06

>  <r_epik_State_Penalty>  (314) 
-0

>  <r_epik_Charging_Adjusted_Penalty>  (314) 
0

>  <i_epik_Tot_Q>  (314) 
0

>  <i_epik_Tot_abs_Q>  (314) 
0

>  <s_epik_Chemistry_Notes>  (314) 
This compound has an ester and may undergo hydrolysis at high or low pH.

>  <s_lp_Force_Field>  (314) 
OPLS3e

>  <r_lp_Energy>  (314) 
379.22

>  <b_lp_Chiralities_Consistent>  (314) 
1

>  <s_lp_Variant>  (314) 
85:0-1

>  <s_i_glide_gridfile>  (314) 
pfpi4k_grid

>  <i_i_glide_lignum>  (314) 
39

>  <i_i_glide_rotatable_bonds>  (314) 
6

>  <r_i_docking_score>  (314) 
-2.44373

>  <r_i_glide_ligand_efficiency>  (314) 
-0.0660467

>  <r_i_glide_ligand_efficiency_sa>  (314) 
-0.220082

>  <r_i_glide_ligand_efficiency_ln>  (314) 
-0.529987

>  <r_i_glide_gscore>  (314) 
-2.44373

>  <r_i_glide_lipo>  (314) 
-0.838707

>  <r_i_glide_hbond>  (314) 
0

>  <r_i_glide_metal>  (314) 
-0

>  <r_i_glide_rewards>  (314) 
-0.00846746

>  <r_i_glide_evdw>  (314) 
-28.2478

>  <r_i_glide_ecoul>  (314) 
-2.81838

>  <r_i_glide_erotb>  (314) 
0.239189

>  <r_i_glide_esite>  (314) 
-0.000594621

>  <r_i_glide_emodel>  (314) 
-32.301

>  <r_i_glide_energy>  (314) 
-31.0662

>  <r_i_glide_einternal>  (314) 
4.95789

>  <r_i_glide_intrahb_reward>  (314) 
-0

>  <i_i_glide_confnum>  (314) 
2

>  <i_i_glide_posenum>  (314) 
29

>  <r_i_glide_eff_state_penalty>  (314) 
0

>  <ligand_id>  (314) 
85

>  <original_smiles>  (314) 
C=C1C2=C(C)C(OC(=O)C=Cc3ccccc3)C(O)C3(O)C1CC1(C)CC4OC25OCCC5(C)OC4C13

>  <smiles>  (314) 
[H]OC1([H])C([H])(OC(=O)C([H])=C([H])c2c([H])c([H])c([H])c([H])c2[H])C(C([H])([H])[H])=C2C(=C([H])[H])C3([H])C([H])([H])C4(C([H])([H])[H])C([H])([H])C5([H])OC26OC([H])([H])C([H])([H])C6(C([H])([H])[H])OC5([H])C4([H])C13O[H]

$$$$
85:0:1
     RDKit          3D

 71 77  0  0  1  0  0  0  0  0999 V2000
    4.1983   -9.1432    2.7380 C   0  0  0  0  0  0  0  0  0  0  0  0
    3.5902   -7.9620    2.5691 C   0  0  0  0  0  0  0  0  0  0  0  0
    4.2843   -6.6640    2.9178 C   0  0  0  0  0  0  0  0  0  0  0  0
    4.5828   -5.9863    1.7960 C   0  0  0  0  0  0  0  0  0  0  0  0
    5.0397   -6.5957    0.4846 C   0  0  0  0  0  0  0  0  0  0  0  0
    3.6933   -4.7813    1.6775 C   0  0  1  0  0  0  0  0  0  0  0  0
    4.0036   -3.9012    0.5922 O   0  0  0  0  0  0  0  0  0  0  0  0
    3.6589   -2.5796    0.5716 C   0  0  0  0  0  0  0  0  0  0  0  0
    4.0822   -1.8220   -0.2976 O   0  0  0  0  0  0  0  0  0  0  0  0
    2.7017   -2.1689    1.6308 C   0  0  0  0  0  0  0  0  0  0  0  0
    2.0714   -0.9874    1.6493 C   0  0  0  0  0  0  0  0  0  0  0  0
    1.0808   -0.6175    2.6772 C   0  0  0  0  0  0  0  0  0  0  0  0
    0.7790   -1.4258    3.8043 C   0  0  0  0  0  0  0  0  0  0  0  0
   -0.1932   -1.0340    4.7410 C   0  0  0  0  0  0  0  0  0  0  0  0
   -0.8864    0.1775    4.5564 C   0  0  0  0  0  0  0  0  0  0  0  0
   -0.6150    0.9755    3.4293 C   0  0  0  0  0  0  0  0  0  0  0  0
    0.3546    0.5760    2.4963 C   0  0  0  0  0  0  0  0  0  0  0  0
    2.1989   -5.2870    1.7304 C   0  0  1  0  0  0  0  0  0  0  0  0
    1.9415   -5.4913    0.3323 O   0  0  0  0  0  0  0  0  0  0  0  0
    1.6197   -6.5994    2.5629 C   0  0  1  0  0  0  0  0  0  0  0  0
    0.2753   -6.3525    2.0119 O   0  0  0  0  0  0  0  0  0  0  0  0
    2.0586   -7.9154    2.0903 C   0  0  2  0  0  0  0  0  0  0  0  0
    0.8118   -8.5894    2.9073 C   0  0  0  0  0  0  0  0  0  0  0  0
    0.3664   -7.7224    4.2513 C   0  0  2  0  0  0  0  0  0  0  0  0
   -0.1114   -8.7209    5.3323 C   0  0  0  0  0  0  0  0  0  0  0  0
    0.2654   -6.1241    4.7292 C   0  0  0  0  0  0  0  0  0  0  0  0
    1.6986   -5.5041    5.2237 C   0  0  2  0  0  0  0  0  0  0  0  0
    2.8096   -4.9963    4.3619 O   0  0  0  0  0  0  0  0  0  0  0  0
    4.0968   -5.7077    4.2349 C   0  0  2  0  0  0  0  0  0  0  0  0
    5.1717   -4.8094    4.1760 O   0  0  0  0  0  0  0  0  0  0  0  0
    6.3717   -5.4645    4.6358 C   0  0  0  0  0  0  0  0  0  0  0  0
    5.8723   -6.6941    5.3999 C   0  0  0  0  0  0  0  0  0  0  0  0
    4.4341   -6.2685    5.6196 C   0  0  1  0  0  0  0  0  0  0  0  0
    4.4062   -5.2277    6.7924 C   0  0  0  0  0  0  0  0  0  0  0  0
    3.4940   -7.2373    5.9145 O   0  0  0  0  0  0  0  0  0  0  0  0
    2.1557   -6.8370    5.5654 C   0  0  2  0  0  0  0  0  0  0  0  0
    1.7219   -7.3395    4.1834 C   0  0  2  0  0  0  0  0  0  0  0  0
    3.6732  -10.0675    2.5160 H   0  0  0  0  0  0  0  0  0  0  0  0
    5.2185   -9.2093    3.0879 H   0  0  0  0  0  0  0  0  0  0  0  0
    5.9756   -6.1160    0.1960 H   0  0  0  0  0  0  0  0  0  0  0  0
    4.3292   -6.4292   -0.3240 H   0  0  0  0  0  0  0  0  0  0  0  0
    5.2449   -7.6677    0.5522 H   0  0  0  0  0  0  0  0  0  0  0  0
    3.8858   -4.1309    2.5154 H   0  0  0  0  0  0  0  0  0  0  0  0
    2.5030   -2.8481    2.4169 H   0  0  0  0  0  0  0  0  0  0  0  0
    2.2509   -0.2373    0.8698 H   0  0  0  0  0  0  0  0  0  0  0  0
    1.2712   -2.3666    3.9911 H   0  0  0  0  0  0  0  0  0  0  0  0
   -0.3968   -1.6525    5.6026 H   0  0  0  0  0  0  0  0  0  0  0  0
   -1.6213    0.4985    5.2740 H   0  0  0  0  0  0  0  0  0  0  0  0
   -1.1434    1.9044    3.2722 H   0  0  0  0  0  0  0  0  0  0  0  0
    0.5451    1.1787    1.6248 H   0  0  0  0  0  0  0  0  0  0  0  0
    1.6116   -4.4376    2.0209 H   0  0  0  0  0  0  0  0  0  0  0  0
    2.5507   -4.9498   -0.1567 H   0  0  0  0  0  0  0  0  0  0  0  0
   -0.1678   -7.1878    2.0066 H   0  0  0  0  0  0  0  0  0  0  0  0
    1.9689   -8.0474    1.0121 H   0  0  0  0  0  0  0  0  0  0  0  0
   -0.0548   -8.7511    2.2556 H   0  0  0  0  0  0  0  0  0  0  0  0
    1.1052   -9.6072    3.1823 H   0  0  0  0  0  0  0  0  0  0  0  0
   -0.4139   -8.2433    6.2622 H   0  0  0  0  0  0  0  0  0  0  0  0
    0.6508   -9.4641    5.5787 H   0  0  0  0  0  0  0  0  0  0  0  0
   -0.9836   -9.2569    4.9565 H   0  0  0  0  0  0  0  0  0  0  0  0
   -0.2522   -5.4267    4.0761 H   0  0  0  0  0  0  0  0  0  0  0  0
   -0.3906   -6.1104    5.6014 H   0  0  0  0  0  0  0  0  0  0  0  0
    1.5526   -4.8540    6.0850 H   0  0  0  0  0  0  0  0  0  0  0  0
    7.0332   -5.7348    3.8154 H   0  0  0  0  0  0  0  0  0  0  0  0
    6.9171   -4.7817    5.2933 H   0  0  0  0  0  0  0  0  0  0  0  0
    5.9368   -7.5933    4.7869 H   0  0  0  0  0  0  0  0  0  0  0  0
    6.4276   -6.8880    6.3182 H   0  0  0  0  0  0  0  0  0  0  0  0
    4.9667   -4.3167    6.5799 H   0  0  0  0  0  0  0  0  0  0  0  0
    4.8497   -5.6696    7.6878 H   0  0  0  0  0  0  0  0  0  0  0  0
    3.4104   -4.9143    7.0876 H   0  0  0  0  0  0  0  0  0  0  0  0
    1.5777   -7.2325    6.4002 H   0  0  0  0  0  0  0  0  0  0  0  0
    2.2837   -8.2693    4.4080 H   0  0  0  0  0  0  0  0  0  0  0  0
  1  2  2  0
  1 38  1  0
  1 39  1  0
  2 22  1  0
  2  3  1  0
  3 29  1  0
  3  4  2  0
  4  5  1  0
  4  6  1  0
  5 40  1  0
  5 41  1  0
  5 42  1  0
  6  7  1  0
  6 18  1  0
  6 43  1  1
  7  8  1  0
  8  9  2  0
  8 10  1  0
 10 11  2  3
 10 44  1  0
 11 12  1  0
 11 45  1  0
 12 17  1  0
 12 13  2  0
 13 14  1  0
 13 46  1  0
 14 15  2  0
 14 47  1  0
 15 16  1  0
 15 48  1  0
 16 17  2  0
 16 49  1  0
 17 50  1  0
 18 19  1  0
 18 20  1  0
 18 51  1  1
 19 52  1  0
 20 37  1  0
 20 21  1  6
 20 22  1  0
 21 53  1  0
 22 23  1  0
 22 54  1  6
 23 24  1  0
 23 55  1  0
 23 56  1  0
 24 37  1  0
 24 25  1  1
 24 26  1  0
 25 57  1  0
 25 58  1  0
 25 59  1  0
 26 27  1  0
 26 60  1  0
 26 61  1  0
 27 36  1  0
 27 28  1  0
 27 62  1  1
 28 29  1  0
 29 33  1  0
 29 30  1  6
 30 31  1  0
 31 32  1  0
 31 63  1  0
 31 64  1  0
 32 33  1  0
 32 65  1  0
 32 66  1  0
 33 34  1  1
 33 35  1  0
 34 67  1  0
 34 68  1  0
 34 69  1  0
 35 36  1  0
 36 37  1  0
 36 70  1  1
 37 71  1  6
M  END
>  <i_m_ct_stereo_status>  (315) 
1

>  <s_m_source_file>  (315) 
/var/tmp/pbs.5076255.sched01/tmp361ftg5n/90jpawypyp.sdf

>  <i_m_source_file_index>  (315) 
39

>  <i_lp_mmshare_version>  (315) 
48012

>  <i_f3d_flags>  (315) 
0

>  <s_epik_input>  (315) 
TzFbQ0gyXVtDSDJdW0NAXTIoW0NIM10pT1tDQEBIXShbQ0BASF0oTzMpW0NIMl00KVtDQEhdNVtDQF00KFtDSDNdKVtDSDJdW0NASF0oQzY9W0NIMl0pW0NAXTUoW09IXSlbQ0BIXShbT0hdKVtDQEBIXShDKD1DNltDQF0xMjMpW0NIM10pT0MoPU8pL1tDSF09W0NIXS9jN1tjSF1bY0hdW2NIXVtjSF1bY0hdNw==

>  <s_epik_cmdline>  (315) 
J2VwaWtfcHl0aG9uJywgJy1waHQnLCAnMi4wJywgJy1waCcsICc3LjAnLCAnLXRuJywgJzgnLCAnLW1hJywgJzIwMCcsICctaW1hZScsICc8aW5maWxlLm1hZT4nLCAnLW9tYWUnLCAnPG91dGZpbGUubWFlPic=

>  <r_lp_tautomer_probability>  (315) 
1

>  <r_epik_Ionization_Penalty>  (315) 
7.66635e-06

>  <r_epik_Ionization_Penalty_Charging>  (315) 
0

>  <r_epik_Ionization_Penalty_Neutral>  (315) 
7.66635e-06

>  <r_epik_State_Penalty>  (315) 
-0

>  <r_epik_Charging_Adjusted_Penalty>  (315) 
0

>  <i_epik_Tot_Q>  (315) 
0

>  <i_epik_Tot_abs_Q>  (315) 
0

>  <s_epik_Chemistry_Notes>  (315) 
This compound has an ester and may undergo hydrolysis at high or low pH.

>  <s_lp_Force_Field>  (315) 
OPLS3e

>  <r_lp_Energy>  (315) 
379.22

>  <b_lp_Chiralities_Consistent>  (315) 
1

>  <s_lp_Variant>  (315) 
85:0-1

>  <s_i_glide_gridfile>  (315) 
pfpi4k_grid

>  <i_i_glide_lignum>  (315) 
39

>  <i_i_glide_rotatable_bonds>  (315) 
6

>  <r_i_docking_score>  (315) 
-2.12621

>  <r_i_glide_ligand_efficiency>  (315) 
-0.0574652

>  <r_i_glide_ligand_efficiency_sa>  (315) 
-0.191487

>  <r_i_glide_ligand_efficiency_ln>  (315) 
-0.461125

>  <r_i_glide_gscore>  (315) 
-2.12621

>  <r_i_glide_lipo>  (315) 
-0.169446

>  <r_i_glide_hbond>  (315) 
0

>  <r_i_glide_metal>  (315) 
-0

>  <r_i_glide_rewards>  (315) 
0

>  <r_i_glide_evdw>  (315) 
-28.0872

>  <r_i_glide_ecoul>  (315) 
-5.15272

>  <r_i_glide_erotb>  (315) 
0.239189

>  <r_i_glide_esite>  (315) 
-0.0186828

>  <r_i_glide_emodel>  (315) 
-34.7243

>  <r_i_glide_energy>  (315) 
-33.24

>  <r_i_glide_einternal>  (315) 
4.40381

>  <r_i_glide_intrahb_reward>  (315) 
-0

>  <i_i_glide_confnum>  (315) 
2

>  <i_i_glide_posenum>  (315) 
28

>  <r_i_glide_eff_state_penalty>  (315) 
0

>  <ligand_id>  (315) 
85

>  <original_smiles>  (315) 
C=C1C2=C(C)C(OC(=O)C=Cc3ccccc3)C(O)C3(O)C1CC1(C)CC4OC25OCCC5(C)OC4C13

>  <smiles>  (315) 
[H]OC1([H])C([H])(OC(=O)C([H])=C([H])c2c([H])c([H])c([H])c([H])c2[H])C(C([H])([H])[H])=C2C(=C([H])[H])C3([H])C([H])([H])C4(C([H])([H])[H])C([H])([H])C5([H])OC26OC([H])([H])C([H])([H])C6(C([H])([H])[H])OC5([H])C4([H])C13O[H]

$$$$
85:0:2
     RDKit          3D

 71 77  0  0  1  0  0  0  0  0999 V2000
    4.1777   -9.1512    2.7520 C   0  0  0  0  0  0  0  0  0  0  0  0
    3.5662   -7.9698    2.5928 C   0  0  0  0  0  0  0  0  0  0  0  0
    4.2664   -6.6704    2.9272 C   0  0  0  0  0  0  0  0  0  0  0  0
    4.5489   -5.9966    1.8008 C   0  0  0  0  0  0  0  0  0  0  0  0
    4.9801   -6.6089    0.4819 C   0  0  0  0  0  0  0  0  0  0  0  0
    3.6607   -4.7915    1.6924 C   0  0  1  0  0  0  0  0  0  0  0  0
    3.9727   -3.9062    0.6112 O   0  0  0  0  0  0  0  0  0  0  0  0
    3.6237   -2.5847    0.5895 C   0  0  0  0  0  0  0  0  0  0  0  0
    4.0525   -1.8220   -0.2737 O   0  0  0  0  0  0  0  0  0  0  0  0
    2.6663   -2.1732    1.6497 C   0  0  0  0  0  0  0  0  0  0  0  0
    2.0348   -0.9939    1.6648 C   0  0  0  0  0  0  0  0  0  0  0  0
    1.0476   -0.6209    2.6978 C   0  0  0  0  0  0  0  0  0  0  0  0
    0.7453   -1.4275    3.8255 C   0  0  0  0  0  0  0  0  0  0  0  0
   -0.2245   -1.0306    4.7641 C   0  0  0  0  0  0  0  0  0  0  0  0
   -0.9125    0.1843    4.5786 C   0  0  0  0  0  0  0  0  0  0  0  0
   -0.6390    0.9816    3.4521 C   0  0  0  0  0  0  0  0  0  0  0  0
    0.3278    0.5783    2.5176 C   0  0  0  0  0  0  0  0  0  0  0  0
    2.1641   -5.3044    1.7651 C   0  0  1  0  0  0  0  0  0  0  0  0
    1.8630   -5.5281    0.3722 O   0  0  0  0  0  0  0  0  0  0  0  0
    1.5976   -6.6090    2.6177 C   0  0  1  0  0  0  0  0  0  0  0  0
    0.2419   -6.3632    2.0906 O   0  0  0  0  0  0  0  0  0  0  0  0
    2.0266   -7.9244    2.1397 C   0  0  2  0  0  0  0  0  0  0  0  0
    0.7949   -8.5968    2.9779 C   0  0  0  0  0  0  0  0  0  0  0  0
    0.3705   -7.7255    4.3262 C   0  0  2  0  0  0  0  0  0  0  0  0
   -0.0930   -8.7193    5.4173 C   0  0  0  0  0  0  0  0  0  0  0  0
    0.2781   -6.1267    4.8025 C   0  0  0  0  0  0  0  0  0  0  0  0
    1.7197   -5.5066    5.2718 C   0  0  2  0  0  0  0  0  0  0  0  0
    2.8160   -5.0026    4.3916 O   0  0  0  0  0  0  0  0  0  0  0  0
    4.1027   -5.7107    4.2450 C   0  0  2  0  0  0  0  0  0  0  0  0
    5.1774   -4.8154    4.1660 O   0  0  0  0  0  0  0  0  0  0  0  0
    6.3835   -5.4655    4.6099 C   0  0  0  0  0  0  0  0  0  0  0  0
    5.8960   -6.6982    5.3815 C   0  0  0  0  0  0  0  0  0  0  0  0
    4.4620   -6.2707    5.6243 C   0  0  1  0  0  0  0  0  0  0  0  0
    4.4536   -5.2268    6.7947 C   0  0  0  0  0  0  0  0  0  0  0  0
    3.5261   -7.2383    5.9372 O   0  0  0  0  0  0  0  0  0  0  0  0
    2.1822   -6.8390    5.6100 C   0  0  2  0  0  0  0  0  0  0  0  0
    1.7260   -7.3446    4.2368 C   0  0  2  0  0  0  0  0  0  0  0  0
    3.6476  -10.0751    2.5423 H   0  0  0  0  0  0  0  0  0  0  0  0
    5.2033   -9.2174    3.0849 H   0  0  0  0  0  0  0  0  0  0  0  0
    5.9153   -6.1307    0.1760 H   0  0  0  0  0  0  0  0  0  0  0  0
    4.2662   -6.4406   -0.3203 H   0  0  0  0  0  0  0  0  0  0  0  0
    5.1873   -7.6803    0.5456 H   0  0  0  0  0  0  0  0  0  0  0  0
    3.8650   -4.1397    2.5313 H   0  0  0  0  0  0  0  0  0  0  0  0
    2.4679   -2.8515    2.4372 H   0  0  0  0  0  0  0  0  0  0  0  0
    2.2129   -0.2499    0.8849 H   0  0  0  0  0  0  0  0  0  0  0  0
    1.2345   -2.3694    4.0103 H   0  0  0  0  0  0  0  0  0  0  0  0
   -0.4296   -1.6475    5.6248 H   0  0  0  0  0  0  0  0  0  0  0  0
   -1.6458    0.5088    5.2974 H   0  0  0  0  0  0  0  0  0  0  0  0
   -1.1634    1.9127    3.2963 H   0  0  0  0  0  0  0  0  0  0  0  0
    0.5199    1.1796    1.6456 H   0  0  0  0  0  0  0  0  0  0  0  0
    1.5744   -4.4585    2.0728 H   0  0  0  0  0  0  0  0  0  0  0  0
    2.6171   -5.9186   -0.0531 H   0  0  0  0  0  0  0  0  0  0  0  0
   -0.1951   -7.2014    2.0670 H   0  0  0  0  0  0  0  0  0  0  0  0
    1.9194   -8.0611    1.0641 H   0  0  0  0  0  0  0  0  0  0  0  0
   -0.0825   -8.7603    2.3406 H   0  0  0  0  0  0  0  0  0  0  0  0
    1.0921   -9.6146    3.2495 H   0  0  0  0  0  0  0  0  0  0  0  0
   -0.3716   -8.2421    6.3548 H   0  0  0  0  0  0  0  0  0  0  0  0
    0.6653   -9.4707    5.6473 H   0  0  0  0  0  0  0  0  0  0  0  0
   -0.9748   -9.2499    5.0632 H   0  0  0  0  0  0  0  0  0  0  0  0
   -0.2502   -5.4307    4.1557 H   0  0  0  0  0  0  0  0  0  0  0  0
   -0.3649   -6.1099    5.6853 H   0  0  0  0  0  0  0  0  0  0  0  0
    1.5888   -4.8532    6.1330 H   0  0  0  0  0  0  0  0  0  0  0  0
    7.0325   -5.7383    3.7773 H   0  0  0  0  0  0  0  0  0  0  0  0
    6.9364   -4.7884    5.2637 H   0  0  0  0  0  0  0  0  0  0  0  0
    5.9504   -7.5965    4.7679 H   0  0  0  0  0  0  0  0  0  0  0  0
    6.4664   -6.8886    6.2896 H   0  0  0  0  0  0  0  0  0  0  0  0
    5.0102   -4.3161    6.5720 H   0  0  0  0  0  0  0  0  0  0  0  0
    4.9114   -5.6667    7.6837 H   0  0  0  0  0  0  0  0  0  0  0  0
    3.4627   -4.9125    7.1065 H   0  0  0  0  0  0  0  0  0  0  0  0
    1.6173   -7.2340    6.4555 H   0  0  0  0  0  0  0  0  0  0  0  0
    2.2915   -8.2734    4.4528 H   0  0  0  0  0  0  0  0  0  0  0  0
  1  2  2  0
  1 38  1  0
  1 39  1  0
  2 22  1  0
  2  3  1  0
  3 29  1  0
  3  4  2  0
  4  5  1  0
  4  6  1  0
  5 40  1  0
  5 41  1  0
  5 42  1  0
  6  7  1  0
  6 18  1  0
  6 43  1  1
  7  8  1  0
  8  9  2  0
  8 10  1  0
 10 11  2  3
 10 44  1  0
 11 12  1  0
 11 45  1  0
 12 17  1  0
 12 13  2  0
 13 14  1  0
 13 46  1  0
 14 15  2  0
 14 47  1  0
 15 16  1  0
 15 48  1  0
 16 17  2  0
 16 49  1  0
 17 50  1  0
 18 19  1  0
 18 20  1  0
 18 51  1  1
 19 52  1  0
 20 37  1  0
 20 21  1  6
 20 22  1  0
 21 53  1  0
 22 23  1  0
 22 54  1  6
 23 24  1  0
 23 55  1  0
 23 56  1  0
 24 37  1  0
 24 25  1  1
 24 26  1  0
 25 57  1  0
 25 58  1  0
 25 59  1  0
 26 27  1  0
 26 60  1  0
 26 61  1  0
 27 36  1  0
 27 28  1  0
 27 62  1  1
 28 29  1  0
 29 33  1  0
 29 30  1  6
 30 31  1  0
 31 32  1  0
 31 63  1  0
 31 64  1  0
 32 33  1  0
 32 65  1  0
 32 66  1  0
 33 34  1  1
 33 35  1  0
 34 67  1  0
 34 68  1  0
 34 69  1  0
 35 36  1  0
 36 37  1  0
 36 70  1  1
 37 71  1  6
M  END
>  <i_m_ct_stereo_status>  (316) 
1

>  <s_m_source_file>  (316) 
/var/tmp/pbs.5076255.sched01/tmp361ftg5n/90jpawypyp.sdf

>  <i_m_source_file_index>  (316) 
39

>  <i_lp_mmshare_version>  (316) 
48012

>  <i_f3d_flags>  (316) 
0

>  <s_epik_input>  (316) 
TzFbQ0gyXVtDSDJdW0NAXTIoW0NIM10pT1tDQEBIXShbQ0BASF0oTzMpW0NIMl00KVtDQEhdNVtDQF00KFtDSDNdKVtDSDJdW0NASF0oQzY9W0NIMl0pW0NAXTUoW09IXSlbQ0BIXShbT0hdKVtDQEBIXShDKD1DNltDQF0xMjMpW0NIM10pT0MoPU8pL1tDSF09W0NIXS9jN1tjSF1bY0hdW2NIXVtjSF1bY0hdNw==

>  <s_epik_cmdline>  (316) 
J2VwaWtfcHl0aG9uJywgJy1waHQnLCAnMi4wJywgJy1waCcsICc3LjAnLCAnLXRuJywgJzgnLCAnLW1hJywgJzIwMCcsICctaW1hZScsICc8aW5maWxlLm1hZT4nLCAnLW9tYWUnLCAnPG91dGZpbGUubWFlPic=

>  <r_lp_tautomer_probability>  (316) 
1

>  <r_epik_Ionization_Penalty>  (316) 
7.66635e-06

>  <r_epik_Ionization_Penalty_Charging>  (316) 
0

>  <r_epik_Ionization_Penalty_Neutral>  (316) 
7.66635e-06

>  <r_epik_State_Penalty>  (316) 
-0

>  <r_epik_Charging_Adjusted_Penalty>  (316) 
0

>  <i_epik_Tot_Q>  (316) 
0

>  <i_epik_Tot_abs_Q>  (316) 
0

>  <s_epik_Chemistry_Notes>  (316) 
This compound has an ester and may undergo hydrolysis at high or low pH.

>  <s_lp_Force_Field>  (316) 
OPLS3e

>  <r_lp_Energy>  (316) 
379.22

>  <b_lp_Chiralities_Consistent>  (316) 
1

>  <s_lp_Variant>  (316) 
85:0-1

>  <s_i_glide_gridfile>  (316) 
pfpi4k_grid

>  <i_i_glide_lignum>  (316) 
39

>  <i_i_glide_rotatable_bonds>  (316) 
6

>  <r_i_docking_score>  (316) 
-2.08843

>  <r_i_glide_ligand_efficiency>  (316) 
-0.056444

>  <r_i_glide_ligand_efficiency_sa>  (316) 
-0.188084

>  <r_i_glide_ligand_efficiency_ln>  (316) 
-0.452931

>  <r_i_glide_gscore>  (316) 
-2.08843

>  <r_i_glide_lipo>  (316) 
-0.168665

>  <r_i_glide_hbond>  (316) 
0

>  <r_i_glide_metal>  (316) 
-0

>  <r_i_glide_rewards>  (316) 
0

>  <r_i_glide_evdw>  (316) 
-28.1431

>  <r_i_glide_ecoul>  (316) 
-4.88304

>  <r_i_glide_erotb>  (316) 
0.239189

>  <r_i_glide_esite>  (316) 
-0.0193445

>  <r_i_glide_emodel>  (316) 
-34.5044

>  <r_i_glide_energy>  (316) 
-33.0261

>  <r_i_glide_einternal>  (316) 
4.03125

>  <r_i_glide_intrahb_reward>  (316) 
-0

>  <i_i_glide_confnum>  (316) 
2

>  <i_i_glide_posenum>  (316) 
23

>  <r_i_glide_eff_state_penalty>  (316) 
0

>  <ligand_id>  (316) 
85

>  <original_smiles>  (316) 
C=C1C2=C(C)C(OC(=O)C=Cc3ccccc3)C(O)C3(O)C1CC1(C)CC4OC25OCCC5(C)OC4C13

>  <smiles>  (316) 
[H]OC1([H])C([H])(OC(=O)C([H])=C([H])c2c([H])c([H])c([H])c([H])c2[H])C(C([H])([H])[H])=C2C(=C([H])[H])C3([H])C([H])([H])C4(C([H])([H])[H])C([H])([H])C5([H])OC26OC([H])([H])C([H])([H])C6(C([H])([H])[H])OC5([H])C4([H])C13O[H]

$$$$
85:1:0
     RDKit          3D

 71 77  0  0  1  0  0  0  0  0999 V2000
    1.0915   -1.1745    6.6323 C   0  0  0  0  0  0  0  0  0  0  0  0
    1.2663   -0.7005    5.3844 C   0  0  0  0  0  0  0  0  0  0  0  0
    2.5965   -0.2170    4.8937 C   0  0  0  0  0  0  0  0  0  0  0  0
    3.0715   -1.1044    4.0059 C   0  0  0  0  0  0  0  0  0  0  0  0
    2.9345   -2.6365    4.0369 C   0  0  0  0  0  0  0  0  0  0  0  0
    3.1130   -0.4929    2.6333 C   0  0  1  0  0  0  0  0  0  0  0  0
    3.6582   -1.3662    1.6315 O   0  0  0  0  0  0  0  0  0  0  0  0
    4.9949   -1.4965    1.5250 C   0  0  0  0  0  0  0  0  0  0  0  0
    5.8099   -0.6724    1.9627 O   0  0  0  0  0  0  0  0  0  0  0  0
    5.3817   -2.7839    0.9248 C   0  0  0  0  0  0  0  0  0  0  0  0
    5.0863   -3.1996   -0.3187 C   0  0  0  0  0  0  0  0  0  0  0  0
    4.4733   -2.4187   -1.4227 C   0  0  0  0  0  0  0  0  0  0  0  0
    3.5662   -3.0395   -2.3002 C   0  0  0  0  0  0  0  0  0  0  0  0
    2.9838   -2.3345   -3.3723 C   0  0  0  0  0  0  0  0  0  0  0  0
    3.3083   -0.9783   -3.5864 C   0  0  0  0  0  0  0  0  0  0  0  0
    4.2140   -0.3499   -2.7167 C   0  0  0  0  0  0  0  0  0  0  0  0
    4.7904   -1.0633   -1.6379 C   0  0  0  0  0  0  0  0  0  0  0  0
    1.6412   -0.0138    2.3376 C   0  0  1  0  0  0  0  0  0  0  0  0
    1.1168   -1.1740    1.6885 O   0  0  0  0  0  0  0  0  0  0  0  0
    0.5075    0.4712    3.4650 C   0  0  1  0  0  0  0  0  0  0  0  0
   -0.5073    0.5625    2.4315 O   0  0  0  0  0  0  0  0  0  0  0  0
    0.0127   -0.5295    4.4079 C   0  0  2  0  0  0  0  0  0  0  0  0
   -1.2736    0.4127    4.7552 C   0  0  0  0  0  0  0  0  0  0  0  0
   -0.9688    2.0232    4.5490 C   0  0  2  0  0  0  0  0  0  0  0  0
   -1.8014    2.8251    5.5890 C   0  0  0  0  0  0  0  0  0  0  0  0
   -0.0641    2.9966    3.5482 C   0  0  0  0  0  0  0  0  0  0  0  0
    1.5106    3.0981    3.9710 C   0  0  2  0  0  0  0  0  0  0  0  0
    2.5761    2.1068    3.6874 O   0  0  0  0  0  0  0  0  0  0  0  0
    3.2043    1.2857    4.7323 C   0  0  2  0  0  0  0  0  0  0  0  0
    4.5832    1.0857    4.5271 O   0  0  0  0  0  0  0  0  0  0  0  0
    5.2077    0.8237    5.8021 C   0  0  0  0  0  0  0  0  0  0  0  0
    4.1989    1.2791    6.8653 C   0  0  0  0  0  0  0  0  0  0  0  0
    3.3237    2.1475    5.9873 C   0  0  1  0  0  0  0  0  0  0  0  0
    4.0471    3.5088    5.7714 C   0  0  0  0  0  0  0  0  0  0  0  0
    2.0407    2.4357    6.4283 O   0  0  0  0  0  0  0  0  0  0  0  0
    1.1611    2.7740    5.3345 C   0  0  2  0  0  0  0  0  0  0  0  0
    0.3420    1.5872    4.8367 C   0  0  2  0  0  0  0  0  0  0  0  0
    0.1056   -1.4683    6.9833 H   0  0  0  0  0  0  0  0  0  0  0  0
    1.9168   -1.2799    7.3292 H   0  0  0  0  0  0  0  0  0  0  0  0
    3.9295   -3.0827    3.9703 H   0  0  0  0  0  0  0  0  0  0  0  0
    2.3555   -3.0135    3.1985 H   0  0  0  0  0  0  0  0  0  0  0  0
    2.5043   -2.9977    4.9573 H   0  0  0  0  0  0  0  0  0  0  0  0
    3.7246    0.4113    2.5778 H   0  0  0  0  0  0  0  0  0  0  0  0
    5.9295   -3.4560    1.5774 H   0  0  0  0  0  0  0  0  0  0  0  0
    5.3583   -4.2159   -0.5867 H   0  0  0  0  0  0  0  0  0  0  0  0
    3.3029   -4.0811   -2.1385 H   0  0  0  0  0  0  0  0  0  0  0  0
    2.2642   -2.8199   -4.0329 H   0  0  0  0  0  0  0  0  0  0  0  0
    2.8437   -0.4057   -4.3834 H   0  0  0  0  0  0  0  0  0  0  0  0
    4.4541    0.6935   -2.8368 H   0  0  0  0  0  0  0  0  0  0  0  0
    5.4862   -0.5528   -0.9932 H   0  0  0  0  0  0  0  0  0  0  0  0
    1.7094    0.7366    1.5474 H   0  0  0  0  0  0  0  0  0  0  0  0
    1.0296   -1.0175    0.7310 H   0  0  0  0  0  0  0  0  0  0  0  0
   -0.2298    1.1850    1.7747 H   0  0  0  0  0  0  0  0  0  0  0  0
   -0.2802   -1.4802    3.9566 H   0  0  0  0  0  0  0  0  0  0  0  0
   -2.1249    0.1365    4.1454 H   0  0  0  0  0  0  0  0  0  0  0  0
   -1.6098    0.2107    5.7744 H   0  0  0  0  0  0  0  0  0  0  0  0
   -1.6439    3.9037    5.5369 H   0  0  0  0  0  0  0  0  0  0  0  0
   -1.5913    2.5170    6.6127 H   0  0  0  0  0  0  0  0  0  0  0  0
   -2.8666    2.6682    5.4247 H   0  0  0  0  0  0  0  0  0  0  0  0
   -0.1884    2.8682    2.4811 H   0  0  0  0  0  0  0  0  0  0  0  0
   -0.4644    4.0026    3.6534 H   0  0  0  0  0  0  0  0  0  0  0  0
    1.8769    4.1139    3.8251 H   0  0  0  0  0  0  0  0  0  0  0  0
    5.4725   -0.2234    5.9139 H   0  0  0  0  0  0  0  0  0  0  0  0
    6.1354    1.3913    5.8464 H   0  0  0  0  0  0  0  0  0  0  0  0
    3.6519    0.4353    7.2638 H   0  0  0  0  0  0  0  0  0  0  0  0
    4.6607    1.8075    7.6996 H   0  0  0  0  0  0  0  0  0  0  0  0
    5.0122    3.4109    5.2721 H   0  0  0  0  0  0  0  0  0  0  0  0
    4.2569    3.9861    6.7291 H   0  0  0  0  0  0  0  0  0  0  0  0
    3.4869    4.2432    5.1986 H   0  0  0  0  0  0  0  0  0  0  0  0
    0.5734    3.5883    5.7483 H   0  0  0  0  0  0  0  0  0  0  0  0
    0.2780    1.2587    5.8905 H   0  0  0  0  0  0  0  0  0  0  0  0
  1  2  2  0
  1 38  1  0
  1 39  1  0
  2 22  1  0
  2  3  1  0
  3 29  1  0
  3  4  2  0
  4  5  1  0
  4  6  1  0
  5 40  1  0
  5 41  1  0
  5 42  1  0
  6  7  1  0
  6 18  1  0
  6 43  1  1
  7  8  1  0
  8  9  2  0
  8 10  1  0
 10 11  2  3
 10 44  1  0
 11 12  1  0
 11 45  1  0
 12 17  1  0
 12 13  2  0
 13 14  1  0
 13 46  1  0
 14 15  2  0
 14 47  1  0
 15 16  1  0
 15 48  1  0
 16 17  2  0
 16 49  1  0
 17 50  1  0
 18 19  1  0
 18 20  1  0
 18 51  1  6
 19 52  1  0
 20 37  1  0
 20 21  1  6
 20 22  1  0
 21 53  1  0
 22 23  1  0
 22 54  1  6
 23 24  1  0
 23 55  1  0
 23 56  1  0
 24 37  1  0
 24 25  1  1
 24 26  1  0
 25 57  1  0
 25 58  1  0
 25 59  1  0
 26 27  1  0
 26 60  1  0
 26 61  1  0
 27 36  1  0
 27 28  1  0
 27 62  1  1
 28 29  1  0
 29 33  1  0
 29 30  1  6
 30 31  1  0
 31 32  1  0
 31 63  1  0
 31 64  1  0
 32 33  1  0
 32 65  1  0
 32 66  1  0
 33 34  1  6
 33 35  1  0
 34 67  1  0
 34 68  1  0
 34 69  1  0
 35 36  1  0
 36 37  1  0
 36 70  1  1
 37 71  1  1
M  END
>  <i_m_ct_stereo_status>  (317) 
1

>  <s_m_source_file>  (317) 
/var/tmp/pbs.5076255.sched01/tmp361ftg5n/90jpawypyp.sdf

>  <i_m_source_file_index>  (317) 
40

>  <i_lp_mmshare_version>  (317) 
48012

>  <i_f3d_flags>  (317) 
0

>  <s_epik_input>  (317) 
TzFbQ0gyXVtDSDJdW0NAXTIoW0NIM10pT1tDQEBIXShbQ0BASF0oTzMpW0NIMl00KVtDQEhdNVtDQF00KFtDSDNdKVtDSDJdW0NASF0oQzY9W0NIMl0pW0NAXTUoW09IXSlbQ0BIXShbT0hdKVtDQEBIXShDKD1DNltDQF0xMjMpW0NIM10pT0MoPU8pL1tDSF09W0NIXS9jN1tjSF1bY0hdW2NIXVtjSF1bY0hdNw==

>  <s_epik_cmdline>  (317) 
J2VwaWtfcHl0aG9uJywgJy1waHQnLCAnMi4wJywgJy1waCcsICc3LjAnLCAnLXRuJywgJzgnLCAnLW1hJywgJzIwMCcsICctaW1hZScsICc8aW5maWxlLm1hZT4nLCAnLW9tYWUnLCAnPG91dGZpbGUubWFlPic=

>  <r_lp_tautomer_probability>  (317) 
1

>  <r_epik_Ionization_Penalty>  (317) 
7.66635e-06

>  <r_epik_Ionization_Penalty_Charging>  (317) 
0

>  <r_epik_Ionization_Penalty_Neutral>  (317) 
7.66635e-06

>  <r_epik_State_Penalty>  (317) 
-0

>  <r_epik_Charging_Adjusted_Penalty>  (317) 
0

>  <i_epik_Tot_Q>  (317) 
0

>  <i_epik_Tot_abs_Q>  (317) 
0

>  <s_epik_Chemistry_Notes>  (317) 
This compound has an ester and may undergo hydrolysis at high or low pH.

>  <s_lp_Force_Field>  (317) 
OPLS3e

>  <r_lp_Energy>  (317) 
384.617

>  <b_lp_Chiralities_Consistent>  (317) 
1

>  <s_lp_Variant>  (317) 
85:0-2

>  <s_i_glide_gridfile>  (317) 
pfpi4k_grid

>  <i_i_glide_lignum>  (317) 
40

>  <i_i_glide_rotatable_bonds>  (317) 
6

>  <r_i_docking_score>  (317) 
-2.77146

>  <r_i_glide_ligand_efficiency>  (317) 
-0.0749042

>  <r_i_glide_ligand_efficiency_sa>  (317) 
-0.249597

>  <r_i_glide_ligand_efficiency_ln>  (317) 
-0.601064

>  <r_i_glide_gscore>  (317) 
-2.77146

>  <r_i_glide_lipo>  (317) 
-0.73446

>  <r_i_glide_hbond>  (317) 
0

>  <r_i_glide_metal>  (317) 
-0

>  <r_i_glide_rewards>  (317) 
-0.0972825

>  <r_i_glide_evdw>  (317) 
-31.1304

>  <r_i_glide_ecoul>  (317) 
-4.13905

>  <r_i_glide_erotb>  (317) 
0.239189

>  <r_i_glide_esite>  (317) 
-0.00152414

>  <r_i_glide_emodel>  (317) 
-35.0126

>  <r_i_glide_energy>  (317) 
-35.2695

>  <r_i_glide_einternal>  (317) 
12.1629

>  <r_i_glide_intrahb_reward>  (317) 
-0

>  <i_i_glide_confnum>  (317) 
1

>  <i_i_glide_posenum>  (317) 
7

>  <r_i_glide_eff_state_penalty>  (317) 
0

>  <ligand_id>  (317) 
85

>  <original_smiles>  (317) 
C=C1C2=C(C)C(OC(=O)C=Cc3ccccc3)C(O)C3(O)C1CC1(C)CC4OC25OCCC5(C)OC4C13

>  <smiles>  (317) 
[H]OC1([H])C([H])(OC(=O)C([H])=C([H])c2c([H])c([H])c([H])c([H])c2[H])C(C([H])([H])[H])=C2C(=C([H])[H])C3([H])C([H])([H])C4(C([H])([H])[H])C([H])([H])C5([H])OC26OC([H])([H])C([H])([H])C6(C([H])([H])[H])OC5([H])C4([H])C13O[H]

$$$$
85:1:1
     RDKit          3D

 71 77  0  0  1  0  0  0  0  0999 V2000
    1.2776   -2.9631    6.0686 C   0  0  0  0  0  0  0  0  0  0  0  0
    1.7187   -2.2629    5.0002 C   0  0  0  0  0  0  0  0  0  0  0  0
    3.1618   -1.9138    4.8262 C   0  0  0  0  0  0  0  0  0  0  0  0
    3.6672   -2.6438    3.8135 C   0  0  0  0  0  0  0  0  0  0  0  0
    3.3405   -4.0944    3.4701 C   0  0  0  0  0  0  0  0  0  0  0  0
    3.9851   -1.7555    2.6488 C   0  0  1  0  0  0  0  0  0  0  0  0
    4.6536   -2.4608    1.5897 O   0  0  0  0  0  0  0  0  0  0  0  0
    5.9205   -2.1394    1.2371 C   0  0  0  0  0  0  0  0  0  0  0  0
    6.5100   -1.1160    1.5667 O   0  0  0  0  0  0  0  0  0  0  0  0
    6.5354   -3.1671    0.3785 C   0  0  0  0  0  0  0  0  0  0  0  0
    6.1734   -3.4219   -0.8804 C   0  0  0  0  0  0  0  0  0  0  0  0
    5.2409   -2.7149   -1.7904 C   0  0  0  0  0  0  0  0  0  0  0  0
    4.5287   -3.4395   -2.7592 C   0  0  0  0  0  0  0  0  0  0  0  0
    3.6124   -2.7797   -3.6203 C   0  0  0  0  0  0  0  0  0  0  0  0
    3.4458   -1.3816   -3.5263 C   0  0  0  0  0  0  0  0  0  0  0  0
    4.1890   -0.6502   -2.5906 C   0  0  0  0  0  0  0  0  0  0  0  0
    5.0735   -1.3161   -1.7122 C   0  0  0  0  0  0  0  0  0  0  0  0
    2.6517   -1.0039    2.2607 C   0  0  1  0  0  0  0  0  0  0  0  0
    2.0878   -1.9180    1.3001 O   0  0  0  0  0  0  0  0  0  0  0  0
    1.4314   -0.6014    3.3252 C   0  0  1  0  0  0  0  0  0  0  0  0
    0.6265   -0.1104    2.2212 O   0  0  0  0  0  0  0  0  0  0  0  0
    0.6712   -1.6941    3.9401 C   0  0  2  0  0  0  0  0  0  0  0  0
   -0.5233   -0.6470    4.3256 C   0  0  0  0  0  0  0  0  0  0  0  0
    0.0130    0.9007    4.5373 C   0  0  2  0  0  0  0  0  0  0  0  0
   -0.8820    1.5799    5.6068 C   0  0  0  0  0  0  0  0  0  0  0  0
    1.1860    1.9096    3.9090 C   0  0  0  0  0  0  0  0  0  0  0  0
    2.6645    1.6648    4.5635 C   0  0  2  0  0  0  0  0  0  0  0  0
    3.6435    0.6013    4.2078 O   0  0  0  0  0  0  0  0  0  0  0  0
    3.9657   -0.5206    5.1066 C   0  0  2  0  0  0  0  0  0  0  0  0
    5.3237   -0.8739    5.0587 O   0  0  0  0  0  0  0  0  0  0  0  0
    5.6874   -1.5058    6.3016 C   0  0  0  0  0  0  0  0  0  0  0  0
    4.5770   -1.1312    7.2932 C   0  0  0  0  0  0  0  0  0  0  0  0
    3.9739    0.0307    6.5358 C   0  0  1  0  0  0  0  0  0  0  0  0
    4.9037    1.2734    6.7345 C   0  0  0  0  0  0  0  0  0  0  0  0
    2.6864    0.4153    6.8429 O   0  0  0  0  0  0  0  0  0  0  0  0
    2.0500    1.1153    5.7548 C   0  0  2  0  0  0  0  0  0  0  0  0
    1.1875    0.2067    4.8913 C   0  0  2  0  0  0  0  0  0  0  0  0
    0.2177   -3.1646    6.1942 H   0  0  0  0  0  0  0  0  0  0  0  0
    1.9548   -3.3387    6.8213 H   0  0  0  0  0  0  0  0  0  0  0  0
    4.2709   -4.6694    3.4337 H   0  0  0  0  0  0  0  0  0  0  0  0
    2.8641   -4.1982    2.4955 H   0  0  0  0  0  0  0  0  0  0  0  0
    2.7189   -4.5831    4.2178 H   0  0  0  0  0  0  0  0  0  0  0  0
    4.6683   -0.9777    2.9479 H   0  0  0  0  0  0  0  0  0  0  0  0
    7.3261   -3.7482    0.8334 H   0  0  0  0  0  0  0  0  0  0  0  0
    6.6565   -4.2470   -1.3496 H   0  0  0  0  0  0  0  0  0  0  0  0
    4.6504   -4.5150   -2.8476 H   0  0  0  0  0  0  0  0  0  0  0  0
    3.0323   -3.3447   -4.3337 H   0  0  0  0  0  0  0  0  0  0  0  0
    2.7368   -0.8636   -4.1691 H   0  0  0  0  0  0  0  0  0  0  0  0
    4.1040    0.4152   -2.5056 H   0  0  0  0  0  0  0  0  0  0  0  0
    5.6303   -0.7155   -1.0201 H   0  0  0  0  0  0  0  0  0  0  0  0
    2.9733   -0.1158    1.7045 H   0  0  0  0  0  0  0  0  0  0  0  0
    1.7717   -1.4905    0.4998 H   0  0  0  0  0  0  0  0  0  0  0  0
    0.9582   -0.4968    1.4266 H   0  0  0  0  0  0  0  0  0  0  0  0
    0.3458   -2.4678    3.2434 H   0  0  0  0  0  0  0  0  0  0  0  0
   -1.3052   -0.6121    3.5727 H   0  0  0  0  0  0  0  0  0  0  0  0
   -1.0472   -1.0124    5.2141 H   0  0  0  0  0  0  0  0  0  0  0  0
   -0.5868    2.6045    5.8295 H   0  0  0  0  0  0  0  0  0  0  0  0
   -0.8856    1.0273    6.5449 H   0  0  0  0  0  0  0  0  0  0  0  0
   -1.9138    1.6255    5.2578 H   0  0  0  0  0  0  0  0  0  0  0  0
    1.2273    2.0291    2.8279 H   0  0  0  0  0  0  0  0  0  0  0  0
    0.8966    2.9162    4.2009 H   0  0  0  0  0  0  0  0  0  0  0  0
    3.1665    2.6154    4.7218 H   0  0  0  0  0  0  0  0  0  0  0  0
    5.7905   -2.5813    6.1996 H   0  0  0  0  0  0  0  0  0  0  0  0
    6.6567   -1.1186    6.6091 H   0  0  0  0  0  0  0  0  0  0  0  0
    3.8664   -1.9477    7.4053 H   0  0  0  0  0  0  0  0  0  0  0  0
    4.9487   -0.8767    8.2858 H   0  0  0  0  0  0  0  0  0  0  0  0
    5.9100    1.1328    6.3383 H   0  0  0  0  0  0  0  0  0  0  0  0
    5.0029    1.4879    7.8002 H   0  0  0  0  0  0  0  0  0  0  0  0
    4.5270    2.1873    6.2901 H   0  0  0  0  0  0  0  0  0  0  0  0
    1.5054    1.9014    6.2596 H   0  0  0  0  0  0  0  0  0  0  0  0
    0.9115   -0.3234    5.8237 H   0  0  0  0  0  0  0  0  0  0  0  0
  1  2  2  0
  1 38  1  0
  1 39  1  0
  2 22  1  0
  2  3  1  0
  3 29  1  0
  3  4  2  0
  4  5  1  0
  4  6  1  0
  5 40  1  0
  5 41  1  0
  5 42  1  0
  6  7  1  0
  6 18  1  0
  6 43  1  1
  7  8  1  0
  8  9  2  0
  8 10  1  0
 10 11  2  3
 10 44  1  0
 11 12  1  0
 11 45  1  0
 12 17  1  0
 12 13  2  0
 13 14  1  0
 13 46  1  0
 14 15  2  0
 14 47  1  0
 15 16  1  0
 15 48  1  0
 16 17  2  0
 16 49  1  0
 17 50  1  0
 18 19  1  0
 18 20  1  0
 18 51  1  6
 19 52  1  0
 20 37  1  0
 20 21  1  6
 20 22  1  0
 21 53  1  0
 22 23  1  0
 22 54  1  6
 23 24  1  0
 23 55  1  0
 23 56  1  0
 24 37  1  0
 24 25  1  1
 24 26  1  0
 25 57  1  0
 25 58  1  0
 25 59  1  0
 26 27  1  0
 26 60  1  0
 26 61  1  0
 27 36  1  0
 27 28  1  0
 27 62  1  1
 28 29  1  0
 29 33  1  0
 29 30  1  6
 30 31  1  0
 31 32  1  0
 31 63  1  0
 31 64  1  0
 32 33  1  0
 32 65  1  0
 32 66  1  0
 33 34  1  6
 33 35  1  0
 34 67  1  0
 34 68  1  0
 34 69  1  0
 35 36  1  0
 36 37  1  0
 36 70  1  1
 37 71  1  1
M  END
>  <i_m_ct_stereo_status>  (318) 
1

>  <s_m_source_file>  (318) 
/var/tmp/pbs.5076255.sched01/tmp361ftg5n/90jpawypyp.sdf

>  <i_m_source_file_index>  (318) 
40

>  <i_lp_mmshare_version>  (318) 
48012

>  <i_f3d_flags>  (318) 
0

>  <s_epik_input>  (318) 
TzFbQ0gyXVtDSDJdW0NAXTIoW0NIM10pT1tDQEBIXShbQ0BASF0oTzMpW0NIMl00KVtDQEhdNVtDQF00KFtDSDNdKVtDSDJdW0NASF0oQzY9W0NIMl0pW0NAXTUoW09IXSlbQ0BIXShbT0hdKVtDQEBIXShDKD1DNltDQF0xMjMpW0NIM10pT0MoPU8pL1tDSF09W0NIXS9jN1tjSF1bY0hdW2NIXVtjSF1bY0hdNw==

>  <s_epik_cmdline>  (318) 
J2VwaWtfcHl0aG9uJywgJy1waHQnLCAnMi4wJywgJy1waCcsICc3LjAnLCAnLXRuJywgJzgnLCAnLW1hJywgJzIwMCcsICctaW1hZScsICc8aW5maWxlLm1hZT4nLCAnLW9tYWUnLCAnPG91dGZpbGUubWFlPic=

>  <r_lp_tautomer_probability>  (318) 
1

>  <r_epik_Ionization_Penalty>  (318) 
7.66635e-06

>  <r_epik_Ionization_Penalty_Charging>  (318) 
0

>  <r_epik_Ionization_Penalty_Neutral>  (318) 
7.66635e-06

>  <r_epik_State_Penalty>  (318) 
-0

>  <r_epik_Charging_Adjusted_Penalty>  (318) 
0

>  <i_epik_Tot_Q>  (318) 
0

>  <i_epik_Tot_abs_Q>  (318) 
0

>  <s_epik_Chemistry_Notes>  (318) 
This compound has an ester and may undergo hydrolysis at high or low pH.

>  <s_lp_Force_Field>  (318) 
OPLS3e

>  <r_lp_Energy>  (318) 
384.617

>  <b_lp_Chiralities_Consistent>  (318) 
1

>  <s_lp_Variant>  (318) 
85:0-2

>  <s_i_glide_gridfile>  (318) 
pfpi4k_grid

>  <i_i_glide_lignum>  (318) 
40

>  <i_i_glide_rotatable_bonds>  (318) 
6

>  <r_i_docking_score>  (318) 
-2.70718

>  <r_i_glide_ligand_efficiency>  (318) 
-0.0731671

>  <r_i_glide_ligand_efficiency_sa>  (318) 
-0.243809

>  <r_i_glide_ligand_efficiency_ln>  (318) 
-0.587124

>  <r_i_glide_gscore>  (318) 
-2.70718

>  <r_i_glide_lipo>  (318) 
-0.791079

>  <r_i_glide_hbond>  (318) 
0

>  <r_i_glide_metal>  (318) 
-0

>  <r_i_glide_rewards>  (318) 
-0.160237

>  <r_i_glide_evdw>  (318) 
-29.7719

>  <r_i_glide_ecoul>  (318) 
-3.37641

>  <r_i_glide_erotb>  (318) 
0.239189

>  <r_i_glide_esite>  (318) 
0

>  <r_i_glide_emodel>  (318) 
-32.5092

>  <r_i_glide_energy>  (318) 
-33.1483

>  <r_i_glide_einternal>  (318) 
11.9428

>  <r_i_glide_intrahb_reward>  (318) 
-0

>  <i_i_glide_confnum>  (318) 
1

>  <i_i_glide_posenum>  (318) 
17

>  <r_i_glide_eff_state_penalty>  (318) 
0

>  <ligand_id>  (318) 
85

>  <original_smiles>  (318) 
C=C1C2=C(C)C(OC(=O)C=Cc3ccccc3)C(O)C3(O)C1CC1(C)CC4OC25OCCC5(C)OC4C13

>  <smiles>  (318) 
[H]OC1([H])C([H])(OC(=O)C([H])=C([H])c2c([H])c([H])c([H])c([H])c2[H])C(C([H])([H])[H])=C2C(=C([H])[H])C3([H])C([H])([H])C4(C([H])([H])[H])C([H])([H])C5([H])OC26OC([H])([H])C([H])([H])C6(C([H])([H])[H])OC5([H])C4([H])C13O[H]

$$$$
85:1:2
     RDKit          3D

 71 77  0  0  1  0  0  0  0  0999 V2000
    1.0513   -1.1043    6.8138 C   0  0  0  0  0  0  0  0  0  0  0  0
    1.4405   -0.7584    5.5780 C   0  0  0  0  0  0  0  0  0  0  0  0
    2.8483   -0.2896    5.3055 C   0  0  0  0  0  0  0  0  0  0  0  0
    3.5231   -1.2195    4.6135 C   0  0  0  0  0  0  0  0  0  0  0  0
    3.3950   -2.7330    4.7707 C   0  0  0  0  0  0  0  0  0  0  0  0
    3.7362   -0.7494    3.1993 C   0  0  1  0  0  0  0  0  0  0  0  0
    4.5519   -1.6433    2.4222 O   0  0  0  0  0  0  0  0  0  0  0  0
    4.9578   -1.3066    1.1702 C   0  0  0  0  0  0  0  0  0  0  0  0
    4.6808   -0.2386    0.6705 O   0  0  0  0  0  0  0  0  0  0  0  0
    5.8064   -2.3366    0.5594 C   0  0  0  0  0  0  0  0  0  0  0  0
    5.7886   -2.7437   -0.7358 C   0  0  0  0  0  0  0  0  0  0  0  0
    4.9917   -2.2943   -1.8983 C   0  0  0  0  0  0  0  0  0  0  0  0
    4.4947   -3.2261   -2.8449 C   0  0  0  0  0  0  0  0  0  0  0  0
    3.6977   -2.7940   -3.9293 C   0  0  0  0  0  0  0  0  0  0  0  0
    3.3819   -1.4300   -4.0702 C   0  0  0  0  0  0  0  0  0  0  0  0
    3.8784   -0.5045   -3.1364 C   0  0  0  0  0  0  0  0  0  0  0  0
    4.7033   -0.9308   -2.0911 C   0  0  0  0  0  0  0  0  0  0  0  0
    2.3130   -0.3956    2.6033 C   0  0  1  0  0  0  0  0  0  0  0  0
    1.9359   -1.6387    1.9969 O   0  0  0  0  0  0  0  0  0  0  0  0
    0.9979    0.1813    3.4330 C   0  0  1  0  0  0  0  0  0  0  0  0
    0.2098    0.1358    2.1946 O   0  0  0  0  0  0  0  0  0  0  0  0
    0.3759   -0.7388    4.3836 C   0  0  2  0  0  0  0  0  0  0  0  0
   -0.9716    0.1800    4.3677 C   0  0  0  0  0  0  0  0  0  0  0  0
   -0.6678    1.7775    4.0477 C   0  0  2  0  0  0  0  0  0  0  0  0
   -1.6981    2.6412    4.8257 C   0  0  0  0  0  0  0  0  0  0  0  0
    0.3883    2.6793    3.1267 C   0  0  0  0  0  0  0  0  0  0  0  0
    1.8566    2.8908    3.8174 C   0  0  2  0  0  0  0  0  0  0  0  0
    2.9935    1.9208    3.8440 O   0  0  0  0  0  0  0  0  0  0  0  0
    3.4147    1.2293    5.0775 C   0  0  2  0  0  0  0  0  0  0  0  0
    4.8093    1.0947    5.1457 O   0  0  0  0  0  0  0  0  0  0  0  0
    5.2108    0.9882    6.5237 C   0  0  0  0  0  0  0  0  0  0  0  0
    4.0055    1.5043    7.3265 C   0  0  0  0  0  0  0  0  0  0  0  0
    3.2831    2.2428    6.2183 C   0  0  1  0  0  0  0  0  0  0  0  0
    4.0118    3.6084    5.9851 C   0  0  0  0  0  0  0  0  0  0  0  0
    1.9377    2.5196    6.3802 O   0  0  0  0  0  0  0  0  0  0  0  0
    1.2578    2.7073    5.1247 C   0  0  2  0  0  0  0  0  0  0  0  0
    0.5750    1.4332    4.6231 C   0  0  2  0  0  0  0  0  0  0  0  0
    0.0265   -1.3960    6.9984 H   0  0  0  0  0  0  0  0  0  0  0  0
    1.7377   -1.0944    7.6458 H   0  0  0  0  0  0  0  0  0  0  0  0
    4.3945   -3.1388    4.9310 H   0  0  0  0  0  0  0  0  0  0  0  0
    2.9887   -3.2197    3.8827 H   0  0  0  0  0  0  0  0  0  0  0  0
    2.7933   -3.0224    5.6327 H   0  0  0  0  0  0  0  0  0  0  0  0
    4.3414    0.1479    3.1859 H   0  0  0  0  0  0  0  0  0  0  0  0
    6.5127   -2.8011    1.2263 H   0  0  0  0  0  0  0  0  0  0  0  0
    6.5023   -3.5163   -0.9761 H   0  0  0  0  0  0  0  0  0  0  0  0
    4.7180   -4.2838   -2.7408 H   0  0  0  0  0  0  0  0  0  0  0  0
    3.3306   -3.5010   -4.6534 H   0  0  0  0  0  0  0  0  0  0  0  0
    2.7670   -1.0754   -4.8937 H   0  0  0  0  0  0  0  0  0  0  0  0
    3.6320    0.5437   -3.2284 H   0  0  0  0  0  0  0  0  0  0  0  0
    5.1283   -0.2000   -1.4465 H   0  0  0  0  0  0  0  0  0  0  0  0
    2.5050    0.2999    1.7828 H   0  0  0  0  0  0  0  0  0  0  0  0
    1.5162   -1.4292    1.1698 H   0  0  0  0  0  0  0  0  0  0  0  0
    0.5902    0.7230    1.5514 H   0  0  0  0  0  0  0  0  0  0  0  0
    0.2054   -1.7351    3.9781 H   0  0  0  0  0  0  0  0  0  0  0  0
   -1.7048   -0.1982    3.6490 H   0  0  0  0  0  0  0  0  0  0  0  0
   -1.4774    0.0648    5.3305 H   0  0  0  0  0  0  0  0  0  0  0  0
   -1.5570    3.7127    4.6828 H   0  0  0  0  0  0  0  0  0  0  0  0
   -1.6727    2.4453    5.8985 H   0  0  0  0  0  0  0  0  0  0  0  0
   -2.7070    2.4161    4.4797 H   0  0  0  0  0  0  0  0  0  0  0  0
    0.4792    2.4319    2.0715 H   0  0  0  0  0  0  0  0  0  0  0  0
   -0.0553    3.6724    3.0474 H   0  0  0  0  0  0  0  0  0  0  0  0
    2.2198    3.8999    3.6305 H   0  0  0  0  0  0  0  0  0  0  0  0
    5.4701   -0.0325    6.7994 H   0  0  0  0  0  0  0  0  0  0  0  0
    6.0901    1.6107    6.6868 H   0  0  0  0  0  0  0  0  0  0  0  0
    3.4095    0.6799    7.7176 H   0  0  0  0  0  0  0  0  0  0  0  0
    4.2852    2.1316    8.1727 H   0  0  0  0  0  0  0  0  0  0  0  0
    5.0473    3.4972    5.6669 H   0  0  0  0  0  0  0  0  0  0  0  0
    4.0264    4.1830    6.9122 H   0  0  0  0  0  0  0  0  0  0  0  0
    3.5350    4.2504    5.2539 H   0  0  0  0  0  0  0  0  0  0  0  0
    0.5808    3.5319    5.3460 H   0  0  0  0  0  0  0  0  0  0  0  0
    0.3349    1.2170    5.6809 H   0  0  0  0  0  0  0  0  0  0  0  0
  1  2  2  0
  1 38  1  0
  1 39  1  0
  2 22  1  0
  2  3  1  0
  3 29  1  0
  3  4  2  0
  4  5  1  0
  4  6  1  0
  5 40  1  0
  5 41  1  0
  5 42  1  0
  6  7  1  0
  6 18  1  0
  6 43  1  1
  7  8  1  0
  8  9  2  0
  8 10  1  0
 10 11  2  3
 10 44  1  0
 11 12  1  0
 11 45  1  0
 12 17  1  0
 12 13  2  0
 13 14  1  0
 13 46  1  0
 14 15  2  0
 14 47  1  0
 15 16  1  0
 15 48  1  0
 16 17  2  0
 16 49  1  0
 17 50  1  0
 18 19  1  0
 18 20  1  0
 18 51  1  6
 19 52  1  0
 20 37  1  0
 20 21  1  6
 20 22  1  0
 21 53  1  0
 22 23  1  0
 22 54  1  6
 23 24  1  0
 23 55  1  0
 23 56  1  0
 24 37  1  0
 24 25  1  1
 24 26  1  0
 25 57  1  0
 25 58  1  0
 25 59  1  0
 26 27  1  0
 26 60  1  0
 26 61  1  0
 27 36  1  0
 27 28  1  0
 27 62  1  1
 28 29  1  0
 29 33  1  0
 29 30  1  6
 30 31  1  0
 31 32  1  0
 31 63  1  0
 31 64  1  0
 32 33  1  0
 32 65  1  0
 32 66  1  0
 33 34  1  6
 33 35  1  0
 34 67  1  0
 34 68  1  0
 34 69  1  0
 35 36  1  0
 36 37  1  0
 36 70  1  1
 37 71  1  1
M  END
>  <i_m_ct_stereo_status>  (319) 
1

>  <s_m_source_file>  (319) 
/var/tmp/pbs.5076255.sched01/tmp361ftg5n/90jpawypyp.sdf

>  <i_m_source_file_index>  (319) 
40

>  <i_lp_mmshare_version>  (319) 
48012

>  <i_f3d_flags>  (319) 
0

>  <s_epik_input>  (319) 
TzFbQ0gyXVtDSDJdW0NAXTIoW0NIM10pT1tDQEBIXShbQ0BASF0oTzMpW0NIMl00KVtDQEhdNVtDQF00KFtDSDNdKVtDSDJdW0NASF0oQzY9W0NIMl0pW0NAXTUoW09IXSlbQ0BIXShbT0hdKVtDQEBIXShDKD1DNltDQF0xMjMpW0NIM10pT0MoPU8pL1tDSF09W0NIXS9jN1tjSF1bY0hdW2NIXVtjSF1bY0hdNw==

>  <s_epik_cmdline>  (319) 
J2VwaWtfcHl0aG9uJywgJy1waHQnLCAnMi4wJywgJy1waCcsICc3LjAnLCAnLXRuJywgJzgnLCAnLW1hJywgJzIwMCcsICctaW1hZScsICc8aW5maWxlLm1hZT4nLCAnLW9tYWUnLCAnPG91dGZpbGUubWFlPic=

>  <r_lp_tautomer_probability>  (319) 
1

>  <r_epik_Ionization_Penalty>  (319) 
7.66635e-06

>  <r_epik_Ionization_Penalty_Charging>  (319) 
0

>  <r_epik_Ionization_Penalty_Neutral>  (319) 
7.66635e-06

>  <r_epik_State_Penalty>  (319) 
-0

>  <r_epik_Charging_Adjusted_Penalty>  (319) 
0

>  <i_epik_Tot_Q>  (319) 
0

>  <i_epik_Tot_abs_Q>  (319) 
0

>  <s_epik_Chemistry_Notes>  (319) 
This compound has an ester and may undergo hydrolysis at high or low pH.

>  <s_lp_Force_Field>  (319) 
OPLS3e

>  <r_lp_Energy>  (319) 
384.617

>  <b_lp_Chiralities_Consistent>  (319) 
1

>  <s_lp_Variant>  (319) 
85:0-2

>  <s_i_glide_gridfile>  (319) 
pfpi4k_grid

>  <i_i_glide_lignum>  (319) 
40

>  <i_i_glide_rotatable_bonds>  (319) 
6

>  <r_i_docking_score>  (319) 
-2.17812

>  <r_i_glide_ligand_efficiency>  (319) 
-0.058868

>  <r_i_glide_ligand_efficiency_sa>  (319) 
-0.196161

>  <r_i_glide_ligand_efficiency_ln>  (319) 
-0.472382

>  <r_i_glide_gscore>  (319) 
-2.17812

>  <r_i_glide_lipo>  (319) 
-0.413945

>  <r_i_glide_hbond>  (319) 
0

>  <r_i_glide_metal>  (319) 
-0

>  <r_i_glide_rewards>  (319) 
-0.0954462

>  <r_i_glide_evdw>  (319) 
-35.6457

>  <r_i_glide_ecoul>  (319) 
-0.830445

>  <r_i_glide_erotb>  (319) 
0.239189

>  <r_i_glide_esite>  (319) 
-0.00106243

>  <r_i_glide_emodel>  (319) 
-37.6798

>  <r_i_glide_energy>  (319) 
-36.4761

>  <r_i_glide_einternal>  (319) 
6.62725

>  <r_i_glide_intrahb_reward>  (319) 
-0

>  <i_i_glide_confnum>  (319) 
1

>  <i_i_glide_posenum>  (319) 
19

>  <r_i_glide_eff_state_penalty>  (319) 
0

>  <ligand_id>  (319) 
85

>  <original_smiles>  (319) 
C=C1C2=C(C)C(OC(=O)C=Cc3ccccc3)C(O)C3(O)C1CC1(C)CC4OC25OCCC5(C)OC4C13

>  <smiles>  (319) 
[H]OC1([H])C([H])(OC(=O)C([H])=C([H])c2c([H])c([H])c([H])c([H])c2[H])C(C([H])([H])[H])=C2C(=C([H])[H])C3([H])C([H])([H])C4(C([H])([H])[H])C([H])([H])C5([H])OC26OC([H])([H])C([H])([H])C6(C([H])([H])[H])OC5([H])C4([H])C13O[H]

$$$$
86:0:0
     RDKit          3D

 73 78  0  0  1  0  0  0  0  0999 V2000
    4.6018   -2.2308   -0.6526 C   0  0  0  0  0  0  0  0  0  0  0  0
    5.9754   -2.1184    0.0478 C   0  0  0  0  0  0  0  0  0  0  0  0
    7.0180   -2.2754   -0.5855 O   0  0  0  0  0  0  0  0  0  0  0  0
    5.9450   -1.7797    1.3633 O   0  0  0  0  0  0  0  0  0  0  0  0
    4.7631   -1.4965    2.1050 C   0  0  2  0  0  0  0  0  0  0  0  0
    4.1249   -0.1803    1.6408 C   0  0  0  0  0  0  0  0  0  0  0  0
    3.4232    0.3872    2.8804 C   0  0  2  0  0  0  0  0  0  0  0  0
    4.0570   -0.2210    4.1361 C   0  0  2  0  0  0  0  0  0  0  0  0
    4.8839    0.7381    4.9840 C   0  0  0  0  0  0  0  0  0  0  0  0
    5.0357   -1.3136    3.6200 C   0  0  1  0  0  0  0  0  0  0  0  0
    5.0369   -2.6328    4.4287 C   0  0  0  0  0  0  0  0  0  0  0  0
    2.6027   -0.5602    4.5690 C   0  0  1  0  0  0  0  0  0  0  0  0
    1.9925   -0.4327    6.0115 C   0  0  1  0  0  0  0  0  0  0  0  0
    2.9754   -0.1631    7.0012 O   0  0  0  0  0  0  0  0  0  0  0  0
    0.7262    0.4462    6.1771 C   0  0  1  0  0  0  0  0  0  0  0  0
   -0.2898    0.1518    7.2804 C   0  0  1  0  0  0  0  0  0  0  0  0
    0.3080   -0.0293    8.6961 C   0  0  0  0  0  0  0  0  0  0  0  0
   -1.2904    1.3335    7.1087 C   0  0  1  0  0  0  0  0  0  0  0  0
   -1.7981    1.7979    8.3440 O   0  0  0  0  0  0  0  0  0  0  0  0
   -0.6093    2.4574    6.2690 C   0  0  2  0  0  0  0  0  0  0  0  0
   -1.2831    2.6223    4.8608 C   0  0  1  0  0  0  0  0  0  0  0  0
   -2.5519    3.4761    4.9534 C   0  0  0  0  0  0  0  0  0  0  0  0
   -0.3423    3.2092    3.7640 C   0  0  0  0  0  0  0  0  0  0  0  0
    1.0354    2.5124    3.6408 C   0  0  1  0  0  0  0  0  0  0  0  0
    1.8171    3.3354    2.7822 O   0  0  0  0  0  0  0  0  0  0  0  0
    1.6020    2.5827    5.0423 C   0  0  0  0  0  0  0  0  0  0  0  0
    2.5831    3.3440    5.4925 C   0  0  0  0  0  0  0  0  0  0  0  0
    2.5958    3.2583    6.9513 C   0  0  0  0  0  0  0  0  0  0  0  0
    3.3861    3.8003    7.7073 O   0  0  0  0  0  0  0  0  0  0  0  0
    1.5649    2.4719    7.3094 O   0  0  0  0  0  0  0  0  0  0  0  0
    0.8467    1.9740    6.1781 C   0  0  2  0  0  0  0  0  0  0  0  0
    0.8924    1.0569    3.0551 C   0  0  1  0  0  0  0  0  0  0  0  0
    0.6332    1.2311    1.6662 O   0  0  0  0  0  0  0  0  0  0  0  0
    1.9897   -0.0637    3.2147 C   0  0  1  0  0  0  0  0  0  0  0  0
    1.4509   -1.2708    2.3803 C   0  0  0  0  0  0  0  0  0  0  0  0
    4.0831   -1.2812   -0.6170 H   0  0  0  0  0  0  0  0  0  0  0  0
    3.9741   -2.9986   -0.1786 H   0  0  0  0  0  0  0  0  0  0  0  0
    4.7275   -2.5827   -1.7036 H   0  0  0  0  0  0  0  0  0  0  0  0
    4.0710   -2.3204    2.0126 H   0  0  0  0  0  0  0  0  0  0  0  0
    4.9184    0.5075    1.3595 H   0  0  0  0  0  0  0  0  0  0  0  0
    3.4840   -0.3024    0.7708 H   0  0  0  0  0  0  0  0  0  0  0  0
    3.4836    1.4658    2.9493 H   0  0  0  0  0  0  0  0  0  0  0  0
    5.3929    0.2271    5.8026 H   0  0  0  0  0  0  0  0  0  0  0  0
    4.2444    1.4927    5.3982 H   0  0  0  0  0  0  0  0  0  0  0  0
    5.6261    1.2458    4.3660 H   0  0  0  0  0  0  0  0  0  0  0  0
    6.0469   -0.9069    3.6832 H   0  0  0  0  0  0  0  0  0  0  0  0
    4.1206   -3.2097    4.3002 H   0  0  0  0  0  0  0  0  0  0  0  0
    5.1954   -2.4458    5.4956 H   0  0  0  0  0  0  0  0  0  0  0  0
    5.8327   -3.2846    4.0841 H   0  0  0  0  0  0  0  0  0  0  0  0
    2.6148   -1.6160    4.4277 H   0  0  0  0  0  0  0  0  0  0  0  0
    1.6619   -1.4411    6.2786 H   0  0  0  0  0  0  0  0  0  0  0  0
    3.6659   -0.7949    6.8999 H   0  0  0  0  0  0  0  0  0  0  0  0
    0.1388    0.1517    5.3205 H   0  0  0  0  0  0  0  0  0  0  0  0
   -0.7895   -0.7867    7.0289 H   0  0  0  0  0  0  0  0  0  0  0  0
    0.8427    0.8478    9.0615 H   0  0  0  0  0  0  0  0  0  0  0  0
    1.0088   -0.8624    8.7210 H   0  0  0  0  0  0  0  0  0  0  0  0
   -0.4692   -0.2554    9.4268 H   0  0  0  0  0  0  0  0  0  0  0  0
   -2.1559    0.9702    6.5574 H   0  0  0  0  0  0  0  0  0  0  0  0
   -1.1024    2.2271    8.8107 H   0  0  0  0  0  0  0  0  0  0  0  0
   -0.6323    3.4300    6.7788 H   0  0  0  0  0  0  0  0  0  0  0  0
   -1.5990    1.6431    4.4959 H   0  0  0  0  0  0  0  0  0  0  0  0
   -2.2858    4.4850    5.2580 H   0  0  0  0  0  0  0  0  0  0  0  0
   -3.2664    3.0764    5.6702 H   0  0  0  0  0  0  0  0  0  0  0  0
   -3.0349    3.5347    3.9832 H   0  0  0  0  0  0  0  0  0  0  0  0
   -0.8533    3.2072    2.7996 H   0  0  0  0  0  0  0  0  0  0  0  0
   -0.1646    4.2645    3.9873 H   0  0  0  0  0  0  0  0  0  0  0  0
    1.2931    3.6355    2.0422 H   0  0  0  0  0  0  0  0  0  0  0  0
    3.2150    3.9919    4.9111 H   0  0  0  0  0  0  0  0  0  0  0  0
   -0.0514    0.6289    3.3763 H   0  0  0  0  0  0  0  0  0  0  0  0
    0.1476    2.0292    1.5494 H   0  0  0  0  0  0  0  0  0  0  0  0
    0.4486   -1.5496    2.7008 H   0  0  0  0  0  0  0  0  0  0  0  0
    2.0475   -2.1705    2.4821 H   0  0  0  0  0  0  0  0  0  0  0  0
    1.4136   -1.0795    1.3115 H   0  0  0  0  0  0  0  0  0  0  0  0
  1  2  1  0
  1 36  1  0
  1 37  1  0
  1 38  1  0
  2  3  2  0
  2  4  1  0
  4  5  1  0
  5 10  1  0
  5  6  1  0
  5 39  1  1
  6  7  1  0
  6 40  1  0
  6 41  1  0
  7 34  1  0
  7  8  1  0
  7 42  1  1
  8  9  1  1
  8 10  1  0
  8 12  1  0
  9 43  1  0
  9 44  1  0
  9 45  1  0
 10 11  1  0
 10 46  1  6
 11 47  1  0
 11 48  1  0
 11 49  1  0
 12 34  1  0
 12 13  1  0
 12 50  1  6
 13 14  1  0
 13 15  1  0
 13 51  1  1
 14 52  1  0
 15 31  1  0
 15 16  1  0
 15 53  1  6
 16 17  1  0
 16 18  1  0
 16 54  1  6
 17 55  1  0
 17 56  1  0
 17 57  1  0
 18 19  1  0
 18 20  1  0
 18 58  1  6
 19 59  1  0
 20 31  1  0
 20 21  1  0
 20 60  1  1
 21 22  1  0
 21 23  1  0
 21 61  1  6
 22 62  1  0
 22 63  1  0
 22 64  1  0
 23 24  1  0
 23 65  1  0
 23 66  1  0
 24 25  1  6
 24 26  1  0
 24 32  1  0
 25 67  1  0
 26 31  1  0
 26 27  2  0
 27 28  1  0
 27 68  1  0
 28 29  2  0
 28 30  1  0
 31 30  1  1
 32 33  1  0
 32 34  1  0
 32 69  1  1
 33 70  1  0
 34 35  1  6
 35 71  1  0
 35 72  1  0
 35 73  1  0
M  END
>  <i_m_ct_stereo_status>  (320) 
1

>  <s_m_source_file>  (320) 
/var/tmp/pbs.5076255.sched01/tmp361ftg5n/90jpawypyp.sdf

>  <i_m_source_file_index>  (320) 
41

>  <i_lp_mmshare_version>  (320) 
48012

>  <i_f3d_flags>  (320) 
0

>  <s_epik_input>  (320) 
W0NIM11DKD1PKU9bQ0BASF0oW0NAQEhdMVtDSDNdKVtDSDJdW0NASF0oW0NAQF0xKFtDSDNdKVtDQEhdMltDQEBIXShbT0hdKVtDQEBIXTNbQ0BdNDU2KVtDQF0yKFtDSDNdKVtDQEhdKFtPSF0pW0NAXShbT0hdKShDNT1bQ0hdQyg9TylPNilbQ0gyXVtDQEhdKFtDSDNdKVtDQEhdNFtDQEhdKFtPSF0pW0NAQEhdM1tDSDNd

>  <s_epik_cmdline>  (320) 
J2VwaWtfcHl0aG9uJywgJy1waHQnLCAnMi4wJywgJy1waCcsICc3LjAnLCAnLXRuJywgJzgnLCAnLW1hJywgJzIwMCcsICctaW1hZScsICc8aW5maWxlLm1hZT4nLCAnLW9tYWUnLCAnPG91dGZpbGUubWFlPic=

>  <r_lp_tautomer_probability>  (320) 
1

>  <r_epik_Ionization_Penalty>  (320) 
2.43859e-07

>  <r_epik_Ionization_Penalty_Charging>  (320) 
0

>  <r_epik_Ionization_Penalty_Neutral>  (320) 
2.43859e-07

>  <r_epik_State_Penalty>  (320) 
-0

>  <r_epik_Charging_Adjusted_Penalty>  (320) 
0

>  <i_epik_Tot_Q>  (320) 
0

>  <i_epik_Tot_abs_Q>  (320) 
0

>  <s_epik_Chemistry_Notes>  (320) 
This compound has an ester and may undergo hydrolysis at high or low pH.

>  <s_lp_Force_Field>  (320) 
OPLS3e

>  <r_lp_Energy>  (320) 
87.028

>  <b_lp_Chiralities_Consistent>  (320) 
1

>  <s_lp_Variant>  (320) 
86:0-1

>  <s_i_glide_gridfile>  (320) 
pfpi4k_grid

>  <i_i_glide_lignum>  (320) 
41

>  <i_i_glide_rotatable_bonds>  (320) 
6

>  <r_i_docking_score>  (320) 
-2.45179

>  <r_i_glide_ligand_efficiency>  (320) 
-0.070051

>  <r_i_glide_ligand_efficiency_sa>  (320) 
-0.229142

>  <r_i_glide_ligand_efficiency_ln>  (320) 
-0.538222

>  <r_i_glide_gscore>  (320) 
-2.45179

>  <r_i_glide_lipo>  (320) 
-0.319625

>  <r_i_glide_hbond>  (320) 
-0.122402

>  <r_i_glide_metal>  (320) 
-0

>  <r_i_glide_rewards>  (320) 
-0.0739631

>  <r_i_glide_evdw>  (320) 
-23.9

>  <r_i_glide_ecoul>  (320) 
-5.50238

>  <r_i_glide_erotb>  (320) 
0.0845606

>  <r_i_glide_esite>  (320) 
0

>  <r_i_glide_emodel>  (320) 
-29.017

>  <r_i_glide_energy>  (320) 
-29.4024

>  <r_i_glide_einternal>  (320) 
7.52115

>  <r_i_glide_intrahb_reward>  (320) 
-0

>  <i_i_glide_confnum>  (320) 
1

>  <i_i_glide_posenum>  (320) 
5

>  <r_i_glide_eff_state_penalty>  (320) 
0

>  <ligand_id>  (320) 
86

>  <original_smiles>  (320) 
CC(=O)OC1CC2C(C)(C1C)C1C(O)C3C(C)C(O)C4C(C)CC(O)(C5=CC(=O)OC543)C(O)C21C

>  <smiles>  (320) 
[H]OC1([H])C([H])(C([H])([H])[H])C2([H])C([H])(O[H])C3([H])C(C([H])([H])[H])(C([H])(O[H])C4(O[H])C5=C([H])C(=O)OC52C1([H])C([H])(C([H])([H])[H])C4([H])[H])C1([H])C([H])([H])C([H])(OC(=O)C([H])([H])[H])C([H])(C([H])([H])[H])C13C([H])([H])[H]

$$$$
86:0:1
     RDKit          3D

 73 78  0  0  1  0  0  0  0  0999 V2000
    3.3278   -2.7575   -0.1085 C   0  0  0  0  0  0  0  0  0  0  0  0
    2.8404   -2.4317    1.2981 C   0  0  0  0  0  0  0  0  0  0  0  0
    2.4981   -3.3268    2.0784 O   0  0  0  0  0  0  0  0  0  0  0  0
    2.8261   -1.1102    1.5544 O   0  0  0  0  0  0  0  0  0  0  0  0
    2.3779   -0.6167    2.8114 C   0  0  2  0  0  0  0  0  0  0  0  0
    0.8884   -0.2452    2.8043 C   0  0  0  0  0  0  0  0  0  0  0  0
    0.7465    0.8827    3.8259 C   0  0  2  0  0  0  0  0  0  0  0  0
    2.1113    1.5589    4.0097 C   0  0  2  0  0  0  0  0  0  0  0  0
    2.2400    2.9730    3.4410 C   0  0  0  0  0  0  0  0  0  0  0  0
    3.1137    0.6798    3.2017 C   0  0  1  0  0  0  0  0  0  0  0  0
    4.4854    0.4151    3.8523 C   0  0  0  0  0  0  0  0  0  0  0  0
    1.9245    1.3759    5.5498 C   0  0  1  0  0  0  0  0  0  0  0  0
    2.2905    2.4127    6.6714 C   0  0  1  0  0  0  0  0  0  0  0  0
    3.0674    3.4950    6.2001 O   0  0  0  0  0  0  0  0  0  0  0  0
    1.1699    2.8572    7.6436 C   0  0  1  0  0  0  0  0  0  0  0  0
    1.4786    3.2844    9.0877 C   0  0  1  0  0  0  0  0  0  0  0  0
    2.6152    4.3218    9.2449 C   0  0  0  0  0  0  0  0  0  0  0  0
    0.0746    3.7298    9.6035 C   0  0  1  0  0  0  0  0  0  0  0  0
    0.1161    4.8665   10.4422 O   0  0  0  0  0  0  0  0  0  0  0  0
   -0.8502    3.9715    8.3717 C   0  0  2  0  0  0  0  0  0  0  0  0
   -2.0256    2.9380    8.2877 C   0  0  1  0  0  0  0  0  0  0  0  0
   -3.1871    3.3174    9.2312 C   0  0  0  0  0  0  0  0  0  0  0  0
   -2.5610    2.6899    6.8490 C   0  0  0  0  0  0  0  0  0  0  0  0
   -1.4802    2.4016    5.7747 C   0  0  1  0  0  0  0  0  0  0  0  0
   -2.1545    2.4401    4.5217 O   0  0  0  0  0  0  0  0  0  0  0  0
   -0.5516    3.5899    5.8904 C   0  0  0  0  0  0  0  0  0  0  0  0
   -0.4061    4.6146    5.0456 C   0  0  0  0  0  0  0  0  0  0  0  0
    0.4073    5.6318    5.7100 C   0  0  0  0  0  0  0  0  0  0  0  0
    0.7523    6.7144    5.2510 O   0  0  0  0  0  0  0  0  0  0  0  0
    0.6953    5.1645    6.9391 O   0  0  0  0  0  0  0  0  0  0  0  0
    0.1254    3.8833    7.1853 C   0  0  2  0  0  0  0  0  0  0  0  0
   -0.8116    0.9806    5.9799 C   0  0  1  0  0  0  0  0  0  0  0  0
   -1.7950    0.0263    5.6056 O   0  0  0  0  0  0  0  0  0  0  0  0
    0.5820    0.5781    5.3450 C   0  0  1  0  0  0  0  0  0  0  0  0
    0.7751   -0.9113    5.7525 C   0  0  0  0  0  0  0  0  0  0  0  0
    4.3541   -2.4172   -0.2406 H   0  0  0  0  0  0  0  0  0  0  0  0
    2.6983   -2.2570   -0.8441 H   0  0  0  0  0  0  0  0  0  0  0  0
    3.2911   -3.8307   -0.3004 H   0  0  0  0  0  0  0  0  0  0  0  0
    2.5639   -1.3596    3.5851 H   0  0  0  0  0  0  0  0  0  0  0  0
    0.6229    0.1309    1.8142 H   0  0  0  0  0  0  0  0  0  0  0  0
    0.2485   -1.1048    2.9949 H   0  0  0  0  0  0  0  0  0  0  0  0
    0.0272    1.6322    3.5059 H   0  0  0  0  0  0  0  0  0  0  0  0
    3.2663    3.3407    3.4924 H   0  0  0  0  0  0  0  0  0  0  0  0
    1.6265    3.6681    3.9912 H   0  0  0  0  0  0  0  0  0  0  0  0
    1.9156    3.0299    2.3998 H   0  0  0  0  0  0  0  0  0  0  0  0
    3.3325    1.1863    2.2556 H   0  0  0  0  0  0  0  0  0  0  0  0
    4.4180   -0.2412    4.7206 H   0  0  0  0  0  0  0  0  0  0  0  0
    4.9570    1.3455    4.1681 H   0  0  0  0  0  0  0  0  0  0  0  0
    5.1560   -0.0643    3.1358 H   0  0  0  0  0  0  0  0  0  0  0  0
    2.6525    0.5998    5.7495 H   0  0  0  0  0  0  0  0  0  0  0  0
    3.0029    1.9032    7.3230 H   0  0  0  0  0  0  0  0  0  0  0  0
    2.5662    3.9693    5.5545 H   0  0  0  0  0  0  0  0  0  0  0  0
    0.6649    1.9318    7.8539 H   0  0  0  0  0  0  0  0  0  0  0  0
    1.7952    2.4104    9.6550 H   0  0  0  0  0  0  0  0  0  0  0  0
    2.4146    5.2683    8.7427 H   0  0  0  0  0  0  0  0  0  0  0  0
    3.5528    3.9330    8.8457 H   0  0  0  0  0  0  0  0  0  0  0  0
    2.7933    4.5450   10.2983 H   0  0  0  0  0  0  0  0  0  0  0  0
   -0.3383    2.9172   10.2058 H   0  0  0  0  0  0  0  0  0  0  0  0
   -0.7139    4.9301   10.8913 H   0  0  0  0  0  0  0  0  0  0  0  0
   -1.2896    4.9703    8.3879 H   0  0  0  0  0  0  0  0  0  0  0  0
   -1.6501    1.9800    8.6379 H   0  0  0  0  0  0  0  0  0  0  0  0
   -3.6484    4.2605    8.9328 H   0  0  0  0  0  0  0  0  0  0  0  0
   -2.8454    3.4237   10.2621 H   0  0  0  0  0  0  0  0  0  0  0  0
   -3.9655    2.5517    9.2246 H   0  0  0  0  0  0  0  0  0  0  0  0
   -3.2923    1.8871    6.8810 H   0  0  0  0  0  0  0  0  0  0  0  0
   -3.1158    3.5727    6.5400 H   0  0  0  0  0  0  0  0  0  0  0  0
   -1.5327    2.2610    3.8308 H   0  0  0  0  0  0  0  0  0  0  0  0
   -0.8602    4.7469    4.0775 H   0  0  0  0  0  0  0  0  0  0  0  0
   -0.7501    0.7765    7.0424 H   0  0  0  0  0  0  0  0  0  0  0  0
   -2.0375    0.2032    4.7057 H   0  0  0  0  0  0  0  0  0  0  0  0
    0.6675   -1.0580    6.8311 H   0  0  0  0  0  0  0  0  0  0  0  0
    1.7644   -1.2981    5.4989 H   0  0  0  0  0  0  0  0  0  0  0  0
    0.0714   -1.5813    5.2536 H   0  0  0  0  0  0  0  0  0  0  0  0
  1  2  1  0
  1 36  1  0
  1 37  1  0
  1 38  1  0
  2  3  2  0
  2  4  1  0
  4  5  1  0
  5 10  1  0
  5  6  1  0
  5 39  1  1
  6  7  1  0
  6 40  1  0
  6 41  1  0
  7 34  1  0
  7  8  1  0
  7 42  1  6
  8  9  1  1
  8 10  1  0
  8 12  1  0
  9 43  1  0
  9 44  1  0
  9 45  1  0
 10 11  1  0
 10 46  1  6
 11 47  1  0
 11 48  1  0
 11 49  1  0
 12 34  1  0
 12 13  1  0
 12 50  1  1
 13 14  1  0
 13 15  1  0
 13 51  1  1
 14 52  1  0
 15 31  1  0
 15 16  1  0
 15 53  1  1
 16 17  1  0
 16 18  1  0
 16 54  1  1
 17 55  1  0
 17 56  1  0
 17 57  1  0
 18 19  1  0
 18 20  1  0
 18 58  1  1
 19 59  1  0
 20 31  1  0
 20 21  1  0
 20 60  1  1
 21 22  1  0
 21 23  1  0
 21 61  1  1
 22 62  1  0
 22 63  1  0
 22 64  1  0
 23 24  1  0
 23 65  1  0
 23 66  1  0
 24 25  1  6
 24 26  1  0
 24 32  1  0
 25 67  1  0
 26 31  1  0
 26 27  2  0
 27 28  1  0
 27 68  1  0
 28 29  2  0
 28 30  1  0
 31 30  1  6
 32 33  1  0
 32 34  1  0
 32 69  1  1
 33 70  1  0
 34 35  1  6
 35 71  1  0
 35 72  1  0
 35 73  1  0
M  END
>  <i_m_ct_stereo_status>  (321) 
1

>  <s_m_source_file>  (321) 
/var/tmp/pbs.5076255.sched01/tmp361ftg5n/90jpawypyp.sdf

>  <i_m_source_file_index>  (321) 
41

>  <i_lp_mmshare_version>  (321) 
48012

>  <i_f3d_flags>  (321) 
0

>  <s_epik_input>  (321) 
W0NIM11DKD1PKU9bQ0BASF0oW0NAQEhdMVtDSDNdKVtDSDJdW0NASF0oW0NAQF0xKFtDSDNdKVtDQEhdMltDQEBIXShbT0hdKVtDQEBIXTNbQ0BdNDU2KVtDQF0yKFtDSDNdKVtDQEhdKFtPSF0pW0NAXShbT0hdKShDNT1bQ0hdQyg9TylPNilbQ0gyXVtDQEhdKFtDSDNdKVtDQEhdNFtDQEhdKFtPSF0pW0NAQEhdM1tDSDNd

>  <s_epik_cmdline>  (321) 
J2VwaWtfcHl0aG9uJywgJy1waHQnLCAnMi4wJywgJy1waCcsICc3LjAnLCAnLXRuJywgJzgnLCAnLW1hJywgJzIwMCcsICctaW1hZScsICc8aW5maWxlLm1hZT4nLCAnLW9tYWUnLCAnPG91dGZpbGUubWFlPic=

>  <r_lp_tautomer_probability>  (321) 
1

>  <r_epik_Ionization_Penalty>  (321) 
2.43859e-07

>  <r_epik_Ionization_Penalty_Charging>  (321) 
0

>  <r_epik_Ionization_Penalty_Neutral>  (321) 
2.43859e-07

>  <r_epik_State_Penalty>  (321) 
-0

>  <r_epik_Charging_Adjusted_Penalty>  (321) 
0

>  <i_epik_Tot_Q>  (321) 
0

>  <i_epik_Tot_abs_Q>  (321) 
0

>  <s_epik_Chemistry_Notes>  (321) 
This compound has an ester and may undergo hydrolysis at high or low pH.

>  <s_lp_Force_Field>  (321) 
OPLS3e

>  <r_lp_Energy>  (321) 
87.028

>  <b_lp_Chiralities_Consistent>  (321) 
1

>  <s_lp_Variant>  (321) 
86:0-1

>  <s_i_glide_gridfile>  (321) 
pfpi4k_grid

>  <i_i_glide_lignum>  (321) 
41

>  <i_i_glide_rotatable_bonds>  (321) 
6

>  <r_i_docking_score>  (321) 
-1.88126

>  <r_i_glide_ligand_efficiency>  (321) 
-0.0537502

>  <r_i_glide_ligand_efficiency_sa>  (321) 
-0.175821

>  <r_i_glide_ligand_efficiency_ln>  (321) 
-0.412978

>  <r_i_glide_gscore>  (321) 
-1.88126

>  <r_i_glide_lipo>  (321) 
-0.195815

>  <r_i_glide_hbond>  (321) 
0

>  <r_i_glide_metal>  (321) 
-0

>  <r_i_glide_rewards>  (321) 
-0.0641876

>  <r_i_glide_evdw>  (321) 
-24.2708

>  <r_i_glide_ecoul>  (321) 
-2.97181

>  <r_i_glide_erotb>  (321) 
0.0845606

>  <r_i_glide_esite>  (321) 
-0.0465021

>  <r_i_glide_emodel>  (321) 
-30.3348

>  <r_i_glide_energy>  (321) 
-27.2427

>  <r_i_glide_einternal>  (321) 
0.599561

>  <r_i_glide_intrahb_reward>  (321) 
-0

>  <i_i_glide_confnum>  (321) 
2

>  <i_i_glide_posenum>  (321) 
3

>  <r_i_glide_eff_state_penalty>  (321) 
0

>  <ligand_id>  (321) 
86

>  <original_smiles>  (321) 
CC(=O)OC1CC2C(C)(C1C)C1C(O)C3C(C)C(O)C4C(C)CC(O)(C5=CC(=O)OC543)C(O)C21C

>  <smiles>  (321) 
[H]OC1([H])C([H])(C([H])([H])[H])C2([H])C([H])(O[H])C3([H])C(C([H])([H])[H])(C([H])(O[H])C4(O[H])C5=C([H])C(=O)OC52C1([H])C([H])(C([H])([H])[H])C4([H])[H])C1([H])C([H])([H])C([H])(OC(=O)C([H])([H])[H])C([H])(C([H])([H])[H])C13C([H])([H])[H]

$$$$
86:0:2
     RDKit          3D

 73 78  0  0  1  0  0  0  0  0999 V2000
    4.1368   -2.1466   -0.5504 C   0  0  0  0  0  0  0  0  0  0  0  0
    3.6969   -1.8861    0.8847 C   0  0  0  0  0  0  0  0  0  0  0  0
    3.9737   -2.6806    1.7884 O   0  0  0  0  0  0  0  0  0  0  0  0
    3.0097   -0.7363    1.0211 O   0  0  0  0  0  0  0  0  0  0  0  0
    2.5064   -0.3364    2.2942 C   0  0  2  0  0  0  0  0  0  0  0  0
    1.0967    0.2581    2.1977 C   0  0  0  0  0  0  0  0  0  0  0  0
    0.9972    1.2520    3.3554 C   0  0  2  0  0  0  0  0  0  0  0  0
    2.4104    1.6879    3.7571 C   0  0  2  0  0  0  0  0  0  0  0  0
    2.7750    3.1303    3.4131 C   0  0  0  0  0  0  0  0  0  0  0  0
    3.3647    0.7707    2.9329 C   0  0  1  0  0  0  0  0  0  0  0  0
    4.6133    0.2371    3.6592 C   0  0  0  0  0  0  0  0  0  0  0  0
    2.0350    1.3411    5.2324 C   0  0  1  0  0  0  0  0  0  0  0  0
    2.4138    2.1613    6.5185 C   0  0  1  0  0  0  0  0  0  0  0  0
    3.3746    3.1693    6.2794 O   0  0  0  0  0  0  0  0  0  0  0  0
    1.2628    2.6422    7.4369 C   0  0  1  0  0  0  0  0  0  0  0  0
    1.4689    2.8244    8.9503 C   0  0  1  0  0  0  0  0  0  0  0  0
    2.7140    3.6502    9.3527 C   0  0  0  0  0  0  0  0  0  0  0  0
    0.0913    3.4123    9.3952 C   0  0  1  0  0  0  0  0  0  0  0  0
    0.2079    4.4118   10.3874 O   0  0  0  0  0  0  0  0  0  0  0  0
   -0.6503    3.9468    8.1330 C   0  0  2  0  0  0  0  0  0  0  0  0
   -1.9392    3.1216    7.7946 C   0  0  1  0  0  0  0  0  0  0  0  0
   -3.1340    3.5501    8.6726 C   0  0  0  0  0  0  0  0  0  0  0  0
   -2.3405    3.1452    6.2905 C   0  0  0  0  0  0  0  0  0  0  0  0
   -1.1992    2.8354    5.2884 C   0  0  1  0  0  0  0  0  0  0  0  0
   -1.7264    3.1290    3.9989 O   0  0  0  0  0  0  0  0  0  0  0  0
   -0.1411    3.8506    5.6561 C   0  0  0  0  0  0  0  0  0  0  0  0
    0.2296    4.9458    4.9859 C   0  0  0  0  0  0  0  0  0  0  0  0
    1.1066    5.7275    5.8554 C   0  0  0  0  0  0  0  0  0  0  0  0
    1.6665    6.7836    5.5801 O   0  0  0  0  0  0  0  0  0  0  0  0
    1.1917    5.0694    7.0265 O   0  0  0  0  0  0  0  0  0  0  0  0
    0.4269    3.8664    7.0369 C   0  0  2  0  0  0  0  0  0  0  0  0
   -0.7516    1.3155    5.3503 C   0  0  1  0  0  0  0  0  0  0  0  0
   -1.7918    0.5662    4.7516 O   0  0  0  0  0  0  0  0  0  0  0  0
    0.6292    0.7868    4.7944 C   0  0  1  0  0  0  0  0  0  0  0  0
    0.5711   -0.7551    5.0022 C   0  0  0  0  0  0  0  0  0  0  0  0
    4.8027   -1.3528   -0.8867 H   0  0  0  0  0  0  0  0  0  0  0  0
    3.2678   -2.1775   -1.2090 H   0  0  0  0  0  0  0  0  0  0  0  0
    4.6649   -3.0986   -0.6254 H   0  0  0  0  0  0  0  0  0  0  0  0
    2.4650   -1.1890    2.9696 H   0  0  0  0  0  0  0  0  0  0  0  0
    0.9966    0.7931    1.2511 H   0  0  0  0  0  0  0  0  0  0  0  0
    0.3295   -0.5127    2.2054 H   0  0  0  0  0  0  0  0  0  0  0  0
    0.4260    2.1342    3.0804 H   0  0  0  0  0  0  0  0  0  0  0  0
    3.8194    3.3389    3.6350 H   0  0  0  0  0  0  0  0  0  0  0  0
    2.1993    3.8287    3.9959 H   0  0  0  0  0  0  0  0  0  0  0  0
    2.5928    3.3645    2.3627 H   0  0  0  0  0  0  0  0  0  0  0  0
    3.7375    1.3383    2.0785 H   0  0  0  0  0  0  0  0  0  0  0  0
    4.3643   -0.5099    4.4136 H   0  0  0  0  0  0  0  0  0  0  0  0
    5.1669    1.0423    4.1438 H   0  0  0  0  0  0  0  0  0  0  0  0
    5.2884   -0.2408    2.9472 H   0  0  0  0  0  0  0  0  0  0  0  0
    2.6240    0.4447    5.3841 H   0  0  0  0  0  0  0  0  0  0  0  0
    2.9739    1.4712    7.1519 H   0  0  0  0  0  0  0  0  0  0  0  0
    3.0002    3.8084    5.6940 H   0  0  0  0  0  0  0  0  0  0  0  0
    0.6157    1.7832    7.4660 H   0  0  0  0  0  0  0  0  0  0  0  0
    1.5995    1.8442    9.4109 H   0  0  0  0  0  0  0  0  0  0  0  0
    2.6991    4.6723    8.9739 H   0  0  0  0  0  0  0  0  0  0  0  0
    3.6283    3.1807    8.9870 H   0  0  0  0  0  0  0  0  0  0  0  0
    2.8085    3.7092   10.4381 H   0  0  0  0  0  0  0  0  0  0  0  0
   -0.4990    2.6067    9.8387 H   0  0  0  0  0  0  0  0  0  0  0  0
    0.4328    3.9863   11.2005 H   0  0  0  0  0  0  0  0  0  0  0  0
   -0.9453    4.9886    8.2592 H   0  0  0  0  0  0  0  0  0  0  0  0
   -1.7408    2.0801    8.0383 H   0  0  0  0  0  0  0  0  0  0  0  0
   -3.4167    4.5852    8.4759 H   0  0  0  0  0  0  0  0  0  0  0  0
   -2.8993    3.4692    9.7352 H   0  0  0  0  0  0  0  0  0  0  0  0
   -4.0119    2.9286    8.4805 H   0  0  0  0  0  0  0  0  0  0  0  0
   -3.1737    2.4725    6.1226 H   0  0  0  0  0  0  0  0  0  0  0  0
   -2.7345    4.1321    6.0609 H   0  0  0  0  0  0  0  0  0  0  0  0
   -1.0558    2.9801    3.3467 H   0  0  0  0  0  0  0  0  0  0  0  0
   -0.0938    5.2702    4.0101 H   0  0  0  0  0  0  0  0  0  0  0  0
   -0.8390    0.9682    6.3714 H   0  0  0  0  0  0  0  0  0  0  0  0
   -1.9686    0.9351    3.8960 H   0  0  0  0  0  0  0  0  0  0  0  0
    0.3217   -1.0183    6.0333 H   0  0  0  0  0  0  0  0  0  0  0  0
    1.5190   -1.2539    4.7893 H   0  0  0  0  0  0  0  0  0  0  0  0
   -0.1572   -1.2407    4.3491 H   0  0  0  0  0  0  0  0  0  0  0  0
  1  2  1  0
  1 36  1  0
  1 37  1  0
  1 38  1  0
  2  3  2  0
  2  4  1  0
  4  5  1  0
  5 10  1  0
  5  6  1  0
  5 39  1  1
  6  7  1  0
  6 40  1  0
  6 41  1  0
  7 34  1  0
  7  8  1  0
  7 42  1  6
  8  9  1  1
  8 10  1  0
  8 12  1  0
  9 43  1  0
  9 44  1  0
  9 45  1  0
 10 11  1  0
 10 46  1  6
 11 47  1  0
 11 48  1  0
 11 49  1  0
 12 34  1  0
 12 13  1  0
 12 50  1  1
 13 14  1  0
 13 15  1  0
 13 51  1  1
 14 52  1  0
 15 31  1  0
 15 16  1  0
 15 53  1  1
 16 17  1  0
 16 18  1  0
 16 54  1  1
 17 55  1  0
 17 56  1  0
 17 57  1  0
 18 19  1  0
 18 20  1  0
 18 58  1  1
 19 59  1  0
 20 31  1  0
 20 21  1  0
 20 60  1  1
 21 22  1  0
 21 23  1  0
 21 61  1  1
 22 62  1  0
 22 63  1  0
 22 64  1  0
 23 24  1  0
 23 65  1  0
 23 66  1  0
 24 25  1  6
 24 26  1  0
 24 32  1  0
 25 67  1  0
 26 31  1  0
 26 27  2  0
 27 28  1  0
 27 68  1  0
 28 29  2  0
 28 30  1  0
 31 30  1  6
 32 33  1  0
 32 34  1  0
 32 69  1  1
 33 70  1  0
 34 35  1  6
 35 71  1  0
 35 72  1  0
 35 73  1  0
M  END
>  <i_m_ct_stereo_status>  (322) 
1

>  <s_m_source_file>  (322) 
/var/tmp/pbs.5076255.sched01/tmp361ftg5n/90jpawypyp.sdf

>  <i_m_source_file_index>  (322) 
41

>  <i_lp_mmshare_version>  (322) 
48012

>  <i_f3d_flags>  (322) 
0

>  <s_epik_input>  (322) 
W0NIM11DKD1PKU9bQ0BASF0oW0NAQEhdMVtDSDNdKVtDSDJdW0NASF0oW0NAQF0xKFtDSDNdKVtDQEhdMltDQEBIXShbT0hdKVtDQEBIXTNbQ0BdNDU2KVtDQF0yKFtDSDNdKVtDQEhdKFtPSF0pW0NAXShbT0hdKShDNT1bQ0hdQyg9TylPNilbQ0gyXVtDQEhdKFtDSDNdKVtDQEhdNFtDQEhdKFtPSF0pW0NAQEhdM1tDSDNd

>  <s_epik_cmdline>  (322) 
J2VwaWtfcHl0aG9uJywgJy1waHQnLCAnMi4wJywgJy1waCcsICc3LjAnLCAnLXRuJywgJzgnLCAnLW1hJywgJzIwMCcsICctaW1hZScsICc8aW5maWxlLm1hZT4nLCAnLW9tYWUnLCAnPG91dGZpbGUubWFlPic=

>  <r_lp_tautomer_probability>  (322) 
1

>  <r_epik_Ionization_Penalty>  (322) 
2.43859e-07

>  <r_epik_Ionization_Penalty_Charging>  (322) 
0

>  <r_epik_Ionization_Penalty_Neutral>  (322) 
2.43859e-07

>  <r_epik_State_Penalty>  (322) 
-0

>  <r_epik_Charging_Adjusted_Penalty>  (322) 
0

>  <i_epik_Tot_Q>  (322) 
0

>  <i_epik_Tot_abs_Q>  (322) 
0

>  <s_epik_Chemistry_Notes>  (322) 
This compound has an ester and may undergo hydrolysis at high or low pH.

>  <s_lp_Force_Field>  (322) 
OPLS3e

>  <r_lp_Energy>  (322) 
87.028

>  <b_lp_Chiralities_Consistent>  (322) 
1

>  <s_lp_Variant>  (322) 
86:0-1

>  <s_i_glide_gridfile>  (322) 
pfpi4k_grid

>  <i_i_glide_lignum>  (322) 
41

>  <i_i_glide_rotatable_bonds>  (322) 
6

>  <r_i_docking_score>  (322) 
-1.79492

>  <r_i_glide_ligand_efficiency>  (322) 
-0.0512835

>  <r_i_glide_ligand_efficiency_sa>  (322) 
-0.167752

>  <r_i_glide_ligand_efficiency_ln>  (322) 
-0.394026

>  <r_i_glide_gscore>  (322) 
-1.79492

>  <r_i_glide_lipo>  (322) 
-0.213729

>  <r_i_glide_hbond>  (322) 
0

>  <r_i_glide_metal>  (322) 
-0

>  <r_i_glide_rewards>  (322) 
-0.0641876

>  <r_i_glide_evdw>  (322) 
-23.4398

>  <r_i_glide_ecoul>  (322) 
-2.65945

>  <r_i_glide_erotb>  (322) 
0.0845606

>  <r_i_glide_esite>  (322) 
-0.0306595

>  <r_i_glide_emodel>  (322) 
-28.7764

>  <r_i_glide_energy>  (322) 
-26.0993

>  <r_i_glide_einternal>  (322) 
0.945974

>  <r_i_glide_intrahb_reward>  (322) 
-0

>  <i_i_glide_confnum>  (322) 
2

>  <i_i_glide_posenum>  (322) 
19

>  <r_i_glide_eff_state_penalty>  (322) 
0

>  <ligand_id>  (322) 
86

>  <original_smiles>  (322) 
CC(=O)OC1CC2C(C)(C1C)C1C(O)C3C(C)C(O)C4C(C)CC(O)(C5=CC(=O)OC543)C(O)C21C

>  <smiles>  (322) 
[H]OC1([H])C([H])(C([H])([H])[H])C2([H])C([H])(O[H])C3([H])C(C([H])([H])[H])(C([H])(O[H])C4(O[H])C5=C([H])C(=O)OC52C1([H])C([H])(C([H])([H])[H])C4([H])[H])C1([H])C([H])([H])C([H])(OC(=O)C([H])([H])[H])C([H])(C([H])([H])[H])C13C([H])([H])[H]

$$$$
87:0:0
     RDKit          3D

 63 69  0  0  1  0  0  0  0  0999 V2000
    0.5359   -6.6456    2.4185 C   0  0  0  0  0  0  0  0  0  0  0  0
    1.6767   -6.1547    3.2766 C   0  0  0  0  0  0  0  0  0  0  0  0
    1.6872   -6.3477    4.6221 C   0  0  0  0  0  0  0  0  0  0  0  0
    2.7191   -5.7894    5.6041 C   0  0  1  0  0  0  0  0  0  0  0  0
    2.2646   -6.2664    7.0166 C   0  0  0  0  0  0  0  0  0  0  0  0
    4.0885   -6.5014    5.3262 C   0  0  0  0  0  0  0  0  0  0  0  0
    5.3712   -5.6911    5.0230 C   0  0  1  0  0  0  0  0  0  0  0  0
    6.3799   -6.5845    4.2918 C   0  0  0  0  0  0  0  0  0  0  0  0
    5.1945   -4.1826    4.6065 C   0  0  1  0  0  0  0  0  0  0  0  0
    5.0477   -3.5848    3.1120 C   0  0  2  0  0  0  0  0  0  0  0  0
    3.6864   -2.8926    2.7970 C   0  0  1  0  0  0  0  0  0  0  0  0
    3.6554   -2.3078    1.3634 C   0  0  0  0  0  0  0  0  0  0  0  0
    3.8971   -3.3492    0.2431 C   0  0  2  0  0  0  0  0  0  0  0  0
    4.7359   -2.7034   -0.8870 C   0  0  0  0  0  0  0  0  0  0  0  0
    2.6101   -3.9019   -0.3722 C   0  0  0  0  0  0  0  0  0  0  0  0
    2.2221   -5.0676    0.3500 O   0  0  0  0  0  0  0  0  0  0  0  0
    3.2729   -5.5059    1.2070 C   0  0  2  0  0  0  0  0  0  0  0  0
    3.6256   -6.9738    0.9099 C   0  0  0  0  0  0  0  0  0  0  0  0
    2.7787   -5.2916    2.6634 C   0  0  1  0  0  0  0  0  0  0  0  0
    2.5204   -3.8343    3.0744 C   0  0  1  0  0  0  0  0  0  0  0  0
    2.0926   -3.6853    4.4330 O   0  0  0  0  0  0  0  0  0  0  0  0
    2.7970   -4.1826    5.5495 C   0  0  1  0  0  0  0  0  0  0  0  0
    2.0969   -3.6461    6.6623 O   0  0  0  0  0  0  0  0  0  0  0  0
    4.2213   -3.5306    5.6118 C   0  0  1  0  0  0  0  0  0  0  0  0
    4.7895   -3.5836    6.9171 O   0  0  0  0  0  0  0  0  0  0  0  0
    4.5013   -4.6256    0.8133 C   0  0  2  0  0  0  0  0  0  0  0  0
    5.5847   -4.3562    1.8970 C   0  0  2  0  0  0  0  0  0  0  0  0
    6.9754   -4.9515    1.7166 C   0  0  0  0  0  0  0  0  0  0  0  0
    6.6779   -3.6394    1.2847 O   0  0  0  0  0  0  0  0  0  0  0  0
    0.1884   -5.8554    1.7579 H   0  0  0  0  0  0  0  0  0  0  0  0
   -0.3045   -6.9450    3.0510 H   0  0  0  0  0  0  0  0  0  0  0  0
    0.8069   -7.5128    1.8210 H   0  0  0  0  0  0  0  0  0  0  0  0
    0.8745   -6.9173    5.0610 H   0  0  0  0  0  0  0  0  0  0  0  0
    2.9309   -5.9268    7.8051 H   0  0  0  0  0  0  0  0  0  0  0  0
    2.2305   -7.3604    7.0658 H   0  0  0  0  0  0  0  0  0  0  0  0
    1.2590   -5.9261    7.2523 H   0  0  0  0  0  0  0  0  0  0  0  0
    4.3468   -7.1243    6.1921 H   0  0  0  0  0  0  0  0  0  0  0  0
    3.9667   -7.2657    4.5531 H   0  0  0  0  0  0  0  0  0  0  0  0
    5.8486   -5.6128    5.9957 H   0  0  0  0  0  0  0  0  0  0  0  0
    6.0761   -6.7752    3.2698 H   0  0  0  0  0  0  0  0  0  0  0  0
    6.4276   -7.5613    4.7766 H   0  0  0  0  0  0  0  0  0  0  0  0
    7.3835   -6.1662    4.3300 H   0  0  0  0  0  0  0  0  0  0  0  0
    6.1654   -3.7674    4.8732 H   0  0  0  0  0  0  0  0  0  0  0  0
    5.6956   -2.6957    3.1650 H   0  0  0  0  0  0  0  0  0  0  0  0
    3.5435   -2.0157    3.4283 H   0  0  0  0  0  0  0  0  0  0  0  0
    2.7051   -1.7949    1.1906 H   0  0  0  0  0  0  0  0  0  0  0  0
    4.4030   -1.5228    1.2940 H   0  0  0  0  0  0  0  0  0  0  0  0
    5.0075   -3.4268   -1.6553 H   0  0  0  0  0  0  0  0  0  0  0  0
    5.6562   -2.2626   -0.5125 H   0  0  0  0  0  0  0  0  0  0  0  0
    4.1727   -1.9073   -1.3761 H   0  0  0  0  0  0  0  0  0  0  0  0
    1.8035   -3.1710   -0.4147 H   0  0  0  0  0  0  0  0  0  0  0  0
    2.7865   -4.2035   -1.4052 H   0  0  0  0  0  0  0  0  0  0  0  0
    4.4390   -7.3408    1.5356 H   0  0  0  0  0  0  0  0  0  0  0  0
    3.9443   -7.0738   -0.1293 H   0  0  0  0  0  0  0  0  0  0  0  0
    2.7813   -7.6452    1.0479 H   0  0  0  0  0  0  0  0  0  0  0  0
    3.6534   -5.6374    3.1533 H   0  0  0  0  0  0  0  0  0  0  0  0
    1.6603   -3.4826    2.5054 H   0  0  0  0  0  0  0  0  0  0  0  0
    2.2440   -2.7262    6.6804 H   0  0  0  0  0  0  0  0  0  0  0  0
    4.1221   -2.4702    5.4198 H   0  0  0  0  0  0  0  0  0  0  0  0
    4.8517   -4.4744    7.1748 H   0  0  0  0  0  0  0  0  0  0  0  0
    5.0063   -5.1109   -0.0122 H   0  0  0  0  0  0  0  0  0  0  0  0
    7.7057   -4.9780    2.5171 H   0  0  0  0  0  0  0  0  0  0  0  0
    7.1265   -5.6705    0.9219 H   0  0  0  0  0  0  0  0  0  0  0  0
  1  2  1  0
  1 30  1  0
  1 31  1  0
  1 32  1  0
  2 19  1  0
  2  3  2  0
  3  4  1  0
  3 33  1  0
  4 22  1  0
  4  5  1  1
  4  6  1  0
  5 34  1  0
  5 35  1  0
  5 36  1  0
  6  7  1  0
  6 37  1  0
  6 38  1  0
  7  8  1  0
  7  9  1  0
  7 39  1  1
  8 40  1  0
  8 41  1  0
  8 42  1  0
  9 24  1  0
  9 10  1  0
  9 43  1  1
 10 27  1  0
 10 11  1  0
 10 44  1  1
 11 20  1  0
 11 12  1  0
 11 45  1  1
 12 13  1  0
 12 46  1  0
 12 47  1  0
 13 26  1  0
 13 14  1  6
 13 15  1  0
 14 48  1  0
 14 49  1  0
 14 50  1  0
 15 16  1  0
 15 51  1  0
 15 52  1  0
 16 17  1  0
 17 18  1  1
 17 19  1  0
 17 26  1  0
 18 53  1  0
 18 54  1  0
 18 55  1  0
 19 20  1  0
 19 56  1  1
 20 21  1  0
 20 57  1  6
 21 22  1  0
 22 23  1  1
 22 24  1  0
 23 58  1  0
 24 25  1  0
 24 59  1  6
 25 60  1  0
 26 27  1  0
 26 61  1  6
 27 29  1  6
 27 28  1  0
 28 29  1  0
 28 62  1  0
 28 63  1  0
M  END
>  <i_m_ct_stereo_status>  (323) 
1

>  <s_m_source_file>  (323) 
/var/tmp/pbs.5076255.sched01/tmp361ftg5n/90jpawypyp.sdf

>  <i_m_source_file_index>  (323) 
42

>  <i_lp_mmshare_version>  (323) 
48012

>  <i_f3d_flags>  (323) 
0

>  <s_epik_input>  (323) 
W0NIM11DKD1bQ0hdMSlbQ0BIXTJbQ0BAXShbQ0gzXSkoT1tDSDJdMylbQ0BIXTRbQ0BdMyhbQ0gzXSlbQ0gyXVtDQEhdNVtDQEBIXTJPW0NAXShbT0hdKShbQ0BIXTZbT0hdKVtDQF0xKFtDSDNdKVtDSDJdW0NAQEhdKFtDSDNdKVtDQEhdNltDSF01W0NAQF00N1tDSDJdTzc=

>  <s_epik_cmdline>  (323) 
J2VwaWtfcHl0aG9uJywgJy1waHQnLCAnMi4wJywgJy1waCcsICc3LjAnLCAnLXRuJywgJzgnLCAnLW1hJywgJzIwMCcsICctaW1hZScsICc8aW5maWxlLm1hZT4nLCAnLW9tYWUnLCAnPG91dGZpbGUubWFlPic=

>  <r_lp_tautomer_probability>  (323) 
1

>  <r_epik_Ionization_Penalty>  (323) 
5.22008e-07

>  <r_epik_Ionization_Penalty_Charging>  (323) 
0

>  <r_epik_Ionization_Penalty_Neutral>  (323) 
5.22008e-07

>  <r_epik_State_Penalty>  (323) 
-0

>  <r_epik_Charging_Adjusted_Penalty>  (323) 
0

>  <i_epik_Tot_Q>  (323) 
0

>  <i_epik_Tot_abs_Q>  (323) 
0

>  <s_lp_Force_Field>  (323) 
OPLS3e

>  <r_lp_Energy>  (323) 
100.831

>  <b_lp_Chiralities_Consistent>  (323) 
1

>  <s_lp_Variant>  (323) 
87:0-1

>  <s_i_glide_gridfile>  (323) 
pfpi4k_grid

>  <i_i_glide_lignum>  (323) 
42

>  <i_i_glide_rotatable_bonds>  (323) 
2

>  <r_i_docking_score>  (323) 
-2.07718

>  <r_i_glide_ligand_efficiency>  (323) 
-0.0716269

>  <r_i_glide_ligand_efficiency_sa>  (323) 
-0.220061

>  <r_i_glide_ligand_efficiency_ln>  (323) 
-0.475622

>  <r_i_glide_gscore>  (323) 
-2.07718

>  <r_i_glide_lipo>  (323) 
-0.291207

>  <r_i_glide_hbond>  (323) 
-0.0148583

>  <r_i_glide_metal>  (323) 
-0

>  <r_i_glide_rewards>  (323) 
-0.664611

>  <r_i_glide_evdw>  (323) 
-19.3332

>  <r_i_glide_ecoul>  (323) 
-0.932313

>  <r_i_glide_erotb>  (323) 
0

>  <r_i_glide_esite>  (323) 
0

>  <r_i_glide_emodel>  (323) 
-22.6579

>  <r_i_glide_energy>  (323) 
-20.2655

>  <r_i_glide_einternal>  (323) 
0.00447625

>  <r_i_glide_intrahb_reward>  (323) 
-0

>  <i_i_glide_confnum>  (323) 
1

>  <i_i_glide_posenum>  (323) 
9

>  <r_i_glide_eff_state_penalty>  (323) 
0

>  <ligand_id>  (323) 
87

>  <original_smiles>  (323) 
CC1=CC2(C)CC(C)C3C4C5CC6(C)COC(C)(C1C5OC2(O)C3O)C6C41CO1

>  <smiles>  (323) 
[H]OC1([H])C2(O[H])OC3([H])C4([H])C(C([H])([H])[H])=C([H])C2(C([H])([H])[H])C([H])([H])C([H])(C([H])([H])[H])C1([H])C1([H])C3([H])C([H])([H])C2(C([H])([H])[H])C([H])([H])OC4(C([H])([H])[H])C2([H])C12OC2([H])[H]

$$$$
87:0:1
     RDKit          3D

 63 69  0  0  1  0  0  0  0  0999 V2000
    0.5909   -6.7195    2.3863 C   0  0  0  0  0  0  0  0  0  0  0  0
    1.7303   -6.2236    3.2557 C   0  0  0  0  0  0  0  0  0  0  0  0
    1.7593   -6.4634    4.5809 C   0  0  0  0  0  0  0  0  0  0  0  0
    2.7962   -5.9119    5.5687 C   0  0  1  0  0  0  0  0  0  0  0  0
    2.3612   -6.4160    6.9755 C   0  0  0  0  0  0  0  0  0  0  0  0
    4.1711   -6.6003    5.2600 C   0  0  0  0  0  0  0  0  0  0  0  0
    5.4380   -5.7597    4.9810 C   0  0  1  0  0  0  0  0  0  0  0  0
    6.4454   -6.6339    4.2280 C   0  0  0  0  0  0  0  0  0  0  0  0
    5.2269   -4.2529    4.5798 C   0  0  1  0  0  0  0  0  0  0  0  0
    5.0649   -3.6253    3.1063 C   0  0  2  0  0  0  0  0  0  0  0  0
    3.6961   -2.9489    2.8042 C   0  0  1  0  0  0  0  0  0  0  0  0
    3.6615   -2.3383    1.3811 C   0  0  0  0  0  0  0  0  0  0  0  0
    3.8950   -3.3572    0.2466 C   0  0  2  0  0  0  0  0  0  0  0  0
    4.7182   -2.6882   -0.8833 C   0  0  0  0  0  0  0  0  0  0  0  0
    2.6055   -3.9324   -0.3617 C   0  0  0  0  0  0  0  0  0  0  0  0
    2.2371   -5.1063    0.3486 O   0  0  0  0  0  0  0  0  0  0  0  0
    3.3065   -5.5322    1.1897 C   0  0  2  0  0  0  0  0  0  0  0  0
    3.6886   -6.9950    0.8894 C   0  0  0  0  0  0  0  0  0  0  0  0
    2.8222   -5.3513    2.6480 C   0  0  1  0  0  0  0  0  0  0  0  0
    2.5466   -3.9102    3.0785 C   0  0  1  0  0  0  0  0  0  0  0  0
    2.1332   -3.7867    4.4447 O   0  0  0  0  0  0  0  0  0  0  0  0
    2.8336   -4.3044    5.5539 C   0  0  1  0  0  0  0  0  0  0  0  0
    2.1333   -3.8150    6.6924 O   0  0  0  0  0  0  0  0  0  0  0  0
    4.2482   -3.6399    5.6109 C   0  0  1  0  0  0  0  0  0  0  0  0
    4.7892   -3.7230    6.9270 O   0  0  0  0  0  0  0  0  0  0  0  0
    4.5228   -4.6335    0.8045 C   0  0  2  0  0  0  0  0  0  0  0  0
    5.6111   -4.3839    1.8747 C   0  0  2  0  0  0  0  0  0  0  0  0
    7.0260   -4.9175    1.6687 C   0  0  0  0  0  0  0  0  0  0  0  0
    6.6694   -3.6319    1.2389 O   0  0  0  0  0  0  0  0  0  0  0  0
    0.2218   -5.9246    1.7445 H   0  0  0  0  0  0  0  0  0  0  0  0
   -0.2342   -7.0438    3.0207 H   0  0  0  0  0  0  0  0  0  0  0  0
    0.8696   -7.5719    1.7695 H   0  0  0  0  0  0  0  0  0  0  0  0
    0.9660   -7.0418    5.0279 H   0  0  0  0  0  0  0  0  0  0  0  0
    3.0313   -6.0886    7.7703 H   0  0  0  0  0  0  0  0  0  0  0  0
    2.3362   -7.5023    7.0068 H   0  0  0  0  0  0  0  0  0  0  0  0
    1.3507   -6.0960    7.2240 H   0  0  0  0  0  0  0  0  0  0  0  0
    4.4327   -7.2147    6.1175 H   0  0  0  0  0  0  0  0  0  0  0  0
    4.0573   -7.3596    4.4769 H   0  0  0  0  0  0  0  0  0  0  0  0
    5.9285   -5.6952    5.9582 H   0  0  0  0  0  0  0  0  0  0  0  0
    6.1457   -6.8120    3.1981 H   0  0  0  0  0  0  0  0  0  0  0  0
    6.5072   -7.6217    4.6862 H   0  0  0  0  0  0  0  0  0  0  0  0
    7.4531   -6.2344    4.3007 H   0  0  0  0  0  0  0  0  0  0  0  0
    6.1866   -3.8274    4.8578 H   0  0  0  0  0  0  0  0  0  0  0  0
    5.7110   -2.7438    3.1624 H   0  0  0  0  0  0  0  0  0  0  0  0
    3.5566   -2.0851    3.4499 H   0  0  0  0  0  0  0  0  0  0  0  0
    2.7038   -1.8547    1.2342 H   0  0  0  0  0  0  0  0  0  0  0  0
    4.4027   -1.5342    1.3102 H   0  0  0  0  0  0  0  0  0  0  0  0
    4.9972   -3.3938   -1.6660 H   0  0  0  0  0  0  0  0  0  0  0  0
    5.6386   -2.2425   -0.5077 H   0  0  0  0  0  0  0  0  0  0  0  0
    4.1421   -1.8914   -1.3546 H   0  0  0  0  0  0  0  0  0  0  0  0
    1.8020   -3.2058   -0.4211 H   0  0  0  0  0  0  0  0  0  0  0  0
    2.7864   -4.2491   -1.3821 H   0  0  0  0  0  0  0  0  0  0  0  0
    4.5137   -7.3650    1.5047 H   0  0  0  0  0  0  0  0  0  0  0  0
    4.0018   -7.0737   -0.1530 H   0  0  0  0  0  0  0  0  0  0  0  0
    2.8534   -7.6803    1.0198 H   0  0  0  0  0  0  0  0  0  0  0  0
    3.7093   -5.6979    3.1259 H   0  0  0  0  0  0  0  0  0  0  0  0
    1.6859   -3.5564    2.5158 H   0  0  0  0  0  0  0  0  0  0  0  0
    2.6846   -3.9805    7.4397 H   0  0  0  0  0  0  0  0  0  0  0  0
    4.1405   -2.5714    5.4446 H   0  0  0  0  0  0  0  0  0  0  0  0
    4.9780   -4.6191    7.1207 H   0  0  0  0  0  0  0  0  0  0  0  0
    5.0189   -5.1001   -0.0384 H   0  0  0  0  0  0  0  0  0  0  0  0
    7.7976   -4.8654    2.4204 H   0  0  0  0  0  0  0  0  0  0  0  0
    7.1715   -5.6377    0.8821 H   0  0  0  0  0  0  0  0  0  0  0  0
  1  2  1  0
  1 30  1  0
  1 31  1  0
  1 32  1  0
  2 19  1  0
  2  3  2  0
  3  4  1  0
  3 33  1  0
  4 22  1  0
  4  5  1  1
  4  6  1  0
  5 34  1  0
  5 35  1  0
  5 36  1  0
  6  7  1  0
  6 37  1  0
  6 38  1  0
  7  8  1  0
  7  9  1  0
  7 39  1  1
  8 40  1  0
  8 41  1  0
  8 42  1  0
  9 24  1  0
  9 10  1  0
  9 43  1  1
 10 27  1  0
 10 11  1  0
 10 44  1  1
 11 20  1  0
 11 12  1  0
 11 45  1  1
 12 13  1  0
 12 46  1  0
 12 47  1  0
 13 26  1  0
 13 14  1  6
 13 15  1  0
 14 48  1  0
 14 49  1  0
 14 50  1  0
 15 16  1  0
 15 51  1  0
 15 52  1  0
 16 17  1  0
 17 18  1  6
 17 19  1  0
 17 26  1  0
 18 53  1  0
 18 54  1  0
 18 55  1  0
 19 20  1  0
 19 56  1  1
 20 21  1  0
 20 57  1  6
 21 22  1  0
 22 23  1  1
 22 24  1  0
 23 58  1  0
 24 25  1  0
 24 59  1  6
 25 60  1  0
 26 27  1  0
 26 61  1  6
 27 29  1  6
 27 28  1  0
 28 29  1  0
 28 62  1  0
 28 63  1  0
M  END
>  <i_m_ct_stereo_status>  (324) 
1

>  <s_m_source_file>  (324) 
/var/tmp/pbs.5076255.sched01/tmp361ftg5n/90jpawypyp.sdf

>  <i_m_source_file_index>  (324) 
42

>  <i_lp_mmshare_version>  (324) 
48012

>  <i_f3d_flags>  (324) 
0

>  <s_epik_input>  (324) 
W0NIM11DKD1bQ0hdMSlbQ0BIXTJbQ0BAXShbQ0gzXSkoT1tDSDJdMylbQ0BIXTRbQ0BdMyhbQ0gzXSlbQ0gyXVtDQEhdNVtDQEBIXTJPW0NAXShbT0hdKShbQ0BIXTZbT0hdKVtDQF0xKFtDSDNdKVtDSDJdW0NAQEhdKFtDSDNdKVtDQEhdNltDSF01W0NAQF00N1tDSDJdTzc=

>  <s_epik_cmdline>  (324) 
J2VwaWtfcHl0aG9uJywgJy1waHQnLCAnMi4wJywgJy1waCcsICc3LjAnLCAnLXRuJywgJzgnLCAnLW1hJywgJzIwMCcsICctaW1hZScsICc8aW5maWxlLm1hZT4nLCAnLW9tYWUnLCAnPG91dGZpbGUubWFlPic=

>  <r_lp_tautomer_probability>  (324) 
1

>  <r_epik_Ionization_Penalty>  (324) 
5.22008e-07

>  <r_epik_Ionization_Penalty_Charging>  (324) 
0

>  <r_epik_Ionization_Penalty_Neutral>  (324) 
5.22008e-07

>  <r_epik_State_Penalty>  (324) 
-0

>  <r_epik_Charging_Adjusted_Penalty>  (324) 
0

>  <i_epik_Tot_Q>  (324) 
0

>  <i_epik_Tot_abs_Q>  (324) 
0

>  <s_lp_Force_Field>  (324) 
OPLS3e

>  <r_lp_Energy>  (324) 
100.831

>  <b_lp_Chiralities_Consistent>  (324) 
1

>  <s_lp_Variant>  (324) 
87:0-1

>  <s_i_glide_gridfile>  (324) 
pfpi4k_grid

>  <i_i_glide_lignum>  (324) 
42

>  <i_i_glide_rotatable_bonds>  (324) 
2

>  <r_i_docking_score>  (324) 
-2.0715

>  <r_i_glide_ligand_efficiency>  (324) 
-0.0714311

>  <r_i_glide_ligand_efficiency_sa>  (324) 
-0.219459

>  <r_i_glide_ligand_efficiency_ln>  (324) 
-0.474322

>  <r_i_glide_gscore>  (324) 
-2.0715

>  <r_i_glide_lipo>  (324) 
-0.305272

>  <r_i_glide_hbond>  (324) 
-0.0115533

>  <r_i_glide_metal>  (324) 
-0

>  <r_i_glide_rewards>  (324) 
-0.664611

>  <r_i_glide_evdw>  (324) 
-19.432

>  <r_i_glide_ecoul>  (324) 
-0.789761

>  <r_i_glide_erotb>  (324) 
0

>  <r_i_glide_esite>  (324) 
0

>  <r_i_glide_emodel>  (324) 
-21.8972

>  <r_i_glide_energy>  (324) 
-20.2218

>  <r_i_glide_einternal>  (324) 
1.58095

>  <r_i_glide_intrahb_reward>  (324) 
-0

>  <i_i_glide_confnum>  (324) 
2

>  <i_i_glide_posenum>  (324) 
14

>  <r_i_glide_eff_state_penalty>  (324) 
0

>  <ligand_id>  (324) 
87

>  <original_smiles>  (324) 
CC1=CC2(C)CC(C)C3C4C5CC6(C)COC(C)(C1C5OC2(O)C3O)C6C41CO1

>  <smiles>  (324) 
[H]OC1([H])C2(O[H])OC3([H])C4([H])C(C([H])([H])[H])=C([H])C2(C([H])([H])[H])C([H])([H])C([H])(C([H])([H])[H])C1([H])C1([H])C3([H])C([H])([H])C2(C([H])([H])[H])C([H])([H])OC4(C([H])([H])[H])C2([H])C12OC2([H])[H]

$$$$
87:0:2
     RDKit          3D

 63 69  0  0  1  0  0  0  0  0999 V2000
    1.1509   -6.6383    1.2813 C   0  0  0  0  0  0  0  0  0  0  0  0
    2.1628   -6.0844    2.2713 C   0  0  0  0  0  0  0  0  0  0  0  0
    2.1951   -6.4834    3.5454 C   0  0  0  0  0  0  0  0  0  0  0  0
    3.1099   -5.9178    4.6394 C   0  0  1  0  0  0  0  0  0  0  0  0
    2.7141   -6.6551    5.9457 C   0  0  0  0  0  0  0  0  0  0  0  0
    4.5806   -6.3485    4.3380 C   0  0  0  0  0  0  0  0  0  0  0  0
    5.7076   -5.3087    4.2033 C   0  0  1  0  0  0  0  0  0  0  0  0
    6.8558   -5.9325    3.3936 C   0  0  0  0  0  0  0  0  0  0  0  0
    5.2903   -3.7946    3.9882 C   0  0  1  0  0  0  0  0  0  0  0  0
    5.0729   -2.9952    2.6123 C   0  0  2  0  0  0  0  0  0  0  0  0
    3.6168   -2.5065    2.3249 C   0  0  1  0  0  0  0  0  0  0  0  0
    3.5174   -1.7386    0.9871 C   0  0  0  0  0  0  0  0  0  0  0  0
    3.9393   -2.5483   -0.2605 C   0  0  2  0  0  0  0  0  0  0  0  0
    4.6869   -1.6205   -1.2539 C   0  0  0  0  0  0  0  0  0  0  0  0
    2.7804   -3.2535   -0.9906 C   0  0  0  0  0  0  0  0  0  0  0  0
    2.5696   -4.5024   -0.3559 O   0  0  0  0  0  0  0  0  0  0  0  0
    3.6975   -4.8853    0.4105 C   0  0  2  0  0  0  0  0  0  0  0  0
    4.3283   -6.2191   -0.0222 C   0  0  0  0  0  0  0  0  0  0  0  0
    3.1398   -4.9806    1.8378 C   0  0  1  0  0  0  0  0  0  0  0  0
    2.6342   -3.6642    2.4239 C   0  0  1  0  0  0  0  0  0  0  0  0
    2.1504   -3.7754    3.7634 O   0  0  0  0  0  0  0  0  0  0  0  0
    2.8989   -4.3283    4.8296 C   0  0  1  0  0  0  0  0  0  0  0  0
    2.1079   -4.0864    5.9932 O   0  0  0  0  0  0  0  0  0  0  0  0
    4.1940   -3.4622    5.0272 C   0  0  1  0  0  0  0  0  0  0  0  0
    4.7226   -3.6039    6.3418 O   0  0  0  0  0  0  0  0  0  0  0  0
    4.7623   -3.7659    0.1698 C   0  0  2  0  0  0  0  0  0  0  0  0
    5.7596   -3.4931    1.3079 C   0  0  2  0  0  0  0  0  0  0  0  0
    7.2395   -3.8142    1.0918 C   0  0  0  0  0  0  0  0  0  0  0  0
    6.7256   -2.5240    0.8502 O   0  0  0  0  0  0  0  0  0  0  0  0
    0.6847   -5.8621    0.6922 H   0  0  0  0  0  0  0  0  0  0  0  0
    0.3678   -7.1573    1.8245 H   0  0  0  0  0  0  0  0  0  0  0  0
    1.5771   -7.3648    0.6025 H   0  0  0  0  0  0  0  0  0  0  0  0
    1.4859   -7.2420    3.8728 H   0  0  0  0  0  0  0  0  0  0  0  0
    3.2958   -6.3205    6.8084 H   0  0  0  0  0  0  0  0  0  0  0  0
    2.8617   -7.7334    5.8495 H   0  0  0  0  0  0  0  0  0  0  0  0
    1.6524   -6.5174    6.1895 H   0  0  0  0  0  0  0  0  0  0  0  0
    4.9121   -7.0235    5.1140 H   0  0  0  0  0  0  0  0  0  0  0  0
    4.6026   -6.9916    3.4657 H   0  0  0  0  0  0  0  0  0  0  0  0
    6.1465   -5.2865    5.2005 H   0  0  0  0  0  0  0  0  0  0  0  0
    6.5964   -6.0004    2.3397 H   0  0  0  0  0  0  0  0  0  0  0  0
    7.0183   -6.9550    3.7328 H   0  0  0  0  0  0  0  0  0  0  0  0
    7.8179   -5.4337    3.5155 H   0  0  0  0  0  0  0  0  0  0  0  0
    6.1463   -3.2574    4.3865 H   0  0  0  0  0  0  0  0  0  0  0  0
    5.5817   -2.0520    2.8006 H   0  0  0  0  0  0  0  0  0  0  0  0
    3.3345   -1.7638    3.0695 H   0  0  0  0  0  0  0  0  0  0  0  0
    2.5067   -1.3847    0.8614 H   0  0  0  0  0  0  0  0  0  0  0  0
    4.1212   -0.8270    1.0514 H   0  0  0  0  0  0  0  0  0  0  0  0
    5.0982   -2.1659   -2.1041 H   0  0  0  0  0  0  0  0  0  0  0  0
    5.5162   -1.0871   -0.7836 H   0  0  0  0  0  0  0  0  0  0  0  0
    4.0158   -0.8595   -1.6512 H   0  0  0  0  0  0  0  0  0  0  0  0
    1.8700   -2.6660   -1.0278 H   0  0  0  0  0  0  0  0  0  0  0  0
    3.0606   -3.4596   -2.0222 H   0  0  0  0  0  0  0  0  0  0  0  0
    5.2234   -6.4765    0.5615 H   0  0  0  0  0  0  0  0  0  0  0  0
    4.6219   -6.1585   -1.0742 H   0  0  0  0  0  0  0  0  0  0  0  0
    3.6332   -7.0508    0.1052 H   0  0  0  0  0  0  0  0  0  0  0  0
    4.0542   -5.2509    2.3092 H   0  0  0  0  0  0  0  0  0  0  0  0
    1.7603   -3.3627    1.8623 H   0  0  0  0  0  0  0  0  0  0  0  0
    2.2629   -3.1981    6.2561 H   0  0  0  0  0  0  0  0  0  0  0  0
    3.9072   -2.4112    4.9745 H   0  0  0  0  0  0  0  0  0  0  0  0
    4.9370   -4.5038    6.4671 H   0  0  0  0  0  0  0  0  0  0  0  0
    5.3403   -4.0535   -0.7143 H   0  0  0  0  0  0  0  0  0  0  0  0
    7.9572   -3.8428    1.8975 H   0  0  0  0  0  0  0  0  0  0  0  0
    7.5203   -4.3713    0.2267 H   0  0  0  0  0  0  0  0  0  0  0  0
  1  2  1  0
  1 30  1  0
  1 31  1  0
  1 32  1  0
  2 19  1  0
  2  3  2  0
  3  4  1  0
  3 33  1  0
  4 22  1  0
  4  5  1  1
  4  6  1  0
  5 34  1  0
  5 35  1  0
  5 36  1  0
  6  7  1  0
  6 37  1  0
  6 38  1  0
  7  8  1  0
  7  9  1  0
  7 39  1  1
  8 40  1  0
  8 41  1  0
  8 42  1  0
  9 24  1  0
  9 10  1  0
  9 43  1  1
 10 27  1  0
 10 11  1  0
 10 44  1  1
 11 20  1  0
 11 12  1  0
 11 45  1  1
 12 13  1  0
 12 46  1  0
 12 47  1  0
 13 26  1  0
 13 14  1  6
 13 15  1  0
 14 48  1  0
 14 49  1  0
 14 50  1  0
 15 16  1  0
 15 51  1  0
 15 52  1  0
 16 17  1  0
 17 18  1  6
 17 19  1  0
 17 26  1  0
 18 53  1  0
 18 54  1  0
 18 55  1  0
 19 20  1  0
 19 56  1  1
 20 21  1  0
 20 57  1  6
 21 22  1  0
 22 23  1  1
 22 24  1  0
 23 58  1  0
 24 25  1  0
 24 59  1  6
 25 60  1  0
 26 27  1  0
 26 61  1  6
 27 29  1  6
 27 28  1  0
 28 29  1  0
 28 62  1  0
 28 63  1  0
M  END
>  <i_m_ct_stereo_status>  (325) 
1

>  <s_m_source_file>  (325) 
/var/tmp/pbs.5076255.sched01/tmp361ftg5n/90jpawypyp.sdf

>  <i_m_source_file_index>  (325) 
42

>  <i_lp_mmshare_version>  (325) 
48012

>  <i_f3d_flags>  (325) 
0

>  <s_epik_input>  (325) 
W0NIM11DKD1bQ0hdMSlbQ0BIXTJbQ0BAXShbQ0gzXSkoT1tDSDJdMylbQ0BIXTRbQ0BdMyhbQ0gzXSlbQ0gyXVtDQEhdNVtDQEBIXTJPW0NAXShbT0hdKShbQ0BIXTZbT0hdKVtDQF0xKFtDSDNdKVtDSDJdW0NAQEhdKFtDSDNdKVtDQEhdNltDSF01W0NAQF00N1tDSDJdTzc=

>  <s_epik_cmdline>  (325) 
J2VwaWtfcHl0aG9uJywgJy1waHQnLCAnMi4wJywgJy1waCcsICc3LjAnLCAnLXRuJywgJzgnLCAnLW1hJywgJzIwMCcsICctaW1hZScsICc8aW5maWxlLm1hZT4nLCAnLW9tYWUnLCAnPG91dGZpbGUubWFlPic=

>  <r_lp_tautomer_probability>  (325) 
1

>  <r_epik_Ionization_Penalty>  (325) 
5.22008e-07

>  <r_epik_Ionization_Penalty_Charging>  (325) 
0

>  <r_epik_Ionization_Penalty_Neutral>  (325) 
5.22008e-07

>  <r_epik_State_Penalty>  (325) 
-0

>  <r_epik_Charging_Adjusted_Penalty>  (325) 
0

>  <i_epik_Tot_Q>  (325) 
0

>  <i_epik_Tot_abs_Q>  (325) 
0

>  <s_lp_Force_Field>  (325) 
OPLS3e

>  <r_lp_Energy>  (325) 
100.831

>  <b_lp_Chiralities_Consistent>  (325) 
1

>  <s_lp_Variant>  (325) 
87:0-1

>  <s_i_glide_gridfile>  (325) 
pfpi4k_grid

>  <i_i_glide_lignum>  (325) 
42

>  <i_i_glide_rotatable_bonds>  (325) 
2

>  <r_i_docking_score>  (325) 
-1.76784

>  <r_i_glide_ligand_efficiency>  (325) 
-0.06096

>  <r_i_glide_ligand_efficiency_sa>  (325) 
-0.187288

>  <r_i_glide_ligand_efficiency_ln>  (325) 
-0.40479

>  <r_i_glide_gscore>  (325) 
-1.76784

>  <r_i_glide_lipo>  (325) 
-0.311087

>  <r_i_glide_hbond>  (325) 
0

>  <r_i_glide_metal>  (325) 
-0

>  <r_i_glide_rewards>  (325) 
-0.664611

>  <r_i_glide_evdw>  (325) 
-17.4015

>  <r_i_glide_ecoul>  (325) 
0.519568

>  <r_i_glide_erotb>  (325) 
0

>  <r_i_glide_esite>  (325) 
0

>  <r_i_glide_emodel>  (325) 
-18.2019

>  <r_i_glide_energy>  (325) 
-16.882

>  <r_i_glide_einternal>  (325) 
0.317655

>  <r_i_glide_intrahb_reward>  (325) 
-0

>  <i_i_glide_confnum>  (325) 
1

>  <i_i_glide_posenum>  (325) 
31

>  <r_i_glide_eff_state_penalty>  (325) 
0

>  <ligand_id>  (325) 
87

>  <original_smiles>  (325) 
CC1=CC2(C)CC(C)C3C4C5CC6(C)COC(C)(C1C5OC2(O)C3O)C6C41CO1

>  <smiles>  (325) 
[H]OC1([H])C2(O[H])OC3([H])C4([H])C(C([H])([H])[H])=C([H])C2(C([H])([H])[H])C([H])([H])C([H])(C([H])([H])[H])C1([H])C1([H])C3([H])C([H])([H])C2(C([H])([H])[H])C([H])([H])OC4(C([H])([H])[H])C2([H])C12OC2([H])[H]

$$$$
88:0:0
     RDKit          3D

 88 93  0  0  1  0  0  0  0  0999 V2000
    0.4283   -6.1199   10.4636 C   0  0  0  0  0  0  0  0  0  0  0  0
    1.4816   -7.1525    9.9941 C   0  0  0  0  0  0  0  0  0  0  0  0
    2.8017   -6.8233   10.7425 C   0  0  0  0  0  0  0  0  0  0  0  0
    1.0229   -8.5423   10.4942 C   0  0  0  0  0  0  0  0  0  0  0  0
    1.9651   -9.6875   10.0698 C   0  0  0  0  0  0  0  0  0  0  0  0
    2.6596   -9.4641    8.7071 C   0  0  0  0  0  0  0  0  0  0  0  0
    1.8682   -8.5514    7.7300 C   0  0  1  0  0  0  0  0  0  0  0  0
    0.5917   -9.3716    7.3513 C   0  0  0  0  0  0  0  0  0  0  0  0
    1.5202   -7.1807    8.4044 C   0  0  2  0  0  0  0  0  0  0  0  0
    2.2836   -6.0925    7.5795 C   0  0  1  0  0  0  0  0  0  0  0  0
    2.6869   -4.9298    8.2694 O   0  0  0  0  0  0  0  0  0  0  0  0
    3.4124   -6.7948    6.7712 C   0  0  2  0  0  0  0  0  0  0  0  0
    4.6619   -6.9763    7.6741 C   0  0  0  0  0  0  0  0  0  0  0  0
    3.8917   -5.9973    5.4930 C   0  0  1  0  0  0  0  0  0  0  0  0
    5.2007   -6.5092    4.8383 C   0  0  0  0  0  0  0  0  0  0  0  0
    5.6658   -5.6123    3.6798 C   0  0  0  0  0  0  0  0  0  0  0  0
    4.6260   -5.4140    2.5253 C   0  0  2  0  0  0  0  0  0  0  0  0
    5.1510   -4.4802    1.3346 C   0  0  1  0  0  0  0  0  0  0  0  0
    6.6999   -4.5987    1.2583 C   0  0  0  0  0  0  0  0  0  0  0  0
    4.6240   -5.0050   -0.0303 C   0  0  0  0  0  0  0  0  0  0  0  0
    4.9325   -4.0823   -1.2288 C   0  0  0  0  0  0  0  0  0  0  0  0
    4.4429   -2.6447   -1.0061 C   0  0  1  0  0  0  0  0  0  0  0  0
    3.0247   -2.6925   -1.0321 O   0  0  0  0  0  0  0  0  0  0  0  0
    4.9734   -2.0126    0.3141 C   0  0  0  0  0  0  0  0  0  0  0  0
    6.4757   -1.6628    0.1820 C   0  0  0  0  0  0  0  0  0  0  0  0
    4.2641   -0.6400    0.4832 C   0  0  0  0  0  0  0  0  0  0  0  0
    4.7050   -2.9921    1.5035 C   0  0  0  0  0  0  0  0  0  0  0  0
    3.9921   -2.5736    2.5788 C   0  0  0  0  0  0  0  0  0  0  0  0
    3.4354   -3.4876    3.5743 C   0  0  0  0  0  0  0  0  0  0  0  0
    3.0404   -3.0855    4.6665 O   0  0  0  0  0  0  0  0  0  0  0  0
    3.2641   -4.9626    3.1555 C   0  0  1  0  0  0  0  0  0  0  0  0
    2.1054   -4.9799    2.1251 C   0  0  0  0  0  0  0  0  0  0  0  0
    2.8329   -5.8835    4.3654 C   0  0  1  0  0  0  0  0  0  0  0  0
    2.3898   -7.3144    3.9798 C   0  0  0  0  0  0  0  0  0  0  0  0
    1.8050   -8.0435    5.1876 C   0  0  0  0  0  0  0  0  0  0  0  0
    2.7110   -8.1532    6.4525 C   0  0  2  0  0  0  0  0  0  0  0  0
    0.3272   -6.1298   11.5513 H   0  0  0  0  0  0  0  0  0  0  0  0
   -0.5583   -6.3293   10.0508 H   0  0  0  0  0  0  0  0  0  0  0  0
    0.7002   -5.1067   10.1676 H   0  0  0  0  0  0  0  0  0  0  0  0
    3.5690   -7.5829   10.6103 H   0  0  0  0  0  0  0  0  0  0  0  0
    2.6211   -6.7809   11.8179 H   0  0  0  0  0  0  0  0  0  0  0  0
    3.2262   -5.8599   10.4777 H   0  0  0  0  0  0  0  0  0  0  0  0
    0.9119   -8.5496   11.5783 H   0  0  0  0  0  0  0  0  0  0  0  0
    0.0190   -8.7375   10.1214 H   0  0  0  0  0  0  0  0  0  0  0  0
    2.7346   -9.8252   10.8282 H   0  0  0  0  0  0  0  0  0  0  0  0
    1.4054  -10.6218   10.0482 H   0  0  0  0  0  0  0  0  0  0  0  0
    3.6533   -9.0722    8.8928 H   0  0  0  0  0  0  0  0  0  0  0  0
    2.8475  -10.4335    8.2408 H   0  0  0  0  0  0  0  0  0  0  0  0
   -0.1623   -8.7926    6.8176 H   0  0  0  0  0  0  0  0  0  0  0  0
    0.0816   -9.7790    8.2189 H   0  0  0  0  0  0  0  0  0  0  0  0
    0.8512  -10.2388    6.7357 H   0  0  0  0  0  0  0  0  0  0  0  0
    0.4798   -7.0056    8.1312 H   0  0  0  0  0  0  0  0  0  0  0  0
    1.5500   -5.7165    6.8695 H   0  0  0  0  0  0  0  0  0  0  0  0
    3.3350   -5.1762    8.9124 H   0  0  0  0  0  0  0  0  0  0  0  0
    5.2748   -7.8195    7.3498 H   0  0  0  0  0  0  0  0  0  0  0  0
    4.4221   -7.1338    8.7143 H   0  0  0  0  0  0  0  0  0  0  0  0
    5.2902   -6.0846    7.6663 H   0  0  0  0  0  0  0  0  0  0  0  0
    4.1187   -4.9981    5.8595 H   0  0  0  0  0  0  0  0  0  0  0  0
    6.0202   -6.5375    5.5554 H   0  0  0  0  0  0  0  0  0  0  0  0
    5.0951   -7.5364    4.4909 H   0  0  0  0  0  0  0  0  0  0  0  0
    5.9616   -4.6469    4.0936 H   0  0  0  0  0  0  0  0  0  0  0  0
    6.5761   -6.0833    3.3159 H   0  0  0  0  0  0  0  0  0  0  0  0
    4.4778   -6.4088    2.0998 H   0  0  0  0  0  0  0  0  0  0  0  0
    7.0192   -5.6405    1.2664 H   0  0  0  0  0  0  0  0  0  0  0  0
    7.1804   -4.0799    2.0714 H   0  0  0  0  0  0  0  0  0  0  0  0
    7.1321   -4.2040    0.3484 H   0  0  0  0  0  0  0  0  0  0  0  0
    5.0374   -5.9925   -0.2263 H   0  0  0  0  0  0  0  0  0  0  0  0
    3.5497   -5.1560   -0.0060 H   0  0  0  0  0  0  0  0  0  0  0  0
    5.9944   -4.0913   -1.4606 H   0  0  0  0  0  0  0  0  0  0  0  0
    4.4600   -4.4854   -2.1236 H   0  0  0  0  0  0  0  0  0  0  0  0
    4.7634   -2.0390   -1.8535 H   0  0  0  0  0  0  0  0  0  0  0  0
    2.6639   -1.8148   -1.0144 H   0  0  0  0  0  0  0  0  0  0  0  0
    6.6038   -0.6504   -0.1969 H   0  0  0  0  0  0  0  0  0  0  0  0
    7.0045   -2.3035   -0.5217 H   0  0  0  0  0  0  0  0  0  0  0  0
    6.9843   -1.7085    1.1472 H   0  0  0  0  0  0  0  0  0  0  0  0
    4.3934   -0.0257   -0.4099 H   0  0  0  0  0  0  0  0  0  0  0  0
    4.6801   -0.0752    1.3202 H   0  0  0  0  0  0  0  0  0  0  0  0
    3.1882   -0.7405    0.6423 H   0  0  0  0  0  0  0  0  0  0  0  0
    3.6825   -1.5506    2.6987 H   0  0  0  0  0  0  0  0  0  0  0  0
    2.0785   -5.9065    1.5482 H   0  0  0  0  0  0  0  0  0  0  0  0
    2.1581   -4.1584    1.4090 H   0  0  0  0  0  0  0  0  0  0  0  0
    1.1438   -4.8778    2.6299 H   0  0  0  0  0  0  0  0  0  0  0  0
    1.9490   -5.4073    4.7829 H   0  0  0  0  0  0  0  0  0  0  0  0
    1.6144   -7.2937    3.2165 H   0  0  0  0  0  0  0  0  0  0  0  0
    3.1985   -7.8943    3.5425 H   0  0  0  0  0  0  0  0  0  0  0  0
    0.8845   -7.5210    5.4356 H   0  0  0  0  0  0  0  0  0  0  0  0
    1.5207   -9.0402    4.8554 H   0  0  0  0  0  0  0  0  0  0  0  0
    3.4577   -8.9196    6.2424 H   0  0  0  0  0  0  0  0  0  0  0  0
  1  2  1  0
  1 37  1  0
  1 38  1  0
  1 39  1  0
  2  9  1  0
  2  3  1  0
  2  4  1  0
  3 40  1  0
  3 41  1  0
  3 42  1  0
  4  5  1  0
  4 43  1  0
  4 44  1  0
  5  6  1  0
  5 45  1  0
  5 46  1  0
  6  7  1  0
  6 47  1  0
  6 48  1  0
  7 36  1  0
  7  8  1  6
  7  9  1  0
  8 49  1  0
  8 50  1  0
  8 51  1  0
  9 10  1  0
  9 52  1  6
 10 11  1  0
 10 12  1  0
 10 53  1  6
 11 54  1  0
 12 36  1  0
 12 13  1  1
 12 14  1  0
 13 55  1  0
 13 56  1  0
 13 57  1  0
 14 33  1  0
 14 15  1  0
 14 58  1  1
 15 16  1  0
 15 59  1  0
 15 60  1  0
 16 17  1  0
 16 61  1  0
 16 62  1  0
 17 31  1  0
 17 18  1  0
 17 63  1  6
 18 27  1  0
 18 19  1  6
 18 20  1  0
 19 64  1  0
 19 65  1  0
 19 66  1  0
 20 21  1  0
 20 67  1  0
 20 68  1  0
 21 22  1  0
 21 69  1  0
 21 70  1  0
 22 23  1  0
 22 24  1  0
 22 71  1  6
 23 72  1  0
 24 25  1  0
 24 26  1  0
 24 27  1  0
 25 73  1  0
 25 74  1  0
 25 75  1  0
 26 76  1  0
 26 77  1  0
 26 78  1  0
 27 28  2  0
 28 29  1  0
 28 79  1  0
 29 30  2  0
 29 31  1  0
 31 32  1  6
 31 33  1  0
 32 80  1  0
 32 81  1  0
 32 82  1  0
 33 34  1  0
 33 83  1  1
 34 35  1  0
 34 84  1  0
 34 85  1  0
 35 36  1  0
 35 86  1  0
 35 87  1  0
 36 88  1  6
M  END
>  <i_m_ct_stereo_status>  (326) 
1

>  <s_m_source_file>  (326) 
/var/tmp/pbs.5076255.sched01/tmp361ftg5n/90jpawypyp.sdf

>  <i_m_source_file_index>  (326) 
43

>  <i_lp_mmshare_version>  (326) 
48012

>  <i_f3d_flags>  (326) 
0

>  <s_epik_input>  (326) 
W0NIMl0xW0NIMl1bQ0gyXUMoW0NIM10pKFtDSDNdKVtDQEhdKFtDQF0xMltDSDNdKVtDQEBIXShbT0hdKVtDQF0zKFtDSDNdKVtDQEBIXTRbQ0BIXShbQ0gyXVtDSDJdW0NASF0yMylbQ0BdNShbQ0gzXSlbQ0BIXShbQ0gyXVtDSDJdNClbQ0BdNihbQ0gzXSlDKD1bQ0hdQzU9TylDKFtDSDNdKShbQ0gzXSlbQ0BIXShbT0hdKVtDSDJdW0NIMl02

>  <s_epik_cmdline>  (326) 
J2VwaWtfcHl0aG9uJywgJy1waHQnLCAnMi4wJywgJy1waCcsICc3LjAnLCAnLXRuJywgJzgnLCAnLW1hJywgJzIwMCcsICctaW1hZScsICc8aW5maWxlLm1hZT4nLCAnLW9tYWUnLCAnPG91dGZpbGUubWFlPic=

>  <r_lp_tautomer_probability>  (326) 
1

>  <r_epik_Ionization_Penalty>  (326) 
2.70308e-06

>  <r_epik_Ionization_Penalty_Charging>  (326) 
0

>  <r_epik_Ionization_Penalty_Neutral>  (326) 
2.70308e-06

>  <r_epik_State_Penalty>  (326) 
-0

>  <r_epik_Charging_Adjusted_Penalty>  (326) 
0

>  <i_epik_Tot_Q>  (326) 
0

>  <i_epik_Tot_abs_Q>  (326) 
0

>  <s_lp_Force_Field>  (326) 
OPLS3e

>  <r_lp_Energy>  (326) 
113.039

>  <b_lp_Chiralities_Consistent>  (326) 
1

>  <s_lp_Variant>  (326) 
88:0-1

>  <s_i_glide_gridfile>  (326) 
pfpi4k_grid

>  <i_i_glide_lignum>  (326) 
43

>  <i_i_glide_rotatable_bonds>  (326) 
2

>  <r_i_docking_score>  (326) 
-1.78566

>  <r_i_glide_ligand_efficiency>  (326) 
-0.0496016

>  <r_i_glide_ligand_efficiency_sa>  (326) 
-0.163781

>  <r_i_glide_ligand_efficiency_ln>  (326) 
-0.389582

>  <r_i_glide_gscore>  (326) 
-1.78566

>  <r_i_glide_lipo>  (326) 
-0.278409

>  <r_i_glide_hbond>  (326) 
-0.0900241

>  <r_i_glide_metal>  (326) 
-0

>  <r_i_glide_rewards>  (326) 
-0.0220624

>  <r_i_glide_evdw>  (326) 
-25.7303

>  <r_i_glide_ecoul>  (326) 
-0.724329

>  <r_i_glide_erotb>  (326) 
0

>  <r_i_glide_esite>  (326) 
0

>  <r_i_glide_emodel>  (326) 
-29.1785

>  <r_i_glide_energy>  (326) 
-26.4546

>  <r_i_glide_einternal>  (326) 
0.329232

>  <r_i_glide_intrahb_reward>  (326) 
-0

>  <i_i_glide_confnum>  (326) 
1

>  <i_i_glide_posenum>  (326) 
12

>  <r_i_glide_eff_state_penalty>  (326) 
0

>  <ligand_id>  (326) 
88

>  <original_smiles>  (326) 
CC1(C)CCCC2(C)C1C(O)C1(C)C3CCC4C5(C)CCC(O)C(C)(C)C5=CC(=O)C4(C)C3CCC21

>  <smiles>  (326) 
[H]OC1([H])C([H])([H])C([H])([H])C2(C([H])([H])[H])C(=C([H])C(=O)C3(C([H])([H])[H])C4([H])C([H])([H])C([H])([H])C5([H])C6(C([H])([H])[H])C([H])([H])C([H])([H])C([H])([H])C(C([H])([H])[H])(C([H])([H])[H])C6([H])C([H])(O[H])C5(C([H])([H])[H])C4([H])C([H])([H])C([H])([H])C23[H])C1(C([H])([H])[H])C([H])([H])[H]

$$$$
88:0:1
     RDKit          3D

 88 93  0  0  1  0  0  0  0  0999 V2000
    0.9819  -10.6495    5.5832 C   0  0  0  0  0  0  0  0  0  0  0  0
    1.1412   -9.4050    6.4604 C   0  0  0  0  0  0  0  0  0  0  0  0
   -0.2160   -8.7503    6.3742 C   0  0  0  0  0  0  0  0  0  0  0  0
    1.3266   -9.7536    7.9518 C   0  0  0  0  0  0  0  0  0  0  0  0
    1.4590   -8.5666    8.8977 C   0  0  0  0  0  0  0  0  0  0  0  0
    2.1244   -7.3531    8.2264 C   0  0  0  0  0  0  0  0  0  0  0  0
    3.0601   -7.7102    7.0362 C   0  0  1  0  0  0  0  0  0  0  0  0
    4.2656   -8.4633    7.6884 C   0  0  0  0  0  0  0  0  0  0  0  0
    2.3659   -8.5911    5.9549 C   0  0  2  0  0  0  0  0  0  0  0  0
    2.2832   -7.7388    4.6591 C   0  0  1  0  0  0  0  0  0  0  0  0
    1.1668   -7.9200    3.8150 O   0  0  0  0  0  0  0  0  0  0  0  0
    2.5092   -6.2622    5.0540 C   0  0  2  0  0  0  0  0  0  0  0  0
    1.1682   -5.6335    5.5211 C   0  0  0  0  0  0  0  0  0  0  0  0
    3.0299   -5.3730    3.8733 C   0  0  1  0  0  0  0  0  0  0  0  0
    2.9942   -3.8474    4.1279 C   0  0  0  0  0  0  0  0  0  0  0  0
    3.4170   -3.0365    2.9020 C   0  0  0  0  0  0  0  0  0  0  0  0
    4.8318   -3.3801    2.3413 C   0  0  2  0  0  0  0  0  0  0  0  0
    5.2034   -2.5118    1.0791 C   0  0  1  0  0  0  0  0  0  0  0  0
    4.4881   -1.1306    1.1401 C   0  0  0  0  0  0  0  0  0  0  0  0
    6.7103   -2.2250    1.1397 C   0  0  0  0  0  0  0  0  0  0  0  0
    7.2677   -1.5625   -0.1127 C   0  0  0  0  0  0  0  0  0  0  0  0
    6.9417   -2.3434   -1.3875 C   0  0  1  0  0  0  0  0  0  0  0  0
    7.7890   -3.4610   -1.3790 O   0  0  0  0  0  0  0  0  0  0  0  0
    5.4300   -2.6037   -1.5841 C   0  0  0  0  0  0  0  0  0  0  0  0
    4.6710   -1.3123   -1.9787 C   0  0  0  0  0  0  0  0  0  0  0  0
    5.2743   -3.4960   -2.8343 C   0  0  0  0  0  0  0  0  0  0  0  0
    4.9013   -3.2297   -0.2734 C   0  0  0  0  0  0  0  0  0  0  0  0
    4.3253   -4.4669   -0.2985 C   0  0  0  0  0  0  0  0  0  0  0  0
    4.0874   -5.2653    0.8760 C   0  0  0  0  0  0  0  0  0  0  0  0
    3.2962   -6.2031    0.8942 O   0  0  0  0  0  0  0  0  0  0  0  0
    4.9323   -4.9276    2.1236 C   0  0  1  0  0  0  0  0  0  0  0  0
    6.3766   -5.3948    1.7865 C   0  0  0  0  0  0  0  0  0  0  0  0
    4.4611   -5.7281    3.3947 C   0  0  1  0  0  0  0  0  0  0  0  0
    5.4076   -5.6560    4.6114 C   0  0  0  0  0  0  0  0  0  0  0  0
    4.9665   -6.6125    5.7020 C   0  0  0  0  0  0  0  0  0  0  0  0
    3.5133   -6.4469    6.2272 C   0  0  2  0  0  0  0  0  0  0  0  0
    0.1431  -11.2657    5.9068 H   0  0  0  0  0  0  0  0  0  0  0  0
    1.8846  -11.2615    5.5557 H   0  0  0  0  0  0  0  0  0  0  0  0
    0.7318  -10.3994    4.5280 H   0  0  0  0  0  0  0  0  0  0  0  0
   -0.2459   -7.9272    7.0605 H   0  0  0  0  0  0  0  0  0  0  0  0
   -0.9619   -9.4729    6.6985 H   0  0  0  0  0  0  0  0  0  0  0  0
   -0.5403   -8.4573    5.3750 H   0  0  0  0  0  0  0  0  0  0  0  0
    0.5013  -10.3531    8.3142 H   0  0  0  0  0  0  0  0  0  0  0  0
    2.2040  -10.3580    8.0384 H   0  0  0  0  0  0  0  0  0  0  0  0
    0.4848   -8.2881    9.2823 H   0  0  0  0  0  0  0  0  0  0  0  0
    2.0307   -8.8992    9.7549 H   0  0  0  0  0  0  0  0  0  0  0  0
    1.3351   -6.6837    7.9194 H   0  0  0  0  0  0  0  0  0  0  0  0
    2.6723   -6.7964    8.9933 H   0  0  0  0  0  0  0  0  0  0  0  0
    4.9224   -8.9503    6.9569 H   0  0  0  0  0  0  0  0  0  0  0  0
    3.9613   -9.2684    8.3593 H   0  0  0  0  0  0  0  0  0  0  0  0
    4.8701   -7.7806    8.3049 H   0  0  0  0  0  0  0  0  0  0  0  0
    3.0877   -9.3666    5.7128 H   0  0  0  0  0  0  0  0  0  0  0  0
    3.1159   -8.0907    4.0452 H   0  0  0  0  0  0  0  0  0  0  0  0
    1.0868   -8.8543    3.6379 H   0  0  0  0  0  0  0  0  0  0  0  0
    1.3288   -4.8002    6.2065 H   0  0  0  0  0  0  0  0  0  0  0  0
    0.5105   -6.3339    6.0138 H   0  0  0  0  0  0  0  0  0  0  0  0
    0.5805   -5.2717    4.6727 H   0  0  0  0  0  0  0  0  0  0  0  0
    2.3261   -5.5535    3.0602 H   0  0  0  0  0  0  0  0  0  0  0  0
    1.9858   -3.5070    4.3923 H   0  0  0  0  0  0  0  0  0  0  0  0
    3.6220   -3.5777    4.9780 H   0  0  0  0  0  0  0  0  0  0  0  0
    2.6603   -3.1638    2.1203 H   0  0  0  0  0  0  0  0  0  0  0  0
    3.3602   -1.9975    3.2303 H   0  0  0  0  0  0  0  0  0  0  0  0
    5.5355   -3.0947    3.1373 H   0  0  0  0  0  0  0  0  0  0  0  0
    4.6211   -0.6696    2.1248 H   0  0  0  0  0  0  0  0  0  0  0  0
    3.4225   -1.2169    0.9209 H   0  0  0  0  0  0  0  0  0  0  0  0
    4.8717   -0.3822    0.4576 H   0  0  0  0  0  0  0  0  0  0  0  0
    6.9110   -1.5437    1.9680 H   0  0  0  0  0  0  0  0  0  0  0  0
    7.3106   -3.1062    1.3204 H   0  0  0  0  0  0  0  0  0  0  0  0
    6.8438   -0.5694   -0.1328 H   0  0  0  0  0  0  0  0  0  0  0  0
    8.3480   -1.4488    0.0152 H   0  0  0  0  0  0  0  0  0  0  0  0
    7.2888   -1.8604   -2.3121 H   0  0  0  0  0  0  0  0  0  0  0  0
    8.6509   -3.1875   -1.7084 H   0  0  0  0  0  0  0  0  0  0  0  0
    4.6287   -1.1763   -3.0719 H   0  0  0  0  0  0  0  0  0  0  0  0
    5.1342   -0.3902   -1.6161 H   0  0  0  0  0  0  0  0  0  0  0  0
    3.6286   -1.3445   -1.6418 H   0  0  0  0  0  0  0  0  0  0  0  0
    5.7620   -3.0374   -3.6976 H   0  0  0  0  0  0  0  0  0  0  0  0
    4.2233   -3.6500   -3.0975 H   0  0  0  0  0  0  0  0  0  0  0  0
    5.7520   -4.4503   -2.6802 H   0  0  0  0  0  0  0  0  0  0  0  0
    4.1902   -4.9863   -1.2207 H   0  0  0  0  0  0  0  0  0  0  0  0
    7.1284   -4.9748    2.4671 H   0  0  0  0  0  0  0  0  0  0  0  0
    6.6936   -5.1445    0.7703 H   0  0  0  0  0  0  0  0  0  0  0  0
    6.4574   -6.4814    1.8593 H   0  0  0  0  0  0  0  0  0  0  0  0
    4.4710   -6.7633    3.0753 H   0  0  0  0  0  0  0  0  0  0  0  0
    6.4265   -5.9302    4.3323 H   0  0  0  0  0  0  0  0  0  0  0  0
    5.4855   -4.6478    5.0144 H   0  0  0  0  0  0  0  0  0  0  0  0
    5.0977   -7.6217    5.2914 H   0  0  0  0  0  0  0  0  0  0  0  0
    5.6593   -6.4984    6.5207 H   0  0  0  0  0  0  0  0  0  0  0  0
    3.5039   -5.5635    6.8790 H   0  0  0  0  0  0  0  0  0  0  0  0
  1  2  1  0
  1 37  1  0
  1 38  1  0
  1 39  1  0
  2  9  1  0
  2  3  1  0
  2  4  1  0
  3 40  1  0
  3 41  1  0
  3 42  1  0
  4  5  1  0
  4 43  1  0
  4 44  1  0
  5  6  1  0
  5 45  1  0
  5 46  1  0
  6  7  1  0
  6 47  1  0
  6 48  1  0
  7 36  1  0
  7  8  1  1
  7  9  1  0
  8 49  1  0
  8 50  1  0
  8 51  1  0
  9 10  1  0
  9 52  1  6
 10 11  1  0
 10 12  1  0
 10 53  1  6
 11 54  1  0
 12 36  1  0
 12 13  1  1
 12 14  1  0
 13 55  1  0
 13 56  1  0
 13 57  1  0
 14 33  1  0
 14 15  1  0
 14 58  1  6
 15 16  1  0
 15 59  1  0
 15 60  1  0
 16 17  1  0
 16 61  1  0
 16 62  1  0
 17 31  1  0
 17 18  1  0
 17 63  1  1
 18 27  1  0
 18 19  1  6
 18 20  1  0
 19 64  1  0
 19 65  1  0
 19 66  1  0
 20 21  1  0
 20 67  1  0
 20 68  1  0
 21 22  1  0
 21 69  1  0
 21 70  1  0
 22 23  1  0
 22 24  1  0
 22 71  1  6
 23 72  1  0
 24 25  1  0
 24 26  1  0
 24 27  1  0
 25 73  1  0
 25 74  1  0
 25 75  1  0
 26 76  1  0
 26 77  1  0
 26 78  1  0
 27 28  2  0
 28 29  1  0
 28 79  1  0
 29 30  2  0
 29 31  1  0
 31 32  1  6
 31 33  1  0
 32 80  1  0
 32 81  1  0
 32 82  1  0
 33 34  1  0
 33 83  1  6
 34 35  1  0
 34 84  1  0
 34 85  1  0
 35 36  1  0
 35 86  1  0
 35 87  1  0
 36 88  1  1
M  END
>  <i_m_ct_stereo_status>  (327) 
1

>  <s_m_source_file>  (327) 
/var/tmp/pbs.5076255.sched01/tmp361ftg5n/90jpawypyp.sdf

>  <i_m_source_file_index>  (327) 
43

>  <i_lp_mmshare_version>  (327) 
48012

>  <i_f3d_flags>  (327) 
0

>  <s_epik_input>  (327) 
W0NIMl0xW0NIMl1bQ0gyXUMoW0NIM10pKFtDSDNdKVtDQEhdKFtDQF0xMltDSDNdKVtDQEBIXShbT0hdKVtDQF0zKFtDSDNdKVtDQEBIXTRbQ0BIXShbQ0gyXVtDSDJdW0NASF0yMylbQ0BdNShbQ0gzXSlbQ0BIXShbQ0gyXVtDSDJdNClbQ0BdNihbQ0gzXSlDKD1bQ0hdQzU9TylDKFtDSDNdKShbQ0gzXSlbQ0BIXShbT0hdKVtDSDJdW0NIMl02

>  <s_epik_cmdline>  (327) 
J2VwaWtfcHl0aG9uJywgJy1waHQnLCAnMi4wJywgJy1waCcsICc3LjAnLCAnLXRuJywgJzgnLCAnLW1hJywgJzIwMCcsICctaW1hZScsICc8aW5maWxlLm1hZT4nLCAnLW9tYWUnLCAnPG91dGZpbGUubWFlPic=

>  <r_lp_tautomer_probability>  (327) 
1

>  <r_epik_Ionization_Penalty>  (327) 
2.70308e-06

>  <r_epik_Ionization_Penalty_Charging>  (327) 
0

>  <r_epik_Ionization_Penalty_Neutral>  (327) 
2.70308e-06

>  <r_epik_State_Penalty>  (327) 
-0

>  <r_epik_Charging_Adjusted_Penalty>  (327) 
0

>  <i_epik_Tot_Q>  (327) 
0

>  <i_epik_Tot_abs_Q>  (327) 
0

>  <s_lp_Force_Field>  (327) 
OPLS3e

>  <r_lp_Energy>  (327) 
113.039

>  <b_lp_Chiralities_Consistent>  (327) 
1

>  <s_lp_Variant>  (327) 
88:0-1

>  <s_i_glide_gridfile>  (327) 
pfpi4k_grid

>  <i_i_glide_lignum>  (327) 
43

>  <i_i_glide_rotatable_bonds>  (327) 
2

>  <r_i_docking_score>  (327) 
-1.70581

>  <r_i_glide_ligand_efficiency>  (327) 
-0.0473836

>  <r_i_glide_ligand_efficiency_sa>  (327) 
-0.156457

>  <r_i_glide_ligand_efficiency_ln>  (327) 
-0.372162

>  <r_i_glide_gscore>  (327) 
-1.70581

>  <r_i_glide_lipo>  (327) 
-0.473239

>  <r_i_glide_hbond>  (327) 
0

>  <r_i_glide_metal>  (327) 
-0

>  <r_i_glide_rewards>  (327) 
-0.0660736

>  <r_i_glide_evdw>  (327) 
-17.548

>  <r_i_glide_ecoul>  (327) 
-1.92731

>  <r_i_glide_erotb>  (327) 
0

>  <r_i_glide_esite>  (327) 
0

>  <r_i_glide_emodel>  (327) 
-20.9934

>  <r_i_glide_energy>  (327) 
-19.4753

>  <r_i_glide_einternal>  (327) 
0.982386

>  <r_i_glide_intrahb_reward>  (327) 
-0

>  <i_i_glide_confnum>  (327) 
1

>  <i_i_glide_posenum>  (327) 
34

>  <r_i_glide_eff_state_penalty>  (327) 
0

>  <ligand_id>  (327) 
88

>  <original_smiles>  (327) 
CC1(C)CCCC2(C)C1C(O)C1(C)C3CCC4C5(C)CCC(O)C(C)(C)C5=CC(=O)C4(C)C3CCC21

>  <smiles>  (327) 
[H]OC1([H])C([H])([H])C([H])([H])C2(C([H])([H])[H])C(=C([H])C(=O)C3(C([H])([H])[H])C4([H])C([H])([H])C([H])([H])C5([H])C6(C([H])([H])[H])C([H])([H])C([H])([H])C([H])([H])C(C([H])([H])[H])(C([H])([H])[H])C6([H])C([H])(O[H])C5(C([H])([H])[H])C4([H])C([H])([H])C([H])([H])C23[H])C1(C([H])([H])[H])C([H])([H])[H]

$$$$
88:0:2
     RDKit          3D

 88 93  0  0  1  0  0  0  0  0999 V2000
   -0.2362   -5.1777   10.3724 C   0  0  0  0  0  0  0  0  0  0  0  0
    0.8894   -6.2116   10.1183 C   0  0  0  0  0  0  0  0  0  0  0  0
    2.1306   -5.7085   10.9005 C   0  0  0  0  0  0  0  0  0  0  0  0
    0.4758   -7.5542   10.7723 C   0  0  0  0  0  0  0  0  0  0  0  0
    1.5089   -8.6826   10.5697 C   0  0  0  0  0  0  0  0  0  0  0  0
    2.2901   -8.6002    9.2386 C   0  0  0  0  0  0  0  0  0  0  0  0
    1.5282   -7.8745    8.0966 C   0  0  1  0  0  0  0  0  0  0  0  0
    0.3389   -8.8259    7.7509 C   0  0  0  0  0  0  0  0  0  0  0  0
    1.0490   -6.4505    8.5537 C   0  0  2  0  0  0  0  0  0  0  0  0
    1.8109   -5.4334    7.6422 C   0  0  1  0  0  0  0  0  0  0  0  0
    2.0916   -4.1657    8.1960 O   0  0  0  0  0  0  0  0  0  0  0  0
    3.0372   -6.1580    7.0150 C   0  0  2  0  0  0  0  0  0  0  0  0
    4.2226   -6.1394    8.0165 C   0  0  0  0  0  0  0  0  0  0  0  0
    3.5686   -5.5049    5.6761 C   0  0  1  0  0  0  0  0  0  0  0  0
    4.9493   -6.0105    5.1853 C   0  0  0  0  0  0  0  0  0  0  0  0
    5.4507   -5.2460    3.9489 C   0  0  0  0  0  0  0  0  0  0  0  0
    4.4898   -5.2720    2.7117 C   0  0  2  0  0  0  0  0  0  0  0  0
    5.0461   -4.4763    1.4404 C   0  0  1  0  0  0  0  0  0  0  0  0
    6.5973   -4.5110    1.4590 C   0  0  0  0  0  0  0  0  0  0  0  0
    4.6534   -5.2027    0.1287 C   0  0  0  0  0  0  0  0  0  0  0  0
    5.0161   -4.4154   -1.1443 C   0  0  0  0  0  0  0  0  0  0  0  0
    4.4275   -3.0074   -1.1596 C   0  0  1  0  0  0  0  0  0  0  0  0
    3.0276   -3.1598   -1.2755 O   0  0  0  0  0  0  0  0  0  0  0  0
    4.8271   -2.1752    0.0948 C   0  0  0  0  0  0  0  0  0  0  0  0
    6.3126   -1.7513    0.0227 C   0  0  0  0  0  0  0  0  0  0  0  0
    4.0462   -0.8367    0.0268 C   0  0  0  0  0  0  0  0  0  0  0  0
    4.5142   -3.0059    1.3798 C   0  0  0  0  0  0  0  0  0  0  0  0
    3.6990   -2.4956    2.3378 C   0  0  0  0  0  0  0  0  0  0  0  0
    3.1180   -3.3030    3.4069 C   0  0  0  0  0  0  0  0  0  0  0  0
    2.6205   -2.7913    4.4058 O   0  0  0  0  0  0  0  0  0  0  0  0
    3.0634   -4.8321    3.1815 C   0  0  1  0  0  0  0  0  0  0  0  0
    1.9902   -5.0613    2.0874 C   0  0  0  0  0  0  0  0  0  0  0  0
    2.5925   -5.6089    4.4732 C   0  0  1  0  0  0  0  0  0  0  0  0
    2.2582   -7.1020    4.2574 C   0  0  0  0  0  0  0  0  0  0  0  0
    1.6253   -7.7041    5.5100 C   0  0  0  0  0  0  0  0  0  0  0  0
    2.4387   -7.5896    6.8364 C   0  0  2  0  0  0  0  0  0  0  0  0
   -0.4243   -5.0623   11.4422 H   0  0  0  0  0  0  0  0  0  0  0  0
   -1.1843   -5.4520    9.9152 H   0  0  0  0  0  0  0  0  0  0  0  0
    0.0212   -4.1959    9.9732 H   0  0  0  0  0  0  0  0  0  0  0  0
    2.9462   -6.4264   10.9260 H   0  0  0  0  0  0  0  0  0  0  0  0
    1.8674   -5.5357   11.9456 H   0  0  0  0  0  0  0  0  0  0  0  0
    2.5212   -4.7604   10.5390 H   0  0  0  0  0  0  0  0  0  0  0  0
    0.2842   -7.4241   11.8377 H   0  0  0  0  0  0  0  0  0  0  0  0
   -0.4816   -7.8699   10.3666 H   0  0  0  0  0  0  0  0  0  0  0  0
    2.2246   -8.6701   11.3900 H   0  0  0  0  0  0  0  0  0  0  0  0
    0.9992   -9.6434   10.6421 H   0  0  0  0  0  0  0  0  0  0  0  0
    3.2429   -8.1224    9.4355 H   0  0  0  0  0  0  0  0  0  0  0  0
    2.5639   -9.6078    8.9204 H   0  0  0  0  0  0  0  0  0  0  0  0
   -0.3858   -8.3804    7.0753 H   0  0  0  0  0  0  0  0  0  0  0  0
   -0.2292   -9.1261    8.6255 H   0  0  0  0  0  0  0  0  0  0  0  0
    0.6937   -9.7524    7.2890 H   0  0  0  0  0  0  0  0  0  0  0  0
    0.0247   -6.3813    8.1886 H   0  0  0  0  0  0  0  0  0  0  0  0
    1.1159   -5.1999    6.8388 H   0  0  0  0  0  0  0  0  0  0  0  0
    2.7077   -4.2800    8.9041 H   0  0  0  0  0  0  0  0  0  0  0  0
    4.9033   -6.9760    7.8511 H   0  0  0  0  0  0  0  0  0  0  0  0
    3.9137   -6.1750    9.0493 H   0  0  0  0  0  0  0  0  0  0  0  0
    4.7997   -5.2182    7.9308 H   0  0  0  0  0  0  0  0  0  0  0  0
    3.7113   -4.4539    5.9189 H   0  0  0  0  0  0  0  0  0  0  0  0
    5.7120   -5.8938    5.9536 H   0  0  0  0  0  0  0  0  0  0  0  0
    4.9263   -7.0800    4.9741 H   0  0  0  0  0  0  0  0  0  0  0  0
    5.6621   -4.2163    4.2441 H   0  0  0  0  0  0  0  0  0  0  0  0
    6.4098   -5.6994    3.7127 H   0  0  0  0  0  0  0  0  0  0  0  0
    4.4291   -6.3236    2.4185 H   0  0  0  0  0  0  0  0  0  0  0  0
    6.9770   -5.5138    1.6566 H   0  0  0  0  0  0  0  0  0  0  0  0
    6.9906   -3.8217    2.1915 H   0  0  0  0  0  0  0  0  0  0  0  0
    7.0764   -4.2268    0.5347 H   0  0  0  0  0  0  0  0  0  0  0  0
    5.1388   -6.1769    0.0965 H   0  0  0  0  0  0  0  0  0  0  0  0
    3.5916   -5.4209    0.0950 H   0  0  0  0  0  0  0  0  0  0  0  0
    6.0881   -4.3349   -1.2790 H   0  0  0  0  0  0  0  0  0  0  0  0
    4.6484   -4.9668   -2.0082 H   0  0  0  0  0  0  0  0  0  0  0  0
    4.7744   -2.4988   -2.0607 H   0  0  0  0  0  0  0  0  0  0  0  0
    2.8444   -3.7071   -2.0254 H   0  0  0  0  0  0  0  0  0  0  0  0
    6.4152   -0.7889   -0.4747 H   0  0  0  0  0  0  0  0  0  0  0  0
    6.9292   -2.4353   -0.5560 H   0  0  0  0  0  0  0  0  0  0  0  0
    6.7449   -1.6402    1.0166 H   0  0  0  0  0  0  0  0  0  0  0  0
    4.2216   -0.3389   -0.9316 H   0  0  0  0  0  0  0  0  0  0  0  0
    4.3580   -0.1416    0.8083 H   0  0  0  0  0  0  0  0  0  0  0  0
    2.9701   -0.9869    0.1111 H   0  0  0  0  0  0  0  0  0  0  0  0
    3.3298   -1.4847    2.2971 H   0  0  0  0  0  0  0  0  0  0  0  0
    2.0580   -6.0541    1.6407 H   0  0  0  0  0  0  0  0  0  0  0  0
    2.0508   -4.3388    1.2722 H   0  0  0  0  0  0  0  0  0  0  0  0
    0.9921   -4.9576    2.5104 H   0  0  0  0  0  0  0  0  0  0  0  0
    1.6547   -5.1385    4.7629 H   0  0  0  0  0  0  0  0  0  0  0  0
    1.5432   -7.2322    3.4472 H   0  0  0  0  0  0  0  0  0  0  0  0
    3.1300   -7.6820    3.9579 H   0  0  0  0  0  0  0  0  0  0  0  0
    0.6610   -7.2117    5.6218 H   0  0  0  0  0  0  0  0  0  0  0  0
    1.4216   -8.7511    5.2958 H   0  0  0  0  0  0  0  0  0  0  0  0
    3.2419   -8.3277    6.7797 H   0  0  0  0  0  0  0  0  0  0  0  0
  1  2  1  0
  1 37  1  0
  1 38  1  0
  1 39  1  0
  2  9  1  0
  2  3  1  0
  2  4  1  0
  3 40  1  0
  3 41  1  0
  3 42  1  0
  4  5  1  0
  4 43  1  0
  4 44  1  0
  5  6  1  0
  5 45  1  0
  5 46  1  0
  6  7  1  0
  6 47  1  0
  6 48  1  0
  7 36  1  0
  7  8  1  6
  7  9  1  0
  8 49  1  0
  8 50  1  0
  8 51  1  0
  9 10  1  0
  9 52  1  6
 10 11  1  0
 10 12  1  0
 10 53  1  6
 11 54  1  0
 12 36  1  0
 12 13  1  1
 12 14  1  0
 13 55  1  0
 13 56  1  0
 13 57  1  0
 14 33  1  0
 14 15  1  0
 14 58  1  1
 15 16  1  0
 15 59  1  0
 15 60  1  0
 16 17  1  0
 16 61  1  0
 16 62  1  0
 17 31  1  0
 17 18  1  0
 17 63  1  6
 18 27  1  0
 18 19  1  1
 18 20  1  0
 19 64  1  0
 19 65  1  0
 19 66  1  0
 20 21  1  0
 20 67  1  0
 20 68  1  0
 21 22  1  0
 21 69  1  0
 21 70  1  0
 22 23  1  0
 22 24  1  0
 22 71  1  6
 23 72  1  0
 24 25  1  0
 24 26  1  0
 24 27  1  0
 25 73  1  0
 25 74  1  0
 25 75  1  0
 26 76  1  0
 26 77  1  0
 26 78  1  0
 27 28  2  0
 28 29  1  0
 28 79  1  0
 29 30  2  0
 29 31  1  0
 31 32  1  6
 31 33  1  0
 32 80  1  0
 32 81  1  0
 32 82  1  0
 33 34  1  0
 33 83  1  1
 34 35  1  0
 34 84  1  0
 34 85  1  0
 35 36  1  0
 35 86  1  0
 35 87  1  0
 36 88  1  6
M  END
>  <i_m_ct_stereo_status>  (328) 
1

>  <s_m_source_file>  (328) 
/var/tmp/pbs.5076255.sched01/tmp361ftg5n/90jpawypyp.sdf

>  <i_m_source_file_index>  (328) 
43

>  <i_lp_mmshare_version>  (328) 
48012

>  <i_f3d_flags>  (328) 
0

>  <s_epik_input>  (328) 
W0NIMl0xW0NIMl1bQ0gyXUMoW0NIM10pKFtDSDNdKVtDQEhdKFtDQF0xMltDSDNdKVtDQEBIXShbT0hdKVtDQF0zKFtDSDNdKVtDQEBIXTRbQ0BIXShbQ0gyXVtDSDJdW0NASF0yMylbQ0BdNShbQ0gzXSlbQ0BIXShbQ0gyXVtDSDJdNClbQ0BdNihbQ0gzXSlDKD1bQ0hdQzU9TylDKFtDSDNdKShbQ0gzXSlbQ0BIXShbT0hdKVtDSDJdW0NIMl02

>  <s_epik_cmdline>  (328) 
J2VwaWtfcHl0aG9uJywgJy1waHQnLCAnMi4wJywgJy1waCcsICc3LjAnLCAnLXRuJywgJzgnLCAnLW1hJywgJzIwMCcsICctaW1hZScsICc8aW5maWxlLm1hZT4nLCAnLW9tYWUnLCAnPG91dGZpbGUubWFlPic=

>  <r_lp_tautomer_probability>  (328) 
1

>  <r_epik_Ionization_Penalty>  (328) 
2.70308e-06

>  <r_epik_Ionization_Penalty_Charging>  (328) 
0

>  <r_epik_Ionization_Penalty_Neutral>  (328) 
2.70308e-06

>  <r_epik_State_Penalty>  (328) 
-0

>  <r_epik_Charging_Adjusted_Penalty>  (328) 
0

>  <i_epik_Tot_Q>  (328) 
0

>  <i_epik_Tot_abs_Q>  (328) 
0

>  <s_lp_Force_Field>  (328) 
OPLS3e

>  <r_lp_Energy>  (328) 
113.039

>  <b_lp_Chiralities_Consistent>  (328) 
1

>  <s_lp_Variant>  (328) 
88:0-1

>  <s_i_glide_gridfile>  (328) 
pfpi4k_grid

>  <i_i_glide_lignum>  (328) 
43

>  <i_i_glide_rotatable_bonds>  (328) 
2

>  <r_i_docking_score>  (328) 
-1.40624

>  <r_i_glide_ligand_efficiency>  (328) 
-0.0390622

>  <r_i_glide_ligand_efficiency_sa>  (328) 
-0.128981

>  <r_i_glide_ligand_efficiency_ln>  (328) 
-0.306804

>  <r_i_glide_gscore>  (328) 
-1.40624

>  <r_i_glide_lipo>  (328) 
-0.163576

>  <r_i_glide_hbond>  (328) 
0

>  <r_i_glide_metal>  (328) 
-0

>  <r_i_glide_rewards>  (328) 
-0.0220624

>  <r_i_glide_evdw>  (328) 
-23.034

>  <r_i_glide_ecoul>  (328) 
-0.459354

>  <r_i_glide_erotb>  (328) 
0

>  <r_i_glide_esite>  (328) 
0

>  <r_i_glide_emodel>  (328) 
-25.4868

>  <r_i_glide_energy>  (328) 
-23.4933

>  <r_i_glide_einternal>  (328) 
0.402015

>  <r_i_glide_intrahb_reward>  (328) 
-0

>  <i_i_glide_confnum>  (328) 
1

>  <i_i_glide_posenum>  (328) 
2

>  <r_i_glide_eff_state_penalty>  (328) 
0

>  <ligand_id>  (328) 
88

>  <original_smiles>  (328) 
CC1(C)CCCC2(C)C1C(O)C1(C)C3CCC4C5(C)CCC(O)C(C)(C)C5=CC(=O)C4(C)C3CCC21

>  <smiles>  (328) 
[H]OC1([H])C([H])([H])C([H])([H])C2(C([H])([H])[H])C(=C([H])C(=O)C3(C([H])([H])[H])C4([H])C([H])([H])C([H])([H])C5([H])C6(C([H])([H])[H])C([H])([H])C([H])([H])C([H])([H])C(C([H])([H])[H])(C([H])([H])[H])C6([H])C([H])(O[H])C5(C([H])([H])[H])C4([H])C([H])([H])C([H])([H])C23[H])C1(C([H])([H])[H])C([H])([H])[H]

$$$$
89:0:0
     RDKit          3D

 18 18  0  0  1  0  0  0  0  0999 V2000
    2.2119   -3.3461   -3.5688 C   0  0  0  0  0  0  0  0  0  0  0  0
    3.1259   -2.3109   -3.1454 N   0  0  0  0  0  0  0  0  0  0  0  0
    3.2854   -1.1062   -3.7126 C   0  0  0  0  0  0  0  0  0  0  0  0
    4.2153   -0.3582   -3.1364 N   0  0  0  0  0  0  0  0  0  0  0  0
    4.6631   -1.1377   -2.0756 C   0  0  0  0  0  0  0  0  0  0  0  0
    4.0159   -2.3523   -2.0729 C   0  0  0  0  0  0  0  0  0  0  0  0
    4.2006   -3.5344   -1.1711 C   0  0  0  0  0  0  0  0  0  0  0  0
    2.9250   -3.9151   -0.6686 O   0  0  0  0  0  0  0  0  0  0  0  0
    2.9223   -5.0952    0.1398 N   0  0  0  0  0  0  0  0  0  0  0  0
    1.8163   -5.4519    0.4741 O   0  0  0  0  0  0  0  0  0  0  0  0
    3.9973   -5.5945    0.3918 O   0  0  0  0  0  0  0  0  0  0  0  0
    1.5612   -2.9799   -4.3639 H   0  0  0  0  0  0  0  0  0  0  0  0
    1.5825   -3.6319   -2.7257 H   0  0  0  0  0  0  0  0  0  0  0  0
    2.7705   -4.2163   -3.9196 H   0  0  0  0  0  0  0  0  0  0  0  0
    2.7155   -0.7776   -4.5730 H   0  0  0  0  0  0  0  0  0  0  0  0
    5.4333   -0.7669   -1.4161 H   0  0  0  0  0  0  0  0  0  0  0  0
    4.6565   -4.3515   -1.7341 H   0  0  0  0  0  0  0  0  0  0  0  0
    4.8649   -3.2757   -0.3446 H   0  0  0  0  0  0  0  0  0  0  0  0
  1  2  1  0
  1 12  1  0
  1 13  1  0
  1 14  1  0
  2  6  1  0
  2  3  1  0
  3  4  2  0
  3 15  1  0
  4  5  1  0
  5  6  2  0
  5 16  1  0
  6  7  1  0
  7  8  1  0
  7 17  1  0
  7 18  1  0
  8  9  1  0
  9 10  2  0
  9 11  1  0
M  CHG  2   9   1  11  -1
M  END
>  <i_m_ct_stereo_status>  (329) 
1

>  <s_m_source_file>  (329) 
/var/tmp/pbs.5076255.sched01/tmp361ftg5n/90jpawypyp.sdf

>  <i_m_source_file_index>  (329) 
44

>  <i_lp_mmshare_version>  (329) 
48012

>  <i_f3d_flags>  (329) 
0

>  <s_epik_input>  (329) 
W0NIM11uMVtjSF1uW2NIXWMxW0NIMl1PW04rXSg9TylbTy1d

>  <s_epik_cmdline>  (329) 
J2VwaWtfcHl0aG9uJywgJy1waHQnLCAnMi4wJywgJy1waCcsICc3LjAnLCAnLXRuJywgJzgnLCAnLW1hJywgJzIwMCcsICctaW1hZScsICc8aW5maWxlLm1hZT4nLCAnLW9tYWUnLCAnPG91dGZpbGUubWFlPic=

>  <r_lp_tautomer_probability>  (329) 
1

>  <r_epik_Ionization_Penalty>  (329) 
0.336607

>  <r_epik_Ionization_Penalty_Charging>  (329) 
0.336607

>  <r_epik_Ionization_Penalty_Neutral>  (329) 
1.8063e-13

>  <r_epik_State_Penalty>  (329) 
0.332015

>  <r_epik_Charging_Adjusted_Penalty>  (329) 
0.668622

>  <i_epik_Tot_Q>  (329) 
0

>  <i_epik_Tot_abs_Q>  (329) 
2

>  <s_lp_Force_Field>  (329) 
OPLS3e

>  <r_lp_Energy>  (329) 
9.04734

>  <b_lp_Chiralities_Consistent>  (329) 
1

>  <s_lp_Variant>  (329) 
89:0-1

>  <s_i_glide_gridfile>  (329) 
pfpi4k_grid

>  <i_i_glide_lignum>  (329) 
44

>  <i_i_glide_rotatable_bonds>  (329) 
3

>  <r_i_docking_score>  (329) 
-3.14631

>  <r_i_glide_ligand_efficiency>  (329) 
-0.286028

>  <r_i_glide_ligand_efficiency_sa>  (329) 
-0.636122

>  <r_i_glide_ligand_efficiency_ln>  (329) 
-0.92596

>  <r_i_glide_gscore>  (329) 
-3.14631

>  <r_i_glide_lipo>  (329) 
-0.226037

>  <r_i_glide_hbond>  (329) 
0

>  <r_i_glide_metal>  (329) 
-0

>  <r_i_glide_rewards>  (329) 
-2.63786

>  <r_i_glide_evdw>  (329) 
-19.1317

>  <r_i_glide_ecoul>  (329) 
-2.67265

>  <r_i_glide_erotb>  (329) 
1.21282

>  <r_i_glide_esite>  (329) 
-0.137758

>  <r_i_glide_emodel>  (329) 
-25.9908

>  <r_i_glide_energy>  (329) 
-21.8043

>  <r_i_glide_einternal>  (329) 
0.10196

>  <r_i_glide_intrahb_reward>  (329) 
-0

>  <i_i_glide_confnum>  (329) 
6

>  <i_i_glide_posenum>  (329) 
1

>  <r_i_glide_eff_state_penalty>  (329) 
0

>  <ligand_id>  (329) 
89

>  <original_smiles>  (329) 
Cn1cncc1CO[N+](=O)[O-]

>  <smiles>  (329) 
[H]c1nc([H])n(C([H])([H])[H])c1C([H])([H])O[N+](=O)[O-]

$$$$
89:0:1
     RDKit          3D

 18 18  0  0  1  0  0  0  0  0999 V2000
    2.2787   -3.1775   -3.2380 C   0  0  0  0  0  0  0  0  0  0  0  0
    3.1966   -2.7924   -2.1856 N   0  0  0  0  0  0  0  0  0  0  0  0
    3.4086   -3.4500   -1.0405 C   0  0  0  0  0  0  0  0  0  0  0  0
    4.3213   -2.8981   -0.2582 N   0  0  0  0  0  0  0  0  0  0  0  0
    4.7228   -1.7636   -0.9509 C   0  0  0  0  0  0  0  0  0  0  0  0
    4.0396   -1.6802   -2.1453 C   0  0  0  0  0  0  0  0  0  0  0  0
    4.1522   -0.6678   -3.2452 C   0  0  0  0  0  0  0  0  0  0  0  0
    2.8449   -0.3593   -3.7016 O   0  0  0  0  0  0  0  0  0  0  0  0
    2.7666    0.5403   -4.8033 N   0  0  0  0  0  0  0  0  0  0  0  0
    1.6462    0.8443   -5.1198 O   0  0  0  0  0  0  0  0  0  0  0  0
    3.8168    0.9042   -5.2915 O   0  0  0  0  0  0  0  0  0  0  0  0
    1.8140   -4.1376   -3.0070 H   0  0  0  0  0  0  0  0  0  0  0  0
    2.8132   -3.2404   -4.1847 H   0  0  0  0  0  0  0  0  0  0  0  0
    1.4908   -2.4347   -3.3155 H   0  0  0  0  0  0  0  0  0  0  0  0
    2.8975   -4.3724   -0.7773 H   0  0  0  0  0  0  0  0  0  0  0  0
    5.4788   -1.1036   -0.5346 H   0  0  0  0  0  0  0  0  0  0  0  0
    4.6168    0.2435   -2.8709 H   0  0  0  0  0  0  0  0  0  0  0  0
    4.7484   -1.0812   -4.0587 H   0  0  0  0  0  0  0  0  0  0  0  0
  1  2  1  0
  1 12  1  0
  1 13  1  0
  1 14  1  0
  2  6  1  0
  2  3  1  0
  3  4  2  0
  3 15  1  0
  4  5  1  0
  5  6  2  0
  5 16  1  0
  6  7  1  0
  7  8  1  0
  7 17  1  0
  7 18  1  0
  8  9  1  0
  9 10  2  0
  9 11  1  0
M  CHG  2   9   1  11  -1
M  END
>  <i_m_ct_stereo_status>  (330) 
1

>  <s_m_source_file>  (330) 
/var/tmp/pbs.5076255.sched01/tmp361ftg5n/90jpawypyp.sdf

>  <i_m_source_file_index>  (330) 
44

>  <i_lp_mmshare_version>  (330) 
48012

>  <i_f3d_flags>  (330) 
0

>  <s_epik_input>  (330) 
W0NIM11uMVtjSF1uW2NIXWMxW0NIMl1PW04rXSg9TylbTy1d

>  <s_epik_cmdline>  (330) 
J2VwaWtfcHl0aG9uJywgJy1waHQnLCAnMi4wJywgJy1waCcsICc3LjAnLCAnLXRuJywgJzgnLCAnLW1hJywgJzIwMCcsICctaW1hZScsICc8aW5maWxlLm1hZT4nLCAnLW9tYWUnLCAnPG91dGZpbGUubWFlPic=

>  <r_lp_tautomer_probability>  (330) 
1

>  <r_epik_Ionization_Penalty>  (330) 
0.336607

>  <r_epik_Ionization_Penalty_Charging>  (330) 
0.336607

>  <r_epik_Ionization_Penalty_Neutral>  (330) 
1.8063e-13

>  <r_epik_State_Penalty>  (330) 
0.332015

>  <r_epik_Charging_Adjusted_Penalty>  (330) 
0.668622

>  <i_epik_Tot_Q>  (330) 
0

>  <i_epik_Tot_abs_Q>  (330) 
2

>  <s_lp_Force_Field>  (330) 
OPLS3e

>  <r_lp_Energy>  (330) 
9.04734

>  <b_lp_Chiralities_Consistent>  (330) 
1

>  <s_lp_Variant>  (330) 
89:0-1

>  <s_i_glide_gridfile>  (330) 
pfpi4k_grid

>  <i_i_glide_lignum>  (330) 
44

>  <i_i_glide_rotatable_bonds>  (330) 
3

>  <r_i_docking_score>  (330) 
-2.80848

>  <r_i_glide_ligand_efficiency>  (330) 
-0.255316

>  <r_i_glide_ligand_efficiency_sa>  (330) 
-0.567818

>  <r_i_glide_ligand_efficiency_ln>  (330) 
-0.826535

>  <r_i_glide_gscore>  (330) 
-2.80848

>  <r_i_glide_lipo>  (330) 
-0.399501

>  <r_i_glide_hbond>  (330) 
0

>  <r_i_glide_metal>  (330) 
-0

>  <r_i_glide_rewards>  (330) 
-2.32202

>  <r_i_glide_evdw>  (330) 
-19.3326

>  <r_i_glide_ecoul>  (330) 
-1.63416

>  <r_i_glide_erotb>  (330) 
1.21282

>  <r_i_glide_esite>  (330) 
-0.0880201

>  <r_i_glide_emodel>  (330) 
-24.6898

>  <r_i_glide_energy>  (330) 
-20.9668

>  <r_i_glide_einternal>  (330) 
0.119872

>  <r_i_glide_intrahb_reward>  (330) 
-0

>  <i_i_glide_confnum>  (330) 
1

>  <i_i_glide_posenum>  (330) 
17

>  <r_i_glide_eff_state_penalty>  (330) 
0

>  <ligand_id>  (330) 
89

>  <original_smiles>  (330) 
Cn1cncc1CO[N+](=O)[O-]

>  <smiles>  (330) 
[H]c1nc([H])n(C([H])([H])[H])c1C([H])([H])O[N+](=O)[O-]

$$$$
89:0:2
     RDKit          3D

 18 18  0  0  1  0  0  0  0  0999 V2000
   -0.6741    0.6316    2.8683 C   0  0  0  0  0  0  0  0  0  0  0  0
   -1.0766    0.7849    4.2534 N   0  0  0  0  0  0  0  0  0  0  0  0
   -0.9229   -0.1223    5.2263 C   0  0  0  0  0  0  0  0  0  0  0  0
   -1.3881    0.2765    6.4045 N   0  0  0  0  0  0  0  0  0  0  0  0
   -1.8516    1.5733    6.1856 C   0  0  0  0  0  0  0  0  0  0  0  0
   -1.6812    1.8914    4.8529 C   0  0  0  0  0  0  0  0  0  0  0  0
   -2.0053    3.1543    4.1129 C   0  0  0  0  0  0  0  0  0  0  0  0
   -3.2041    2.9315    3.3715 O   0  0  0  0  0  0  0  0  0  0  0  0
   -3.5812    3.9783    2.4802 N   0  0  0  0  0  0  0  0  0  0  0  0
   -4.5878    3.7476    1.8461 O   0  0  0  0  0  0  0  0  0  0  0  0
   -2.8898    4.9763    2.4796 O   0  0  0  0  0  0  0  0  0  0  0  0
   -0.1325   -0.3088    2.7329 H   0  0  0  0  0  0  0  0  0  0  0  0
   -0.0228    1.4562    2.5803 H   0  0  0  0  0  0  0  0  0  0  0  0
   -1.5607    0.6461    2.2343 H   0  0  0  0  0  0  0  0  0  0  0  0
   -0.4614   -1.0951    5.0787 H   0  0  0  0  0  0  0  0  0  0  0  0
   -2.2707    2.1655    6.9939 H   0  0  0  0  0  0  0  0  0  0  0  0
   -2.1564    3.9727    4.8187 H   0  0  0  0  0  0  0  0  0  0  0  0
   -1.1803    3.4191    3.4457 H   0  0  0  0  0  0  0  0  0  0  0  0
  1  2  1  0
  1 12  1  0
  1 13  1  0
  1 14  1  0
  2  6  1  0
  2  3  1  0
  3  4  2  0
  3 15  1  0
  4  5  1  0
  5  6  2  0
  5 16  1  0
  6  7  1  0
  7  8  1  0
  7 17  1  0
  7 18  1  0
  8  9  1  0
  9 10  2  0
  9 11  1  0
M  CHG  2   9   1  11  -1
M  END
>  <i_m_ct_stereo_status>  (331) 
1

>  <s_m_source_file>  (331) 
/var/tmp/pbs.5076255.sched01/tmp361ftg5n/90jpawypyp.sdf

>  <i_m_source_file_index>  (331) 
44

>  <i_lp_mmshare_version>  (331) 
48012

>  <i_f3d_flags>  (331) 
0

>  <s_epik_input>  (331) 
W0NIM11uMVtjSF1uW2NIXWMxW0NIMl1PW04rXSg9TylbTy1d

>  <s_epik_cmdline>  (331) 
J2VwaWtfcHl0aG9uJywgJy1waHQnLCAnMi4wJywgJy1waCcsICc3LjAnLCAnLXRuJywgJzgnLCAnLW1hJywgJzIwMCcsICctaW1hZScsICc8aW5maWxlLm1hZT4nLCAnLW9tYWUnLCAnPG91dGZpbGUubWFlPic=

>  <r_lp_tautomer_probability>  (331) 
1

>  <r_epik_Ionization_Penalty>  (331) 
0.336607

>  <r_epik_Ionization_Penalty_Charging>  (331) 
0.336607

>  <r_epik_Ionization_Penalty_Neutral>  (331) 
1.8063e-13

>  <r_epik_State_Penalty>  (331) 
0.332015

>  <r_epik_Charging_Adjusted_Penalty>  (331) 
0.668622

>  <i_epik_Tot_Q>  (331) 
0

>  <i_epik_Tot_abs_Q>  (331) 
2

>  <s_lp_Force_Field>  (331) 
OPLS3e

>  <r_lp_Energy>  (331) 
9.04734

>  <b_lp_Chiralities_Consistent>  (331) 
1

>  <s_lp_Variant>  (331) 
89:0-1

>  <s_i_glide_gridfile>  (331) 
pfpi4k_grid

>  <i_i_glide_lignum>  (331) 
44

>  <i_i_glide_rotatable_bonds>  (331) 
3

>  <r_i_docking_score>  (331) 
-2.6105

>  <r_i_glide_ligand_efficiency>  (331) 
-0.237318

>  <r_i_glide_ligand_efficiency_sa>  (331) 
-0.527792

>  <r_i_glide_ligand_efficiency_ln>  (331) 
-0.768271

>  <r_i_glide_gscore>  (331) 
-2.6105

>  <r_i_glide_lipo>  (331) 
0

>  <r_i_glide_hbond>  (331) 
-0.149738

>  <r_i_glide_metal>  (331) 
-0

>  <r_i_glide_rewards>  (331) 
-2.25

>  <r_i_glide_evdw>  (331) 
-14.7938

>  <r_i_glide_ecoul>  (331) 
-3.52135

>  <r_i_glide_erotb>  (331) 
1.21282

>  <r_i_glide_esite>  (331) 
-0.155693

>  <r_i_glide_emodel>  (331) 
-21.7019

>  <r_i_glide_energy>  (331) 
-18.3151

>  <r_i_glide_einternal>  (331) 
0.269522

>  <r_i_glide_intrahb_reward>  (331) 
-0

>  <i_i_glide_confnum>  (331) 
3

>  <i_i_glide_posenum>  (331) 
4

>  <r_i_glide_eff_state_penalty>  (331) 
0

>  <ligand_id>  (331) 
89

>  <original_smiles>  (331) 
Cn1cncc1CO[N+](=O)[O-]

>  <smiles>  (331) 
[H]c1nc([H])n(C([H])([H])[H])c1C([H])([H])O[N+](=O)[O-]

$$$$
89:1:0
     RDKit          3D

 19 19  0  0  1  0  0  0  0  0999 V2000
    4.6353   -0.4953   -1.7545 C   0  0  0  0  0  0  0  0  0  0  0  0
    4.0625   -1.4518   -2.6846 N   0  0  0  0  0  0  0  0  0  0  0  0
    3.1520   -1.0880   -3.5907 C   0  0  0  0  0  0  0  0  0  0  0  0
    2.8318   -2.1873   -4.2674 N   0  0  0  0  0  0  0  0  0  0  0  0
    3.5256   -3.2618   -3.7887 C   0  0  0  0  0  0  0  0  0  0  0  0
    4.3365   -2.7984   -2.7833 C   0  0  0  0  0  0  0  0  0  0  0  0
    5.3063   -3.5043   -1.8919 C   0  0  0  0  0  0  0  0  0  0  0  0
    6.4931   -2.7332   -1.7235 O   0  0  0  0  0  0  0  0  0  0  0  0
    7.2984   -3.0353   -0.5878 N   0  0  0  0  0  0  0  0  0  0  0  0
    8.2180   -2.2666   -0.4382 O   0  0  0  0  0  0  0  0  0  0  0  0
    6.9659   -3.9882    0.0780 O   0  0  0  0  0  0  0  0  0  0  0  0
    4.2377    0.4887   -2.0219 H   0  0  0  0  0  0  0  0  0  0  0  0
    5.7172   -0.4859   -1.8729 H   0  0  0  0  0  0  0  0  0  0  0  0
    4.3610   -0.7768   -0.7364 H   0  0  0  0  0  0  0  0  0  0  0  0
    2.7477   -0.0987   -3.7399 H   0  0  0  0  0  0  0  0  0  0  0  0
    3.3953   -4.2538   -4.1871 H   0  0  0  0  0  0  0  0  0  0  0  0
    4.7827   -3.7011   -0.9562 H   0  0  0  0  0  0  0  0  0  0  0  0
    5.5518   -4.4563   -2.3578 H   0  0  0  0  0  0  0  0  0  0  0  0
    2.1585   -2.2129   -5.0318 H   0  0  0  0  0  0  0  0  0  0  0  0
  1  2  1  0
  1 12  1  0
  1 13  1  0
  1 14  1  0
  2  6  1  0
  2  3  1  0
  3  4  2  0
  3 15  1  0
  4  5  1  0
  4 19  1  0
  5  6  2  0
  5 16  1  0
  6  7  1  0
  7  8  1  0
  7 17  1  0
  7 18  1  0
  8  9  1  0
  9 10  2  0
  9 11  1  0
M  CHG  3   4   1   9   1  11  -1
M  END
>  <i_m_ct_stereo_status>  (332) 
1

>  <s_m_source_file>  (332) 
/var/tmp/pbs.5076255.sched01/tmp361ftg5n/90jpawypyp.sdf

>  <i_m_source_file_index>  (332) 
45

>  <i_lp_mmshare_version>  (332) 
48012

>  <i_f3d_flags>  (332) 
0

>  <s_epik_input>  (332) 
W0NIM11uMVtjSF1uW2NIXWMxW0NIMl1PW04rXSg9TylbTy1d

>  <s_epik_cmdline>  (332) 
J2VwaWtfcHl0aG9uJywgJy1waHQnLCAnMi4wJywgJy1waCcsICc3LjAnLCAnLXRuJywgJzgnLCAnLW1hJywgJzIwMCcsICctaW1hZScsICc8aW5maWxlLm1hZT4nLCAnLW9tYWUnLCAnPG91dGZpbGUubWFlPic=

>  <r_lp_tautomer_probability>  (332) 
1

>  <r_epik_Ionization_Penalty>  (332) 
0.495354

>  <r_epik_Ionization_Penalty_Charging>  (332) 
0

>  <r_epik_Ionization_Penalty_Neutral>  (332) 
0.495354

>  <r_epik_State_Penalty>  (332) 
0.501411

>  <r_epik_Charging_Adjusted_Penalty>  (332) 
0.501411

>  <i_epik_Tot_Q>  (332) 
1

>  <i_epik_Tot_abs_Q>  (332) 
3

>  <s_lp_Force_Field>  (332) 
OPLS3e

>  <r_lp_Energy>  (332) 
16.7412

>  <b_lp_Chiralities_Consistent>  (332) 
1

>  <s_lp_Variant>  (332) 
89:0-2

>  <s_i_glide_gridfile>  (332) 
pfpi4k_grid

>  <i_i_glide_lignum>  (332) 
45

>  <i_i_glide_rotatable_bonds>  (332) 
3

>  <r_i_docking_score>  (332) 
-3.79522

>  <r_i_glide_ligand_efficiency>  (332) 
-0.34502

>  <r_i_glide_ligand_efficiency_sa>  (332) 
-0.767317

>  <r_i_glide_ligand_efficiency_ln>  (332) 
-1.11693

>  <r_i_glide_gscore>  (332) 
-3.79522

>  <r_i_glide_lipo>  (332) 
-0.324415

>  <r_i_glide_hbond>  (332) 
0

>  <r_i_glide_metal>  (332) 
-0

>  <r_i_glide_rewards>  (332) 
-2.5636

>  <r_i_glide_evdw>  (332) 
-15.3903

>  <r_i_glide_ecoul>  (332) 
-8.31432

>  <r_i_glide_erotb>  (332) 
1.20038

>  <r_i_glide_esite>  (332) 
-0.0909247

>  <r_i_glide_emodel>  (332) 
-30.2152

>  <r_i_glide_energy>  (332) 
-23.7046

>  <r_i_glide_einternal>  (332) 
0.361704

>  <r_i_glide_intrahb_reward>  (332) 
-0

>  <i_i_glide_confnum>  (332) 
6

>  <i_i_glide_posenum>  (332) 
11

>  <r_i_glide_eff_state_penalty>  (332) 
0

>  <ligand_id>  (332) 
89

>  <original_smiles>  (332) 
Cn1cncc1CO[N+](=O)[O-]

>  <smiles>  (332) 
[H]c1c(C([H])([H])O[N+](=O)[O-])n(C([H])([H])[H])c([H])[n+]1[H]

$$$$
89:1:1
     RDKit          3D

 19 19  0  0  1  0  0  0  0  0999 V2000
    4.3656   -0.8775   -0.8851 C   0  0  0  0  0  0  0  0  0  0  0  0
    3.6811   -1.5665   -1.9835 N   0  0  0  0  0  0  0  0  0  0  0  0
    3.3302   -0.9427   -3.1190 C   0  0  0  0  0  0  0  0  0  0  0  0
    2.7295   -1.8562   -3.8895 N   0  0  0  0  0  0  0  0  0  0  0  0
    2.6865   -3.0557   -3.2342 C   0  0  0  0  0  0  0  0  0  0  0  0
    3.2981   -2.8835   -2.0186 C   0  0  0  0  0  0  0  0  0  0  0  0
    3.5420   -3.8572   -0.9025 C   0  0  0  0  0  0  0  0  0  0  0  0
    2.3176   -4.3695   -0.3872 O   0  0  0  0  0  0  0  0  0  0  0  0
    2.4410   -5.4915    0.4803 N   0  0  0  0  0  0  0  0  0  0  0  0
    1.3766   -5.9305    0.8492 O   0  0  0  0  0  0  0  0  0  0  0  0
    3.5587   -5.8729    0.7380 O   0  0  0  0  0  0  0  0  0  0  0  0
    4.6070    0.1416   -1.1610 H   0  0  0  0  0  0  0  0  0  0  0  0
    5.2911   -1.4150   -0.6591 H   0  0  0  0  0  0  0  0  0  0  0  0
    3.7148   -0.8907   -0.0042 H   0  0  0  0  0  0  0  0  0  0  0  0
    3.4590    0.0987   -3.3551 H   0  0  0  0  0  0  0  0  0  0  0  0
    2.2197   -3.9231   -3.6833 H   0  0  0  0  0  0  0  0  0  0  0  0
    4.1989   -4.6378   -1.2909 H   0  0  0  0  0  0  0  0  0  0  0  0
    4.0724   -3.3674   -0.0905 H   0  0  0  0  0  0  0  0  0  0  0  0
    2.3041   -1.6783   -4.8019 H   0  0  0  0  0  0  0  0  0  0  0  0
  1  2  1  0
  1 12  1  0
  1 13  1  0
  1 14  1  0
  2  6  1  0
  2  3  1  0
  3  4  2  0
  3 15  1  0
  4  5  1  0
  4 19  1  0
  5  6  2  0
  5 16  1  0
  6  7  1  0
  7  8  1  0
  7 17  1  0
  7 18  1  0
  8  9  1  0
  9 10  2  0
  9 11  1  0
M  CHG  3   4   1   9   1  11  -1
M  END
>  <i_m_ct_stereo_status>  (333) 
1

>  <s_m_source_file>  (333) 
/var/tmp/pbs.5076255.sched01/tmp361ftg5n/90jpawypyp.sdf

>  <i_m_source_file_index>  (333) 
45

>  <i_lp_mmshare_version>  (333) 
48012

>  <i_f3d_flags>  (333) 
0

>  <s_epik_input>  (333) 
W0NIM11uMVtjSF1uW2NIXWMxW0NIMl1PW04rXSg9TylbTy1d

>  <s_epik_cmdline>  (333) 
J2VwaWtfcHl0aG9uJywgJy1waHQnLCAnMi4wJywgJy1waCcsICc3LjAnLCAnLXRuJywgJzgnLCAnLW1hJywgJzIwMCcsICctaW1hZScsICc8aW5maWxlLm1hZT4nLCAnLW9tYWUnLCAnPG91dGZpbGUubWFlPic=

>  <r_lp_tautomer_probability>  (333) 
1

>  <r_epik_Ionization_Penalty>  (333) 
0.495354

>  <r_epik_Ionization_Penalty_Charging>  (333) 
0

>  <r_epik_Ionization_Penalty_Neutral>  (333) 
0.495354

>  <r_epik_State_Penalty>  (333) 
0.501411

>  <r_epik_Charging_Adjusted_Penalty>  (333) 
0.501411

>  <i_epik_Tot_Q>  (333) 
1

>  <i_epik_Tot_abs_Q>  (333) 
3

>  <s_lp_Force_Field>  (333) 
OPLS3e

>  <r_lp_Energy>  (333) 
16.7412

>  <b_lp_Chiralities_Consistent>  (333) 
1

>  <s_lp_Variant>  (333) 
89:0-2

>  <s_i_glide_gridfile>  (333) 
pfpi4k_grid

>  <i_i_glide_lignum>  (333) 
45

>  <i_i_glide_rotatable_bonds>  (333) 
3

>  <r_i_docking_score>  (333) 
-3.47424

>  <r_i_glide_ligand_efficiency>  (333) 
-0.31584

>  <r_i_glide_ligand_efficiency_sa>  (333) 
-0.702421

>  <r_i_glide_ligand_efficiency_ln>  (333) 
-1.02247

>  <r_i_glide_gscore>  (333) 
-3.47424

>  <r_i_glide_lipo>  (333) 
-0.143318

>  <r_i_glide_hbond>  (333) 
0

>  <r_i_glide_metal>  (333) 
-0

>  <r_i_glide_rewards>  (333) 
-2.30291

>  <r_i_glide_evdw>  (333) 
-14.9451

>  <r_i_glide_ecoul>  (333) 
-8.4586

>  <r_i_glide_erotb>  (333) 
1.20038

>  <r_i_glide_esite>  (333) 
-0.212352

>  <r_i_glide_emodel>  (333) 
-29.3932

>  <r_i_glide_energy>  (333) 
-23.4037

>  <r_i_glide_einternal>  (333) 
0.632775

>  <r_i_glide_intrahb_reward>  (333) 
-0

>  <i_i_glide_confnum>  (333) 
6

>  <i_i_glide_posenum>  (333) 
24

>  <r_i_glide_eff_state_penalty>  (333) 
0

>  <ligand_id>  (333) 
89

>  <original_smiles>  (333) 
Cn1cncc1CO[N+](=O)[O-]

>  <smiles>  (333) 
[H]c1c(C([H])([H])O[N+](=O)[O-])n(C([H])([H])[H])c([H])[n+]1[H]

$$$$
89:1:2
     RDKit          3D

 19 19  0  0  1  0  0  0  0  0999 V2000
    3.2365   -0.4368   -4.2494 C   0  0  0  0  0  0  0  0  0  0  0  0
    3.1160   -1.5730   -3.3253 N   0  0  0  0  0  0  0  0  0  0  0  0
    2.2450   -2.5735   -3.5115 C   0  0  0  0  0  0  0  0  0  0  0  0
    2.4036   -3.4139   -2.4919 N   0  0  0  0  0  0  0  0  0  0  0  0
    3.3830   -2.9625   -1.6511 C   0  0  0  0  0  0  0  0  0  0  0  0
    3.8444   -1.7789   -2.1753 C   0  0  0  0  0  0  0  0  0  0  0  0
    4.9157   -0.8551   -1.7019 C   0  0  0  0  0  0  0  0  0  0  0  0
    4.8636   -0.6575   -0.2859 O   0  0  0  0  0  0  0  0  0  0  0  0
    5.8909   -1.2469    0.5187 N   0  0  0  0  0  0  0  0  0  0  0  0
    5.7587   -1.0548    1.6955 O   0  0  0  0  0  0  0  0  0  0  0  0
    6.7685   -1.8560   -0.0654 O   0  0  0  0  0  0  0  0  0  0  0  0
    2.5760   -0.5585   -5.1133 H   0  0  0  0  0  0  0  0  0  0  0  0
    4.2717   -0.3608   -4.5887 H   0  0  0  0  0  0  0  0  0  0  0  0
    2.9739    0.4811   -3.7185 H   0  0  0  0  0  0  0  0  0  0  0  0
    1.5317   -2.6744   -4.3117 H   0  0  0  0  0  0  0  0  0  0  0  0
    3.6797   -3.5001   -0.7661 H   0  0  0  0  0  0  0  0  0  0  0  0
    5.8570   -1.2138   -2.1170 H   0  0  0  0  0  0  0  0  0  0  0  0
    4.7726    0.1233   -2.1569 H   0  0  0  0  0  0  0  0  0  0  0  0
    1.8982   -4.2883   -2.3809 H   0  0  0  0  0  0  0  0  0  0  0  0
  1  2  1  0
  1 12  1  0
  1 13  1  0
  1 14  1  0
  2  6  1  0
  2  3  1  0
  3  4  2  0
  3 15  1  0
  4  5  1  0
  4 19  1  0
  5  6  2  0
  5 16  1  0
  6  7  1  0
  7  8  1  0
  7 17  1  0
  7 18  1  0
  8  9  1  0
  9 10  2  0
  9 11  1  0
M  CHG  3   4   1   9   1  11  -1
M  END
>  <i_m_ct_stereo_status>  (334) 
1

>  <s_m_source_file>  (334) 
/var/tmp/pbs.5076255.sched01/tmp361ftg5n/90jpawypyp.sdf

>  <i_m_source_file_index>  (334) 
45

>  <i_lp_mmshare_version>  (334) 
48012

>  <i_f3d_flags>  (334) 
0

>  <s_epik_input>  (334) 
W0NIM11uMVtjSF1uW2NIXWMxW0NIMl1PW04rXSg9TylbTy1d

>  <s_epik_cmdline>  (334) 
J2VwaWtfcHl0aG9uJywgJy1waHQnLCAnMi4wJywgJy1waCcsICc3LjAnLCAnLXRuJywgJzgnLCAnLW1hJywgJzIwMCcsICctaW1hZScsICc8aW5maWxlLm1hZT4nLCAnLW9tYWUnLCAnPG91dGZpbGUubWFlPic=

>  <r_lp_tautomer_probability>  (334) 
1

>  <r_epik_Ionization_Penalty>  (334) 
0.495354

>  <r_epik_Ionization_Penalty_Charging>  (334) 
0

>  <r_epik_Ionization_Penalty_Neutral>  (334) 
0.495354

>  <r_epik_State_Penalty>  (334) 
0.501411

>  <r_epik_Charging_Adjusted_Penalty>  (334) 
0.501411

>  <i_epik_Tot_Q>  (334) 
1

>  <i_epik_Tot_abs_Q>  (334) 
3

>  <s_lp_Force_Field>  (334) 
OPLS3e

>  <r_lp_Energy>  (334) 
16.7412

>  <b_lp_Chiralities_Consistent>  (334) 
1

>  <s_lp_Variant>  (334) 
89:0-2

>  <s_i_glide_gridfile>  (334) 
pfpi4k_grid

>  <i_i_glide_lignum>  (334) 
45

>  <i_i_glide_rotatable_bonds>  (334) 
3

>  <r_i_docking_score>  (334) 
-3.4121

>  <r_i_glide_ligand_efficiency>  (334) 
-0.310191

>  <r_i_glide_ligand_efficiency_sa>  (334) 
-0.689858

>  <r_i_glide_ligand_efficiency_ln>  (334) 
-1.00418

>  <r_i_glide_gscore>  (334) 
-3.4121

>  <r_i_glide_lipo>  (334) 
-0.302997

>  <r_i_glide_hbond>  (334) 
0

>  <r_i_glide_metal>  (334) 
-0

>  <r_i_glide_rewards>  (334) 
-2.73817

>  <r_i_glide_evdw>  (334) 
-17.8412

>  <r_i_glide_ecoul>  (334) 
-4.30726

>  <r_i_glide_erotb>  (334) 
1.20038

>  <r_i_glide_esite>  (334) 
-0.0331695

>  <r_i_glide_emodel>  (334) 
-27.4415

>  <r_i_glide_energy>  (334) 
-22.1485

>  <r_i_glide_einternal>  (334) 
1.61272

>  <r_i_glide_intrahb_reward>  (334) 
-0

>  <i_i_glide_confnum>  (334) 
4

>  <i_i_glide_posenum>  (334) 
4

>  <r_i_glide_eff_state_penalty>  (334) 
0

>  <ligand_id>  (334) 
89

>  <original_smiles>  (334) 
Cn1cncc1CO[N+](=O)[O-]

>  <smiles>  (334) 
[H]c1c(C([H])([H])O[N+](=O)[O-])n(C([H])([H])[H])c([H])[n+]1[H]

$$$$
90:0:0
     RDKit          3D

 61 66  0  0  1  0  0  0  0  0999 V2000
    0.6696   -0.5204    7.9174 C   0  0  0  0  0  0  0  0  0  0  0  0
    0.8564   -2.0475    7.7679 C   0  0  1  0  0  0  0  0  0  0  0  0
   -0.0640   -2.6227    6.6699 C   0  0  0  0  0  0  0  0  0  0  0  0
    0.3240   -2.1590    5.2429 C   0  0  1  0  0  0  0  0  0  0  0  0
   -0.3979   -0.9618    4.9979 O   0  0  0  0  0  0  0  0  0  0  0  0
    1.8631   -1.9295    5.0182 C   0  0  1  0  0  0  0  0  0  0  0  0
    2.6983   -2.7788    6.0209 C   0  0  2  0  0  0  0  0  0  0  0  0
    2.6694   -4.2679    5.6032 C   0  0  0  0  0  0  0  0  0  0  0  0
    3.1924   -4.4528    4.1750 C   0  0  0  0  0  0  0  0  0  0  0  0
    2.4411   -3.5995    3.1319 C   0  0  2  0  0  0  0  0  0  0  0  0
    3.0488   -3.7684    1.7165 C   0  0  0  0  0  0  0  0  0  0  0  0
    4.2879   -2.8738    1.4185 C   0  0  1  0  0  0  0  0  0  0  0  0
    5.6162   -3.4967    1.8336 C   0  0  0  0  0  0  0  0  0  0  0  0
    6.4618   -3.6922    0.8072 C   0  0  0  0  0  0  0  0  0  0  0  0
    5.8135   -3.2311   -0.4041 C   0  0  0  0  0  0  0  0  0  0  0  0
    6.2792   -3.1919   -1.7271 C   0  0  0  0  0  0  0  0  0  0  0  0
    5.4127   -2.6858   -2.7144 C   0  0  0  0  0  0  0  0  0  0  0  0
    4.1304   -2.1940   -2.3796 C   0  0  0  0  0  0  0  0  0  0  0  0
    3.6836   -2.2292   -1.0426 C   0  0  0  0  0  0  0  0  0  0  0  0
    4.5442   -2.7640   -0.0712 C   0  0  0  0  0  0  0  0  0  0  0  0
    4.1360   -1.5594    1.9537 O   0  0  0  0  0  0  0  0  0  0  0  0
    3.7519   -1.4705    3.3212 C   0  0  0  0  0  0  0  0  0  0  0  0
    2.3510   -2.0973    3.5280 C   0  0  2  0  0  0  0  0  0  0  0  0
    1.3943   -1.3436    2.5717 C   0  0  0  0  0  0  0  0  0  0  0  0
    2.3327   -2.4522    7.5085 C   0  0  2  0  0  0  0  0  0  0  0  0
    2.7014   -3.5297    8.5598 C   0  0  0  0  0  0  0  0  0  0  0  0
    1.8094   -3.2624    9.7697 C   0  0  0  0  0  0  0  0  0  0  0  0
    0.5653   -2.6755    9.1308 C   0  0  0  0  0  0  0  0  0  0  0  0
   -0.5471   -2.6725    9.6568 O   0  0  0  0  0  0  0  0  0  0  0  0
    1.0678    0.0297    7.0671 H   0  0  0  0  0  0  0  0  0  0  0  0
    1.1664   -0.1337    8.8085 H   0  0  0  0  0  0  0  0  0  0  0  0
   -0.3850   -0.2589    8.0002 H   0  0  0  0  0  0  0  0  0  0  0  0
   -0.0115   -3.7105    6.7094 H   0  0  0  0  0  0  0  0  0  0  0  0
   -1.1124   -2.3968    6.8714 H   0  0  0  0  0  0  0  0  0  0  0  0
   -0.0503   -2.9075    4.5426 H   0  0  0  0  0  0  0  0  0  0  0  0
   -0.1559   -0.6346    4.1431 H   0  0  0  0  0  0  0  0  0  0  0  0
    2.0680   -0.8916    5.2802 H   0  0  0  0  0  0  0  0  0  0  0  0
    3.7412   -2.4768    5.9299 H   0  0  0  0  0  0  0  0  0  0  0  0
    3.3151   -4.8559    6.2532 H   0  0  0  0  0  0  0  0  0  0  0  0
    1.6710   -4.6914    5.6856 H   0  0  0  0  0  0  0  0  0  0  0  0
    4.2509   -4.2092    4.1780 H   0  0  0  0  0  0  0  0  0  0  0  0
    3.1277   -5.5076    3.9047 H   0  0  0  0  0  0  0  0  0  0  0  0
    1.4291   -4.0051    3.0887 H   0  0  0  0  0  0  0  0  0  0  0  0
    3.2837   -4.8148    1.5175 H   0  0  0  0  0  0  0  0  0  0  0  0
    2.2657   -3.5189    1.0025 H   0  0  0  0  0  0  0  0  0  0  0  0
    5.8547   -3.7355    2.8546 H   0  0  0  0  0  0  0  0  0  0  0  0
    7.4572   -4.1029    0.8429 H   0  0  0  0  0  0  0  0  0  0  0  0
    7.2643   -3.5444   -1.9850 H   0  0  0  0  0  0  0  0  0  0  0  0
    5.7326   -2.6751   -3.7393 H   0  0  0  0  0  0  0  0  0  0  0  0
    3.4884   -1.7874   -3.1470 H   0  0  0  0  0  0  0  0  0  0  0  0
    2.7039   -1.8587   -0.7746 H   0  0  0  0  0  0  0  0  0  0  0  0
    4.5196   -1.9305    3.9425 H   0  0  0  0  0  0  0  0  0  0  0  0
    3.7321   -0.4140    3.5868 H   0  0  0  0  0  0  0  0  0  0  0  0
    1.7412   -1.3276    1.5384 H   0  0  0  0  0  0  0  0  0  0  0  0
    1.2646   -0.3028    2.8661 H   0  0  0  0  0  0  0  0  0  0  0  0
    0.4172   -1.8138    2.5437 H   0  0  0  0  0  0  0  0  0  0  0  0
    2.9282   -1.5749    7.7705 H   0  0  0  0  0  0  0  0  0  0  0  0
    2.4619   -4.5370    8.2161 H   0  0  0  0  0  0  0  0  0  0  0  0
    3.7623   -3.5087    8.8140 H   0  0  0  0  0  0  0  0  0  0  0  0
    1.5987   -4.1600   10.3489 H   0  0  0  0  0  0  0  0  0  0  0  0
    2.2549   -2.5206   10.4317 H   0  0  0  0  0  0  0  0  0  0  0  0
  2  1  1  1
  1 30  1  0
  1 31  1  0
  1 32  1  0
  2 25  1  0
  2 28  1  0
  2  3  1  0
  3  4  1  0
  3 33  1  0
  3 34  1  0
  4  5  1  0
  4  6  1  0
  4 35  1  6
  5 36  1  0
  6 23  1  0
  6  7  1  0
  6 37  1  1
  7  8  1  0
  7 25  1  0
  7 38  1  1
  8  9  1  0
  8 39  1  0
  8 40  1  0
  9 10  1  0
  9 41  1  0
  9 42  1  0
 10 23  1  0
 10 11  1  0
 10 43  1  6
 11 12  1  0
 11 44  1  0
 11 45  1  0
 12 20  1  0
 12 13  1  0
 12 21  1  1
 13 14  2  0
 13 46  1  0
 14 15  1  0
 14 47  1  0
 15 20  2  0
 15 16  1  0
 16 17  2  0
 16 48  1  0
 17 18  1  0
 17 49  1  0
 18 19  2  0
 18 50  1  0
 19 20  1  0
 19 51  1  0
 21 22  1  0
 22 23  1  0
 22 52  1  0
 22 53  1  0
 23 24  1  6
 24 54  1  0
 24 55  1  0
 24 56  1  0
 25 26  1  0
 25 57  1  1
 26 27  1  0
 26 58  1  0
 26 59  1  0
 27 28  1  0
 27 60  1  0
 27 61  1  0
 28 29  2  0
M  END
>  <i_m_ct_stereo_status>  (335) 
1

>  <s_m_source_file>  (335) 
/var/tmp/pbs.5076255.sched01/tmpt95b3wv2/135g3gtwtb2.sdf

>  <i_m_source_file_index>  (335) 
1

>  <i_lp_mmshare_version>  (335) 
48012

>  <i_f3d_flags>  (335) 
0

>  <s_epik_input>  (335) 
W09IXVtDQEBIXTFbQ0gyXVtDQEBdKFtDSDNdKShDKD1PKVtDSDJdW0NIMl0yKVtDQEBIXTJbQ0BASF0oW0NIMl1bQ0gyXTMpW0NASF0xW0NAXShbQ0gyXU80KShbQ0gzXSlbQ0BIXTNbQ0gyXVtDQEBdNDVjNmMoW0NIXT1bQ0hdNSlbY0hdW2NIXVtjSF1bY0hdNg==

>  <s_epik_cmdline>  (335) 
J2VwaWtfcHl0aG9uJywgJy1waHQnLCAnMi4wJywgJy1waCcsICc3LjAnLCAnLXRuJywgJzgnLCAnLW1hJywgJzIwMCcsICctaW1hZScsICc8aW5maWxlLm1hZT4nLCAnLW9tYWUnLCAnPG91dGZpbGUubWFlPic=

>  <r_lp_tautomer_probability>  (335) 
1

>  <r_epik_Ionization_Penalty>  (335) 
7.0567e-07

>  <r_epik_Ionization_Penalty_Charging>  (335) 
0

>  <r_epik_Ionization_Penalty_Neutral>  (335) 
7.0567e-07

>  <r_epik_State_Penalty>  (335) 
-0

>  <r_epik_Charging_Adjusted_Penalty>  (335) 
0

>  <i_epik_Tot_Q>  (335) 
0

>  <i_epik_Tot_abs_Q>  (335) 
0

>  <s_lp_Force_Field>  (335) 
OPLS3e

>  <r_lp_Energy>  (335) 
49.2939

>  <b_lp_Chiralities_Consistent>  (335) 
1

>  <s_lp_Variant>  (335) 
90:0-1

>  <s_i_glide_gridfile>  (335) 
pfpi4k_grid

>  <i_i_glide_lignum>  (335) 
1

>  <i_i_glide_rotatable_bonds>  (335) 
1

>  <r_i_docking_score>  (335) 
-3.15347

>  <r_i_glide_ligand_efficiency>  (335) 
-0.10874

>  <r_i_glide_ligand_efficiency_sa>  (335) 
-0.334085

>  <r_i_glide_ligand_efficiency_ln>  (335) 
-0.722065

>  <r_i_glide_gscore>  (335) 
-3.15347

>  <r_i_glide_lipo>  (335) 
-0.503193

>  <r_i_glide_hbond>  (335) 
-0.16

>  <r_i_glide_metal>  (335) 
-0

>  <r_i_glide_rewards>  (335) 
-0.732747

>  <r_i_glide_evdw>  (335) 
-20.9351

>  <r_i_glide_ecoul>  (335) 
-4.52215

>  <r_i_glide_erotb>  (335) 
0

>  <r_i_glide_esite>  (335) 
-0.0324516

>  <r_i_glide_emodel>  (335) 
-31.5934

>  <r_i_glide_energy>  (335) 
-25.4573

>  <r_i_glide_einternal>  (335) 
0.355931

>  <r_i_glide_intrahb_reward>  (335) 
-0

>  <i_i_glide_confnum>  (335) 
2

>  <i_i_glide_posenum>  (335) 
1

>  <r_i_glide_eff_state_penalty>  (335) 
0

>  <ligand_id>  (335) 
90

>  <original_smiles>  (335) 
CC12CC(O)C3C(CCC4CC5(C=Cc6ccccc65)OCC43C)C1CCC2=O

>  <smiles>  (335) 
[H]OC1([H])C([H])([H])C2(C([H])([H])[H])C(=O)C([H])([H])C([H])([H])C2([H])C2([H])C([H])([H])C([H])([H])C3([H])C([H])([H])C4(OC([H])([H])C3(C([H])([H])[H])C12[H])C([H])=C([H])c1c([H])c([H])c([H])c([H])c14

$$$$
90:0:1
     RDKit          3D

 61 66  0  0  1  0  0  0  0  0999 V2000
    3.5294    2.2276    6.3669 C   0  0  0  0  0  0  0  0  0  0  0  0
    3.8832    0.7450    6.6207 C   0  0  1  0  0  0  0  0  0  0  0  0
    2.7082   -0.1779    6.2389 C   0  0  0  0  0  0  0  0  0  0  0  0
    2.4392   -0.2238    4.7144 C   0  0  1  0  0  0  0  0  0  0  0  0
    1.5106    0.8121    4.4338 O   0  0  0  0  0  0  0  0  0  0  0  0
    3.7164   -0.0553    3.8128 C   0  0  1  0  0  0  0  0  0  0  0  0
    4.9914   -0.5051    4.5767 C   0  0  2  0  0  0  0  0  0  0  0  0
    5.0129   -2.0480    4.6805 C   0  0  0  0  0  0  0  0  0  0  0  0
    4.9851   -2.6955    3.2923 C   0  0  0  0  0  0  0  0  0  0  0  0
    3.7669   -2.2650    2.4558 C   0  0  2  0  0  0  0  0  0  0  0  0
    3.8007   -2.8887    1.0342 C   0  0  0  0  0  0  0  0  0  0  0  0
    4.6729   -2.1317   -0.0106 C   0  0  1  0  0  0  0  0  0  0  0  0
    6.1469   -2.5388   -0.0204 C   0  0  0  0  0  0  0  0  0  0  0  0
    6.5457   -3.0534   -1.1970 C   0  0  0  0  0  0  0  0  0  0  0  0
    5.4121   -3.0511   -2.0936 C   0  0  0  0  0  0  0  0  0  0  0  0
    5.3141   -3.4577   -3.4250 C   0  0  0  0  0  0  0  0  0  0  0  0
    4.0686   -3.3400   -4.0697 C   0  0  0  0  0  0  0  0  0  0  0  0
    2.9511   -2.7850   -3.4075 C   0  0  0  0  0  0  0  0  0  0  0  0
    3.0728   -2.3779   -2.0664 C   0  0  0  0  0  0  0  0  0  0  0  0
    4.3117   -2.5279   -1.4250 C   0  0  0  0  0  0  0  0  0  0  0  0
    4.5322   -0.7271    0.1131 O   0  0  0  0  0  0  0  0  0  0  0  0
    4.6872   -0.1949    1.4197 C   0  0  0  0  0  0  0  0  0  0  0  0
    3.6037   -0.7230    2.3903 C   0  0  2  0  0  0  0  0  0  0  0  0
    2.2505   -0.3486    1.7491 C   0  0  0  0  0  0  0  0  0  0  0  0
    5.1861    0.3004    5.9023 C   0  0  2  0  0  0  0  0  0  0  0  0
    6.1005   -0.3484    6.9708 C   0  0  0  0  0  0  0  0  0  0  0  0
    5.7185    0.2930    8.3005 C   0  0  0  0  0  0  0  0  0  0  0  0
    4.2504    0.6086    8.0990 C   0  0  0  0  0  0  0  0  0  0  0  0
    3.4597    0.7678    9.0227 O   0  0  0  0  0  0  0  0  0  0  0  0
    3.4717    2.4639    5.3053 H   0  0  0  0  0  0  0  0  0  0  0  0
    4.2630    2.9023    6.8085 H   0  0  0  0  0  0  0  0  0  0  0  0
    2.5605    2.4748    6.8040 H   0  0  0  0  0  0  0  0  0  0  0  0
    2.9415   -1.1845    6.5784 H   0  0  0  0  0  0  0  0  0  0  0  0
    1.7960    0.0828    6.7835 H   0  0  0  0  0  0  0  0  0  0  0  0
    1.9502   -1.1744    4.4923 H   0  0  0  0  0  0  0  0  0  0  0  0
    1.3295    0.8154    3.5067 H   0  0  0  0  0  0  0  0  0  0  0  0
    3.8417    1.0125    3.6297 H   0  0  0  0  0  0  0  0  0  0  0  0
    5.8566   -0.2358    3.9716 H   0  0  0  0  0  0  0  0  0  0  0  0
    5.9285   -2.3813    5.1596 H   0  0  0  0  0  0  0  0  0  0  0  0
    4.1971   -2.4324    5.2863 H   0  0  0  0  0  0  0  0  0  0  0  0
    5.9077   -2.4388    2.7773 H   0  0  0  0  0  0  0  0  0  0  0  0
    4.9898   -3.7799    3.4015 H   0  0  0  0  0  0  0  0  0  0  0  0
    2.8944   -2.6850    2.9598 H   0  0  0  0  0  0  0  0  0  0  0  0
    4.1020   -3.9324    1.0778 H   0  0  0  0  0  0  0  0  0  0  0  0
    2.7731   -2.9049    0.6718 H   0  0  0  0  0  0  0  0  0  0  0  0
    6.7932   -2.4124    0.8284 H   0  0  0  0  0  0  0  0  0  0  0  0
    7.5298   -3.4122   -1.4614 H   0  0  0  0  0  0  0  0  0  0  0  0
    6.1735   -3.8502   -3.9349 H   0  0  0  0  0  0  0  0  0  0  0  0
    3.9555   -3.6701   -5.0827 H   0  0  0  0  0  0  0  0  0  0  0  0
    2.0094   -2.6677   -3.9211 H   0  0  0  0  0  0  0  0  0  0  0  0
    2.2286   -1.9633   -1.5540 H   0  0  0  0  0  0  0  0  0  0  0  0
    5.7031   -0.3713    1.7741 H   0  0  0  0  0  0  0  0  0  0  0  0
    4.5625    0.8760    1.2924 H   0  0  0  0  0  0  0  0  0  0  0  0
    2.2183   -0.6700    0.7152 H   0  0  0  0  0  0  0  0  0  0  0  0
    2.0833    0.7274    1.7345 H   0  0  0  0  0  0  0  0  0  0  0  0
    1.4030   -0.8311    2.2303 H   0  0  0  0  0  0  0  0  0  0  0  0
    5.6838    1.2274    5.6137 H   0  0  0  0  0  0  0  0  0  0  0  0
    5.9048   -1.4158    7.0816 H   0  0  0  0  0  0  0  0  0  0  0  0
    7.1582   -0.2229    6.7371 H   0  0  0  0  0  0  0  0  0  0  0  0
    5.8886   -0.3575    9.1570 H   0  0  0  0  0  0  0  0  0  0  0  0
    6.2571    1.2256    8.4605 H   0  0  0  0  0  0  0  0  0  0  0  0
  2  1  1  1
  1 30  1  0
  1 31  1  0
  1 32  1  0
  2 25  1  0
  2 28  1  0
  2  3  1  0
  3  4  1  0
  3 33  1  0
  3 34  1  0
  4  5  1  0
  4  6  1  0
  4 35  1  1
  5 36  1  0
  6 23  1  0
  6  7  1  0
  6 37  1  6
  7  8  1  0
  7 25  1  0
  7 38  1  6
  8  9  1  0
  8 39  1  0
  8 40  1  0
  9 10  1  0
  9 41  1  0
  9 42  1  0
 10 23  1  0
 10 11  1  0
 10 43  1  1
 11 12  1  0
 11 44  1  0
 11 45  1  0
 12 20  1  0
 12 13  1  0
 12 21  1  6
 13 14  2  0
 13 46  1  0
 14 15  1  0
 14 47  1  0
 15 20  2  0
 15 16  1  0
 16 17  2  0
 16 48  1  0
 17 18  1  0
 17 49  1  0
 18 19  2  0
 18 50  1  0
 19 20  1  0
 19 51  1  0
 21 22  1  0
 22 23  1  0
 22 52  1  0
 22 53  1  0
 23 24  1  6
 24 54  1  0
 24 55  1  0
 24 56  1  0
 25 26  1  0
 25 57  1  6
 26 27  1  0
 26 58  1  0
 26 59  1  0
 27 28  1  0
 27 60  1  0
 27 61  1  0
 28 29  2  0
M  END
>  <i_m_ct_stereo_status>  (336) 
1

>  <s_m_source_file>  (336) 
/var/tmp/pbs.5076255.sched01/tmpt95b3wv2/135g3gtwtb2.sdf

>  <i_m_source_file_index>  (336) 
1

>  <i_lp_mmshare_version>  (336) 
48012

>  <i_f3d_flags>  (336) 
0

>  <s_epik_input>  (336) 
W09IXVtDQEBIXTFbQ0gyXVtDQEBdKFtDSDNdKShDKD1PKVtDSDJdW0NIMl0yKVtDQEBIXTJbQ0BASF0oW0NIMl1bQ0gyXTMpW0NASF0xW0NAXShbQ0gyXU80KShbQ0gzXSlbQ0BIXTNbQ0gyXVtDQEBdNDVjNmMoW0NIXT1bQ0hdNSlbY0hdW2NIXVtjSF1bY0hdNg==

>  <s_epik_cmdline>  (336) 
J2VwaWtfcHl0aG9uJywgJy1waHQnLCAnMi4wJywgJy1waCcsICc3LjAnLCAnLXRuJywgJzgnLCAnLW1hJywgJzIwMCcsICctaW1hZScsICc8aW5maWxlLm1hZT4nLCAnLW9tYWUnLCAnPG91dGZpbGUubWFlPic=

>  <r_lp_tautomer_probability>  (336) 
1

>  <r_epik_Ionization_Penalty>  (336) 
7.0567e-07

>  <r_epik_Ionization_Penalty_Charging>  (336) 
0

>  <r_epik_Ionization_Penalty_Neutral>  (336) 
7.0567e-07

>  <r_epik_State_Penalty>  (336) 
-0

>  <r_epik_Charging_Adjusted_Penalty>  (336) 
0

>  <i_epik_Tot_Q>  (336) 
0

>  <i_epik_Tot_abs_Q>  (336) 
0

>  <s_lp_Force_Field>  (336) 
OPLS3e

>  <r_lp_Energy>  (336) 
49.2939

>  <b_lp_Chiralities_Consistent>  (336) 
1

>  <s_lp_Variant>  (336) 
90:0-1

>  <s_i_glide_gridfile>  (336) 
pfpi4k_grid

>  <i_i_glide_lignum>  (336) 
1

>  <i_i_glide_rotatable_bonds>  (336) 
1

>  <r_i_docking_score>  (336) 
-2.84968

>  <r_i_glide_ligand_efficiency>  (336) 
-0.098265

>  <r_i_glide_ligand_efficiency_sa>  (336) 
-0.301901

>  <r_i_glide_ligand_efficiency_ln>  (336) 
-0.652505

>  <r_i_glide_gscore>  (336) 
-2.84968

>  <r_i_glide_lipo>  (336) 
-0.90236

>  <r_i_glide_hbond>  (336) 
0

>  <r_i_glide_metal>  (336) 
-0

>  <r_i_glide_rewards>  (336) 
-0.732747

>  <r_i_glide_evdw>  (336) 
-22.7241

>  <r_i_glide_ecoul>  (336) 
-0.522477

>  <r_i_glide_erotb>  (336) 
0

>  <r_i_glide_esite>  (336) 
0

>  <r_i_glide_emodel>  (336) 
-28.73

>  <r_i_glide_energy>  (336) 
-23.2466

>  <r_i_glide_einternal>  (336) 
0.348528

>  <r_i_glide_intrahb_reward>  (336) 
-0

>  <i_i_glide_confnum>  (336) 
2

>  <i_i_glide_posenum>  (336) 
17

>  <r_i_glide_eff_state_penalty>  (336) 
0

>  <ligand_id>  (336) 
90

>  <original_smiles>  (336) 
CC12CC(O)C3C(CCC4CC5(C=Cc6ccccc65)OCC43C)C1CCC2=O

>  <smiles>  (336) 
[H]OC1([H])C([H])([H])C2(C([H])([H])[H])C(=O)C([H])([H])C([H])([H])C2([H])C2([H])C([H])([H])C([H])([H])C3([H])C([H])([H])C4(OC([H])([H])C3(C([H])([H])[H])C12[H])C([H])=C([H])c1c([H])c([H])c([H])c([H])c14

$$$$
90:0:2
     RDKit          3D

 61 66  0  0  1  0  0  0  0  0999 V2000
   -0.7156    4.0614    6.0024 C   0  0  0  0  0  0  0  0  0  0  0  0
   -0.9899    2.5826    6.3560 C   0  0  1  0  0  0  0  0  0  0  0  0
   -1.7226    1.8602    5.2056 C   0  0  0  0  0  0  0  0  0  0  0  0
   -0.8511    1.6829    3.9345 C   0  0  1  0  0  0  0  0  0  0  0  0
   -1.0599    2.8507    3.1553 O   0  0  0  0  0  0  0  0  0  0  0  0
    0.6817    1.4813    4.2126 C   0  0  1  0  0  0  0  0  0  0  0  0
    0.9145    0.8960    5.6364 C   0  0  2  0  0  0  0  0  0  0  0  0
    0.5272   -0.6020    5.6648 C   0  0  0  0  0  0  0  0  0  0  0  0
    1.3191   -1.3962    4.6236 C   0  0  0  0  0  0  0  0  0  0  0  0
    1.1803   -0.8400    3.1945 C   0  0  2  0  0  0  0  0  0  0  0  0
    2.0525   -1.6384    2.1961 C   0  0  0  0  0  0  0  0  0  0  0  0
    3.5397   -1.1913    2.0963 C   0  0  1  0  0  0  0  0  0  0  0  0
    4.4490   -1.8841    3.1032 C   0  0  0  0  0  0  0  0  0  0  0  0
    5.4102   -2.6174    2.5265 C   0  0  0  0  0  0  0  0  0  0  0  0
    5.2853   -2.5083    1.0906 C   0  0  0  0  0  0  0  0  0  0  0  0
    6.0719   -3.0549    0.0614 C   0  0  0  0  0  0  0  0  0  0  0  0
    5.7224   -2.7513   -1.2713 C   0  0  0  0  0  0  0  0  0  0  0  0
    4.6151   -1.9160   -1.5513 C   0  0  0  0  0  0  0  0  0  0  0  0
    3.8448   -1.3691   -0.5021 C   0  0  0  0  0  0  0  0  0  0  0  0
    4.1942   -1.6869    0.8191 C   0  0  0  0  0  0  0  0  0  0  0  0
    3.6681    0.2279    2.1587 O   0  0  0  0  0  0  0  0  0  0  0  0
    2.9903    0.8877    3.2266 C   0  0  0  0  0  0  0  0  0  0  0  0
    1.4582    0.6861    3.0950 C   0  0  2  0  0  0  0  0  0  0  0  0
    1.0587    1.2213    1.6946 C   0  0  0  0  0  0  0  0  0  0  0  0
    0.2966    1.8080    6.7511 C   0  0  2  0  0  0  0  0  0  0  0  0
    0.0201    1.1321    8.1178 C   0  0  0  0  0  0  0  0  0  0  0  0
   -1.0224    2.0019    8.8153 C   0  0  0  0  0  0  0  0  0  0  0  0
   -1.8088    2.5641    7.6482 C   0  0  0  0  0  0  0  0  0  0  0  0
   -2.9642    2.9751    7.7391 O   0  0  0  0  0  0  0  0  0  0  0  0
    0.0433    4.1670    5.2306 H   0  0  0  0  0  0  0  0  0  0  0  0
   -0.3744    4.6303    6.8675 H   0  0  0  0  0  0  0  0  0  0  0  0
   -1.6193    4.5420    5.6302 H   0  0  0  0  0  0  0  0  0  0  0  0
   -2.0347    0.8782    5.5561 H   0  0  0  0  0  0  0  0  0  0  0  0
   -2.6540    2.3717    4.9553 H   0  0  0  0  0  0  0  0  0  0  0  0
   -1.2490    0.8308    3.3791 H   0  0  0  0  0  0  0  0  0  0  0  0
   -0.5404    2.8108    2.3588 H   0  0  0  0  0  0  0  0  0  0  0  0
    1.1306    2.4743    4.2320 H   0  0  0  0  0  0  0  0  0  0  0  0
    1.9854    0.9192    5.8391 H   0  0  0  0  0  0  0  0  0  0  0  0
    0.7631   -1.0360    6.6349 H   0  0  0  0  0  0  0  0  0  0  0  0
   -0.5391   -0.7449    5.5006 H   0  0  0  0  0  0  0  0  0  0  0  0
    2.3619   -1.3967    4.9285 H   0  0  0  0  0  0  0  0  0  0  0  0
    0.9969   -2.4373    4.6433 H   0  0  0  0  0  0  0  0  0  0  0  0
    0.1440   -1.0104    2.9059 H   0  0  0  0  0  0  0  0  0  0  0  0
    1.9843   -2.7088    2.3833 H   0  0  0  0  0  0  0  0  0  0  0  0
    1.5959   -1.5009    1.2246 H   0  0  0  0  0  0  0  0  0  0  0  0
    4.3284   -1.7826    4.1692 H   0  0  0  0  0  0  0  0  0  0  0  0
    6.1782   -3.1947    3.0146 H   0  0  0  0  0  0  0  0  0  0  0  0
    6.9192   -3.6820    0.2909 H   0  0  0  0  0  0  0  0  0  0  0  0
    6.3007   -3.1605   -2.0873 H   0  0  0  0  0  0  0  0  0  0  0  0
    4.3500   -1.6853   -2.5722 H   0  0  0  0  0  0  0  0  0  0  0  0
    3.0151   -0.7134   -0.7057 H   0  0  0  0  0  0  0  0  0  0  0  0
    3.3843    0.5321    4.1782 H   0  0  0  0  0  0  0  0  0  0  0  0
    3.2381    1.9475    3.1660 H   0  0  0  0  0  0  0  0  0  0  0  0
    1.6559    0.7924    0.8901 H   0  0  0  0  0  0  0  0  0  0  0  0
    1.1975    2.3006    1.6358 H   0  0  0  0  0  0  0  0  0  0  0  0
    0.0245    0.9954    1.4342 H   0  0  0  0  0  0  0  0  0  0  0  0
    1.0478    2.5737    6.9526 H   0  0  0  0  0  0  0  0  0  0  0  0
   -0.4241    0.1432    8.0011 H   0  0  0  0  0  0  0  0  0  0  0  0
    0.9294    1.0209    8.7110 H   0  0  0  0  0  0  0  0  0  0  0  0
   -1.6476    1.4440    9.5100 H   0  0  0  0  0  0  0  0  0  0  0  0
   -0.5530    2.8206    9.3598 H   0  0  0  0  0  0  0  0  0  0  0  0
  2  1  1  6
  1 30  1  0
  1 31  1  0
  1 32  1  0
  2 25  1  0
  2 28  1  0
  2  3  1  0
  3  4  1  0
  3 33  1  0
  3 34  1  0
  4  5  1  0
  4  6  1  0
  4 35  1  6
  5 36  1  0
  6 23  1  0
  6  7  1  0
  6 37  1  1
  7  8  1  0
  7 25  1  0
  7 38  1  1
  8  9  1  0
  8 39  1  0
  8 40  1  0
  9 10  1  0
  9 41  1  0
  9 42  1  0
 10 23  1  0
 10 11  1  0
 10 43  1  6
 11 12  1  0
 11 44  1  0
 11 45  1  0
 12 20  1  0
 12 13  1  0
 12 21  1  1
 13 14  2  0
 13 46  1  0
 14 15  1  0
 14 47  1  0
 15 20  2  0
 15 16  1  0
 16 17  2  0
 16 48  1  0
 17 18  1  0
 17 49  1  0
 18 19  2  0
 18 50  1  0
 19 20  1  0
 19 51  1  0
 21 22  1  0
 22 23  1  0
 22 52  1  0
 22 53  1  0
 23 24  1  6
 24 54  1  0
 24 55  1  0
 24 56  1  0
 25 26  1  0
 25 57  1  1
 26 27  1  0
 26 58  1  0
 26 59  1  0
 27 28  1  0
 27 60  1  0
 27 61  1  0
 28 29  2  0
M  END
>  <i_m_ct_stereo_status>  (337) 
1

>  <s_m_source_file>  (337) 
/var/tmp/pbs.5076255.sched01/tmpt95b3wv2/135g3gtwtb2.sdf

>  <i_m_source_file_index>  (337) 
1

>  <i_lp_mmshare_version>  (337) 
48012

>  <i_f3d_flags>  (337) 
0

>  <s_epik_input>  (337) 
W09IXVtDQEBIXTFbQ0gyXVtDQEBdKFtDSDNdKShDKD1PKVtDSDJdW0NIMl0yKVtDQEBIXTJbQ0BASF0oW0NIMl1bQ0gyXTMpW0NASF0xW0NAXShbQ0gyXU80KShbQ0gzXSlbQ0BIXTNbQ0gyXVtDQEBdNDVjNmMoW0NIXT1bQ0hdNSlbY0hdW2NIXVtjSF1bY0hdNg==

>  <s_epik_cmdline>  (337) 
J2VwaWtfcHl0aG9uJywgJy1waHQnLCAnMi4wJywgJy1waCcsICc3LjAnLCAnLXRuJywgJzgnLCAnLW1hJywgJzIwMCcsICctaW1hZScsICc8aW5maWxlLm1hZT4nLCAnLW9tYWUnLCAnPG91dGZpbGUubWFlPic=

>  <r_lp_tautomer_probability>  (337) 
1

>  <r_epik_Ionization_Penalty>  (337) 
7.0567e-07

>  <r_epik_Ionization_Penalty_Charging>  (337) 
0

>  <r_epik_Ionization_Penalty_Neutral>  (337) 
7.0567e-07

>  <r_epik_State_Penalty>  (337) 
-0

>  <r_epik_Charging_Adjusted_Penalty>  (337) 
0

>  <i_epik_Tot_Q>  (337) 
0

>  <i_epik_Tot_abs_Q>  (337) 
0

>  <s_lp_Force_Field>  (337) 
OPLS3e

>  <r_lp_Energy>  (337) 
49.2939

>  <b_lp_Chiralities_Consistent>  (337) 
1

>  <s_lp_Variant>  (337) 
90:0-1

>  <s_i_glide_gridfile>  (337) 
pfpi4k_grid

>  <i_i_glide_lignum>  (337) 
1

>  <i_i_glide_rotatable_bonds>  (337) 
1

>  <r_i_docking_score>  (337) 
-2.75338

>  <r_i_glide_ligand_efficiency>  (337) 
-0.0949441

>  <r_i_glide_ligand_efficiency_sa>  (337) 
-0.291698

>  <r_i_glide_ligand_efficiency_ln>  (337) 
-0.630454

>  <r_i_glide_gscore>  (337) 
-2.75338

>  <r_i_glide_lipo>  (337) 
-0.177493

>  <r_i_glide_hbond>  (337) 
-0.0390879

>  <r_i_glide_metal>  (337) 
-0

>  <r_i_glide_rewards>  (337) 
-0.732747

>  <r_i_glide_evdw>  (337) 
-29.1633

>  <r_i_glide_ecoul>  (337) 
-2.29697

>  <r_i_glide_erotb>  (337) 
0

>  <r_i_glide_esite>  (337) 
-0.00134327

>  <r_i_glide_emodel>  (337) 
-36.7699

>  <r_i_glide_energy>  (337) 
-31.4602

>  <r_i_glide_einternal>  (337) 
0.363933

>  <r_i_glide_intrahb_reward>  (337) 
-0

>  <i_i_glide_confnum>  (337) 
1

>  <i_i_glide_posenum>  (337) 
31

>  <r_i_glide_eff_state_penalty>  (337) 
0

>  <ligand_id>  (337) 
90

>  <original_smiles>  (337) 
CC12CC(O)C3C(CCC4CC5(C=Cc6ccccc65)OCC43C)C1CCC2=O

>  <smiles>  (337) 
[H]OC1([H])C([H])([H])C2(C([H])([H])[H])C(=O)C([H])([H])C([H])([H])C2([H])C2([H])C([H])([H])C([H])([H])C3([H])C([H])([H])C4(OC([H])([H])C3(C([H])([H])[H])C12[H])C([H])=C([H])c1c([H])c([H])c([H])c([H])c14

$$$$
92:0:0
     RDKit          3D

 22 24  0  0  1  0  0  0  0  0999 V2000
    2.6903    4.9381    4.3838 C   0  0  0  0  0  0  0  0  0  0  0  0
    1.2709    4.6942    4.2880 N   0  0  0  0  0  0  0  0  0  0  0  0
    0.2225    5.4201    4.7384 C   0  0  0  0  0  0  0  0  0  0  0  0
   -1.0049    4.9028    4.5128 N   0  0  0  0  0  0  0  0  0  0  0  0
   -0.6904    3.7522    3.8220 C   0  0  0  0  0  0  0  0  0  0  0  0
   -1.5416    2.7726    3.2557 C   0  0  0  0  0  0  0  0  0  0  0  0
   -2.8920    2.9368    3.3540 O   0  0  0  0  0  0  0  0  0  0  0  0
   -0.9977    1.6376    2.5952 C   0  0  0  0  0  0  0  0  0  0  0  0
    0.4213    1.6295    2.5529 C   0  0  0  0  0  0  0  0  0  0  0  0
    1.1558    0.6301    1.9634 C   0  0  0  0  0  0  0  0  0  0  0  0
    2.5155    0.9680    2.1355 N   0  0  0  0  0  0  0  0  0  0  0  0
    2.5231    2.1365    2.7936 C   0  0  0  0  0  0  0  0  0  0  0  0
    1.2803    2.5300    3.0466 N   0  0  0  0  0  0  0  0  0  0  0  0
    0.7105    3.6217    3.7004 C   0  0  0  0  0  0  0  0  0  0  0  0
    2.8300    5.8796    4.9194 H   0  0  0  0  0  0  0  0  0  0  0  0
    3.1408    5.0542    3.3954 H   0  0  0  0  0  0  0  0  0  0  0  0
    3.1827    4.1574    4.9686 H   0  0  0  0  0  0  0  0  0  0  0  0
    0.3566    6.3646    5.2564 H   0  0  0  0  0  0  0  0  0  0  0  0
   -3.3777    2.2060    3.0028 H   0  0  0  0  0  0  0  0  0  0  0  0
   -1.5960    0.8519    2.1466 H   0  0  0  0  0  0  0  0  0  0  0  0
    0.8054   -0.2691    1.4492 H   0  0  0  0  0  0  0  0  0  0  0  0
    3.4150    2.6759    3.0788 H   0  0  0  0  0  0  0  0  0  0  0  0
  1  2  1  0
  1 15  1  0
  1 16  1  0
  1 17  1  0
  2 14  1  0
  2  3  1  0
  3  4  2  0
  3 18  1  0
  4  5  1  0
  5 14  2  0
  5  6  1  0
  6  7  1  0
  6  8  2  0
  7 19  1  0
  8  9  1  0
  8 20  1  0
  9 13  1  0
  9 10  2  0
 10 11  1  0
 10 21  1  0
 11 12  2  0
 12 13  1  0
 12 22  1  0
 13 14  1  0
M  END
>  <i_m_ct_stereo_status>  (338) 
1

>  <s_m_source_file>  (338) 
/var/tmp/pbs.5076255.sched01/tmpt95b3wv2/135g3gtwtb2.sdf

>  <i_m_source_file_index>  (338) 
3

>  <i_lp_mmshare_version>  (338) 
48012

>  <i_f3d_flags>  (338) 
0

>  <s_epik_input>  (338) 
bjFbY0hdbihbQ0gzXSljKGMxMiluM2MoW2NIXWMyW09IXSlbY0hdbltjSF0z

>  <s_epik_cmdline>  (338) 
J2VwaWtfcHl0aG9uJywgJy1waHQnLCAnMi4wJywgJy1waCcsICc3LjAnLCAnLXRuJywgJzgnLCAnLW1hJywgJzIwMCcsICctaW1hZScsICc8aW5maWxlLm1hZT4nLCAnLW9tYWUnLCAnPG91dGZpbGUubWFlPic=

>  <r_epik_Ionization_Penalty>  (338) 
0.12911

>  <r_epik_Ionization_Penalty_Charging>  (338) 
0.00844743

>  <r_epik_Ionization_Penalty_Neutral>  (338) 
0.120662

>  <r_epik_State_Penalty>  (338) 
0.0766055

>  <r_epik_Charging_Adjusted_Penalty>  (338) 
0.0850529

>  <i_epik_Tot_Q>  (338) 
0

>  <i_epik_Tot_abs_Q>  (338) 
0

>  <s_lp_Force_Field>  (338) 
OPLS3e

>  <r_lp_Energy>  (338) 
14.1422

>  <b_lp_Chiralities_Consistent>  (338) 
1

>  <s_lp_Variant>  (338) 
92:0-1

>  <s_i_glide_gridfile>  (338) 
pfpi4k_grid

>  <i_i_glide_lignum>  (338) 
3

>  <i_i_glide_rotatable_bonds>  (338) 
1

>  <r_i_docking_score>  (338) 
-4.68385

>  <r_i_glide_ligand_efficiency>  (338) 
-0.334561

>  <r_i_glide_ligand_efficiency_sa>  (338) 
-0.806339

>  <r_i_glide_ligand_efficiency_ln>  (338) 
-1.2871

>  <r_i_glide_gscore>  (338) 
-4.68385

>  <r_i_glide_lipo>  (338) 
0

>  <r_i_glide_hbond>  (338) 
-0.359552

>  <r_i_glide_metal>  (338) 
-0

>  <r_i_glide_rewards>  (338) 
-2.126

>  <r_i_glide_evdw>  (338) 
-16.3042

>  <r_i_glide_ecoul>  (338) 
-7.58952

>  <r_i_glide_erotb>  (338) 
0

>  <r_i_glide_esite>  (338) 
-0.244653

>  <r_i_glide_emodel>  (338) 
-31.4177

>  <r_i_glide_energy>  (338) 
-23.8937

>  <r_i_glide_einternal>  (338) 
0.00372239

>  <r_i_glide_intrahb_reward>  (338) 
-0

>  <i_i_glide_confnum>  (338) 
1

>  <i_i_glide_posenum>  (338) 
1

>  <r_i_glide_eff_state_penalty>  (338) 
0

>  <ligand_id>  (338) 
92

>  <original_smiles>  (338) 
Cn1cnc2c(O)cc3cncn3c21

>  <smiles>  (338) 
[H]Oc1c([H])c2c([H])nc([H])n2c2c1nc([H])n2C([H])([H])[H]

$$$$
92:0:1
     RDKit          3D

 22 24  0  0  1  0  0  0  0  0999 V2000
   -1.4014    0.3160    4.4901 C   0  0  0  0  0  0  0  0  0  0  0  0
   -1.4318    1.7426    4.2055 N   0  0  0  0  0  0  0  0  0  0  0  0
   -2.4640    2.5806    3.9531 C   0  0  0  0  0  0  0  0  0  0  0  0
   -2.1675    3.8830    3.7466 N   0  0  0  0  0  0  0  0  0  0  0  0
   -0.7801    3.8410    3.8460 C   0  0  0  0  0  0  0  0  0  0  0  0
    0.1711    4.8900    3.6812 C   0  0  0  0  0  0  0  0  0  0  0  0
   -0.2923    6.1427    3.4035 O   0  0  0  0  0  0  0  0  0  0  0  0
    1.5523    4.6222    3.8342 C   0  0  0  0  0  0  0  0  0  0  0  0
    1.8584    3.2664    4.1352 C   0  0  0  0  0  0  0  0  0  0  0  0
    3.1368    2.8070    4.3322 C   0  0  0  0  0  0  0  0  0  0  0  0
    3.0287    1.4232    4.6079 N   0  0  0  0  0  0  0  0  0  0  0  0
    1.7167    1.1372    4.5545 C   0  0  0  0  0  0  0  0  0  0  0  0
    1.0177    2.2395    4.2805 N   0  0  0  0  0  0  0  0  0  0  0  0
   -0.3372    2.5215    4.1360 C   0  0  0  0  0  0  0  0  0  0  0  0
   -2.4269   -0.0531    4.4873 H   0  0  0  0  0  0  0  0  0  0  0  0
   -0.9891    0.1187    5.4817 H   0  0  0  0  0  0  0  0  0  0  0  0
   -0.8575   -0.2344    3.7198 H   0  0  0  0  0  0  0  0  0  0  0  0
   -3.4785    2.2179    3.9166 H   0  0  0  0  0  0  0  0  0  0  0  0
    0.2476    6.7262    2.8784 H   0  0  0  0  0  0  0  0  0  0  0  0
    2.3147    5.3832    3.7390 H   0  0  0  0  0  0  0  0  0  0  0  0
    4.0720    3.3515    4.2943 H   0  0  0  0  0  0  0  0  0  0  0  0
    1.3070    0.1535    4.7254 H   0  0  0  0  0  0  0  0  0  0  0  0
  1  2  1  0
  1 15  1  0
  1 16  1  0
  1 17  1  0
  2 14  1  0
  2  3  1  0
  3  4  2  0
  3 18  1  0
  4  5  1  0
  5 14  2  0
  5  6  1  0
  6  7  1  0
  6  8  2  0
  7 19  1  0
  8  9  1  0
  8 20  1  0
  9 13  1  0
  9 10  2  0
 10 11  1  0
 10 21  1  0
 11 12  2  0
 12 13  1  0
 12 22  1  0
 13 14  1  0
M  END
>  <i_m_ct_stereo_status>  (339) 
1

>  <s_m_source_file>  (339) 
/var/tmp/pbs.5076255.sched01/tmpt95b3wv2/135g3gtwtb2.sdf

>  <i_m_source_file_index>  (339) 
3

>  <i_lp_mmshare_version>  (339) 
48012

>  <i_f3d_flags>  (339) 
0

>  <s_epik_input>  (339) 
bjFbY0hdbihbQ0gzXSljKGMxMiluM2MoW2NIXWMyW09IXSlbY0hdbltjSF0z

>  <s_epik_cmdline>  (339) 
J2VwaWtfcHl0aG9uJywgJy1waHQnLCAnMi4wJywgJy1waCcsICc3LjAnLCAnLXRuJywgJzgnLCAnLW1hJywgJzIwMCcsICctaW1hZScsICc8aW5maWxlLm1hZT4nLCAnLW9tYWUnLCAnPG91dGZpbGUubWFlPic=

>  <r_epik_Ionization_Penalty>  (339) 
0.12911

>  <r_epik_Ionization_Penalty_Charging>  (339) 
0.00844743

>  <r_epik_Ionization_Penalty_Neutral>  (339) 
0.120662

>  <r_epik_State_Penalty>  (339) 
0.0766055

>  <r_epik_Charging_Adjusted_Penalty>  (339) 
0.0850529

>  <i_epik_Tot_Q>  (339) 
0

>  <i_epik_Tot_abs_Q>  (339) 
0

>  <s_lp_Force_Field>  (339) 
OPLS3e

>  <r_lp_Energy>  (339) 
14.1422

>  <b_lp_Chiralities_Consistent>  (339) 
1

>  <s_lp_Variant>  (339) 
92:0-1

>  <s_i_glide_gridfile>  (339) 
pfpi4k_grid

>  <i_i_glide_lignum>  (339) 
3

>  <i_i_glide_rotatable_bonds>  (339) 
1

>  <r_i_docking_score>  (339) 
-4.19587

>  <r_i_glide_ligand_efficiency>  (339) 
-0.299705

>  <r_i_glide_ligand_efficiency_sa>  (339) 
-0.722331

>  <r_i_glide_ligand_efficiency_ln>  (339) 
-1.15301

>  <r_i_glide_gscore>  (339) 
-4.19587

>  <r_i_glide_lipo>  (339) 
0

>  <r_i_glide_hbond>  (339) 
-0.149347

>  <r_i_glide_metal>  (339) 
-0

>  <r_i_glide_rewards>  (339) 
-2.126

>  <r_i_glide_evdw>  (339) 
-12.15

>  <r_i_glide_ecoul>  (339) 
-8.04725

>  <r_i_glide_erotb>  (339) 
0

>  <r_i_glide_esite>  (339) 
-0.105929

>  <r_i_glide_emodel>  (339) 
-26.036

>  <r_i_glide_energy>  (339) 
-20.1972

>  <r_i_glide_einternal>  (339) 
0.858135

>  <r_i_glide_intrahb_reward>  (339) 
-0

>  <i_i_glide_confnum>  (339) 
1

>  <i_i_glide_posenum>  (339) 
3

>  <r_i_glide_eff_state_penalty>  (339) 
0

>  <ligand_id>  (339) 
92

>  <original_smiles>  (339) 
Cn1cnc2c(O)cc3cncn3c21

>  <smiles>  (339) 
[H]Oc1c([H])c2c([H])nc([H])n2c2c1nc([H])n2C([H])([H])[H]

$$$$
92:0:2
     RDKit          3D

 22 24  0  0  1  0  0  0  0  0999 V2000
    5.4791   -0.1470    0.7066 C   0  0  0  0  0  0  0  0  0  0  0  0
    4.7204   -1.3607    0.8459 N   0  0  0  0  0  0  0  0  0  0  0  0
    4.5114   -2.1532    1.9290 C   0  0  0  0  0  0  0  0  0  0  0  0
    3.7276   -3.2312    1.7347 N   0  0  0  0  0  0  0  0  0  0  0  0
    3.4028   -3.0744    0.3892 C   0  0  0  0  0  0  0  0  0  0  0  0
    2.5976   -3.8834   -0.4439 C   0  0  0  0  0  0  0  0  0  0  0  0
    2.0793   -5.0426    0.0568 O   0  0  0  0  0  0  0  0  0  0  0  0
    2.3537   -3.4935   -1.7849 C   0  0  0  0  0  0  0  0  0  0  0  0
    3.0480   -2.3558   -2.2105 C   0  0  0  0  0  0  0  0  0  0  0  0
    3.0135   -1.8944   -3.5035 C   0  0  0  0  0  0  0  0  0  0  0  0
    3.8494   -0.7622   -3.5419 N   0  0  0  0  0  0  0  0  0  0  0  0
    4.3165   -0.6366   -2.2853 C   0  0  0  0  0  0  0  0  0  0  0  0
    3.8436   -1.5816   -1.4934 N   0  0  0  0  0  0  0  0  0  0  0  0
    4.0225   -1.9206   -0.1509 C   0  0  0  0  0  0  0  0  0  0  0  0
    5.9324    0.0674    1.6703 H   0  0  0  0  0  0  0  0  0  0  0  0
    4.8115    0.6812    0.4790 H   0  0  0  0  0  0  0  0  0  0  0  0
    6.2878   -0.2593   -0.0190 H   0  0  0  0  0  0  0  0  0  0  0  0
    4.9576   -1.9218    2.8871 H   0  0  0  0  0  0  0  0  0  0  0  0
    1.9780   -5.7039   -0.6063 H   0  0  0  0  0  0  0  0  0  0  0  0
    1.7760   -4.0773   -2.4876 H   0  0  0  0  0  0  0  0  0  0  0  0
    2.4563   -2.3064   -4.3383 H   0  0  0  0  0  0  0  0  0  0  0  0
    4.9850    0.1374   -1.9550 H   0  0  0  0  0  0  0  0  0  0  0  0
  1  2  1  0
  1 15  1  0
  1 16  1  0
  1 17  1  0
  2 14  1  0
  2  3  1  0
  3  4  2  0
  3 18  1  0
  4  5  1  0
  5 14  2  0
  5  6  1  0
  6  7  1  0
  6  8  2  0
  7 19  1  0
  8  9  1  0
  8 20  1  0
  9 13  1  0
  9 10  2  0
 10 11  1  0
 10 21  1  0
 11 12  2  0
 12 13  1  0
 12 22  1  0
 13 14  1  0
M  END
>  <i_m_ct_stereo_status>  (340) 
1

>  <s_m_source_file>  (340) 
/var/tmp/pbs.5076255.sched01/tmpt95b3wv2/135g3gtwtb2.sdf

>  <i_m_source_file_index>  (340) 
3

>  <i_lp_mmshare_version>  (340) 
48012

>  <i_f3d_flags>  (340) 
0

>  <s_epik_input>  (340) 
bjFbY0hdbihbQ0gzXSljKGMxMiluM2MoW2NIXWMyW09IXSlbY0hdbltjSF0z

>  <s_epik_cmdline>  (340) 
J2VwaWtfcHl0aG9uJywgJy1waHQnLCAnMi4wJywgJy1waCcsICc3LjAnLCAnLXRuJywgJzgnLCAnLW1hJywgJzIwMCcsICctaW1hZScsICc8aW5maWxlLm1hZT4nLCAnLW9tYWUnLCAnPG91dGZpbGUubWFlPic=

>  <r_epik_Ionization_Penalty>  (340) 
0.12911

>  <r_epik_Ionization_Penalty_Charging>  (340) 
0.00844743

>  <r_epik_Ionization_Penalty_Neutral>  (340) 
0.120662

>  <r_epik_State_Penalty>  (340) 
0.0766055

>  <r_epik_Charging_Adjusted_Penalty>  (340) 
0.0850529

>  <i_epik_Tot_Q>  (340) 
0

>  <i_epik_Tot_abs_Q>  (340) 
0

>  <s_lp_Force_Field>  (340) 
OPLS3e

>  <r_lp_Energy>  (340) 
14.1422

>  <b_lp_Chiralities_Consistent>  (340) 
1

>  <s_lp_Variant>  (340) 
92:0-1

>  <s_i_glide_gridfile>  (340) 
pfpi4k_grid

>  <i_i_glide_lignum>  (340) 
3

>  <i_i_glide_rotatable_bonds>  (340) 
1

>  <r_i_docking_score>  (340) 
-4.19543

>  <r_i_glide_ligand_efficiency>  (340) 
-0.299674

>  <r_i_glide_ligand_efficiency_sa>  (340) 
-0.722256

>  <r_i_glide_ligand_efficiency_ln>  (340) 
-1.15289

>  <r_i_glide_gscore>  (340) 
-4.19543

>  <r_i_glide_lipo>  (340) 
-0.436643

>  <r_i_glide_hbond>  (340) 
-0.141004

>  <r_i_glide_metal>  (340) 
-0

>  <r_i_glide_rewards>  (340) 
-2.19358

>  <r_i_glide_evdw>  (340) 
-17.6575

>  <r_i_glide_ecoul>  (340) 
-2.97588

>  <r_i_glide_erotb>  (340) 
0

>  <r_i_glide_esite>  (340) 
-0.0949493

>  <r_i_glide_emodel>  (340) 
-26.3666

>  <r_i_glide_energy>  (340) 
-20.6333

>  <r_i_glide_einternal>  (340) 
0.992979

>  <r_i_glide_intrahb_reward>  (340) 
-0

>  <i_i_glide_confnum>  (340) 
2

>  <i_i_glide_posenum>  (340) 
32

>  <r_i_glide_eff_state_penalty>  (340) 
0

>  <ligand_id>  (340) 
92

>  <original_smiles>  (340) 
Cn1cnc2c(O)cc3cncn3c21

>  <smiles>  (340) 
[H]Oc1c([H])c2c([H])nc([H])n2c2c1nc([H])n2C([H])([H])[H]

$$$$
92:1:0
     RDKit          3D

 21 23  0  0  1  0  0  0  0  0999 V2000
    1.9220   -3.1007   -2.8380 C   0  0  0  0  0  0  0  0  0  0  0  0
    3.1679   -2.5045   -2.3977 N   0  0  0  0  0  0  0  0  0  0  0  0
    3.9128   -1.5143   -2.9549 C   0  0  0  0  0  0  0  0  0  0  0  0
    5.0307   -1.1657   -2.2886 N   0  0  0  0  0  0  0  0  0  0  0  0
    4.9949   -2.0506   -1.2095 C   0  0  0  0  0  0  0  0  0  0  0  0
    5.9038   -2.2421   -0.1239 C   0  0  0  0  0  0  0  0  0  0  0  0
    7.0783   -1.5402   -0.0410 O   0  0  0  0  0  0  0  0  0  0  0  0
    5.6198   -3.1832    0.8890 C   0  0  0  0  0  0  0  0  0  0  0  0
    4.4205   -3.9028    0.6967 C   0  0  0  0  0  0  0  0  0  0  0  0
    3.9832   -4.8651    1.5643 C   0  0  0  0  0  0  0  0  0  0  0  0
    2.7538   -5.3537    1.0437 N   0  0  0  0  0  0  0  0  0  0  0  0
    2.5595   -4.6639   -0.0922 C   0  0  0  0  0  0  0  0  0  0  0  0
    3.5465   -3.7967   -0.3012 N   0  0  0  0  0  0  0  0  0  0  0  0
    3.8258   -2.8599   -1.2802 C   0  0  0  0  0  0  0  0  0  0  0  0
    1.6161   -2.6211   -3.7751 H   0  0  0  0  0  0  0  0  0  0  0  0
    1.1290   -2.9456   -2.1018 H   0  0  0  0  0  0  0  0  0  0  0  0
    2.0462   -4.1634   -3.0548 H   0  0  0  0  0  0  0  0  0  0  0  0
    3.6302   -1.0377   -3.8902 H   0  0  0  0  0  0  0  0  0  0  0  0
    6.2662   -3.3464    1.7383 H   0  0  0  0  0  0  0  0  0  0  0  0
    4.4646   -5.2121    2.4809 H   0  0  0  0  0  0  0  0  0  0  0  0
    1.7077   -4.8127   -0.7487 H   0  0  0  0  0  0  0  0  0  0  0  0
  1  2  1  0
  1 15  1  0
  1 16  1  0
  1 17  1  0
  2 14  1  0
  2  3  1  0
  3  4  2  0
  3 18  1  0
  4  5  1  0
  5 14  2  0
  5  6  1  0
  6  7  1  0
  6  8  2  0
  8  9  1  0
  8 19  1  0
  9 13  1  0
  9 10  2  0
 10 11  1  0
 10 20  1  0
 11 12  2  0
 12 13  1  0
 12 21  1  0
 13 14  1  0
M  CHG  1   7  -1
M  END
>  <i_m_ct_stereo_status>  (341) 
1

>  <s_m_source_file>  (341) 
/var/tmp/pbs.5076255.sched01/tmpt95b3wv2/135g3gtwtb2.sdf

>  <i_m_source_file_index>  (341) 
4

>  <i_lp_mmshare_version>  (341) 
48012

>  <i_f3d_flags>  (341) 
0

>  <s_epik_input>  (341) 
bjFbY0hdbihbQ0gzXSljKGMxMiluM2MoW2NIXWMyW09IXSlbY0hdbltjSF0z

>  <s_epik_cmdline>  (341) 
J2VwaWtfcHl0aG9uJywgJy1waHQnLCAnMi4wJywgJy1waCcsICc3LjAnLCAnLXRuJywgJzgnLCAnLW1hJywgJzIwMCcsICctaW1hZScsICc8aW5maWxlLm1hZT4nLCAnLW9tYWUnLCAnPG91dGZpbGUubWFlPic=

>  <r_epik_Ionization_Penalty>  (341) 
1.4896

>  <r_epik_Ionization_Penalty_Charging>  (341) 
1.44

>  <r_epik_Ionization_Penalty_Neutral>  (341) 
0.0496045

>  <r_epik_State_Penalty>  (341) 
1.72838

>  <r_epik_Charging_Adjusted_Penalty>  (341) 
3.16838

>  <i_epik_Tot_Q>  (341) 
-1

>  <i_epik_Tot_abs_Q>  (341) 
1

>  <s_lp_Force_Field>  (341) 
OPLS3e

>  <r_lp_Energy>  (341) 
16.6834

>  <b_lp_Chiralities_Consistent>  (341) 
1

>  <s_lp_Variant>  (341) 
92:0-2

>  <s_i_glide_gridfile>  (341) 
pfpi4k_grid

>  <i_i_glide_lignum>  (341) 
4

>  <i_i_glide_rotatable_bonds>  (341) 
0

>  <r_i_docking_score>  (341) 
-3.80213

>  <r_i_glide_ligand_efficiency>  (341) 
-0.271581

>  <r_i_glide_ligand_efficiency_sa>  (341) 
-0.654548

>  <r_i_glide_ligand_efficiency_ln>  (341) 
-1.04481

>  <r_i_glide_gscore>  (341) 
-3.80213

>  <r_i_glide_lipo>  (341) 
-0.244671

>  <r_i_glide_hbond>  (341) 
-0.141737

>  <r_i_glide_metal>  (341) 
-0

>  <r_i_glide_rewards>  (341) 
-2.13288

>  <r_i_glide_evdw>  (341) 
-17.3218

>  <r_i_glide_ecoul>  (341) 
-1.9798

>  <r_i_glide_erotb>  (341) 
0

>  <r_i_glide_esite>  (341) 
-0.119787

>  <r_i_glide_emodel>  (341) 
-27.6394

>  <r_i_glide_energy>  (341) 
-19.3016

>  <r_i_glide_einternal>  (341) 
0

>  <r_i_glide_intrahb_reward>  (341) 
-0

>  <i_i_glide_confnum>  (341) 
2

>  <i_i_glide_posenum>  (341) 
9

>  <r_i_glide_eff_state_penalty>  (341) 
0

>  <ligand_id>  (341) 
92

>  <original_smiles>  (341) 
Cn1cnc2c(O)cc3cncn3c21

>  <smiles>  (341) 
[H]c1nc([H])n2c1c([H])c([O-])c1nc([H])n(C([H])([H])[H])c12

$$$$
92:1:1
     RDKit          3D

 21 23  0  0  1  0  0  0  0  0999 V2000
    0.4200    4.0440    8.3968 C   0  0  0  0  0  0  0  0  0  0  0  0
   -0.0540    2.7337    8.0213 N   0  0  0  0  0  0  0  0  0  0  0  0
   -0.0898    1.5632    8.7230 C   0  0  0  0  0  0  0  0  0  0  0  0
   -0.5885    0.4920    8.0813 N   0  0  0  0  0  0  0  0  0  0  0  0
   -0.9096    1.0447    6.8359 C   0  0  0  0  0  0  0  0  0  0  0  0
   -1.4904    0.4347    5.6793 C   0  0  0  0  0  0  0  0  0  0  0  0
   -1.8606   -0.8912    5.6778 O   0  0  0  0  0  0  0  0  0  0  0  0
   -1.7044    1.2357    4.5259 C   0  0  0  0  0  0  0  0  0  0  0  0
   -1.3180    2.5860    4.6428 C   0  0  0  0  0  0  0  0  0  0  0  0
   -1.4712    3.4883    3.6187 C   0  0  0  0  0  0  0  0  0  0  0  0
   -1.0003    4.7279    4.1163 N   0  0  0  0  0  0  0  0  0  0  0  0
   -0.5660    4.4922    5.3716 C   0  0  0  0  0  0  0  0  0  0  0  0
   -0.7735    3.2158    5.6927 N   0  0  0  0  0  0  0  0  0  0  0  0
   -0.5645    2.4357    6.8230 C   0  0  0  0  0  0  0  0  0  0  0  0
    0.7817    3.9847    9.4228 H   0  0  0  0  0  0  0  0  0  0  0  0
   -0.3896    4.7792    8.3828 H   0  0  0  0  0  0  0  0  0  0  0  0
    1.2656    4.3541    7.7755 H   0  0  0  0  0  0  0  0  0  0  0  0
    0.2660    1.5032    9.7422 H   0  0  0  0  0  0  0  0  0  0  0  0
   -2.1520    0.8293    3.6213 H   0  0  0  0  0  0  0  0  0  0  0  0
   -1.8665    3.3379    2.6100 H   0  0  0  0  0  0  0  0  0  0  0  0
   -0.1346    5.2307    6.0280 H   0  0  0  0  0  0  0  0  0  0  0  0
  1  2  1  0
  1 15  1  0
  1 16  1  0
  1 17  1  0
  2 14  1  0
  2  3  1  0
  3  4  2  0
  3 18  1  0
  4  5  1  0
  5 14  2  0
  5  6  1  0
  6  7  1  0
  6  8  2  0
  8  9  1  0
  8 19  1  0
  9 13  1  0
  9 10  2  0
 10 11  1  0
 10 20  1  0
 11 12  2  0
 12 13  1  0
 12 21  1  0
 13 14  1  0
M  CHG  1   7  -1
M  END
>  <i_m_ct_stereo_status>  (342) 
1

>  <s_m_source_file>  (342) 
/var/tmp/pbs.5076255.sched01/tmpt95b3wv2/135g3gtwtb2.sdf

>  <i_m_source_file_index>  (342) 
4

>  <i_lp_mmshare_version>  (342) 
48012

>  <i_f3d_flags>  (342) 
0

>  <s_epik_input>  (342) 
bjFbY0hdbihbQ0gzXSljKGMxMiluM2MoW2NIXWMyW09IXSlbY0hdbltjSF0z

>  <s_epik_cmdline>  (342) 
J2VwaWtfcHl0aG9uJywgJy1waHQnLCAnMi4wJywgJy1waCcsICc3LjAnLCAnLXRuJywgJzgnLCAnLW1hJywgJzIwMCcsICctaW1hZScsICc8aW5maWxlLm1hZT4nLCAnLW9tYWUnLCAnPG91dGZpbGUubWFlPic=

>  <r_epik_Ionization_Penalty>  (342) 
1.4896

>  <r_epik_Ionization_Penalty_Charging>  (342) 
1.44

>  <r_epik_Ionization_Penalty_Neutral>  (342) 
0.0496045

>  <r_epik_State_Penalty>  (342) 
1.72838

>  <r_epik_Charging_Adjusted_Penalty>  (342) 
3.16838

>  <i_epik_Tot_Q>  (342) 
-1

>  <i_epik_Tot_abs_Q>  (342) 
1

>  <s_lp_Force_Field>  (342) 
OPLS3e

>  <r_lp_Energy>  (342) 
16.6834

>  <b_lp_Chiralities_Consistent>  (342) 
1

>  <s_lp_Variant>  (342) 
92:0-2

>  <s_i_glide_gridfile>  (342) 
pfpi4k_grid

>  <i_i_glide_lignum>  (342) 
4

>  <i_i_glide_rotatable_bonds>  (342) 
0

>  <r_i_docking_score>  (342) 
-3.64494

>  <r_i_glide_ligand_efficiency>  (342) 
-0.260353

>  <r_i_glide_ligand_efficiency_sa>  (342) 
-0.627488

>  <r_i_glide_ligand_efficiency_ln>  (342) 
-1.00162

>  <r_i_glide_gscore>  (342) 
-3.64494

>  <r_i_glide_lipo>  (342) 
0

>  <r_i_glide_hbond>  (342) 
-0.150299

>  <r_i_glide_metal>  (342) 
-0

>  <r_i_glide_rewards>  (342) 
-2.13288

>  <r_i_glide_evdw>  (342) 
-9.84795

>  <r_i_glide_ecoul>  (342) 
-5.46941

>  <r_i_glide_erotb>  (342) 
0

>  <r_i_glide_esite>  (342) 
-0.0489564

>  <r_i_glide_emodel>  (342) 
-23.311

>  <r_i_glide_energy>  (342) 
-15.3174

>  <r_i_glide_einternal>  (342) 
0

>  <r_i_glide_intrahb_reward>  (342) 
-0

>  <i_i_glide_confnum>  (342) 
1

>  <i_i_glide_posenum>  (342) 
2

>  <r_i_glide_eff_state_penalty>  (342) 
0

>  <ligand_id>  (342) 
92

>  <original_smiles>  (342) 
Cn1cnc2c(O)cc3cncn3c21

>  <smiles>  (342) 
[H]c1nc([H])n2c1c([H])c([O-])c1nc([H])n(C([H])([H])[H])c12

$$$$
92:1:2
     RDKit          3D

 21 23  0  0  1  0  0  0  0  0999 V2000
    6.0238   -0.8273    1.0792 C   0  0  0  0  0  0  0  0  0  0  0  0
    5.1354   -1.9447    1.3039 N   0  0  0  0  0  0  0  0  0  0  0  0
    4.9258   -2.7387    2.3863 C   0  0  0  0  0  0  0  0  0  0  0  0
    4.0057   -3.7177    2.2600 N   0  0  0  0  0  0  0  0  0  0  0  0
    3.5845   -3.5253    0.9453 C   0  0  0  0  0  0  0  0  0  0  0  0
    2.6104   -4.2464    0.1805 C   0  0  0  0  0  0  0  0  0  0  0  0
    1.9078   -5.3217    0.6860 O   0  0  0  0  0  0  0  0  0  0  0  0
    2.3440   -3.7942   -1.1353 C   0  0  0  0  0  0  0  0  0  0  0  0
    3.1236   -2.7077   -1.5900 C   0  0  0  0  0  0  0  0  0  0  0  0
    3.0165   -2.2131   -2.8652 C   0  0  0  0  0  0  0  0  0  0  0  0
    3.9523   -1.1508   -2.9631 N   0  0  0  0  0  0  0  0  0  0  0  0
    4.5406   -1.0551   -1.7505 C   0  0  0  0  0  0  0  0  0  0  0  0
    4.0564   -2.0005   -0.9363 N   0  0  0  0  0  0  0  0  0  0  0  0
    4.2934   -2.4105    0.3712 C   0  0  0  0  0  0  0  0  0  0  0  0
    6.5770   -0.6759    1.9989 H   0  0  0  0  0  0  0  0  0  0  0  0
    5.4706    0.0963    0.8779 H   0  0  0  0  0  0  0  0  0  0  0  0
    6.7609   -1.0484    0.3014 H   0  0  0  0  0  0  0  0  0  0  0  0
    5.4719   -2.5930    3.3029 H   0  0  0  0  0  0  0  0  0  0  0  0
    1.6123   -4.2738   -1.7963 H   0  0  0  0  0  0  0  0  0  0  0  0
    2.3464   -2.5387   -3.6629 H   0  0  0  0  0  0  0  0  0  0  0  0
    5.2937   -0.3245   -1.4720 H   0  0  0  0  0  0  0  0  0  0  0  0
  1  2  1  0
  1 15  1  0
  1 16  1  0
  1 17  1  0
  2 14  1  0
  2  3  1  0
  3  4  2  0
  3 18  1  0
  4  5  1  0
  5 14  2  0
  5  6  1  0
  6  7  1  0
  6  8  2  0
  8  9  1  0
  8 19  1  0
  9 13  1  0
  9 10  2  0
 10 11  1  0
 10 20  1  0
 11 12  2  0
 12 13  1  0
 12 21  1  0
 13 14  1  0
M  CHG  1   7  -1
M  END
>  <i_m_ct_stereo_status>  (343) 
1

>  <s_m_source_file>  (343) 
/var/tmp/pbs.5076255.sched01/tmpt95b3wv2/135g3gtwtb2.sdf

>  <i_m_source_file_index>  (343) 
4

>  <i_lp_mmshare_version>  (343) 
48012

>  <i_f3d_flags>  (343) 
0

>  <s_epik_input>  (343) 
bjFbY0hdbihbQ0gzXSljKGMxMiluM2MoW2NIXWMyW09IXSlbY0hdbltjSF0z

>  <s_epik_cmdline>  (343) 
J2VwaWtfcHl0aG9uJywgJy1waHQnLCAnMi4wJywgJy1waCcsICc3LjAnLCAnLXRuJywgJzgnLCAnLW1hJywgJzIwMCcsICctaW1hZScsICc8aW5maWxlLm1hZT4nLCAnLW9tYWUnLCAnPG91dGZpbGUubWFlPic=

>  <r_epik_Ionization_Penalty>  (343) 
1.4896

>  <r_epik_Ionization_Penalty_Charging>  (343) 
1.44

>  <r_epik_Ionization_Penalty_Neutral>  (343) 
0.0496045

>  <r_epik_State_Penalty>  (343) 
1.72838

>  <r_epik_Charging_Adjusted_Penalty>  (343) 
3.16838

>  <i_epik_Tot_Q>  (343) 
-1

>  <i_epik_Tot_abs_Q>  (343) 
1

>  <s_lp_Force_Field>  (343) 
OPLS3e

>  <r_lp_Energy>  (343) 
16.6834

>  <b_lp_Chiralities_Consistent>  (343) 
1

>  <s_lp_Variant>  (343) 
92:0-2

>  <s_i_glide_gridfile>  (343) 
pfpi4k_grid

>  <i_i_glide_lignum>  (343) 
4

>  <i_i_glide_rotatable_bonds>  (343) 
0

>  <r_i_docking_score>  (343) 
-3.41301

>  <r_i_glide_ligand_efficiency>  (343) 
-0.243787

>  <r_i_glide_ligand_efficiency_sa>  (343) 
-0.587561

>  <r_i_glide_ligand_efficiency_ln>  (343) 
-0.937884

>  <r_i_glide_gscore>  (343) 
-3.41301

>  <r_i_glide_lipo>  (343) 
-0.101021

>  <r_i_glide_hbond>  (343) 
-0.1027

>  <r_i_glide_metal>  (343) 
-0

>  <r_i_glide_rewards>  (343) 
-2.28073

>  <r_i_glide_evdw>  (343) 
-17.1623

>  <r_i_glide_ecoul>  (343) 
0.093414

>  <r_i_glide_erotb>  (343) 
0

>  <r_i_glide_esite>  (343) 
-0.0844609

>  <r_i_glide_emodel>  (343) 
-24.5446

>  <r_i_glide_energy>  (343) 
-17.0689

>  <r_i_glide_einternal>  (343) 
0

>  <r_i_glide_intrahb_reward>  (343) 
-0

>  <i_i_glide_confnum>  (343) 
1

>  <i_i_glide_posenum>  (343) 
27

>  <r_i_glide_eff_state_penalty>  (343) 
0

>  <ligand_id>  (343) 
92

>  <original_smiles>  (343) 
Cn1cnc2c(O)cc3cncn3c21

>  <smiles>  (343) 
[H]c1nc([H])n2c1c([H])c([O-])c1nc([H])n(C([H])([H])[H])c12

$$$$
92:2:0
     RDKit          3D

 23 25  0  0  1  0  0  0  0  0999 V2000
    0.6126   -1.1011    3.5944 C   0  0  0  0  0  0  0  0  0  0  0  0
    0.3356    0.2762    3.2333 N   0  0  0  0  0  0  0  0  0  0  0  0
    0.5224    0.8416    2.0249 C   0  0  0  0  0  0  0  0  0  0  0  0
    0.1538    2.1479    2.0817 N   0  0  0  0  0  0  0  0  0  0  0  0
   -0.2717    2.3680    3.3675 C   0  0  0  0  0  0  0  0  0  0  0  0
   -0.7702    3.5186    3.9972 C   0  0  0  0  0  0  0  0  0  0  0  0
   -0.9167    4.6842    3.2755 O   0  0  0  0  0  0  0  0  0  0  0  0
   -1.1322    3.4639    5.3696 C   0  0  0  0  0  0  0  0  0  0  0  0
   -0.9543    2.1991    5.9822 C   0  0  0  0  0  0  0  0  0  0  0  0
   -1.2537    1.9545    7.2953 C   0  0  0  0  0  0  0  0  0  0  0  0
   -0.9613    0.5863    7.4958 N   0  0  0  0  0  0  0  0  0  0  0  0
   -0.4743    0.0994    6.3358 C   0  0  0  0  0  0  0  0  0  0  0  0
   -0.4957    1.0829    5.4334 N   0  0  0  0  0  0  0  0  0  0  0  0
   -0.1497    1.1779    4.0939 C   0  0  0  0  0  0  0  0  0  0  0  0
    0.9906   -1.5926    2.7123 H   0  0  0  0  0  0  0  0  0  0  0  0
   -0.2925   -1.6236    3.8917 H   0  0  0  0  0  0  0  0  0  0  0  0
    1.3873   -1.1609    4.3538 H   0  0  0  0  0  0  0  0  0  0  0  0
    0.8862    0.3420    1.1450 H   0  0  0  0  0  0  0  0  0  0  0  0
   -0.5823    4.6658    2.3807 H   0  0  0  0  0  0  0  0  0  0  0  0
   -1.5079    4.3077    5.9385 H   0  0  0  0  0  0  0  0  0  0  0  0
   -1.6412    2.6237    8.0614 H   0  0  0  0  0  0  0  0  0  0  0  0
   -0.1343   -0.9222    6.1347 H   0  0  0  0  0  0  0  0  0  0  0  0
    0.2164    2.8460    1.3384 H   0  0  0  0  0  0  0  0  0  0  0  0
  1  2  1  0
  1 15  1  0
  1 16  1  0
  1 17  1  0
  2 14  1  0
  2  3  1  0
  3  4  2  0
  3 18  1  0
  4  5  1  0
  4 23  1  0
  5 14  2  0
  5  6  1  0
  6  7  1  0
  6  8  2  0
  7 19  1  0
  8  9  1  0
  8 20  1  0
  9 13  1  0
  9 10  2  0
 10 11  1  0
 10 21  1  0
 11 12  2  0
 12 13  1  0
 12 22  1  0
 13 14  1  0
M  CHG  1   4   1
M  END
>  <i_m_ct_stereo_status>  (344) 
1

>  <s_m_source_file>  (344) 
/var/tmp/pbs.5076255.sched01/tmpt95b3wv2/135g3gtwtb2.sdf

>  <i_m_source_file_index>  (344) 
5

>  <i_lp_mmshare_version>  (344) 
48012

>  <i_f3d_flags>  (344) 
0

>  <s_epik_input>  (344) 
bjFbY0hdbihbQ0gzXSljKGMxMiluM2MoW2NIXWMyW09IXSlbY0hdbltjSF0z

>  <s_epik_cmdline>  (344) 
J2VwaWtfcHl0aG9uJywgJy1waHQnLCAnMi4wJywgJy1waCcsICc3LjAnLCAnLXRuJywgJzgnLCAnLW1hJywgJzIwMCcsICctaW1hZScsICc8aW5maWxlLm1hZT4nLCAnLW9tYWUnLCAnPG91dGZpbGUubWFlPic=

>  <r_epik_Ionization_Penalty>  (344) 
2.59121

>  <r_epik_Ionization_Penalty_Charging>  (344) 
0

>  <r_epik_Ionization_Penalty_Neutral>  (344) 
2.59121

>  <r_epik_State_Penalty>  (344) 
1.98995

>  <r_epik_Charging_Adjusted_Penalty>  (344) 
1.98995

>  <i_epik_Tot_Q>  (344) 
1

>  <i_epik_Tot_abs_Q>  (344) 
1

>  <s_lp_Force_Field>  (344) 
OPLS3e

>  <r_lp_Energy>  (344) 
20.3254

>  <b_lp_Chiralities_Consistent>  (344) 
1

>  <s_lp_Variant>  (344) 
92:0-3

>  <s_i_glide_gridfile>  (344) 
pfpi4k_grid

>  <i_i_glide_lignum>  (344) 
5

>  <i_i_glide_rotatable_bonds>  (344) 
1

>  <r_i_docking_score>  (344) 
-5.55624

>  <r_i_glide_ligand_efficiency>  (344) 
-0.396874

>  <r_i_glide_ligand_efficiency_sa>  (344) 
-0.956524

>  <r_i_glide_ligand_efficiency_ln>  (344) 
-1.52684

>  <r_i_glide_gscore>  (344) 
-5.55624

>  <r_i_glide_lipo>  (344) 
0

>  <r_i_glide_hbond>  (344) 
-0.511061

>  <r_i_glide_metal>  (344) 
-0

>  <r_i_glide_rewards>  (344) 
-2.11913

>  <r_i_glide_evdw>  (344) 
-11.0191

>  <r_i_glide_ecoul>  (344) 
-14.1026

>  <r_i_glide_erotb>  (344) 
0

>  <r_i_glide_esite>  (344) 
-0.259694

>  <r_i_glide_emodel>  (344) 
-38.9896

>  <r_i_glide_energy>  (344) 
-25.1218

>  <r_i_glide_einternal>  (344) 
0.00607232

>  <r_i_glide_intrahb_reward>  (344) 
-0

>  <i_i_glide_confnum>  (344) 
1

>  <i_i_glide_posenum>  (344) 
23

>  <r_i_glide_eff_state_penalty>  (344) 
0

>  <ligand_id>  (344) 
92

>  <original_smiles>  (344) 
Cn1cnc2c(O)cc3cncn3c21

>  <smiles>  (344) 
[H]Oc1c([H])c2c([H])nc([H])n2c2c1[n+]([H])c([H])n2C([H])([H])[H]

$$$$
92:2:1
     RDKit          3D

 23 25  0  0  1  0  0  0  0  0999 V2000
    1.2482    6.1722    4.7019 C   0  0  0  0  0  0  0  0  0  0  0  0
    1.7222    5.0300    3.9125 N   0  0  0  0  0  0  0  0  0  0  0  0
    2.9318    4.9357    3.3092 C   0  0  0  0  0  0  0  0  0  0  0  0
    3.0170    3.7393    2.6727 N   0  0  0  0  0  0  0  0  0  0  0  0
    1.8131    3.0958    2.8795 C   0  0  0  0  0  0  0  0  0  0  0  0
    1.3148    1.8512    2.4610 C   0  0  0  0  0  0  0  0  0  0  0  0
    2.0966    1.0409    1.6898 O   0  0  0  0  0  0  0  0  0  0  0  0
   -0.0006    1.4535    2.8406 C   0  0  0  0  0  0  0  0  0  0  0  0
   -0.7147    2.3972    3.6324 C   0  0  0  0  0  0  0  0  0  0  0  0
   -1.9819    2.2063    4.1049 C   0  0  0  0  0  0  0  0  0  0  0  0
   -2.3139    3.3668    4.8482 N   0  0  0  0  0  0  0  0  0  0  0  0
   -1.2323    4.1509    4.7776 C   0  0  0  0  0  0  0  0  0  0  0  0
   -0.2809    3.5723    4.0488 N   0  0  0  0  0  0  0  0  0  0  0  0
    0.9970    3.9302    3.6748 C   0  0  0  0  0  0  0  0  0  0  0  0
    2.0456    6.9171    4.7323 H   0  0  0  0  0  0  0  0  0  0  0  0
    1.0312    5.8661    5.7314 H   0  0  0  0  0  0  0  0  0  0  0  0
    0.3797    6.6311    4.2203 H   0  0  0  0  0  0  0  0  0  0  0  0
    3.7050    5.6766    3.3479 H   0  0  0  0  0  0  0  0  0  0  0  0
    1.6315    0.3673    1.2070 H   0  0  0  0  0  0  0  0  0  0  0  0
   -0.4469    0.5224    2.5536 H   0  0  0  0  0  0  0  0  0  0  0  0
   -2.6051    1.3303    3.9937 H   0  0  0  0  0  0  0  0  0  0  0  0
   -1.1555    5.1253    5.2479 H   0  0  0  0  0  0  0  0  0  0  0  0
    3.8492    3.3742    2.1934 H   0  0  0  0  0  0  0  0  0  0  0  0
  1  2  1  0
  1 15  1  0
  1 16  1  0
  1 17  1  0
  2 14  1  0
  2  3  1  0
  3  4  2  0
  3 18  1  0
  4  5  1  0
  4 23  1  0
  5 14  2  0
  5  6  1  0
  6  7  1  0
  6  8  2  0
  7 19  1  0
  8  9  1  0
  8 20  1  0
  9 13  1  0
  9 10  2  0
 10 11  1  0
 10 21  1  0
 11 12  2  0
 12 13  1  0
 12 22  1  0
 13 14  1  0
M  CHG  1   4   1
M  END
>  <i_m_ct_stereo_status>  (345) 
1

>  <s_m_source_file>  (345) 
/var/tmp/pbs.5076255.sched01/tmpt95b3wv2/135g3gtwtb2.sdf

>  <i_m_source_file_index>  (345) 
5

>  <i_lp_mmshare_version>  (345) 
48012

>  <i_f3d_flags>  (345) 
0

>  <s_epik_input>  (345) 
bjFbY0hdbihbQ0gzXSljKGMxMiluM2MoW2NIXWMyW09IXSlbY0hdbltjSF0z

>  <s_epik_cmdline>  (345) 
J2VwaWtfcHl0aG9uJywgJy1waHQnLCAnMi4wJywgJy1waCcsICc3LjAnLCAnLXRuJywgJzgnLCAnLW1hJywgJzIwMCcsICctaW1hZScsICc8aW5maWxlLm1hZT4nLCAnLW9tYWUnLCAnPG91dGZpbGUubWFlPic=

>  <r_epik_Ionization_Penalty>  (345) 
2.59121

>  <r_epik_Ionization_Penalty_Charging>  (345) 
0

>  <r_epik_Ionization_Penalty_Neutral>  (345) 
2.59121

>  <r_epik_State_Penalty>  (345) 
1.98995

>  <r_epik_Charging_Adjusted_Penalty>  (345) 
1.98995

>  <i_epik_Tot_Q>  (345) 
1

>  <i_epik_Tot_abs_Q>  (345) 
1

>  <s_lp_Force_Field>  (345) 
OPLS3e

>  <r_lp_Energy>  (345) 
20.3254

>  <b_lp_Chiralities_Consistent>  (345) 
1

>  <s_lp_Variant>  (345) 
92:0-3

>  <s_i_glide_gridfile>  (345) 
pfpi4k_grid

>  <i_i_glide_lignum>  (345) 
5

>  <i_i_glide_rotatable_bonds>  (345) 
1

>  <r_i_docking_score>  (345) 
-4.4584

>  <r_i_glide_ligand_efficiency>  (345) 
-0.318457

>  <r_i_glide_ligand_efficiency_sa>  (345) 
-0.767527

>  <r_i_glide_ligand_efficiency_ln>  (345) 
-1.22515

>  <r_i_glide_gscore>  (345) 
-4.4584

>  <r_i_glide_lipo>  (345) 
0

>  <r_i_glide_hbond>  (345) 
0

>  <r_i_glide_metal>  (345) 
-0

>  <r_i_glide_rewards>  (345) 
-2.22081

>  <r_i_glide_evdw>  (345) 
-15.7862

>  <r_i_glide_ecoul>  (345) 
-7.95709

>  <r_i_glide_erotb>  (345) 
0

>  <r_i_glide_esite>  (345) 
-0.254715

>  <r_i_glide_emodel>  (345) 
-34.5261

>  <r_i_glide_energy>  (345) 
-23.7433

>  <r_i_glide_einternal>  (345) 
0.397684

>  <r_i_glide_intrahb_reward>  (345) 
-0

>  <i_i_glide_confnum>  (345) 
2

>  <i_i_glide_posenum>  (345) 
38

>  <r_i_glide_eff_state_penalty>  (345) 
0

>  <ligand_id>  (345) 
92

>  <original_smiles>  (345) 
Cn1cnc2c(O)cc3cncn3c21

>  <smiles>  (345) 
[H]Oc1c([H])c2c([H])nc([H])n2c2c1[n+]([H])c([H])n2C([H])([H])[H]

$$$$
92:2:2
     RDKit          3D

 23 25  0  0  1  0  0  0  0  0999 V2000
    0.7201    6.3937    4.4470 C   0  0  0  0  0  0  0  0  0  0  0  0
    1.4438    5.2904    3.8201 N   0  0  0  0  0  0  0  0  0  0  0  0
    2.6799    5.3627    3.2695 C   0  0  0  0  0  0  0  0  0  0  0  0
    3.0199    4.1440    2.7678 N   0  0  0  0  0  0  0  0  0  0  0  0
    1.9480    3.3111    3.0218 C   0  0  0  0  0  0  0  0  0  0  0  0
    1.7331    1.9507    2.7575 C   0  0  0  0  0  0  0  0  0  0  0  0
    2.6999    1.2079    2.1472 O   0  0  0  0  0  0  0  0  0  0  0  0
    0.5052    1.3490    3.1442 C   0  0  0  0  0  0  0  0  0  0  0  0
   -0.4236    2.1992    3.7891 C   0  0  0  0  0  0  0  0  0  0  0  0
   -1.6600    1.8093    4.2422 C   0  0  0  0  0  0  0  0  0  0  0  0
   -2.2417    2.9588    4.8372 N   0  0  0  0  0  0  0  0  0  0  0  0
   -1.3343    3.9421    4.6982 C   0  0  0  0  0  0  0  0  0  0  0  0
   -0.2533    3.4819    4.0713 N   0  0  0  0  0  0  0  0  0  0  0  0
    0.9498    4.0502    3.6846 C   0  0  0  0  0  0  0  0  0  0  0  0
    1.3511    7.2785    4.4004 H   0  0  0  0  0  0  0  0  0  0  0  0
    0.5157    6.1707    5.4973 H   0  0  0  0  0  0  0  0  0  0  0  0
   -0.1897    6.6060    3.8859 H   0  0  0  0  0  0  0  0  0  0  0  0
    3.2870    6.2458    3.2356 H   0  0  0  0  0  0  0  0  0  0  0  0
    3.5100    1.6667    1.9768 H   0  0  0  0  0  0  0  0  0  0  0  0
    0.2842    0.3102    2.9599 H   0  0  0  0  0  0  0  0  0  0  0  0
   -2.1161    0.8349    4.1857 H   0  0  0  0  0  0  0  0  0  0  0  0
   -1.4625    4.9563    5.0471 H   0  0  0  0  0  0  0  0  0  0  0  0
    3.9063    3.9040    2.3294 H   0  0  0  0  0  0  0  0  0  0  0  0
  1  2  1  0
  1 15  1  0
  1 16  1  0
  1 17  1  0
  2 14  1  0
  2  3  1  0
  3  4  2  0
  3 18  1  0
  4  5  1  0
  4 23  1  0
  5 14  2  0
  5  6  1  0
  6  7  1  0
  6  8  2  0
  7 19  1  0
  8  9  1  0
  8 20  1  0
  9 13  1  0
  9 10  2  0
 10 11  1  0
 10 21  1  0
 11 12  2  0
 12 13  1  0
 12 22  1  0
 13 14  1  0
M  CHG  1   4   1
M  END
>  <i_m_ct_stereo_status>  (346) 
1

>  <s_m_source_file>  (346) 
/var/tmp/pbs.5076255.sched01/tmpt95b3wv2/135g3gtwtb2.sdf

>  <i_m_source_file_index>  (346) 
5

>  <i_lp_mmshare_version>  (346) 
48012

>  <i_f3d_flags>  (346) 
0

>  <s_epik_input>  (346) 
bjFbY0hdbihbQ0gzXSljKGMxMiluM2MoW2NIXWMyW09IXSlbY0hdbltjSF0z

>  <s_epik_cmdline>  (346) 
J2VwaWtfcHl0aG9uJywgJy1waHQnLCAnMi4wJywgJy1waCcsICc3LjAnLCAnLXRuJywgJzgnLCAnLW1hJywgJzIwMCcsICctaW1hZScsICc8aW5maWxlLm1hZT4nLCAnLW9tYWUnLCAnPG91dGZpbGUubWFlPic=

>  <r_epik_Ionization_Penalty>  (346) 
2.59121

>  <r_epik_Ionization_Penalty_Charging>  (346) 
0

>  <r_epik_Ionization_Penalty_Neutral>  (346) 
2.59121

>  <r_epik_State_Penalty>  (346) 
1.98995

>  <r_epik_Charging_Adjusted_Penalty>  (346) 
1.98995

>  <i_epik_Tot_Q>  (346) 
1

>  <i_epik_Tot_abs_Q>  (346) 
1

>  <s_lp_Force_Field>  (346) 
OPLS3e

>  <r_lp_Energy>  (346) 
20.3254

>  <b_lp_Chiralities_Consistent>  (346) 
1

>  <s_lp_Variant>  (346) 
92:0-3

>  <s_i_glide_gridfile>  (346) 
pfpi4k_grid

>  <i_i_glide_lignum>  (346) 
5

>  <i_i_glide_rotatable_bonds>  (346) 
1

>  <r_i_docking_score>  (346) 
-4.28867

>  <r_i_glide_ligand_efficiency>  (346) 
-0.306334

>  <r_i_glide_ligand_efficiency_sa>  (346) 
-0.738308

>  <r_i_glide_ligand_efficiency_ln>  (346) 
-1.17851

>  <r_i_glide_gscore>  (346) 
-4.28867

>  <r_i_glide_lipo>  (346) 
0

>  <r_i_glide_hbond>  (346) 
-0.193725

>  <r_i_glide_metal>  (346) 
-0

>  <r_i_glide_rewards>  (346) 
-2.12454

>  <r_i_glide_evdw>  (346) 
-16.6209

>  <r_i_glide_ecoul>  (346) 
-6.03333

>  <r_i_glide_erotb>  (346) 
0

>  <r_i_glide_esite>  (346) 
-0.234362

>  <r_i_glide_emodel>  (346) 
-33.359

>  <r_i_glide_energy>  (346) 
-22.6542

>  <r_i_glide_einternal>  (346) 
0.0197078

>  <r_i_glide_intrahb_reward>  (346) 
-0

>  <i_i_glide_confnum>  (346) 
2

>  <i_i_glide_posenum>  (346) 
40

>  <r_i_glide_eff_state_penalty>  (346) 
0

>  <ligand_id>  (346) 
92

>  <original_smiles>  (346) 
Cn1cnc2c(O)cc3cncn3c21

>  <smiles>  (346) 
[H]Oc1c([H])c2c([H])nc([H])n2c2c1[n+]([H])c([H])n2C([H])([H])[H]

$$$$
92:3:0
     RDKit          3D

 23 25  0  0  1  0  0  0  0  0999 V2000
    5.2650   -1.6412    1.2679 C   0  0  0  0  0  0  0  0  0  0  0  0
    4.2346   -2.5762    0.8506 N   0  0  0  0  0  0  0  0  0  0  0  0
    3.6534   -3.5969    1.5139 C   0  0  0  0  0  0  0  0  0  0  0  0
    2.6965   -4.2852    0.8471 N   0  0  0  0  0  0  0  0  0  0  0  0
    2.7056   -3.6118   -0.3692 C   0  0  0  0  0  0  0  0  0  0  0  0
    1.9415   -3.8306   -1.5184 C   0  0  0  0  0  0  0  0  0  0  0  0
    1.0109   -4.8165   -1.5164 O   0  0  0  0  0  0  0  0  0  0  0  0
    2.1180   -3.0542   -2.6780 C   0  0  0  0  0  0  0  0  0  0  0  0
    3.0643   -2.0163   -2.6126 C   0  0  0  0  0  0  0  0  0  0  0  0
    3.3913   -1.0611   -3.5694 C   0  0  0  0  0  0  0  0  0  0  0  0
    4.3563   -0.2550   -2.9995 N   0  0  0  0  0  0  0  0  0  0  0  0
    4.5840   -0.7210   -1.7775 C   0  0  0  0  0  0  0  0  0  0  0  0
    3.8129   -1.7832   -1.5125 N   0  0  0  0  0  0  0  0  0  0  0  0
    3.6490   -2.5721   -0.3713 C   0  0  0  0  0  0  0  0  0  0  0  0
    5.5384   -1.9028    2.2863 H   0  0  0  0  0  0  0  0  0  0  0  0
    4.8933   -0.6138    1.2907 H   0  0  0  0  0  0  0  0  0  0  0  0
    6.1671   -1.7366    0.6606 H   0  0  0  0  0  0  0  0  0  0  0  0
    3.9347   -3.8487    2.5212 H   0  0  0  0  0  0  0  0  0  0  0  0
    0.6834   -4.9599   -2.4065 H   0  0  0  0  0  0  0  0  0  0  0  0
    1.5261   -3.1752   -3.5630 H   0  0  0  0  0  0  0  0  0  0  0  0
    2.9986   -0.9043   -4.5550 H   0  0  0  0  0  0  0  0  0  0  0  0
    5.2661   -0.2706   -1.0833 H   0  0  0  0  0  0  0  0  0  0  0  0
    4.7932    0.5565   -3.4322 H   0  0  0  0  0  0  0  0  0  0  0  0
  1  2  1  0
  1 15  1  0
  1 16  1  0
  1 17  1  0
  2 14  1  0
  2  3  1  0
  3  4  2  0
  3 18  1  0
  4  5  1  0
  5 14  2  0
  5  6  1  0
  6  7  1  0
  6  8  2  0
  7 19  1  0
  8  9  1  0
  8 20  1  0
  9 13  1  0
  9 10  2  0
 10 11  1  0
 10 21  1  0
 11 12  2  0
 11 23  1  0
 12 13  1  0
 12 22  1  0
 13 14  1  0
M  CHG  1  11   1
M  END
>  <i_m_ct_stereo_status>  (347) 
1

>  <s_m_source_file>  (347) 
/var/tmp/pbs.5076255.sched01/tmpt95b3wv2/135g3gtwtb2.sdf

>  <i_m_source_file_index>  (347) 
6

>  <i_lp_mmshare_version>  (347) 
48012

>  <i_f3d_flags>  (347) 
0

>  <s_epik_input>  (347) 
bjFbY0hdbihbQ0gzXSljKGMxMiluM2MoW2NIXWMyW09IXSlbY0hdbltjSF0z

>  <s_epik_cmdline>  (347) 
J2VwaWtfcHl0aG9uJywgJy1waHQnLCAnMi4wJywgJy1waCcsICc3LjAnLCAnLXRuJywgJzgnLCAnLW1hJywgJzIwMCcsICctaW1hZScsICc8aW5maWxlLm1hZT4nLCAnLW9tYWUnLCAnPG91dGZpbGUubWFlPic=

>  <r_epik_Ionization_Penalty>  (347) 
2.35823

>  <r_epik_Ionization_Penalty_Charging>  (347) 
2.125

>  <r_epik_Ionization_Penalty_Neutral>  (347) 
0.233231

>  <r_epik_State_Penalty>  (347) 
2.48563

>  <r_epik_Charging_Adjusted_Penalty>  (347) 
4.61062

>  <i_epik_Tot_Q>  (347) 
1

>  <i_epik_Tot_abs_Q>  (347) 
1

>  <s_lp_Force_Field>  (347) 
OPLS3e

>  <r_lp_Energy>  (347) 
18.2194

>  <b_lp_Chiralities_Consistent>  (347) 
1

>  <s_lp_Variant>  (347) 
92:0-4

>  <s_i_glide_gridfile>  (347) 
pfpi4k_grid

>  <i_i_glide_lignum>  (347) 
6

>  <i_i_glide_rotatable_bonds>  (347) 
1

>  <r_i_docking_score>  (347) 
-5.33859

>  <r_i_glide_ligand_efficiency>  (347) 
-0.381328

>  <r_i_glide_ligand_efficiency_sa>  (347) 
-0.919055

>  <r_i_glide_ligand_efficiency_ln>  (347) 
-1.46703

>  <r_i_glide_gscore>  (347) 
-5.33859

>  <r_i_glide_lipo>  (347) 
-0.460616

>  <r_i_glide_hbond>  (347) 
-0.54569

>  <r_i_glide_metal>  (347) 
-0

>  <r_i_glide_rewards>  (347) 
-2.12677

>  <r_i_glide_evdw>  (347) 
-9.63263

>  <r_i_glide_ecoul>  (347) 
-10.6178

>  <r_i_glide_erotb>  (347) 
0

>  <r_i_glide_esite>  (347) 
-0.131209

>  <r_i_glide_emodel>  (347) 
-30.493

>  <r_i_glide_energy>  (347) 
-20.2504

>  <r_i_glide_einternal>  (347) 
0.0644385

>  <r_i_glide_intrahb_reward>  (347) 
-0

>  <i_i_glide_confnum>  (347) 
1

>  <i_i_glide_posenum>  (347) 
27

>  <r_i_glide_eff_state_penalty>  (347) 
0

>  <ligand_id>  (347) 
92

>  <original_smiles>  (347) 
Cn1cnc2c(O)cc3cncn3c21

>  <smiles>  (347) 
[H]Oc1c([H])c2c([H])[n+]([H])c([H])n2c2c1nc([H])n2C([H])([H])[H]

$$$$
92:3:1
     RDKit          3D

 23 25  0  0  1  0  0  0  0  0999 V2000
    2.6841    4.8774    4.4475 C   0  0  0  0  0  0  0  0  0  0  0  0
    1.2611    4.6464    4.3188 N   0  0  0  0  0  0  0  0  0  0  0  0
    0.2252    5.3886    4.7681 C   0  0  0  0  0  0  0  0  0  0  0  0
   -1.0039    4.9102    4.4967 N   0  0  0  0  0  0  0  0  0  0  0  0
   -0.6955    3.7533    3.7969 C   0  0  0  0  0  0  0  0  0  0  0  0
   -1.5482    2.7934    3.2049 C   0  0  0  0  0  0  0  0  0  0  0  0
   -2.9006    2.9451    3.2947 O   0  0  0  0  0  0  0  0  0  0  0  0
   -0.9891    1.6807    2.5370 C   0  0  0  0  0  0  0  0  0  0  0  0
    0.4257    1.5731    2.4786 C   0  0  0  0  0  0  0  0  0  0  0  0
    1.2127    0.5959    1.8722 C   0  0  0  0  0  0  0  0  0  0  0  0
    2.5372    0.9626    2.0924 N   0  0  0  0  0  0  0  0  0  0  0  0
    2.5161    2.0991    2.7865 C   0  0  0  0  0  0  0  0  0  0  0  0
    1.2517    2.4787    3.0365 N   0  0  0  0  0  0  0  0  0  0  0  0
    0.7050    3.5861    3.6919 C   0  0  0  0  0  0  0  0  0  0  0  0
    2.8166    5.8078    5.0078 H   0  0  0  0  0  0  0  0  0  0  0  0
    3.1523    5.0154    3.4706 H   0  0  0  0  0  0  0  0  0  0  0  0
    3.1627    4.0804    5.0198 H   0  0  0  0  0  0  0  0  0  0  0  0
    0.3631    6.3069    5.3220 H   0  0  0  0  0  0  0  0  0  0  0  0
   -3.3814    2.2223    2.9175 H   0  0  0  0  0  0  0  0  0  0  0  0
   -1.6045    0.9280    2.0644 H   0  0  0  0  0  0  0  0  0  0  0  0
    0.9250   -0.2812    1.3005 H   0  0  0  0  0  0  0  0  0  0  0  0
    3.3965    2.6464    3.0803 H   0  0  0  0  0  0  0  0  0  0  0  0
    3.3618    0.4692    1.7702 H   0  0  0  0  0  0  0  0  0  0  0  0
  1  2  1  0
  1 15  1  0
  1 16  1  0
  1 17  1  0
  2 14  1  0
  2  3  1  0
  3  4  2  0
  3 18  1  0
  4  5  1  0
  5 14  2  0
  5  6  1  0
  6  7  1  0
  6  8  2  0
  7 19  1  0
  8  9  1  0
  8 20  1  0
  9 13  1  0
  9 10  2  0
 10 11  1  0
 10 21  1  0
 11 12  2  0
 11 23  1  0
 12 13  1  0
 12 22  1  0
 13 14  1  0
M  CHG  1  11   1
M  END
>  <i_m_ct_stereo_status>  (348) 
1

>  <s_m_source_file>  (348) 
/var/tmp/pbs.5076255.sched01/tmpt95b3wv2/135g3gtwtb2.sdf

>  <i_m_source_file_index>  (348) 
6

>  <i_lp_mmshare_version>  (348) 
48012

>  <i_f3d_flags>  (348) 
0

>  <s_epik_input>  (348) 
bjFbY0hdbihbQ0gzXSljKGMxMiluM2MoW2NIXWMyW09IXSlbY0hdbltjSF0z

>  <s_epik_cmdline>  (348) 
J2VwaWtfcHl0aG9uJywgJy1waHQnLCAnMi4wJywgJy1waCcsICc3LjAnLCAnLXRuJywgJzgnLCAnLW1hJywgJzIwMCcsICctaW1hZScsICc8aW5maWxlLm1hZT4nLCAnLW9tYWUnLCAnPG91dGZpbGUubWFlPic=

>  <r_epik_Ionization_Penalty>  (348) 
2.35823

>  <r_epik_Ionization_Penalty_Charging>  (348) 
2.125

>  <r_epik_Ionization_Penalty_Neutral>  (348) 
0.233231

>  <r_epik_State_Penalty>  (348) 
2.48563

>  <r_epik_Charging_Adjusted_Penalty>  (348) 
4.61062

>  <i_epik_Tot_Q>  (348) 
1

>  <i_epik_Tot_abs_Q>  (348) 
1

>  <s_lp_Force_Field>  (348) 
OPLS3e

>  <r_lp_Energy>  (348) 
18.2194

>  <b_lp_Chiralities_Consistent>  (348) 
1

>  <s_lp_Variant>  (348) 
92:0-4

>  <s_i_glide_gridfile>  (348) 
pfpi4k_grid

>  <i_i_glide_lignum>  (348) 
6

>  <i_i_glide_rotatable_bonds>  (348) 
1

>  <r_i_docking_score>  (348) 
-5.11175

>  <r_i_glide_ligand_efficiency>  (348) 
-0.365125

>  <r_i_glide_ligand_efficiency_sa>  (348) 
-0.880003

>  <r_i_glide_ligand_efficiency_ln>  (348) 
-1.40469

>  <r_i_glide_gscore>  (348) 
-5.11175

>  <r_i_glide_lipo>  (348) 
0

>  <r_i_glide_hbond>  (348) 
-0.359279

>  <r_i_glide_metal>  (348) 
-0

>  <r_i_glide_rewards>  (348) 
-2.11913

>  <r_i_glide_evdw>  (348) 
-15.0912

>  <r_i_glide_ecoul>  (348) 
-10.9341

>  <r_i_glide_erotb>  (348) 
0

>  <r_i_glide_esite>  (348) 
-0.238665

>  <r_i_glide_emodel>  (348) 
-35.9801

>  <r_i_glide_energy>  (348) 
-26.0253

>  <r_i_glide_einternal>  (348) 
0.00466773

>  <r_i_glide_intrahb_reward>  (348) 
-0

>  <i_i_glide_confnum>  (348) 
2

>  <i_i_glide_posenum>  (348) 
8

>  <r_i_glide_eff_state_penalty>  (348) 
0

>  <ligand_id>  (348) 
92

>  <original_smiles>  (348) 
Cn1cnc2c(O)cc3cncn3c21

>  <smiles>  (348) 
[H]Oc1c([H])c2c([H])[n+]([H])c([H])n2c2c1nc([H])n2C([H])([H])[H]

$$$$
92:3:2
     RDKit          3D

 23 25  0  0  1  0  0  0  0  0999 V2000
    5.7345   -0.5415    0.6453 C   0  0  0  0  0  0  0  0  0  0  0  0
    4.8702   -1.6990    0.6918 N   0  0  0  0  0  0  0  0  0  0  0  0
    4.6324   -2.5773    1.6972 C   0  0  0  0  0  0  0  0  0  0  0  0
    3.7495   -3.5666    1.4432 N   0  0  0  0  0  0  0  0  0  0  0  0
    3.4067   -3.2601    0.1347 C   0  0  0  0  0  0  0  0  0  0  0  0
    2.5156   -3.9114   -0.7337 C   0  0  0  0  0  0  0  0  0  0  0  0
    1.8691   -5.0328   -0.3221 O   0  0  0  0  0  0  0  0  0  0  0  0
    2.3324   -3.4304   -2.0479 C   0  0  0  0  0  0  0  0  0  0  0  0
    3.0606   -2.2835   -2.4511 C   0  0  0  0  0  0  0  0  0  0  0  0
    3.0454   -1.6071   -3.6669 C   0  0  0  0  0  0  0  0  0  0  0  0
    3.9197   -0.5369   -3.5536 N   0  0  0  0  0  0  0  0  0  0  0  0
    4.4196   -0.6151   -2.3218 C   0  0  0  0  0  0  0  0  0  0  0  0
    3.9286   -1.6478   -1.6389 N   0  0  0  0  0  0  0  0  0  0  0  0
    4.1003   -2.1215   -0.3352 C   0  0  0  0  0  0  0  0  0  0  0  0
    6.2120   -0.4599    1.6208 H   0  0  0  0  0  0  0  0  0  0  0  0
    5.1658    0.3781    0.4916 H   0  0  0  0  0  0  0  0  0  0  0  0
    6.5316   -0.6615   -0.0893 H   0  0  0  0  0  0  0  0  0  0  0  0
    5.1192   -2.4970    2.6594 H   0  0  0  0  0  0  0  0  0  0  0  0
    1.9286   -5.6773   -1.0133 H   0  0  0  0  0  0  0  0  0  0  0  0
    1.6636   -3.8903   -2.7576 H   0  0  0  0  0  0  0  0  0  0  0  0
    2.4651   -1.8025   -4.5587 H   0  0  0  0  0  0  0  0  0  0  0  0
    5.0902    0.1083   -1.9160 H   0  0  0  0  0  0  0  0  0  0  0  0
    4.1043    0.1873   -4.2350 H   0  0  0  0  0  0  0  0  0  0  0  0
  1  2  1  0
  1 15  1  0
  1 16  1  0
  1 17  1  0
  2 14  1  0
  2  3  1  0
  3  4  2  0
  3 18  1  0
  4  5  1  0
  5 14  2  0
  5  6  1  0
  6  7  1  0
  6  8  2  0
  7 19  1  0
  8  9  1  0
  8 20  1  0
  9 13  1  0
  9 10  2  0
 10 11  1  0
 10 21  1  0
 11 12  2  0
 11 23  1  0
 12 13  1  0
 12 22  1  0
 13 14  1  0
M  CHG  1  11   1
M  END
>  <i_m_ct_stereo_status>  (349) 
1

>  <s_m_source_file>  (349) 
/var/tmp/pbs.5076255.sched01/tmpt95b3wv2/135g3gtwtb2.sdf

>  <i_m_source_file_index>  (349) 
6

>  <i_lp_mmshare_version>  (349) 
48012

>  <i_f3d_flags>  (349) 
0

>  <s_epik_input>  (349) 
bjFbY0hdbihbQ0gzXSljKGMxMiluM2MoW2NIXWMyW09IXSlbY0hdbltjSF0z

>  <s_epik_cmdline>  (349) 
J2VwaWtfcHl0aG9uJywgJy1waHQnLCAnMi4wJywgJy1waCcsICc3LjAnLCAnLXRuJywgJzgnLCAnLW1hJywgJzIwMCcsICctaW1hZScsICc8aW5maWxlLm1hZT4nLCAnLW9tYWUnLCAnPG91dGZpbGUubWFlPic=

>  <r_epik_Ionization_Penalty>  (349) 
2.35823

>  <r_epik_Ionization_Penalty_Charging>  (349) 
2.125

>  <r_epik_Ionization_Penalty_Neutral>  (349) 
0.233231

>  <r_epik_State_Penalty>  (349) 
2.48563

>  <r_epik_Charging_Adjusted_Penalty>  (349) 
4.61062

>  <i_epik_Tot_Q>  (349) 
1

>  <i_epik_Tot_abs_Q>  (349) 
1

>  <s_lp_Force_Field>  (349) 
OPLS3e

>  <r_lp_Energy>  (349) 
18.2194

>  <b_lp_Chiralities_Consistent>  (349) 
1

>  <s_lp_Variant>  (349) 
92:0-4

>  <s_i_glide_gridfile>  (349) 
pfpi4k_grid

>  <i_i_glide_lignum>  (349) 
6

>  <i_i_glide_rotatable_bonds>  (349) 
1

>  <r_i_docking_score>  (349) 
-5.05188

>  <r_i_glide_ligand_efficiency>  (349) 
-0.360849

>  <r_i_glide_ligand_efficiency_sa>  (349) 
-0.869697

>  <r_i_glide_ligand_efficiency_ln>  (349) 
-1.38824

>  <r_i_glide_gscore>  (349) 
-5.05188

>  <r_i_glide_lipo>  (349) 
-0.505577

>  <r_i_glide_hbond>  (349) 
-0.309684

>  <r_i_glide_metal>  (349) 
-0

>  <r_i_glide_rewards>  (349) 
-2.19587

>  <r_i_glide_evdw>  (349) 
-14.8976

>  <r_i_glide_ecoul>  (349) 
-8.09661

>  <r_i_glide_erotb>  (349) 
0

>  <r_i_glide_esite>  (349) 
-0.0813789

>  <r_i_glide_emodel>  (349) 
-31.3002

>  <r_i_glide_energy>  (349) 
-22.9942

>  <r_i_glide_einternal>  (349) 
1.57699

>  <r_i_glide_intrahb_reward>  (349) 
-0

>  <i_i_glide_confnum>  (349) 
1

>  <i_i_glide_posenum>  (349) 
36

>  <r_i_glide_eff_state_penalty>  (349) 
0

>  <ligand_id>  (349) 
92

>  <original_smiles>  (349) 
Cn1cnc2c(O)cc3cncn3c21

>  <smiles>  (349) 
[H]Oc1c([H])c2c([H])[n+]([H])c([H])n2c2c1nc([H])n2C([H])([H])[H]

$$$$
92:4:0
     RDKit          3D

 22 24  0  0  1  0  0  0  0  0999 V2000
    1.9911    0.3944    4.7479 C   0  0  0  0  0  0  0  0  0  0  0  0
    1.1207    1.4307    4.2182 N   0  0  0  0  0  0  0  0  0  0  0  0
    1.2241    2.0405    3.0158 C   0  0  0  0  0  0  0  0  0  0  0  0
    0.2266    2.9471    2.8808 N   0  0  0  0  0  0  0  0  0  0  0  0
   -0.4895    2.8841    4.0454 C   0  0  0  0  0  0  0  0  0  0  0  0
   -1.6194    3.5916    4.4691 C   0  0  0  0  0  0  0  0  0  0  0  0
   -2.1373    4.5346    3.6407 O   0  0  0  0  0  0  0  0  0  0  0  0
   -2.1823    3.3108    5.7422 C   0  0  0  0  0  0  0  0  0  0  0  0
   -1.5171    2.3326    6.5021 C   0  0  0  0  0  0  0  0  0  0  0  0
   -1.8989    1.9542    7.7596 C   0  0  0  0  0  0  0  0  0  0  0  0
   -0.9805    0.9482    8.1547 N   0  0  0  0  0  0  0  0  0  0  0  0
   -0.1034    0.7993    7.1361 C   0  0  0  0  0  0  0  0  0  0  0  0
   -0.4336    1.6281    6.1494 N   0  0  0  0  0  0  0  0  0  0  0  0
    0.0687    1.9222    4.8998 C   0  0  0  0  0  0  0  0  0  0  0  0
    2.7446    0.1930    3.9978 H   0  0  0  0  0  0  0  0  0  0  0  0
    1.4384   -0.5295    4.9196 H   0  0  0  0  0  0  0  0  0  0  0  0
    2.5030    0.7404    5.6460 H   0  0  0  0  0  0  0  0  0  0  0  0
    1.9646    1.8310    2.2771 H   0  0  0  0  0  0  0  0  0  0  0  0
   -3.0622    3.8100    6.1429 H   0  0  0  0  0  0  0  0  0  0  0  0
   -2.7372    2.3051    8.3740 H   0  0  0  0  0  0  0  0  0  0  0  0
    0.7441    0.1100    7.0907 H   0  0  0  0  0  0  0  0  0  0  0  0
    0.0540    3.5149    2.0095 H   0  0  0  0  0  0  0  0  0  0  0  0
  1  2  1  0
  1 15  1  0
  1 16  1  0
  1 17  1  0
  2 14  1  0
  2  3  1  0
  3  4  2  0
  3 18  1  0
  4  5  1  0
  4 22  1  0
  5 14  2  0
  5  6  1  0
  6  7  1  0
  6  8  2  0
  8  9  1  0
  8 19  1  0
  9 13  1  0
  9 10  2  0
 10 11  1  0
 10 20  1  0
 11 12  2  0
 12 13  1  0
 12 21  1  0
 13 14  1  0
M  CHG  2   4   1   7  -1
M  END
>  <i_m_ct_stereo_status>  (350) 
1

>  <s_m_source_file>  (350) 
/var/tmp/pbs.5076255.sched01/tmpt95b3wv2/135g3gtwtb2.sdf

>  <i_m_source_file_index>  (350) 
7

>  <i_lp_mmshare_version>  (350) 
48012

>  <i_f3d_flags>  (350) 
0

>  <s_epik_input>  (350) 
bjFbY0hdbihbQ0gzXSljKGMxMiluM2MoW2NIXWMyW09IXSlbY0hdbltjSF0z

>  <s_epik_cmdline>  (350) 
J2VwaWtfcHl0aG9uJywgJy1waHQnLCAnMi4wJywgJy1waCcsICc3LjAnLCAnLXRuJywgJzgnLCAnLW1hJywgJzIwMCcsICctaW1hZScsICc8aW5maWxlLm1hZT4nLCAnLW9tYWUnLCAnPG91dGZpbGUubWFlPic=

>  <r_epik_Ionization_Penalty>  (350) 
1.87028

>  <r_epik_Ionization_Penalty_Charging>  (350) 
1.37

>  <r_epik_Ionization_Penalty_Neutral>  (350) 
0.500279

>  <r_epik_State_Penalty>  (350) 
2.6165

>  <r_epik_Charging_Adjusted_Penalty>  (350) 
3.9865

>  <i_epik_Tot_Q>  (350) 
0

>  <i_epik_Tot_abs_Q>  (350) 
2

>  <s_lp_Force_Field>  (350) 
OPLS3e

>  <r_lp_Energy>  (350) 
15.1133

>  <b_lp_Chiralities_Consistent>  (350) 
1

>  <s_lp_Variant>  (350) 
92:0-5

>  <s_i_glide_gridfile>  (350) 
pfpi4k_grid

>  <i_i_glide_lignum>  (350) 
7

>  <i_i_glide_rotatable_bonds>  (350) 
0

>  <r_i_docking_score>  (350) 
-4.75355

>  <r_i_glide_ligand_efficiency>  (350) 
-0.339539

>  <r_i_glide_ligand_efficiency_sa>  (350) 
-0.818338

>  <r_i_glide_ligand_efficiency_ln>  (350) 
-1.30626

>  <r_i_glide_gscore>  (350) 
-4.75355

>  <r_i_glide_lipo>  (350) 
-0.0153738

>  <r_i_glide_hbond>  (350) 
-0.419005

>  <r_i_glide_metal>  (350) 
-0

>  <r_i_glide_rewards>  (350) 
-2.426

>  <r_i_glide_evdw>  (350) 
-9.62936

>  <r_i_glide_ecoul>  (350) 
-8.11313

>  <r_i_glide_erotb>  (350) 
0

>  <r_i_glide_esite>  (350) 
-0.194728

>  <r_i_glide_emodel>  (350) 
-28.0226

>  <r_i_glide_energy>  (350) 
-17.7425

>  <r_i_glide_einternal>  (350) 
0

>  <r_i_glide_intrahb_reward>  (350) 
-0

>  <i_i_glide_confnum>  (350) 
1

>  <i_i_glide_posenum>  (350) 
2

>  <r_i_glide_eff_state_penalty>  (350) 
0

>  <ligand_id>  (350) 
92

>  <original_smiles>  (350) 
Cn1cnc2c(O)cc3cncn3c21

>  <smiles>  (350) 
[H]c1nc([H])n2c1c([H])c([O-])c1c2n(C([H])([H])[H])c([H])[n+]1[H]

$$$$
92:4:1
     RDKit          3D

 22 24  0  0  1  0  0  0  0  0999 V2000
    1.8581   -3.0634   -3.1061 C   0  0  0  0  0  0  0  0  0  0  0  0
    2.9667   -2.2820   -2.5580 N   0  0  0  0  0  0  0  0  0  0  0  0
    3.4991   -1.1657   -3.1132 C   0  0  0  0  0  0  0  0  0  0  0  0
    4.4877   -0.7037   -2.3039 N   0  0  0  0  0  0  0  0  0  0  0  0
    4.5347   -1.5708   -1.2254 C   0  0  0  0  0  0  0  0  0  0  0  0
    5.3516   -1.6077   -0.0819 C   0  0  0  0  0  0  0  0  0  0  0  0
    6.3346   -0.6807    0.0756 O   0  0  0  0  0  0  0  0  0  0  0  0
    5.1660   -2.6228    0.8916 C   0  0  0  0  0  0  0  0  0  0  0  0
    4.1423   -3.5566    0.6246 C   0  0  0  0  0  0  0  0  0  0  0  0
    3.8167   -4.6154    1.4393 C   0  0  0  0  0  0  0  0  0  0  0  0
    2.7341   -5.2779    0.8087 N   0  0  0  0  0  0  0  0  0  0  0  0
    2.5065   -4.5904   -0.3210 C   0  0  0  0  0  0  0  0  0  0  0  0
    3.3503   -3.5619   -0.4362 N   0  0  0  0  0  0  0  0  0  0  0  0
    3.5574   -2.5658   -1.3812 C   0  0  0  0  0  0  0  0  0  0  0  0
    1.5305   -2.6174   -4.0477 H   0  0  0  0  0  0  0  0  0  0  0  0
    1.0241   -3.0573   -2.4021 H   0  0  0  0  0  0  0  0  0  0  0  0
    2.1880   -4.0806   -3.3141 H   0  0  0  0  0  0  0  0  0  0  0  0
    3.1627   -0.7196   -4.0317 H   0  0  0  0  0  0  0  0  0  0  0  0
    5.7787   -2.6726    1.7799 H   0  0  0  0  0  0  0  0  0  0  0  0
    4.2510   -4.9298    2.3811 H   0  0  0  0  0  0  0  0  0  0  0  0
    1.7613   -4.8372   -1.0657 H   0  0  0  0  0  0  0  0  0  0  0  0
    5.0370    0.1352   -2.4330 H   0  0  0  0  0  0  0  0  0  0  0  0
  1  2  1  0
  1 15  1  0
  1 16  1  0
  1 17  1  0
  2 14  1  0
  2  3  1  0
  3  4  2  0
  3 18  1  0
  4  5  1  0
  4 22  1  0
  5 14  2  0
  5  6  1  0
  6  7  1  0
  6  8  2  0
  8  9  1  0
  8 19  1  0
  9 13  1  0
  9 10  2  0
 10 11  1  0
 10 20  1  0
 11 12  2  0
 12 13  1  0
 12 21  1  0
 13 14  1  0
M  CHG  2   4   1   7  -1
M  END
>  <i_m_ct_stereo_status>  (351) 
1

>  <s_m_source_file>  (351) 
/var/tmp/pbs.5076255.sched01/tmpt95b3wv2/135g3gtwtb2.sdf

>  <i_m_source_file_index>  (351) 
7

>  <i_lp_mmshare_version>  (351) 
48012

>  <i_f3d_flags>  (351) 
0

>  <s_epik_input>  (351) 
bjFbY0hdbihbQ0gzXSljKGMxMiluM2MoW2NIXWMyW09IXSlbY0hdbltjSF0z

>  <s_epik_cmdline>  (351) 
J2VwaWtfcHl0aG9uJywgJy1waHQnLCAnMi4wJywgJy1waCcsICc3LjAnLCAnLXRuJywgJzgnLCAnLW1hJywgJzIwMCcsICctaW1hZScsICc8aW5maWxlLm1hZT4nLCAnLW9tYWUnLCAnPG91dGZpbGUubWFlPic=

>  <r_epik_Ionization_Penalty>  (351) 
1.87028

>  <r_epik_Ionization_Penalty_Charging>  (351) 
1.37

>  <r_epik_Ionization_Penalty_Neutral>  (351) 
0.500279

>  <r_epik_State_Penalty>  (351) 
2.6165

>  <r_epik_Charging_Adjusted_Penalty>  (351) 
3.9865

>  <i_epik_Tot_Q>  (351) 
0

>  <i_epik_Tot_abs_Q>  (351) 
2

>  <s_lp_Force_Field>  (351) 
OPLS3e

>  <r_lp_Energy>  (351) 
15.1133

>  <b_lp_Chiralities_Consistent>  (351) 
1

>  <s_lp_Variant>  (351) 
92:0-5

>  <s_i_glide_gridfile>  (351) 
pfpi4k_grid

>  <i_i_glide_lignum>  (351) 
7

>  <i_i_glide_rotatable_bonds>  (351) 
0

>  <r_i_docking_score>  (351) 
-3.90021

>  <r_i_glide_ligand_efficiency>  (351) 
-0.278587

>  <r_i_glide_ligand_efficiency_sa>  (351) 
-0.671433

>  <r_i_glide_ligand_efficiency_ln>  (351) 
-1.07176

>  <r_i_glide_gscore>  (351) 
-3.90021

>  <r_i_glide_lipo>  (351) 
-0.209264

>  <r_i_glide_hbond>  (351) 
-0.0237636

>  <r_i_glide_metal>  (351) 
-0

>  <r_i_glide_rewards>  (351) 
-2.19875

>  <r_i_glide_evdw>  (351) 
-16.8457

>  <r_i_glide_ecoul>  (351) 
-3.09674

>  <r_i_glide_erotb>  (351) 
0

>  <r_i_glide_esite>  (351) 
-0.161643

>  <r_i_glide_emodel>  (351) 
-28.3873

>  <r_i_glide_energy>  (351) 
-19.9424

>  <r_i_glide_einternal>  (351) 
0

>  <r_i_glide_intrahb_reward>  (351) 
-0

>  <i_i_glide_confnum>  (351) 
2

>  <i_i_glide_posenum>  (351) 
11

>  <r_i_glide_eff_state_penalty>  (351) 
0

>  <ligand_id>  (351) 
92

>  <original_smiles>  (351) 
Cn1cnc2c(O)cc3cncn3c21

>  <smiles>  (351) 
[H]c1nc([H])n2c1c([H])c([O-])c1c2n(C([H])([H])[H])c([H])[n+]1[H]

$$$$
92:4:2
     RDKit          3D

 22 24  0  0  1  0  0  0  0  0999 V2000
    1.1213    1.7291    1.7383 C   0  0  0  0  0  0  0  0  0  0  0  0
    0.6720    0.7173    2.6878 N   0  0  0  0  0  0  0  0  0  0  0  0
    1.0424   -0.5990    2.6684 C   0  0  0  0  0  0  0  0  0  0  0  0
    0.4302   -1.2295    3.7003 N   0  0  0  0  0  0  0  0  0  0  0  0
   -0.3346   -0.2714    4.3330 C   0  0  0  0  0  0  0  0  0  0  0  0
   -1.1970   -0.3568    5.4347 C   0  0  0  0  0  0  0  0  0  0  0  0
   -1.4260   -1.5766    6.0069 O   0  0  0  0  0  0  0  0  0  0  0  0
   -1.8286    0.8327    5.9051 C   0  0  0  0  0  0  0  0  0  0  0  0
   -1.5905    2.0026    5.1604 C   0  0  0  0  0  0  0  0  0  0  0  0
   -2.1553    3.2275    5.4365 C   0  0  0  0  0  0  0  0  0  0  0  0
   -1.6568    4.1288    4.4632 N   0  0  0  0  0  0  0  0  0  0  0  0
   -0.8414    3.3911    3.6825 C   0  0  0  0  0  0  0  0  0  0  0  0
   -0.8153    2.1293    4.0938 N   0  0  0  0  0  0  0  0  0  0  0  0
   -0.1726    0.9628    3.6896 C   0  0  0  0  0  0  0  0  0  0  0  0
    1.8043    1.2465    1.0329 H   0  0  0  0  0  0  0  0  0  0  0  0
    1.6691    2.5281    2.2541 H   0  0  0  0  0  0  0  0  0  0  0  0
    0.2659    2.1326    1.1816 H   0  0  0  0  0  0  0  0  0  0  0  0
    1.6952   -1.0380    1.9431 H   0  0  0  0  0  0  0  0  0  0  0  0
   -2.5075    0.8590    6.7441 H   0  0  0  0  0  0  0  0  0  0  0  0
   -2.8470    3.5039    6.2327 H   0  0  0  0  0  0  0  0  0  0  0  0
   -0.2618    3.7789    2.8675 H   0  0  0  0  0  0  0  0  0  0  0  0
    0.4893   -2.2110    3.9595 H   0  0  0  0  0  0  0  0  0  0  0  0
  1  2  1  0
  1 15  1  0
  1 16  1  0
  1 17  1  0
  2 14  1  0
  2  3  1  0
  3  4  2  0
  3 18  1  0
  4  5  1  0
  4 22  1  0
  5 14  2  0
  5  6  1  0
  6  7  1  0
  6  8  2  0
  8  9  1  0
  8 19  1  0
  9 13  1  0
  9 10  2  0
 10 11  1  0
 10 20  1  0
 11 12  2  0
 12 13  1  0
 12 21  1  0
 13 14  1  0
M  CHG  2   4   1   7  -1
M  END
>  <i_m_ct_stereo_status>  (352) 
1

>  <s_m_source_file>  (352) 
/var/tmp/pbs.5076255.sched01/tmpt95b3wv2/135g3gtwtb2.sdf

>  <i_m_source_file_index>  (352) 
7

>  <i_lp_mmshare_version>  (352) 
48012

>  <i_f3d_flags>  (352) 
0

>  <s_epik_input>  (352) 
bjFbY0hdbihbQ0gzXSljKGMxMiluM2MoW2NIXWMyW09IXSlbY0hdbltjSF0z

>  <s_epik_cmdline>  (352) 
J2VwaWtfcHl0aG9uJywgJy1waHQnLCAnMi4wJywgJy1waCcsICc3LjAnLCAnLXRuJywgJzgnLCAnLW1hJywgJzIwMCcsICctaW1hZScsICc8aW5maWxlLm1hZT4nLCAnLW9tYWUnLCAnPG91dGZpbGUubWFlPic=

>  <r_epik_Ionization_Penalty>  (352) 
1.87028

>  <r_epik_Ionization_Penalty_Charging>  (352) 
1.37

>  <r_epik_Ionization_Penalty_Neutral>  (352) 
0.500279

>  <r_epik_State_Penalty>  (352) 
2.6165

>  <r_epik_Charging_Adjusted_Penalty>  (352) 
3.9865

>  <i_epik_Tot_Q>  (352) 
0

>  <i_epik_Tot_abs_Q>  (352) 
2

>  <s_lp_Force_Field>  (352) 
OPLS3e

>  <r_lp_Energy>  (352) 
15.1133

>  <b_lp_Chiralities_Consistent>  (352) 
1

>  <s_lp_Variant>  (352) 
92:0-5

>  <s_i_glide_gridfile>  (352) 
pfpi4k_grid

>  <i_i_glide_lignum>  (352) 
7

>  <i_i_glide_rotatable_bonds>  (352) 
0

>  <r_i_docking_score>  (352) 
-3.8755

>  <r_i_glide_ligand_efficiency>  (352) 
-0.276821

>  <r_i_glide_ligand_efficiency_sa>  (352) 
-0.667179

>  <r_i_glide_ligand_efficiency_ln>  (352) 
-1.06497

>  <r_i_glide_gscore>  (352) 
-3.8755

>  <r_i_glide_lipo>  (352) 
0

>  <r_i_glide_hbond>  (352) 
-0.0197411

>  <r_i_glide_metal>  (352) 
-0

>  <r_i_glide_rewards>  (352) 
-2.126

>  <r_i_glide_evdw>  (352) 
-14.7542

>  <r_i_glide_ecoul>  (352) 
-5.24162

>  <r_i_glide_erotb>  (352) 
0

>  <r_i_glide_esite>  (352) 
-0.205799

>  <r_i_glide_emodel>  (352) 
-28.3539

>  <r_i_glide_energy>  (352) 
-19.9959

>  <r_i_glide_einternal>  (352) 
0

>  <r_i_glide_intrahb_reward>  (352) 
-0

>  <i_i_glide_confnum>  (352) 
1

>  <i_i_glide_posenum>  (352) 
1

>  <r_i_glide_eff_state_penalty>  (352) 
0

>  <ligand_id>  (352) 
92

>  <original_smiles>  (352) 
Cn1cnc2c(O)cc3cncn3c21

>  <smiles>  (352) 
[H]c1nc([H])n2c1c([H])c([O-])c1c2n(C([H])([H])[H])c([H])[n+]1[H]

$$$$
93:0:0
     RDKit          3D

 96101  0  0  1  0  0  0  0  0999 V2000
   -1.3184    1.4442    3.7167 C   0  0  0  0  0  0  0  0  0  0  0  0
   -0.9298    1.4827    5.2130 C   0  0  2  0  0  0  0  0  0  0  0  0
    0.5532    1.2594    5.4548 C   0  0  0  0  0  0  0  0  0  0  0  0
    1.4225    0.6278    4.6406 C   0  0  0  0  0  0  0  0  0  0  0  0
    2.8907    0.3981    4.9086 C   0  0  0  0  0  0  0  0  0  0  0  0
    3.4446    1.0296    6.2207 C   0  0  2  0  0  0  0  0  0  0  0  0
    4.2800    2.2857    5.8823 C   0  0  0  0  0  0  0  0  0  0  0  0
    4.2278    0.0659    7.1758 C   0  0  2  0  0  0  0  0  0  0  0  0
    5.4390   -0.6396    6.5521 C   0  0  0  0  0  0  0  0  0  0  0  0
    4.9483   -2.0388    6.1741 C   0  0  0  0  0  0  0  0  0  0  0  0
    3.8865   -2.4540    7.2324 C   0  0  2  0  0  0  0  0  0  0  0  0
    4.6211   -3.3995    8.2346 C   0  0  0  0  0  0  0  0  0  0  0  0
    2.6879   -3.2242    6.4909 C   0  0  1  0  0  0  0  0  0  0  0  0
    3.1302   -4.6424    5.8918 C   0  0  0  0  0  0  0  0  0  0  0  0
    2.0069   -5.6932    5.6377 C   0  0  1  0  0  0  0  0  0  0  0  0
    2.3055   -7.1701    5.2283 C   0  0  2  0  0  0  0  0  0  0  0  0
    2.6272   -8.0082    6.4911 C   0  0  0  0  0  0  0  0  0  0  0  0
    3.5406   -7.2434    4.2845 C   0  0  0  0  0  0  0  0  0  0  0  0
    3.5038   -8.4125    3.2882 C   0  0  0  0  0  0  0  0  0  0  0  0
    2.2478   -8.4310    2.3834 C   0  0  1  0  0  0  0  0  0  0  0  0
    1.9830   -9.7942    2.0884 O   0  0  0  0  0  0  0  0  0  0  0  0
    1.0004   -7.6700    2.9558 C   0  0  0  0  0  0  0  0  0  0  0  0
    1.0348   -6.2142    2.4251 C   0  0  0  0  0  0  0  0  0  0  0  0
   -0.2995   -8.2861    2.3764 C   0  0  0  0  0  0  0  0  0  0  0  0
    1.0144   -7.7704    4.5261 C   0  0  2  0  0  0  0  0  0  0  0  0
   -0.3217   -7.3870    5.2646 C   0  0  0  0  0  0  0  0  0  0  0  0
   -0.4484   -5.9315    5.7804 C   0  0  0  0  0  0  0  0  0  0  0  0
    0.8122   -5.6040    6.5783 C   0  0  1  0  0  0  0  0  0  0  0  0
    0.4392   -5.8597    8.0169 C   0  0  0  0  0  0  0  0  0  0  0  0
   -0.1720   -6.5446    8.8290 O   0  0  0  0  0  0  0  0  0  0  0  0
    1.2800   -4.6940    7.7684 C   0  0  2  0  0  0  0  0  0  0  0  0
    1.2861   -3.2676    7.2432 C   0  0  2  0  0  0  0  0  0  0  0  0
    0.1180   -2.9026    6.2712 C   0  0  0  0  0  0  0  0  0  0  0  0
    1.2467   -2.2566    8.4056 C   0  0  0  0  0  0  0  0  0  0  0  0
    1.9149   -0.9319    7.9981 C   0  0  1  0  0  0  0  0  0  0  0  0
    1.4608    0.1154    8.8372 O   0  0  0  0  0  0  0  0  0  0  0  0
    3.4672   -1.0767    7.9465 C   0  0  2  0  0  0  0  0  0  0  0  0
    3.9713   -0.9668    9.4308 C   0  0  0  0  0  0  0  0  0  0  0  0
   -1.7784    0.5357    6.0689 C   0  0  0  0  0  0  0  0  0  0  0  0
   -2.0658    0.9159    7.2237 O   0  0  0  0  0  0  0  0  0  0  0  0
   -2.1702   -0.5639    5.5849 O   0  0  0  0  0  0  0  0  0  0  0  0
   -1.1759    0.4534    3.2794 H   0  0  0  0  0  0  0  0  0  0  0  0
   -0.7017    2.1485    3.1556 H   0  0  0  0  0  0  0  0  0  0  0  0
   -2.3588    1.7401    3.5765 H   0  0  0  0  0  0  0  0  0  0  0  0
   -1.1221    2.5017    5.5559 H   0  0  0  0  0  0  0  0  0  0  0  0
    0.8865    1.6627    6.3904 H   0  0  0  0  0  0  0  0  0  0  0  0
    1.0750    0.2078    3.7094 H   0  0  0  0  0  0  0  0  0  0  0  0
    3.0049   -0.6763    4.9000 H   0  0  0  0  0  0  0  0  0  0  0  0
    3.4573    0.7380    4.0432 H   0  0  0  0  0  0  0  0  0  0  0  0
    2.6493    1.4076    6.8360 H   0  0  0  0  0  0  0  0  0  0  0  0
    5.1697    2.0674    5.2873 H   0  0  0  0  0  0  0  0  0  0  0  0
    4.6075    2.8043    6.7818 H   0  0  0  0  0  0  0  0  0  0  0  0
    3.6771    2.9879    5.3095 H   0  0  0  0  0  0  0  0  0  0  0  0
    4.6387    0.7497    7.9207 H   0  0  0  0  0  0  0  0  0  0  0  0
    5.8593   -0.1079    5.6974 H   0  0  0  0  0  0  0  0  0  0  0  0
    6.2332   -0.7272    7.2975 H   0  0  0  0  0  0  0  0  0  0  0  0
    4.5180   -1.9993    5.1704 H   0  0  0  0  0  0  0  0  0  0  0  0
    5.7813   -2.7489    6.1069 H   0  0  0  0  0  0  0  0  0  0  0  0
    3.9674   -3.7797    9.0218 H   0  0  0  0  0  0  0  0  0  0  0  0
    5.4724   -2.9168    8.7111 H   0  0  0  0  0  0  0  0  0  0  0  0
    5.1034   -4.2524    7.7658 H   0  0  0  0  0  0  0  0  0  0  0  0
    2.4647   -2.6167    5.6132 H   0  0  0  0  0  0  0  0  0  0  0  0
    3.6580   -4.4514    4.9692 H   0  0  0  0  0  0  0  0  0  0  0  0
    3.8370   -5.1685    6.5267 H   0  0  0  0  0  0  0  0  0  0  0  0
    1.6202   -5.2512    4.7264 H   0  0  0  0  0  0  0  0  0  0  0  0
    2.9844   -9.0075    6.2331 H   0  0  0  0  0  0  0  0  0  0  0  0
    1.7605   -8.1588    7.1330 H   0  0  0  0  0  0  0  0  0  0  0  0
    3.3989   -7.5439    7.1053 H   0  0  0  0  0  0  0  0  0  0  0  0
    3.6577   -6.3214    3.7113 H   0  0  0  0  0  0  0  0  0  0  0  0
    4.4512   -7.3050    4.8754 H   0  0  0  0  0  0  0  0  0  0  0  0
    4.3931   -8.3733    2.6615 H   0  0  0  0  0  0  0  0  0  0  0  0
    3.5999   -9.3471    3.8435 H   0  0  0  0  0  0  0  0  0  0  0  0
    2.5208   -7.9886    1.4266 H   0  0  0  0  0  0  0  0  0  0  0  0
    1.2944   -9.8392    1.4366 H   0  0  0  0  0  0  0  0  0  0  0  0
    0.2445   -5.6101    2.8672 H   0  0  0  0  0  0  0  0  0  0  0  0
    0.9014   -6.1966    1.3411 H   0  0  0  0  0  0  0  0  0  0  0  0
    1.9781   -5.7107    2.6085 H   0  0  0  0  0  0  0  0  0  0  0  0
   -1.1656   -7.6473    2.5393 H   0  0  0  0  0  0  0  0  0  0  0  0
   -0.5163   -9.2611    2.8176 H   0  0  0  0  0  0  0  0  0  0  0  0
   -0.2250   -8.4030    1.2973 H   0  0  0  0  0  0  0  0  0  0  0  0
    1.0772   -8.8485    4.6859 H   0  0  0  0  0  0  0  0  0  0  0  0
   -1.2050   -7.6436    4.6907 H   0  0  0  0  0  0  0  0  0  0  0  0
   -0.3878   -8.0490    6.1325 H   0  0  0  0  0  0  0  0  0  0  0  0
   -0.5659   -5.2533    4.9427 H   0  0  0  0  0  0  0  0  0  0  0  0
   -1.3447   -5.8326    6.3924 H   0  0  0  0  0  0  0  0  0  0  0  0
    2.2416   -4.8718    8.2390 H   0  0  0  0  0  0  0  0  0  0  0  0
   -0.8500   -3.2505    6.6433 H   0  0  0  0  0  0  0  0  0  0  0  0
    0.2795   -3.3058    5.2728 H   0  0  0  0  0  0  0  0  0  0  0  0
    0.0360   -1.8309    6.1218 H   0  0  0  0  0  0  0  0  0  0  0  0
    0.2138   -2.0875    8.6956 H   0  0  0  0  0  0  0  0  0  0  0  0
    1.7275   -2.6687    9.2961 H   0  0  0  0  0  0  0  0  0  0  0  0
    1.5544   -0.6690    7.0155 H   0  0  0  0  0  0  0  0  0  0  0  0
    1.7498   -0.0487    9.7210 H   0  0  0  0  0  0  0  0  0  0  0  0
    3.5810   -1.7502   10.0818 H   0  0  0  0  0  0  0  0  0  0  0  0
    3.6945   -0.0186    9.8941 H   0  0  0  0  0  0  0  0  0  0  0  0
    5.0592   -0.9906    9.4980 H   0  0  0  0  0  0  0  0  0  0  0  0
  1  2  1  0
  1 42  1  0
  1 43  1  0
  1 44  1  0
  2  3  1  0
  2 39  1  0
  2 45  1  1
  3  4  2  3
  3 46  1  0
  4  5  1  0
  4 47  1  0
  5  6  1  0
  5 48  1  0
  5 49  1  0
  6  7  1  0
  6  8  1  0
  6 50  1  1
  7 51  1  0
  7 52  1  0
  7 53  1  0
  8 37  1  0
  8  9  1  0
  8 54  1  1
  9 10  1  0
  9 55  1  0
  9 56  1  0
 10 11  1  0
 10 57  1  0
 10 58  1  0
 11 37  1  0
 11 12  1  1
 11 13  1  0
 12 59  1  0
 12 60  1  0
 12 61  1  0
 13 32  1  0
 13 14  1  0
 13 62  1  6
 14 15  1  0
 14 63  1  0
 14 64  1  0
 15 28  1  0
 15 16  1  0
 15 65  1  6
 16 25  1  0
 16 17  1  1
 16 18  1  0
 17 66  1  0
 17 67  1  0
 17 68  1  0
 18 19  1  0
 18 69  1  0
 18 70  1  0
 19 20  1  0
 19 71  1  0
 19 72  1  0
 20 21  1  0
 20 22  1  0
 20 73  1  6
 21 74  1  0
 22 23  1  0
 22 24  1  0
 22 25  1  0
 23 75  1  0
 23 76  1  0
 23 77  1  0
 24 78  1  0
 24 79  1  0
 24 80  1  0
 25 26  1  0
 25 81  1  6
 26 27  1  0
 26 82  1  0
 26 83  1  0
 28 27  1  6
 27 84  1  0
 27 85  1  0
 28 31  1  0
 28 29  1  0
 29 30  2  0
 29 31  1  0
 31 32  1  0
 31 86  1  1
 32 33  1  6
 32 34  1  0
 33 87  1  0
 33 88  1  0
 33 89  1  0
 34 35  1  0
 34 90  1  0
 34 91  1  0
 35 36  1  0
 35 37  1  0
 35 92  1  6
 36 93  1  0
 37 38  1  1
 38 94  1  0
 38 95  1  0
 38 96  1  0
 39 40  2  0
 39 41  1  0
M  CHG  1  41  -1
M  END
>  <i_m_ct_stereo_status>  (353) 
1

>  <s_m_source_file>  (353) 
/var/tmp/pbs.5076255.sched01/tmpt95b3wv2/135g3gtwtb2.sdf

>  <i_m_source_file_index>  (353) 
8

>  <i_lp_mmshare_version>  (353) 
48012

>  <i_f3d_flags>  (353) 
0

>  <s_epik_input>  (353) 
Tz1DKFtPSF0pW0NASF0oW0NIM10pL1tDSF09W0NIXS9bQ0gyXVtDQEhdKFtDSDNdKVtDQEhdKFtDSDJdW0NIMl0xKVtDQEBdKFtDSDNdKShbQ0BIXShbT0hdKVtDSDJdW0NAXTIoW0NIM10pW0NIXTNDND1PKVtDQEBdMShbQ0gzXSlbQ0BIXTJbQ0gyXVtDQEhdKEMzNDUpW0NAQF02KFtDSDNdKVtDQEBIXShbQ0gyXVtDSDJdNSlDKFtDSDNdKShbQ0gzXSlbQ0BIXShbT0hdKVtDSDJdW0NIMl02

>  <s_epik_cmdline>  (353) 
J2VwaWtfcHl0aG9uJywgJy1waHQnLCAnMi4wJywgJy1waCcsICc3LjAnLCAnLXRuJywgJzgnLCAnLW1hJywgJzIwMCcsICctaW1hZScsICc8aW5maWxlLm1hZT4nLCAnLW9tYWUnLCAnPG91dGZpbGUubWFlPic=

>  <r_epik_Ionization_Penalty>  (353) 
0.00149679

>  <r_epik_Ionization_Penalty_Charging>  (353) 
0.00149294

>  <r_epik_Ionization_Penalty_Neutral>  (353) 
3.85434e-06

>  <r_epik_State_Penalty>  (353) 
0.000999864

>  <r_epik_Charging_Adjusted_Penalty>  (353) 
0.0024928

>  <i_epik_Tot_Q>  (353) 
-1

>  <i_epik_Tot_abs_Q>  (353) 
1

>  <s_lp_Force_Field>  (353) 
OPLS3e

>  <r_lp_Energy>  (353) 
158.44

>  <b_lp_Chiralities_Consistent>  (353) 
1

>  <s_lp_Variant>  (353) 
93:0-1

>  <s_i_glide_gridfile>  (353) 
pfpi4k_grid

>  <i_i_glide_lignum>  (353) 
8

>  <i_i_glide_rotatable_bonds>  (353) 
7

>  <r_i_docking_score>  (353) 
-2.59667

>  <r_i_glide_ligand_efficiency>  (353) 
-0.0633334

>  <r_i_glide_ligand_efficiency_sa>  (353) 
-0.218387

>  <r_i_glide_ligand_efficiency_ln>  (353) 
-0.550892

>  <r_i_glide_gscore>  (353) 
-2.59667

>  <r_i_glide_lipo>  (353) 
-0.02116

>  <r_i_glide_hbond>  (353) 
-0.753963

>  <r_i_glide_metal>  (353) 
-0

>  <r_i_glide_rewards>  (353) 
0

>  <r_i_glide_evdw>  (353) 
-18.3377

>  <r_i_glide_ecoul>  (353) 
-6.62414

>  <r_i_glide_erotb>  (353) 
0.170804

>  <r_i_glide_esite>  (353) 
-0.0818421

>  <r_i_glide_emodel>  (353) 
-27.9707

>  <r_i_glide_energy>  (353) 
-24.9619

>  <r_i_glide_einternal>  (353) 
5.21879

>  <r_i_glide_intrahb_reward>  (353) 
-0

>  <i_i_glide_confnum>  (353) 
3

>  <i_i_glide_posenum>  (353) 
12

>  <r_i_glide_eff_state_penalty>  (353) 
0

>  <ligand_id>  (353) 
93

>  <original_smiles>  (353) 
CC(C=CCC(C)C1CCC2(C)C3CC4C5(C)CCC(O)C(C)(C)C5CCC45C(=O)C5C3(C)CC(O)C12C)C(=O)O

>  <smiles>  (353) 
[H]OC1([H])C([H])([H])C([H])([H])C2(C([H])([H])[H])C3([H])C([H])([H])C4([H])C(C([H])([H])[H])(C([H])([H])C([H])(O[H])C5(C([H])([H])[H])C([H])(C([H])(C([H])([H])[H])C([H])([H])C([H])=C([H])C([H])(C(=O)[O-])C([H])([H])[H])C([H])([H])C([H])([H])C45C([H])([H])[H])C4([H])C(=O)C43C([H])([H])C([H])([H])C2([H])C1(C([H])([H])[H])C([H])([H])[H]

$$$$
93:0:1
     RDKit          3D

 96101  0  0  1  0  0  0  0  0999 V2000
   -2.4716    2.1660    4.2743 C   0  0  0  0  0  0  0  0  0  0  0  0
   -1.1701    2.8400    3.8056 C   0  0  2  0  0  0  0  0  0  0  0  0
   -0.0089    2.3003    4.6124 C   0  0  0  0  0  0  0  0  0  0  0  0
    1.0835    1.7101    4.0985 C   0  0  0  0  0  0  0  0  0  0  0  0
    2.2770    1.1751    4.8857 C   0  0  0  0  0  0  0  0  0  0  0  0
    2.4225    1.7232    6.3335 C   0  0  2  0  0  0  0  0  0  0  0  0
    2.8865    3.1946    6.2886 C   0  0  0  0  0  0  0  0  0  0  0  0
    3.2878    0.8723    7.3081 C   0  0  2  0  0  0  0  0  0  0  0  0
    4.6571    0.4754    6.7589 C   0  0  0  0  0  0  0  0  0  0  0  0
    4.4769   -0.9517    6.2448 C   0  0  0  0  0  0  0  0  0  0  0  0
    3.4515   -1.6611    7.1729 C   0  0  2  0  0  0  0  0  0  0  0  0
    4.2872   -2.5168    8.1796 C   0  0  0  0  0  0  0  0  0  0  0  0
    2.5082   -2.5895    6.2667 C   0  0  1  0  0  0  0  0  0  0  0  0
    3.2821   -3.8528    5.6475 C   0  0  0  0  0  0  0  0  0  0  0  0
    2.4134   -5.0778    5.2074 C   0  0  1  0  0  0  0  0  0  0  0  0
    3.0494   -6.4302    4.7442 C   0  0  2  0  0  0  0  0  0  0  0  0
    3.4282   -7.2825    5.9793 C   0  0  0  0  0  0  0  0  0  0  0  0
    4.3466   -6.1754    3.9195 C   0  0  0  0  0  0  0  0  0  0  0  0
    4.6416   -7.2544    2.8662 C   0  0  0  0  0  0  0  0  0  0  0  0
    3.4972   -7.4513    1.8443 C   0  0  1  0  0  0  0  0  0  0  0  0
    3.5446   -8.8050    1.4334 O   0  0  0  0  0  0  0  0  0  0  0  0
    2.0768   -6.9994    2.3319 C   0  0  0  0  0  0  0  0  0  0  0  0
    1.8564   -5.5281    1.8908 C   0  0  0  0  0  0  0  0  0  0  0  0
    0.9852   -7.8087    1.5857 C   0  0  0  0  0  0  0  0  0  0  0  0
    1.9719   -7.2096    3.8880 C   0  0  2  0  0  0  0  0  0  0  0  0
    0.5273   -7.1620    4.5116 C   0  0  0  0  0  0  0  0  0  0  0  0
    0.0634   -5.8038    5.0928 C   0  0  0  0  0  0  0  0  0  0  0  0
    1.1516   -5.2947    6.0261 C   0  0  1  0  0  0  0  0  0  0  0  0
    0.7187   -5.7321    7.4045 C   0  0  0  0  0  0  0  0  0  0  0  0
    0.1981   -6.5842    8.1136 O   0  0  0  0  0  0  0  0  0  0  0  0
    1.3284   -4.4059    7.3060 C   0  0  2  0  0  0  0  0  0  0  0  0
    1.0955   -2.9723    6.8783 C   0  0  2  0  0  0  0  0  0  0  0  0
   -0.0403   -2.7696    5.8223 C   0  0  0  0  0  0  0  0  0  0  0  0
    0.7584   -2.0873    8.0874 C   0  0  0  0  0  0  0  0  0  0  0  0
    1.1551   -0.6269    7.8180 C   0  0  1  0  0  0  0  0  0  0  0  0
    0.4081    0.2131    8.6778 O   0  0  0  0  0  0  0  0  0  0  0  0
    2.7029   -0.4551    7.9213 C   0  0  2  0  0  0  0  0  0  0  0  0
    3.0503   -0.3670    9.4499 C   0  0  0  0  0  0  0  0  0  0  0  0
   -1.2898    4.3690    3.9156 C   0  0  0  0  0  0  0  0  0  0  0  0
   -2.1944    4.9250    3.2598 O   0  0  0  0  0  0  0  0  0  0  0  0
   -0.5422    4.9717    4.7238 O   0  0  0  0  0  0  0  0  0  0  0  0
   -2.6878    2.3810    5.3263 H   0  0  0  0  0  0  0  0  0  0  0  0
   -2.3947    1.0794    4.1691 H   0  0  0  0  0  0  0  0  0  0  0  0
   -3.3249    2.4976    3.6778 H   0  0  0  0  0  0  0  0  0  0  0  0
   -1.0085    2.5995    2.7551 H   0  0  0  0  0  0  0  0  0  0  0  0
   -0.1174    2.4377    5.6766 H   0  0  0  0  0  0  0  0  0  0  0  0
    1.1507    1.5813    3.0266 H   0  0  0  0  0  0  0  0  0  0  0  0
    2.1566    0.0989    4.8770 H   0  0  0  0  0  0  0  0  0  0  0  0
    3.1874    1.3856    4.3139 H   0  0  0  0  0  0  0  0  0  0  0  0
    1.4539    1.7581    6.8171 H   0  0  0  0  0  0  0  0  0  0  0  0
    3.8773    3.3029    5.8461 H   0  0  0  0  0  0  0  0  0  0  0  0
    2.9112    3.6305    7.2875 H   0  0  0  0  0  0  0  0  0  0  0  0
    2.1996    3.8058    5.6996 H   0  0  0  0  0  0  0  0  0  0  0  0
    3.4743    1.5635    8.1307 H   0  0  0  0  0  0  0  0  0  0  0  0
    5.0287    1.1558    5.9900 H   0  0  0  0  0  0  0  0  0  0  0  0
    5.3858    0.4762    7.5728 H   0  0  0  0  0  0  0  0  0  0  0  0
    4.1150   -0.8973    5.2188 H   0  0  0  0  0  0  0  0  0  0  0  0
    5.4339   -1.4742    6.1839 H   0  0  0  0  0  0  0  0  0  0  0  0
    3.6633   -3.0806    8.8735 H   0  0  0  0  0  0  0  0  0  0  0  0
    4.9792   -1.9168    8.7668 H   0  0  0  0  0  0  0  0  0  0  0  0
    4.9706   -3.2184    7.7112 H   0  0  0  0  0  0  0  0  0  0  0  0
    2.2478   -1.9790    5.4053 H   0  0  0  0  0  0  0  0  0  0  0  0
    3.8345   -3.4859    4.7849 H   0  0  0  0  0  0  0  0  0  0  0  0
    4.0341   -4.2715    6.3046 H   0  0  0  0  0  0  0  0  0  0  0  0
    2.0320   -4.6492    4.2884 H   0  0  0  0  0  0  0  0  0  0  0  0
    4.0015   -8.1666    5.6980 H   0  0  0  0  0  0  0  0  0  0  0  0
    2.5582   -7.6486    6.5216 H   0  0  0  0  0  0  0  0  0  0  0  0
    4.0341   -6.7242    6.6920 H   0  0  0  0  0  0  0  0  0  0  0  0
    4.3263   -5.2074    3.4222 H   0  0  0  0  0  0  0  0  0  0  0  0
    5.1990   -6.1097    4.5964 H   0  0  0  0  0  0  0  0  0  0  0  0
    5.5519   -6.9880    2.3298 H   0  0  0  0  0  0  0  0  0  0  0  0
    4.8826   -8.1890    3.3733 H   0  0  0  0  0  0  0  0  0  0  0  0
    3.7497   -6.8845    0.9490 H   0  0  0  0  0  0  0  0  0  0  0  0
    3.3460   -9.3654    2.1732 H   0  0  0  0  0  0  0  0  0  0  0  0
    0.9309   -5.1250    2.2979 H   0  0  0  0  0  0  0  0  0  0  0  0
    1.8099   -5.4454    0.8011 H   0  0  0  0  0  0  0  0  0  0  0  0
    2.6609   -4.8611    2.1932 H   0  0  0  0  0  0  0  0  0  0  0  0
   -0.0043   -7.3668    1.6943 H   0  0  0  0  0  0  0  0  0  0  0  0
    0.9310   -8.8373    1.9444 H   0  0  0  0  0  0  0  0  0  0  0  0
    1.1756   -7.8423    0.5144 H   0  0  0  0  0  0  0  0  0  0  0  0
    2.2346   -8.2638    3.9854 H   0  0  0  0  0  0  0  0  0  0  0  0
   -0.2329   -7.5378    3.8330 H   0  0  0  0  0  0  0  0  0  0  0  0
    0.5090   -7.8820    5.3335 H   0  0  0  0  0  0  0  0  0  0  0  0
   -0.1431   -5.1006    4.2915 H   0  0  0  0  0  0  0  0  0  0  0  0
   -0.8786   -5.9416    5.6284 H   0  0  0  0  0  0  0  0  0  0  0  0
    2.2584   -4.4270    7.8559 H   0  0  0  0  0  0  0  0  0  0  0  0
   -0.9445   -3.3352    6.0755 H   0  0  0  0  0  0  0  0  0  0  0  0
    0.2832   -3.0543    4.8180 H   0  0  0  0  0  0  0  0  0  0  0  0
   -0.3406   -1.7252    5.7215 H   0  0  0  0  0  0  0  0  0  0  0  0
   -0.3084   -2.1565    8.2803 H   0  0  0  0  0  0  0  0  0  0  0  0
    1.2319   -2.4605    8.9931 H   0  0  0  0  0  0  0  0  0  0  0  0
    0.8304   -0.3590    6.8188 H   0  0  0  0  0  0  0  0  0  0  0  0
    0.7984    0.1947    9.5421 H   0  0  0  0  0  0  0  0  0  0  0  0
    2.7791   -1.2604   10.0128 H   0  0  0  0  0  0  0  0  0  0  0  0
    2.5527    0.4697    9.9425 H   0  0  0  0  0  0  0  0  0  0  0  0
    4.1114   -0.1820    9.6209 H   0  0  0  0  0  0  0  0  0  0  0  0
  1  2  1  0
  1 42  1  0
  1 43  1  0
  1 44  1  0
  2  3  1  0
  2 39  1  0
  2 45  1  6
  3  4  2  3
  3 46  1  0
  4  5  1  0
  4 47  1  0
  5  6  1  0
  5 48  1  0
  5 49  1  0
  6  7  1  0
  6  8  1  0
  6 50  1  1
  7 51  1  0
  7 52  1  0
  7 53  1  0
  8 37  1  0
  8  9  1  0
  8 54  1  1
  9 10  1  0
  9 55  1  0
  9 56  1  0
 10 11  1  0
 10 57  1  0
 10 58  1  0
 11 37  1  0
 11 12  1  1
 11 13  1  0
 12 59  1  0
 12 60  1  0
 12 61  1  0
 13 32  1  0
 13 14  1  0
 13 62  1  6
 14 15  1  0
 14 63  1  0
 14 64  1  0
 15 28  1  0
 15 16  1  0
 15 65  1  6
 16 25  1  0
 16 17  1  1
 16 18  1  0
 17 66  1  0
 17 67  1  0
 17 68  1  0
 18 19  1  0
 18 69  1  0
 18 70  1  0
 19 20  1  0
 19 71  1  0
 19 72  1  0
 20 21  1  0
 20 22  1  0
 20 73  1  6
 21 74  1  0
 22 23  1  0
 22 24  1  0
 22 25  1  0
 23 75  1  0
 23 76  1  0
 23 77  1  0
 24 78  1  0
 24 79  1  0
 24 80  1  0
 25 26  1  0
 25 81  1  6
 26 27  1  0
 26 82  1  0
 26 83  1  0
 28 27  1  6
 27 84  1  0
 27 85  1  0
 28 31  1  0
 28 29  1  0
 29 30  2  0
 29 31  1  0
 31 32  1  0
 31 86  1  1
 32 33  1  6
 32 34  1  0
 33 87  1  0
 33 88  1  0
 33 89  1  0
 34 35  1  0
 34 90  1  0
 34 91  1  0
 35 36  1  0
 35 37  1  0
 35 92  1  6
 36 93  1  0
 37 38  1  1
 38 94  1  0
 38 95  1  0
 38 96  1  0
 39 40  2  0
 39 41  1  0
M  CHG  1  41  -1
M  END
>  <i_m_ct_stereo_status>  (354) 
1

>  <s_m_source_file>  (354) 
/var/tmp/pbs.5076255.sched01/tmpt95b3wv2/135g3gtwtb2.sdf

>  <i_m_source_file_index>  (354) 
8

>  <i_lp_mmshare_version>  (354) 
48012

>  <i_f3d_flags>  (354) 
0

>  <s_epik_input>  (354) 
Tz1DKFtPSF0pW0NASF0oW0NIM10pL1tDSF09W0NIXS9bQ0gyXVtDQEhdKFtDSDNdKVtDQEhdKFtDSDJdW0NIMl0xKVtDQEBdKFtDSDNdKShbQ0BIXShbT0hdKVtDSDJdW0NAXTIoW0NIM10pW0NIXTNDND1PKVtDQEBdMShbQ0gzXSlbQ0BIXTJbQ0gyXVtDQEhdKEMzNDUpW0NAQF02KFtDSDNdKVtDQEBIXShbQ0gyXVtDSDJdNSlDKFtDSDNdKShbQ0gzXSlbQ0BIXShbT0hdKVtDSDJdW0NIMl02

>  <s_epik_cmdline>  (354) 
J2VwaWtfcHl0aG9uJywgJy1waHQnLCAnMi4wJywgJy1waCcsICc3LjAnLCAnLXRuJywgJzgnLCAnLW1hJywgJzIwMCcsICctaW1hZScsICc8aW5maWxlLm1hZT4nLCAnLW9tYWUnLCAnPG91dGZpbGUubWFlPic=

>  <r_epik_Ionization_Penalty>  (354) 
0.00149679

>  <r_epik_Ionization_Penalty_Charging>  (354) 
0.00149294

>  <r_epik_Ionization_Penalty_Neutral>  (354) 
3.85434e-06

>  <r_epik_State_Penalty>  (354) 
0.000999864

>  <r_epik_Charging_Adjusted_Penalty>  (354) 
0.0024928

>  <i_epik_Tot_Q>  (354) 
-1

>  <i_epik_Tot_abs_Q>  (354) 
1

>  <s_lp_Force_Field>  (354) 
OPLS3e

>  <r_lp_Energy>  (354) 
158.44

>  <b_lp_Chiralities_Consistent>  (354) 
1

>  <s_lp_Variant>  (354) 
93:0-1

>  <s_i_glide_gridfile>  (354) 
pfpi4k_grid

>  <i_i_glide_lignum>  (354) 
8

>  <i_i_glide_rotatable_bonds>  (354) 
7

>  <r_i_docking_score>  (354) 
-1.99507

>  <r_i_glide_ligand_efficiency>  (354) 
-0.0486603

>  <r_i_glide_ligand_efficiency_sa>  (354) 
-0.167791

>  <r_i_glide_ligand_efficiency_ln>  (354) 
-0.423261

>  <r_i_glide_gscore>  (354) 
-1.99507

>  <r_i_glide_lipo>  (354) 
-0.0353872

>  <r_i_glide_hbond>  (354) 
-0.2

>  <r_i_glide_metal>  (354) 
-0

>  <r_i_glide_rewards>  (354) 
0

>  <r_i_glide_evdw>  (354) 
-17.7773

>  <r_i_glide_ecoul>  (354) 
-6.26908

>  <r_i_glide_erotb>  (354) 
0.170804

>  <r_i_glide_esite>  (354) 
-0.101265

>  <r_i_glide_emodel>  (354) 
-26.6815

>  <r_i_glide_energy>  (354) 
-24.0463

>  <r_i_glide_einternal>  (354) 
3.06482

>  <r_i_glide_intrahb_reward>  (354) 
-0

>  <i_i_glide_confnum>  (354) 
3

>  <i_i_glide_posenum>  (354) 
28

>  <r_i_glide_eff_state_penalty>  (354) 
0

>  <ligand_id>  (354) 
93

>  <original_smiles>  (354) 
CC(C=CCC(C)C1CCC2(C)C3CC4C5(C)CCC(O)C(C)(C)C5CCC45C(=O)C5C3(C)CC(O)C12C)C(=O)O

>  <smiles>  (354) 
[H]OC1([H])C([H])([H])C([H])([H])C2(C([H])([H])[H])C3([H])C([H])([H])C4([H])C(C([H])([H])[H])(C([H])([H])C([H])(O[H])C5(C([H])([H])[H])C([H])(C([H])(C([H])([H])[H])C([H])([H])C([H])=C([H])C([H])(C(=O)[O-])C([H])([H])[H])C([H])([H])C([H])([H])C45C([H])([H])[H])C4([H])C(=O)C43C([H])([H])C([H])([H])C2([H])C1(C([H])([H])[H])C([H])([H])[H]

$$$$
93:0:2
     RDKit          3D

 96101  0  0  1  0  0  0  0  0999 V2000
   -1.0508    0.0687    4.0109 C   0  0  0  0  0  0  0  0  0  0  0  0
   -0.3346    0.8871    5.1065 C   0  0  2  0  0  0  0  0  0  0  0  0
    0.9508    0.2435    5.5936 C   0  0  0  0  0  0  0  0  0  0  0  0
    1.4253   -0.9720    5.2852 C   0  0  0  0  0  0  0  0  0  0  0  0
    2.7524   -1.5887    5.7356 C   0  0  0  0  0  0  0  0  0  0  0  0
    3.4698   -0.7826    6.8533 C   0  0  2  0  0  0  0  0  0  0  0  0
    4.2136    0.4191    6.2122 C   0  0  0  0  0  0  0  0  0  0  0  0
    4.3989   -1.5773    7.8187 C   0  0  2  0  0  0  0  0  0  0  0  0
    5.6557   -2.1561    7.1605 C   0  0  0  0  0  0  0  0  0  0  0  0
    5.2995   -3.6035    6.8633 C   0  0  0  0  0  0  0  0  0  0  0  0
    4.3862   -4.1041    8.0173 C   0  0  2  0  0  0  0  0  0  0  0  0
    5.3115   -4.8941    8.9929 C   0  0  0  0  0  0  0  0  0  0  0  0
    3.2692   -5.0652    7.3737 C   0  0  1  0  0  0  0  0  0  0  0  0
    3.8758   -6.4519    6.8336 C   0  0  0  0  0  0  0  0  0  0  0  0
    2.8667   -7.6374    6.6625 C   0  0  1  0  0  0  0  0  0  0  0  0
    3.3441   -9.0864    6.3015 C   0  0  2  0  0  0  0  0  0  0  0  0
    3.8401   -9.8058    7.5689 C   0  0  0  0  0  0  0  0  0  0  0  0
    4.5137   -9.0288    5.2773 C   0  0  0  0  0  0  0  0  0  0  0  0
    4.5875  -10.2478    4.3488 C   0  0  0  0  0  0  0  0  0  0  0  0
    3.2951  -10.4660    3.5225 C   0  0  1  0  0  0  0  0  0  0  0  0
    3.2098  -11.8668    3.3219 O   0  0  0  0  0  0  0  0  0  0  0  0
    1.9921   -9.8593    4.1387 C   0  0  0  0  0  0  0  0  0  0  0  0
    1.7935   -8.4341    3.5410 C   0  0  0  0  0  0  0  0  0  0  0  0
    0.7584  -10.6651    3.6539 C   0  0  0  0  0  0  0  0  0  0  0  0
    2.1010   -9.8633    5.7044 C   0  0  2  0  0  0  0  0  0  0  0  0
    0.7700   -9.6239    6.5098 C   0  0  0  0  0  0  0  0  0  0  0  0
    0.4876   -8.1787    6.9642 C   0  0  0  0  0  0  0  0  0  0  0  0
    1.7319   -7.6473    7.6761 C   0  0  1  0  0  0  0  0  0  0  0  0
    1.4732   -7.8847    9.1411 C   0  0  0  0  0  0  0  0  0  0  0  0
    0.9994   -8.5925   10.0120 O   0  0  0  0  0  0  0  0  0  0  0  0
    2.1391   -6.6345    8.7815 C   0  0  2  0  0  0  0  0  0  0  0  0
    1.9457   -5.2425    8.2320 C   0  0  2  0  0  0  0  0  0  0  0  0
    0.6792   -5.0791    7.3072 C   0  0  0  0  0  0  0  0  0  0  0  0
    1.8367   -4.2014    9.3614 C   0  0  0  0  0  0  0  0  0  0  0  0
    2.2628   -2.8054    8.8608 C   0  0  1  0  0  0  0  0  0  0  0  0
    1.7469   -1.8036    9.7337 O   0  0  0  0  0  0  0  0  0  0  0  0
    3.8259   -2.7579    8.6932 C   0  0  2  0  0  0  0  0  0  0  0  0
    4.4206   -2.5162   10.1248 C   0  0  0  0  0  0  0  0  0  0  0  0
   -1.2844    1.2175    6.2544 C   0  0  0  0  0  0  0  0  0  0  0  0
   -2.1925    0.4081    6.5266 O   0  0  0  0  0  0  0  0  0  0  0  0
   -1.0689    2.2898    6.8771 O   0  0  0  0  0  0  0  0  0  0  0  0
   -1.3952   -0.8933    4.3916 H   0  0  0  0  0  0  0  0  0  0  0  0
   -0.3718   -0.1087    3.1744 H   0  0  0  0  0  0  0  0  0  0  0  0
   -1.9075    0.6259    3.6370 H   0  0  0  0  0  0  0  0  0  0  0  0
   -0.0373    1.8333    4.6566 H   0  0  0  0  0  0  0  0  0  0  0  0
    1.4948    0.9107    6.2546 H   0  0  0  0  0  0  0  0  0  0  0  0
    0.8452   -1.6292    4.6487 H   0  0  0  0  0  0  0  0  0  0  0  0
    2.5099   -2.5953    6.0286 H   0  0  0  0  0  0  0  0  0  0  0  0
    3.4057   -1.6944    4.8671 H   0  0  0  0  0  0  0  0  0  0  0  0
    2.7175   -0.3775    7.5279 H   0  0  0  0  0  0  0  0  0  0  0  0
    4.9760    0.0965    5.5018 H   0  0  0  0  0  0  0  0  0  0  0  0
    4.6981    1.0478    6.9594 H   0  0  0  0  0  0  0  0  0  0  0  0
    3.5505    1.0617    5.6329 H   0  0  0  0  0  0  0  0  0  0  0  0
    4.7520   -0.7979    8.4952 H   0  0  0  0  0  0  0  0  0  0  0  0
    5.9881   -1.6337    6.2667 H   0  0  0  0  0  0  0  0  0  0  0  0
    6.4873   -2.1210    7.8736 H   0  0  0  0  0  0  0  0  0  0  0  0
    4.7836   -3.6179    5.9035 H   0  0  0  0  0  0  0  0  0  0  0  0
    6.2017   -4.2035    6.7311 H   0  0  0  0  0  0  0  0  0  0  0  0
    4.7630   -5.3223    9.8360 H   0  0  0  0  0  0  0  0  0  0  0  0
    6.1197   -4.2865    9.3963 H   0  0  0  0  0  0  0  0  0  0  0  0
    5.8775   -5.7010    8.5312 H   0  0  0  0  0  0  0  0  0  0  0  0
    2.9433   -4.5870    6.4741 H   0  0  0  0  0  0  0  0  0  0  0  0
    4.3177   -6.2294    5.8505 H   0  0  0  0  0  0  0  0  0  0  0  0
    4.6782   -6.8435    7.4154 H   0  0  0  0  0  0  0  0  0  0  0  0
    2.3938   -7.2901    5.7674 H   0  0  0  0  0  0  0  0  0  0  0  0
    4.3064  -10.7632    7.3287 H   0  0  0  0  0  0  0  0  0  0  0  0
    3.0370  -10.0359    8.2662 H   0  0  0  0  0  0  0  0  0  0  0  0
    4.5782   -9.2198    8.1145 H   0  0  0  0  0  0  0  0  0  0  0  0
    4.4878   -8.1346    4.6730 H   0  0  0  0  0  0  0  0  0  0  0  0
    5.4664   -8.9517    5.8211 H   0  0  0  0  0  0  0  0  0  0  0  0
    5.4245  -10.1285    3.6619 H   0  0  0  0  0  0  0  0  0  0  0  0
    4.8303  -11.1223    4.9382 H   0  0  0  0  0  0  0  0  0  0  0  0
    3.4508  -10.0414    2.5369 H   0  0  0  0  0  0  0  0  0  0  0  0
    3.0471  -12.2877    4.1328 H   0  0  0  0  0  0  0  0  0  0  0  0
    0.9542   -7.9165    4.0012 H   0  0  0  0  0  0  0  0  0  0  0  0
    1.5982   -8.4863    2.4675 H   0  0  0  0  0  0  0  0  0  0  0  0
    2.6768   -7.8009    3.6437 H   0  0  0  0  0  0  0  0  0  0  0  0
   -0.1757  -10.1316    3.8335 H   0  0  0  0  0  0  0  0  0  0  0  0
    0.6885  -11.6311    4.1624 H   0  0  0  0  0  0  0  0  0  0  0  0
    0.8042  -10.8556    2.5823 H   0  0  0  0  0  0  0  0  0  0  0  0
    2.3086  -10.9242    5.9080 H   0  0  0  0  0  0  0  0  0  0  0  0
   -0.1043  -10.0177    5.9947 H   0  0  0  0  0  0  0  0  0  0  0  0
    0.8241  -10.2341    7.4093 H   0  0  0  0  0  0  0  0  0  0  0  0
    0.2033   -7.5656    6.1233 H   0  0  0  0  0  0  0  0  0  0  0  0
   -0.3687   -8.1854    7.6533 H   0  0  0  0  0  0  0  0  0  0  0  0
    3.1503   -6.6664    9.2050 H   0  0  0  0  0  0  0  0  0  0  0  0
   -0.2060   -5.5335    7.7533 H   0  0  0  0  0  0  0  0  0  0  0  0
    0.8404   -5.5093    6.3195 H   0  0  0  0  0  0  0  0  0  0  0  0
    0.4383   -4.0291    7.1138 H   0  0  0  0  0  0  0  0  0  0  0  0
    0.7994   -4.1610    9.7010 H   0  0  0  0  0  0  0  0  0  0  0  0
    2.4067   -4.5195   10.2272 H   0  0  0  0  0  0  0  0  0  0  0  0
    1.7434   -2.6055    7.9549 H   0  0  0  0  0  0  0  0  0  0  0  0
    2.0843   -1.9051   10.5902 H   0  0  0  0  0  0  0  0  0  0  0  0
    4.1793   -3.3079   10.8361 H   0  0  0  0  0  0  0  0  0  0  0  0
    4.0557   -1.5897   10.5734 H   0  0  0  0  0  0  0  0  0  0  0  0
    5.5056   -2.3980   10.1254 H   0  0  0  0  0  0  0  0  0  0  0  0
  1  2  1  0
  1 42  1  0
  1 43  1  0
  1 44  1  0
  2  3  1  0
  2 39  1  0
  2 45  1  6
  3  4  2  3
  3 46  1  0
  4  5  1  0
  4 47  1  0
  5  6  1  0
  5 48  1  0
  5 49  1  0
  6  7  1  0
  6  8  1  0
  6 50  1  1
  7 51  1  0
  7 52  1  0
  7 53  1  0
  8 37  1  0
  8  9  1  0
  8 54  1  1
  9 10  1  0
  9 55  1  0
  9 56  1  0
 10 11  1  0
 10 57  1  0
 10 58  1  0
 11 37  1  0
 11 12  1  1
 11 13  1  0
 12 59  1  0
 12 60  1  0
 12 61  1  0
 13 32  1  0
 13 14  1  0
 13 62  1  6
 14 15  1  0
 14 63  1  0
 14 64  1  0
 15 28  1  0
 15 16  1  0
 15 65  1  6
 16 25  1  0
 16 17  1  1
 16 18  1  0
 17 66  1  0
 17 67  1  0
 17 68  1  0
 18 19  1  0
 18 69  1  0
 18 70  1  0
 19 20  1  0
 19 71  1  0
 19 72  1  0
 20 21  1  0
 20 22  1  0
 20 73  1  6
 21 74  1  0
 22 23  1  0
 22 24  1  0
 22 25  1  0
 23 75  1  0
 23 76  1  0
 23 77  1  0
 24 78  1  0
 24 79  1  0
 24 80  1  0
 25 26  1  0
 25 81  1  1
 26 27  1  0
 26 82  1  0
 26 83  1  0
 28 27  1  6
 27 84  1  0
 27 85  1  0
 28 31  1  0
 28 29  1  0
 29 30  2  0
 29 31  1  0
 31 32  1  0
 31 86  1  1
 32 33  1  6
 32 34  1  0
 33 87  1  0
 33 88  1  0
 33 89  1  0
 34 35  1  0
 34 90  1  0
 34 91  1  0
 35 36  1  0
 35 37  1  0
 35 92  1  6
 36 93  1  0
 37 38  1  1
 38 94  1  0
 38 95  1  0
 38 96  1  0
 39 40  2  0
 39 41  1  0
M  CHG  1  41  -1
M  END
>  <i_m_ct_stereo_status>  (355) 
1

>  <s_m_source_file>  (355) 
/var/tmp/pbs.5076255.sched01/tmpt95b3wv2/135g3gtwtb2.sdf

>  <i_m_source_file_index>  (355) 
8

>  <i_lp_mmshare_version>  (355) 
48012

>  <i_f3d_flags>  (355) 
0

>  <s_epik_input>  (355) 
Tz1DKFtPSF0pW0NASF0oW0NIM10pL1tDSF09W0NIXS9bQ0gyXVtDQEhdKFtDSDNdKVtDQEhdKFtDSDJdW0NIMl0xKVtDQEBdKFtDSDNdKShbQ0BIXShbT0hdKVtDSDJdW0NAXTIoW0NIM10pW0NIXTNDND1PKVtDQEBdMShbQ0gzXSlbQ0BIXTJbQ0gyXVtDQEhdKEMzNDUpW0NAQF02KFtDSDNdKVtDQEBIXShbQ0gyXVtDSDJdNSlDKFtDSDNdKShbQ0gzXSlbQ0BIXShbT0hdKVtDSDJdW0NIMl02

>  <s_epik_cmdline>  (355) 
J2VwaWtfcHl0aG9uJywgJy1waHQnLCAnMi4wJywgJy1waCcsICc3LjAnLCAnLXRuJywgJzgnLCAnLW1hJywgJzIwMCcsICctaW1hZScsICc8aW5maWxlLm1hZT4nLCAnLW9tYWUnLCAnPG91dGZpbGUubWFlPic=

>  <r_epik_Ionization_Penalty>  (355) 
0.00149679

>  <r_epik_Ionization_Penalty_Charging>  (355) 
0.00149294

>  <r_epik_Ionization_Penalty_Neutral>  (355) 
3.85434e-06

>  <r_epik_State_Penalty>  (355) 
0.000999864

>  <r_epik_Charging_Adjusted_Penalty>  (355) 
0.0024928

>  <i_epik_Tot_Q>  (355) 
-1

>  <i_epik_Tot_abs_Q>  (355) 
1

>  <s_lp_Force_Field>  (355) 
OPLS3e

>  <r_lp_Energy>  (355) 
158.44

>  <b_lp_Chiralities_Consistent>  (355) 
1

>  <s_lp_Variant>  (355) 
93:0-1

>  <s_i_glide_gridfile>  (355) 
pfpi4k_grid

>  <i_i_glide_lignum>  (355) 
8

>  <i_i_glide_rotatable_bonds>  (355) 
7

>  <r_i_docking_score>  (355) 
-1.6489

>  <r_i_glide_ligand_efficiency>  (355) 
-0.0402171

>  <r_i_glide_ligand_efficiency_sa>  (355) 
-0.138677

>  <r_i_glide_ligand_efficiency_ln>  (355) 
-0.34982

>  <r_i_glide_gscore>  (355) 
-1.6489

>  <r_i_glide_lipo>  (355) 
-0.0328865

>  <r_i_glide_hbond>  (355) 
-0.2

>  <r_i_glide_metal>  (355) 
-0

>  <r_i_glide_rewards>  (355) 
0

>  <r_i_glide_evdw>  (355) 
-16.8552

>  <r_i_glide_ecoul>  (355) 
-4.64867

>  <r_i_glide_erotb>  (355) 
0.170804

>  <r_i_glide_esite>  (355) 
-0.0467591

>  <r_i_glide_emodel>  (355) 
-22.6679

>  <r_i_glide_energy>  (355) 
-21.5038

>  <r_i_glide_einternal>  (355) 
3.86114

>  <r_i_glide_intrahb_reward>  (355) 
-0

>  <i_i_glide_confnum>  (355) 
3

>  <i_i_glide_posenum>  (355) 
2

>  <r_i_glide_eff_state_penalty>  (355) 
0

>  <ligand_id>  (355) 
93

>  <original_smiles>  (355) 
CC(C=CCC(C)C1CCC2(C)C3CC4C5(C)CCC(O)C(C)(C)C5CCC45C(=O)C5C3(C)CC(O)C12C)C(=O)O

>  <smiles>  (355) 
[H]OC1([H])C([H])([H])C([H])([H])C2(C([H])([H])[H])C3([H])C([H])([H])C4([H])C(C([H])([H])[H])(C([H])([H])C([H])(O[H])C5(C([H])([H])[H])C([H])(C([H])(C([H])([H])[H])C([H])([H])C([H])=C([H])C([H])(C(=O)[O-])C([H])([H])[H])C([H])([H])C([H])([H])C45C([H])([H])[H])C4([H])C(=O)C43C([H])([H])C([H])([H])C2([H])C1(C([H])([H])[H])C([H])([H])[H]

$$$$
93:1:0
     RDKit          3D

 96101  0  0  1  0  0  0  0  0999 V2000
   -1.8679   -8.6167    2.1701 C   0  0  0  0  0  0  0  0  0  0  0  0
   -0.5008   -8.1693    2.6843 C   0  0  2  0  0  0  0  0  0  0  0  0
   -0.6929   -7.5546    4.0523 C   0  0  0  0  0  0  0  0  0  0  0  0
   -0.2047   -7.9860    5.2037 C   0  0  0  0  0  0  0  0  0  0  0  0
    0.7840   -9.1444    5.3932 C   0  0  0  0  0  0  0  0  0  0  0  0
    1.2128   -9.3534    6.8685 C   0  0  2  0  0  0  0  0  0  0  0  0
    0.0002   -9.8386    7.6771 C   0  0  0  0  0  0  0  0  0  0  0  0
    1.9848   -8.2276    7.6562 C   0  0  2  0  0  0  0  0  0  0  0  0
    1.2667   -6.8782    7.8171 C   0  0  0  0  0  0  0  0  0  0  0  0
    1.8152   -6.0120    6.6475 C   0  0  0  0  0  0  0  0  0  0  0  0
    3.3075   -6.4143    6.4835 C   0  0  2  0  0  0  0  0  0  0  0  0
    4.1157   -5.2878    7.1980 C   0  0  0  0  0  0  0  0  0  0  0  0
    3.6513   -6.4967    4.9154 C   0  0  1  0  0  0  0  0  0  0  0  0
    3.5640   -5.0688    4.1951 C   0  0  0  0  0  0  0  0  0  0  0  0
    4.3872   -4.8713    2.8841 C   0  0  1  0  0  0  0  0  0  0  0  0
    4.4901   -3.4828    2.1632 C   0  0  2  0  0  0  0  0  0  0  0  0
    5.5654   -2.6133    2.8261 C   0  0  0  0  0  0  0  0  0  0  0  0
    3.1467   -2.7149    2.2356 C   0  0  0  0  0  0  0  0  0  0  0  0
    2.9348   -1.7556    1.0655 C   0  0  0  0  0  0  0  0  0  0  0  0
    2.9828   -2.4764   -0.2977 C   0  0  1  0  0  0  0  0  0  0  0  0
    3.4388   -1.5193   -1.2419 O   0  0  0  0  0  0  0  0  0  0  0  0
    3.7713   -3.8070   -0.3591 C   0  0  0  0  0  0  0  0  0  0  0  0
    2.7681   -4.9606   -0.0868 C   0  0  0  0  0  0  0  0  0  0  0  0
    4.2967   -4.0055   -1.8017 C   0  0  0  0  0  0  0  0  0  0  0  0
    4.9374   -3.7322    0.6697 C   0  0  2  0  0  0  0  0  0  0  0  0
    6.0588   -4.8143    0.5247 C   0  0  0  0  0  0  0  0  0  0  0  0
    5.9099   -6.0905    1.3776 C   0  0  0  0  0  0  0  0  0  0  0  0
    5.6905   -5.6629    2.8211 C   0  0  1  0  0  0  0  0  0  0  0  0
    7.0612   -5.7816    3.4369 C   0  0  0  0  0  0  0  0  0  0  0  0
    8.2776   -5.7070    3.2881 O   0  0  0  0  0  0  0  0  0  0  0  0
    5.9416   -6.1701    4.2715 C   0  0  2  0  0  0  0  0  0  0  0  0
    4.9687   -7.2955    4.5368 C   0  0  2  0  0  0  0  0  0  0  0  0
    4.7179   -8.2312    3.3039 C   0  0  0  0  0  0  0  0  0  0  0  0
    5.4332   -8.1850    5.7029 C   0  0  0  0  0  0  0  0  0  0  0  0
    4.2228   -8.8555    6.3846 C   0  0  1  0  0  0  0  0  0  0  0  0
    4.6423   -9.9888    7.1314 O   0  0  0  0  0  0  0  0  0  0  0  0
    3.4419   -7.8136    7.2479 C   0  0  2  0  0  0  0  0  0  0  0  0
    4.2267   -7.6899    8.6039 C   0  0  0  0  0  0  0  0  0  0  0  0
    0.2076   -7.1619    1.7685 C   0  0  0  0  0  0  0  0  0  0  0  0
   -0.5074   -6.2374    1.2651 O   0  0  0  0  0  0  0  0  0  0  0  0
    1.4256   -7.2357    1.6515 O   0  0  0  0  0  0  0  0  0  0  0  0
   -2.5782   -7.7744    2.0967 H   0  0  0  0  0  0  0  0  0  0  0  0
   -2.3035   -9.3444    2.8647 H   0  0  0  0  0  0  0  0  0  0  0  0
   -1.7819   -9.0940    1.1835 H   0  0  0  0  0  0  0  0  0  0  0  0
    0.1457   -9.0328    2.7564 H   0  0  0  0  0  0  0  0  0  0  0  0
   -1.3454   -6.7052    4.0648 H   0  0  0  0  0  0  0  0  0  0  0  0
   -0.5452   -7.4649    6.0941 H   0  0  0  0  0  0  0  0  0  0  0  0
    0.3400  -10.0884    5.0266 H   0  0  0  0  0  0  0  0  0  0  0  0
    1.6281   -8.9860    4.7432 H   0  0  0  0  0  0  0  0  0  0  0  0
    1.8793  -10.2086    6.8657 H   0  0  0  0  0  0  0  0  0  0  0  0
   -0.7970   -9.0978    7.7549 H   0  0  0  0  0  0  0  0  0  0  0  0
    0.3185  -10.1100    8.6820 H   0  0  0  0  0  0  0  0  0  0  0  0
   -0.4268  -10.7296    7.2232 H   0  0  0  0  0  0  0  0  0  0  0  0
    2.0491   -8.6506    8.6669 H   0  0  0  0  0  0  0  0  0  0  0  0
    0.1857   -6.9763    7.8447 H   0  0  0  0  0  0  0  0  0  0  0  0
    1.5823   -6.4346    8.7602 H   0  0  0  0  0  0  0  0  0  0  0  0
    1.3101   -6.1870    5.7169 H   0  0  0  0  0  0  0  0  0  0  0  0
    1.6916   -4.9454    6.8851 H   0  0  0  0  0  0  0  0  0  0  0  0
    5.1980   -5.4437    7.1833 H   0  0  0  0  0  0  0  0  0  0  0  0
    3.8002   -5.1697    8.2353 H   0  0  0  0  0  0  0  0  0  0  0  0
    3.9168   -4.2927    6.8093 H   0  0  0  0  0  0  0  0  0  0  0  0
    2.8571   -7.0891    4.4718 H   0  0  0  0  0  0  0  0  0  0  0  0
    2.5179   -4.9192    3.9418 H   0  0  0  0  0  0  0  0  0  0  0  0
    3.8199   -4.2298    4.8245 H   0  0  0  0  0  0  0  0  0  0  0  0
    3.7440   -5.4393    2.2246 H   0  0  0  0  0  0  0  0  0  0  0  0
    5.5660   -1.5820    2.4667 H   0  0  0  0  0  0  0  0  0  0  0  0
    6.5404   -2.9988    2.5445 H   0  0  0  0  0  0  0  0  0  0  0  0
    5.4618   -2.5769    3.9137 H   0  0  0  0  0  0  0  0  0  0  0  0
    2.2977   -3.3861    2.3174 H   0  0  0  0  0  0  0  0  0  0  0  0
    3.1260   -2.1251    3.1499 H   0  0  0  0  0  0  0  0  0  0  0  0
    1.9698   -1.2687    1.1859 H   0  0  0  0  0  0  0  0  0  0  0  0
    3.6645   -0.9480    1.0962 H   0  0  0  0  0  0  0  0  0  0  0  0
    1.9713   -2.7013   -0.6042 H   0  0  0  0  0  0  0  0  0  0  0  0
    2.6787   -1.0088   -1.4923 H   0  0  0  0  0  0  0  0  0  0  0  0
    3.2701   -5.9229   -0.0333 H   0  0  0  0  0  0  0  0  0  0  0  0
    2.0057   -5.0196   -0.8636 H   0  0  0  0  0  0  0  0  0  0  0  0
    2.2019   -4.8319    0.8299 H   0  0  0  0  0  0  0  0  0  0  0  0
    4.6260   -5.0277   -1.9383 H   0  0  0  0  0  0  0  0  0  0  0  0
    5.1318   -3.3408   -2.0393 H   0  0  0  0  0  0  0  0  0  0  0  0
    3.5030   -3.8301   -2.5324 H   0  0  0  0  0  0  0  0  0  0  0  0
    5.4470   -2.8159    0.3503 H   0  0  0  0  0  0  0  0  0  0  0  0
    6.1793   -5.1083   -0.5067 H   0  0  0  0  0  0  0  0  0  0  0  0
    7.0095   -4.3473    0.7854 H   0  0  0  0  0  0  0  0  0  0  0  0
    5.1041   -6.7149    1.0065 H   0  0  0  0  0  0  0  0  0  0  0  0
    6.8252   -6.6888    1.2909 H   0  0  0  0  0  0  0  0  0  0  0  0
    5.8490   -5.4692    5.1014 H   0  0  0  0  0  0  0  0  0  0  0  0
    5.6529   -8.5206    2.8166 H   0  0  0  0  0  0  0  0  0  0  0  0
    4.0594   -7.7622    2.5721 H   0  0  0  0  0  0  0  0  0  0  0  0
    4.2042   -9.1510    3.5856 H   0  0  0  0  0  0  0  0  0  0  0  0
    6.1027   -8.9524    5.3159 H   0  0  0  0  0  0  0  0  0  0  0  0
    6.0265   -7.6225    6.4241 H   0  0  0  0  0  0  0  0  0  0  0  0
    3.5902   -9.2694    5.6115 H   0  0  0  0  0  0  0  0  0  0  0  0
    3.8748  -10.4320    7.4473 H   0  0  0  0  0  0  0  0  0  0  0  0
    5.2571   -7.3424    8.4803 H   0  0  0  0  0  0  0  0  0  0  0  0
    4.2928   -8.6420    9.1399 H   0  0  0  0  0  0  0  0  0  0  0  0
    3.7303   -7.0188    9.3050 H   0  0  0  0  0  0  0  0  0  0  0  0
  1  2  1  0
  1 42  1  0
  1 43  1  0
  1 44  1  0
  2  3  1  0
  2 39  1  0
  2 45  1  1
  3  4  2  3
  3 46  1  0
  4  5  1  0
  4 47  1  0
  5  6  1  0
  5 48  1  0
  5 49  1  0
  6  7  1  0
  6  8  1  0
  6 50  1  6
  7 51  1  0
  7 52  1  0
  7 53  1  0
  8 37  1  0
  8  9  1  0
  8 54  1  1
  9 10  1  0
  9 55  1  0
  9 56  1  0
 10 11  1  0
 10 57  1  0
 10 58  1  0
 11 37  1  0
 11 12  1  1
 11 13  1  0
 12 59  1  0
 12 60  1  0
 12 61  1  0
 13 32  1  0
 13 14  1  0
 13 62  1  6
 14 15  1  0
 14 63  1  0
 14 64  1  0
 15 28  1  0
 15 16  1  0
 15 65  1  6
 16 25  1  0
 16 17  1  1
 16 18  1  0
 17 66  1  0
 17 67  1  0
 17 68  1  0
 18 19  1  0
 18 69  1  0
 18 70  1  0
 19 20  1  0
 19 71  1  0
 19 72  1  0
 20 21  1  0
 20 22  1  0
 20 73  1  6
 21 74  1  0
 22 23  1  0
 22 24  1  0
 22 25  1  0
 23 75  1  0
 23 76  1  0
 23 77  1  0
 24 78  1  0
 24 79  1  0
 24 80  1  0
 25 26  1  0
 25 81  1  6
 26 27  1  0
 26 82  1  0
 26 83  1  0
 28 27  1  6
 27 84  1  0
 27 85  1  0
 28 31  1  0
 28 29  1  0
 29 30  2  0
 29 31  1  0
 31 32  1  0
 31 86  1  1
 32 33  1  6
 32 34  1  0
 33 87  1  0
 33 88  1  0
 33 89  1  0
 34 35  1  0
 34 90  1  0
 34 91  1  0
 35 36  1  0
 35 37  1  0
 35 92  1  6
 36 93  1  0
 37 38  1  1
 38 94  1  0
 38 95  1  0
 38 96  1  0
 39 40  2  0
 39 41  1  0
M  CHG  1  41  -1
M  END
>  <i_m_ct_stereo_status>  (356) 
1

>  <s_m_source_file>  (356) 
/var/tmp/pbs.5076255.sched01/tmpt95b3wv2/135g3gtwtb2.sdf

>  <i_m_source_file_index>  (356) 
9

>  <i_lp_mmshare_version>  (356) 
48012

>  <i_f3d_flags>  (356) 
0

>  <s_epik_input>  (356) 
Tz1DKFtPSF0pW0NASF0oW0NIM10pL1tDSF09W0NIXS9bQ0gyXVtDQEhdKFtDSDNdKVtDQEhdKFtDSDJdW0NIMl0xKVtDQEBdKFtDSDNdKShbQ0BIXShbT0hdKVtDSDJdW0NAXTIoW0NIM10pW0NIXTNDND1PKVtDQEBdMShbQ0gzXSlbQ0BIXTJbQ0gyXVtDQEhdKEMzNDUpW0NAQF02KFtDSDNdKVtDQEBIXShbQ0gyXVtDSDJdNSlDKFtDSDNdKShbQ0gzXSlbQ0BIXShbT0hdKVtDSDJdW0NIMl02

>  <s_epik_cmdline>  (356) 
J2VwaWtfcHl0aG9uJywgJy1waHQnLCAnMi4wJywgJy1waCcsICc3LjAnLCAnLXRuJywgJzgnLCAnLW1hJywgJzIwMCcsICctaW1hZScsICc8aW5maWxlLm1hZT4nLCAnLW9tYWUnLCAnPG91dGZpbGUubWFlPic=

>  <r_epik_Ionization_Penalty>  (356) 
0.00149679

>  <r_epik_Ionization_Penalty_Charging>  (356) 
0.00149294

>  <r_epik_Ionization_Penalty_Neutral>  (356) 
3.85434e-06

>  <r_epik_State_Penalty>  (356) 
0.000999864

>  <r_epik_Charging_Adjusted_Penalty>  (356) 
0.0024928

>  <i_epik_Tot_Q>  (356) 
-1

>  <i_epik_Tot_abs_Q>  (356) 
1

>  <s_lp_Force_Field>  (356) 
OPLS3e

>  <r_lp_Energy>  (356) 
153.516

>  <b_lp_Chiralities_Consistent>  (356) 
1

>  <s_lp_Variant>  (356) 
93:0-2

>  <s_i_glide_gridfile>  (356) 
pfpi4k_grid

>  <i_i_glide_lignum>  (356) 
9

>  <i_i_glide_rotatable_bonds>  (356) 
7

>  <r_i_docking_score>  (356) 
-2.68083

>  <r_i_glide_ligand_efficiency>  (356) 
-0.065386

>  <r_i_glide_ligand_efficiency_sa>  (356) 
-0.225465

>  <r_i_glide_ligand_efficiency_ln>  (356) 
-0.568746

>  <r_i_glide_gscore>  (356) 
-2.68083

>  <r_i_glide_lipo>  (356) 
-0.501987

>  <r_i_glide_hbond>  (356) 
-0.438709

>  <r_i_glide_metal>  (356) 
-0

>  <r_i_glide_rewards>  (356) 
-0.00232932

>  <r_i_glide_evdw>  (356) 
-17.556

>  <r_i_glide_ecoul>  (356) 
-6.28414

>  <r_i_glide_erotb>  (356) 
0.170804

>  <r_i_glide_esite>  (356) 
-0.0881861

>  <r_i_glide_emodel>  (356) 
-25.6894

>  <r_i_glide_energy>  (356) 
-23.8401

>  <r_i_glide_einternal>  (356) 
4.81916

>  <r_i_glide_intrahb_reward>  (356) 
-0

>  <i_i_glide_confnum>  (356) 
4

>  <i_i_glide_posenum>  (356) 
4

>  <r_i_glide_eff_state_penalty>  (356) 
0

>  <ligand_id>  (356) 
93

>  <original_smiles>  (356) 
CC(C=CCC(C)C1CCC2(C)C3CC4C5(C)CCC(O)C(C)(C)C5CCC45C(=O)C5C3(C)CC(O)C12C)C(=O)O

>  <smiles>  (356) 
[H]OC1([H])C([H])([H])C([H])([H])C2(C([H])([H])[H])C3([H])C([H])([H])C4([H])C(C([H])([H])[H])(C([H])([H])C([H])(O[H])C5(C([H])([H])[H])C([H])(C([H])(C([H])([H])[H])C([H])([H])C([H])=C([H])C([H])(C(=O)[O-])C([H])([H])[H])C([H])([H])C([H])([H])C45C([H])([H])[H])C4([H])C(=O)C43C([H])([H])C([H])([H])C2([H])C1(C([H])([H])[H])C([H])([H])[H]

$$$$
93:1:1
     RDKit          3D

 96101  0  0  1  0  0  0  0  0999 V2000
    3.5387   -6.8821    1.8423 C   0  0  0  0  0  0  0  0  0  0  0  0
    2.0667   -7.2033    2.2059 C   0  0  2  0  0  0  0  0  0  0  0  0
    1.7347   -8.6607    1.8398 C   0  0  0  0  0  0  0  0  0  0  0  0
    1.9784   -9.7607    2.5931 C   0  0  0  0  0  0  0  0  0  0  0  0
    2.6732   -9.8472    3.9571 C   0  0  0  0  0  0  0  0  0  0  0  0
    1.8667  -10.5668    5.0930 C   0  0  2  0  0  0  0  0  0  0  0  0
    1.0351  -11.7452    4.5261 C   0  0  0  0  0  0  0  0  0  0  0  0
    1.0186   -9.6865    6.0850 C   0  0  2  0  0  0  0  0  0  0  0  0
   -0.2343   -9.0376    5.4740 C   0  0  0  0  0  0  0  0  0  0  0  0
    0.1901   -7.6307    5.1096 C   0  0  0  0  0  0  0  0  0  0  0  0
    1.2003   -7.1647    6.2038 C   0  0  2  0  0  0  0  0  0  0  0  0
    0.3857   -6.2533    7.1897 C   0  0  0  0  0  0  0  0  0  0  0  0
    2.3927   -6.3267    5.5356 C   0  0  1  0  0  0  0  0  0  0  0  0
    1.8735   -4.9432    4.8862 C   0  0  0  0  0  0  0  0  0  0  0  0
    2.9576   -3.8477    4.6239 C   0  0  1  0  0  0  0  0  0  0  0  0
    2.5834   -2.4168    4.1275 C   0  0  2  0  0  0  0  0  0  0  0  0
    2.0955   -1.5650    5.3345 C   0  0  0  0  0  0  0  0  0  0  0  0
    1.4314   -2.4661    3.0810 C   0  0  0  0  0  0  0  0  0  0  0  0
    1.4615   -1.3103    2.0734 C   0  0  0  0  0  0  0  0  0  0  0  0
    2.7752   -1.2501    1.2632 C   0  0  1  0  0  0  0  0  0  0  0  0
    2.9578    0.1098    0.9555 O   0  0  0  0  0  0  0  0  0  0  0  0
    4.0336   -1.8794    1.9449 C   0  0  0  0  0  0  0  0  0  0  0  0
    4.1568   -3.3290    1.4555 C   0  0  0  0  0  0  0  0  0  0  0  0
    5.3155   -1.1744    1.4387 C   0  0  0  0  0  0  0  0  0  0  0  0
    3.8692   -1.7342    3.5088 C   0  0  2  0  0  0  0  0  0  0  0  0
    5.1479   -1.9849    4.3617 C   0  0  0  0  0  0  0  0  0  0  0  0
    5.3742   -3.4160    4.9127 C   0  0  0  0  0  0  0  0  0  0  0  0
    4.0968   -3.8271    5.6344 C   0  0  1  0  0  0  0  0  0  0  0  0
    4.3553   -3.4983    7.0982 C   0  0  0  0  0  0  0  0  0  0  0  0
    4.8244   -2.7506    7.9221 O   0  0  0  0  0  0  0  0  0  0  0  0
    3.6317   -4.7552    6.8340 C   0  0  2  0  0  0  0  0  0  0  0  0
    3.7599   -6.1839    6.3396 C   0  0  2  0  0  0  0  0  0  0  0  0
    4.9872   -6.4657    5.4207 C   0  0  0  0  0  0  0  0  0  0  0  0
    3.7909   -7.1936    7.5131 C   0  0  0  0  0  0  0  0  0  0  0  0
    3.2470   -8.5766    7.0598 C   0  0  1  0  0  0  0  0  0  0  0  0
    3.6637   -9.5954    7.9535 O   0  0  0  0  0  0  0  0  0  0  0  0
    1.6850   -8.5255    6.9189 C   0  0  2  0  0  0  0  0  0  0  0  0
    1.0918   -8.6790    8.3681 C   0  0  0  0  0  0  0  0  0  0  0  0
    1.0684   -6.2625    1.5613 C   0  0  0  0  0  0  0  0  0  0  0  0
    1.4158   -5.5322    0.5920 O   0  0  0  0  0  0  0  0  0  0  0  0
   -0.1084   -6.2747    1.9903 O   0  0  0  0  0  0  0  0  0  0  0  0
    3.8084   -6.9193    0.7687 H   0  0  0  0  0  0  0  0  0  0  0  0
    4.1969   -7.5392    2.4196 H   0  0  0  0  0  0  0  0  0  0  0  0
    3.7432   -5.8894    2.2338 H   0  0  0  0  0  0  0  0  0  0  0  0
    1.9467   -7.0833    3.1985 H   0  0  0  0  0  0  0  0  0  0  0  0
    1.2417   -8.8081    0.8797 H   0  0  0  0  0  0  0  0  0  0  0  0
    1.6233  -10.7094    2.2012 H   0  0  0  0  0  0  0  0  0  0  0  0
    3.6085  -10.3905    3.8191 H   0  0  0  0  0  0  0  0  0  0  0  0
    2.9575   -8.8505    4.2494 H   0  0  0  0  0  0  0  0  0  0  0  0
    2.6164  -11.0460    5.7299 H   0  0  0  0  0  0  0  0  0  0  0  0
    0.2590  -11.4246    3.8369 H   0  0  0  0  0  0  0  0  0  0  0  0
    0.5179  -12.3165    5.2878 H   0  0  0  0  0  0  0  0  0  0  0  0
    1.6889  -12.4159    3.9755 H   0  0  0  0  0  0  0  0  0  0  0  0
    0.6233  -10.4237    6.7860 H   0  0  0  0  0  0  0  0  0  0  0  0
   -0.5903   -9.5544    4.5804 H   0  0  0  0  0  0  0  0  0  0  0  0
   -1.0551   -9.0319    6.2048 H   0  0  0  0  0  0  0  0  0  0  0  0
    0.6414   -7.7604    4.1697 H   0  0  0  0  0  0  0  0  0  0  0  0
   -0.6918   -6.9832    5.0256 H   0  0  0  0  0  0  0  0  0  0  0  0
    0.9979   -5.8637    8.0150 H   0  0  0  0  0  0  0  0  0  0  0  0
   -0.4865   -6.7636    7.6115 H   0  0  0  0  0  0  0  0  0  0  0  0
   -0.0813   -5.4049    6.6941 H   0  0  0  0  0  0  0  0  0  0  0  0
    2.7360   -6.9573    4.7694 H   0  0  0  0  0  0  0  0  0  0  0  0
    1.4410   -5.1727    3.9218 H   0  0  0  0  0  0  0  0  0  0  0  0
    1.0748   -4.4242    5.4310 H   0  0  0  0  0  0  0  0  0  0  0  0
    3.4410   -4.2682    3.7396 H   0  0  0  0  0  0  0  0  0  0  0  0
    1.6966   -0.6020    5.0141 H   0  0  0  0  0  0  0  0  0  0  0  0
    2.8980   -1.3518    6.0417 H   0  0  0  0  0  0  0  0  0  0  0  0
    1.3078   -2.0769    5.8886 H   0  0  0  0  0  0  0  0  0  0  0  0
    1.4251   -3.4108    2.5282 H   0  0  0  0  0  0  0  0  0  0  0  0
    0.4759   -2.4448    3.5898 H   0  0  0  0  0  0  0  0  0  0  0  0
    0.6277   -1.4210    1.3801 H   0  0  0  0  0  0  0  0  0  0  0  0
    1.2599   -0.3584    2.5862 H   0  0  0  0  0  0  0  0  0  0  0  0
    2.6117   -1.7490    0.3054 H   0  0  0  0  0  0  0  0  0  0  0  0
    2.2520    0.3362    0.3632 H   0  0  0  0  0  0  0  0  0  0  0  0
    4.9426   -3.8642    1.9805 H   0  0  0  0  0  0  0  0  0  0  0  0
    4.3732   -3.3858    0.3889 H   0  0  0  0  0  0  0  0  0  0  0  0
    3.2256   -3.8608    1.5797 H   0  0  0  0  0  0  0  0  0  0  0  0
    6.2068   -1.7487    1.6832 H   0  0  0  0  0  0  0  0  0  0  0  0
    5.4295   -0.1824    1.8720 H   0  0  0  0  0  0  0  0  0  0  0  0
    5.3104   -1.0683    0.3544 H   0  0  0  0  0  0  0  0  0  0  0  0
    3.7201   -0.6593    3.6174 H   0  0  0  0  0  0  0  0  0  0  0  0
    5.9977   -1.6617    3.7874 H   0  0  0  0  0  0  0  0  0  0  0  0
    5.1205   -1.3147    5.2263 H   0  0  0  0  0  0  0  0  0  0  0  0
    5.6311   -4.1104    4.1062 H   0  0  0  0  0  0  0  0  0  0  0  0
    6.2089   -3.4260    5.6082 H   0  0  0  0  0  0  0  0  0  0  0  0
    2.6218   -4.6400    7.2085 H   0  0  0  0  0  0  0  0  0  0  0  0
    5.9194   -6.0611    5.8163 H   0  0  0  0  0  0  0  0  0  0  0  0
    4.8433   -6.0825    4.4153 H   0  0  0  0  0  0  0  0  0  0  0  0
    5.1432   -7.5230    5.2637 H   0  0  0  0  0  0  0  0  0  0  0  0
    4.8289   -7.3094    7.8236 H   0  0  0  0  0  0  0  0  0  0  0  0
    3.2269   -6.8086    8.3853 H   0  0  0  0  0  0  0  0  0  0  0  0
    3.7261   -8.8482    6.1140 H   0  0  0  0  0  0  0  0  0  0  0  0
    3.2299  -10.3987    7.6824 H   0  0  0  0  0  0  0  0  0  0  0  0
    1.4195   -7.8860    9.0367 H   0  0  0  0  0  0  0  0  0  0  0  0
    1.3945   -9.6217    8.8235 H   0  0  0  0  0  0  0  0  0  0  0  0
    0.0038   -8.7020    8.3631 H   0  0  0  0  0  0  0  0  0  0  0  0
  1  2  1  0
  1 42  1  0
  1 43  1  0
  1 44  1  0
  2  3  1  0
  2 39  1  0
  2 45  1  1
  3  4  2  3
  3 46  1  0
  4  5  1  0
  4 47  1  0
  5  6  1  0
  5 48  1  0
  5 49  1  0
  6  7  1  0
  6  8  1  0
  6 50  1  1
  7 51  1  0
  7 52  1  0
  7 53  1  0
  8 37  1  0
  8  9  1  0
  8 54  1  1
  9 10  1  0
  9 55  1  0
  9 56  1  0
 10 11  1  0
 10 57  1  0
 10 58  1  0
 11 37  1  0
 11 12  1  1
 11 13  1  0
 12 59  1  0
 12 60  1  0
 12 61  1  0
 13 32  1  0
 13 14  1  0
 13 62  1  6
 14 15  1  0
 14 63  1  0
 14 64  1  0
 15 28  1  0
 15 16  1  0
 15 65  1  6
 16 25  1  0
 16 17  1  1
 16 18  1  0
 17 66  1  0
 17 67  1  0
 17 68  1  0
 18 19  1  0
 18 69  1  0
 18 70  1  0
 19 20  1  0
 19 71  1  0
 19 72  1  0
 20 21  1  0
 20 22  1  0
 20 73  1  6
 21 74  1  0
 22 23  1  0
 22 24  1  0
 22 25  1  0
 23 75  1  0
 23 76  1  0
 23 77  1  0
 24 78  1  0
 24 79  1  0
 24 80  1  0
 25 26  1  0
 25 81  1  6
 26 27  1  0
 26 82  1  0
 26 83  1  0
 28 27  1  6
 27 84  1  0
 27 85  1  0
 28 31  1  0
 28 29  1  0
 29 30  2  0
 29 31  1  0
 31 32  1  0
 31 86  1  1
 32 33  1  6
 32 34  1  0
 33 87  1  0
 33 88  1  0
 33 89  1  0
 34 35  1  0
 34 90  1  0
 34 91  1  0
 35 36  1  0
 35 37  1  0
 35 92  1  6
 36 93  1  0
 37 38  1  1
 38 94  1  0
 38 95  1  0
 38 96  1  0
 39 40  2  0
 39 41  1  0
M  CHG  1  41  -1
M  END
>  <i_m_ct_stereo_status>  (357) 
1

>  <s_m_source_file>  (357) 
/var/tmp/pbs.5076255.sched01/tmpt95b3wv2/135g3gtwtb2.sdf

>  <i_m_source_file_index>  (357) 
9

>  <i_lp_mmshare_version>  (357) 
48012

>  <i_f3d_flags>  (357) 
0

>  <s_epik_input>  (357) 
Tz1DKFtPSF0pW0NASF0oW0NIM10pL1tDSF09W0NIXS9bQ0gyXVtDQEhdKFtDSDNdKVtDQEhdKFtDSDJdW0NIMl0xKVtDQEBdKFtDSDNdKShbQ0BIXShbT0hdKVtDSDJdW0NAXTIoW0NIM10pW0NIXTNDND1PKVtDQEBdMShbQ0gzXSlbQ0BIXTJbQ0gyXVtDQEhdKEMzNDUpW0NAQF02KFtDSDNdKVtDQEBIXShbQ0gyXVtDSDJdNSlDKFtDSDNdKShbQ0gzXSlbQ0BIXShbT0hdKVtDSDJdW0NIMl02

>  <s_epik_cmdline>  (357) 
J2VwaWtfcHl0aG9uJywgJy1waHQnLCAnMi4wJywgJy1waCcsICc3LjAnLCAnLXRuJywgJzgnLCAnLW1hJywgJzIwMCcsICctaW1hZScsICc8aW5maWxlLm1hZT4nLCAnLW9tYWUnLCAnPG91dGZpbGUubWFlPic=

>  <r_epik_Ionization_Penalty>  (357) 
0.00149679

>  <r_epik_Ionization_Penalty_Charging>  (357) 
0.00149294

>  <r_epik_Ionization_Penalty_Neutral>  (357) 
3.85434e-06

>  <r_epik_State_Penalty>  (357) 
0.000999864

>  <r_epik_Charging_Adjusted_Penalty>  (357) 
0.0024928

>  <i_epik_Tot_Q>  (357) 
-1

>  <i_epik_Tot_abs_Q>  (357) 
1

>  <s_lp_Force_Field>  (357) 
OPLS3e

>  <r_lp_Energy>  (357) 
153.516

>  <b_lp_Chiralities_Consistent>  (357) 
1

>  <s_lp_Variant>  (357) 
93:0-2

>  <s_i_glide_gridfile>  (357) 
pfpi4k_grid

>  <i_i_glide_lignum>  (357) 
9

>  <i_i_glide_rotatable_bonds>  (357) 
7

>  <r_i_docking_score>  (357) 
-2.1646

>  <r_i_glide_ligand_efficiency>  (357) 
-0.0527951

>  <r_i_glide_ligand_efficiency_sa>  (357) 
-0.182049

>  <r_i_glide_ligand_efficiency_ln>  (357) 
-0.459227

>  <r_i_glide_gscore>  (357) 
-2.1646

>  <r_i_glide_lipo>  (357) 
-0.323712

>  <r_i_glide_hbond>  (357) 
-0.539208

>  <r_i_glide_metal>  (357) 
-0

>  <r_i_glide_rewards>  (357) 
0

>  <r_i_glide_evdw>  (357) 
-16.3596

>  <r_i_glide_ecoul>  (357) 
-7.49111

>  <r_i_glide_erotb>  (357) 
0.170804

>  <r_i_glide_esite>  (357) 
-0.0830158

>  <r_i_glide_emodel>  (357) 
-20.424

>  <r_i_glide_energy>  (357) 
-23.8508

>  <r_i_glide_einternal>  (357) 
7.65576

>  <r_i_glide_intrahb_reward>  (357) 
-0

>  <i_i_glide_confnum>  (357) 
4

>  <i_i_glide_posenum>  (357) 
6

>  <r_i_glide_eff_state_penalty>  (357) 
0

>  <ligand_id>  (357) 
93

>  <original_smiles>  (357) 
CC(C=CCC(C)C1CCC2(C)C3CC4C5(C)CCC(O)C(C)(C)C5CCC45C(=O)C5C3(C)CC(O)C12C)C(=O)O

>  <smiles>  (357) 
[H]OC1([H])C([H])([H])C([H])([H])C2(C([H])([H])[H])C3([H])C([H])([H])C4([H])C(C([H])([H])[H])(C([H])([H])C([H])(O[H])C5(C([H])([H])[H])C([H])(C([H])(C([H])([H])[H])C([H])([H])C([H])=C([H])C([H])(C(=O)[O-])C([H])([H])[H])C([H])([H])C([H])([H])C45C([H])([H])[H])C4([H])C(=O)C43C([H])([H])C([H])([H])C2([H])C1(C([H])([H])[H])C([H])([H])[H]

$$$$
93:1:2
     RDKit          3D

 96101  0  0  1  0  0  0  0  0999 V2000
    5.0884   -4.6218   -0.8876 C   0  0  0  0  0  0  0  0  0  0  0  0
    4.8112   -5.0606    0.5517 C   0  0  2  0  0  0  0  0  0  0  0  0
    3.4101   -5.5465    0.6198 C   0  0  0  0  0  0  0  0  0  0  0  0
    2.9435   -6.5053    1.4237 C   0  0  0  0  0  0  0  0  0  0  0  0
    3.6717   -7.3552    2.4753 C   0  0  0  0  0  0  0  0  0  0  0  0
    3.2288   -8.8409    2.5298 C   0  0  2  0  0  0  0  0  0  0  0  0
    3.6955   -9.5492    1.2631 C   0  0  0  0  0  0  0  0  0  0  0  0
    1.7282   -9.2159    2.8549 C   0  0  2  0  0  0  0  0  0  0  0  0
    0.6577   -8.4868    2.0474 C   0  0  0  0  0  0  0  0  0  0  0  0
    0.2359   -7.2866    2.9274 C   0  0  0  0  0  0  0  0  0  0  0  0
    0.2953   -7.7781    4.3793 C   0  0  2  0  0  0  0  0  0  0  0  0
   -1.2028   -8.0991    4.7089 C   0  0  0  0  0  0  0  0  0  0  0  0
    0.9323   -6.6236    5.3067 C   0  0  1  0  0  0  0  0  0  0  0  0
   -0.0093   -5.3231    5.3968 C   0  0  0  0  0  0  0  0  0  0  0  0
    0.1724   -4.3967    6.6430 C   0  0  1  0  0  0  0  0  0  0  0  0
   -0.7964   -3.2241    6.9293 C   0  0  2  0  0  0  0  0  0  0  0  0
   -2.1178   -3.8199    7.5464 C   0  0  0  0  0  0  0  0  0  0  0  0
   -1.1873   -2.4477    5.6279 C   0  0  0  0  0  0  0  0  0  0  0  0
   -1.4867   -0.9573    5.7684 C   0  0  0  0  0  0  0  0  0  0  0  0
   -0.3088   -0.1597    6.3583 C   0  0  1  0  0  0  0  0  0  0  0  0
   -0.9173    0.8890    7.0956 O   0  0  0  0  0  0  0  0  0  0  0  0
    0.7082   -1.0114    7.2056 C   0  0  0  0  0  0  0  0  0  0  0  0
    1.8428   -1.4813    6.2792 C   0  0  0  0  0  0  0  0  0  0  0  0
    1.3537   -0.0898    8.2631 C   0  0  0  0  0  0  0  0  0  0  0  0
   -0.0098   -2.2337    7.8964 C   0  0  2  0  0  0  0  0  0  0  0  0
    0.6683   -2.9400    9.1015 C   0  0  0  0  0  0  0  0  0  0  0  0
    1.4696   -4.1990    8.7245 C   0  0  0  0  0  0  0  0  0  0  0  0
    0.5774   -5.1222    7.9019 C   0  0  1  0  0  0  0  0  0  0  0  0
    0.0444   -6.0630    8.9482 C   0  0  0  0  0  0  0  0  0  0  0  0
   -0.2985   -6.1904   10.1095 O   0  0  0  0  0  0  0  0  0  0  0  0
    0.3508   -6.6479    7.6409 C   0  0  2  0  0  0  0  0  0  0  0  0
    1.4622   -7.0814    6.7207 C   0  0  2  0  0  0  0  0  0  0  0  0
    2.8526   -6.4143    7.0296 C   0  0  0  0  0  0  0  0  0  0  0  0
    1.6629   -8.6069    6.7609 C   0  0  0  0  0  0  0  0  0  0  0  0
    2.2710   -9.0968    5.4325 C   0  0  1  0  0  0  0  0  0  0  0  0
    2.8878  -10.3533    5.6280 O   0  0  0  0  0  0  0  0  0  0  0  0
    1.1847   -9.1113    4.3191 C   0  0  2  0  0  0  0  0  0  0  0  0
    0.3354  -10.4131    4.5019 C   0  0  0  0  0  0  0  0  0  0  0  0
    5.0303   -3.9599    1.6067 C   0  0  0  0  0  0  0  0  0  0  0  0
    4.5848   -4.1696    2.7577 O   0  0  0  0  0  0  0  0  0  0  0  0
    5.6413   -2.9271    1.2491 O   0  0  0  0  0  0  0  0  0  0  0  0
    4.4207   -3.8158   -1.2029 H   0  0  0  0  0  0  0  0  0  0  0  0
    4.9411   -5.4667   -1.5635 H   0  0  0  0  0  0  0  0  0  0  0  0
    6.1235   -4.2958   -0.9806 H   0  0  0  0  0  0  0  0  0  0  0  0
    5.4575   -5.8976    0.7903 H   0  0  0  0  0  0  0  0  0  0  0  0
    2.6794   -5.0779   -0.0051 H   0  0  0  0  0  0  0  0  0  0  0  0
    1.8922   -6.5516    1.2285 H   0  0  0  0  0  0  0  0  0  0  0  0
    4.7576   -7.3540    2.3091 H   0  0  0  0  0  0  0  0  0  0  0  0
    3.5447   -6.9186    3.4660 H   0  0  0  0  0  0  0  0  0  0  0  0
    3.8454   -9.3347    3.2824 H   0  0  0  0  0  0  0  0  0  0  0  0
    3.2176   -9.1753    0.3706 H   0  0  0  0  0  0  0  0  0  0  0  0
    3.3986  -10.5851    1.3641 H   0  0  0  0  0  0  0  0  0  0  0  0
    4.7783   -9.4948    1.1122 H   0  0  0  0  0  0  0  0  0  0  0  0
    1.6478  -10.2649    2.5477 H   0  0  0  0  0  0  0  0  0  0  0  0
    0.9820   -8.2926    1.0253 H   0  0  0  0  0  0  0  0  0  0  0  0
   -0.2142   -9.1286    1.9024 H   0  0  0  0  0  0  0  0  0  0  0  0
    0.8853   -6.4227    2.9173 H   0  0  0  0  0  0  0  0  0  0  0  0
   -0.7311   -6.8847    2.6164 H   0  0  0  0  0  0  0  0  0  0  0  0
   -1.2868   -8.5770    5.6686 H   0  0  0  0  0  0  0  0  0  0  0  0
   -1.6493   -8.7915    3.9778 H   0  0  0  0  0  0  0  0  0  0  0  0
   -1.8671   -7.2275    4.6490 H   0  0  0  0  0  0  0  0  0  0  0  0
    1.8407   -6.2965    4.7919 H   0  0  0  0  0  0  0  0  0  0  0  0
    0.1921   -4.7338    4.5143 H   0  0  0  0  0  0  0  0  0  0  0  0
   -1.0659   -5.5499    5.3217 H   0  0  0  0  0  0  0  0  0  0  0  0
    1.0898   -3.9036    6.3386 H   0  0  0  0  0  0  0  0  0  0  0  0
   -2.9171   -3.1440    7.4226 H   0  0  0  0  0  0  0  0  0  0  0  0
   -1.9856   -4.1310    8.5991 H   0  0  0  0  0  0  0  0  0  0  0  0
   -2.4888   -4.6969    6.9961 H   0  0  0  0  0  0  0  0  0  0  0  0
   -0.4678   -2.6099    4.8310 H   0  0  0  0  0  0  0  0  0  0  0  0
   -2.1148   -2.7638    5.2639 H   0  0  0  0  0  0  0  0  0  0  0  0
   -1.7376   -0.5652    4.7821 H   0  0  0  0  0  0  0  0  0  0  0  0
   -2.4144   -0.8073    6.3236 H   0  0  0  0  0  0  0  0  0  0  0  0
    0.2228    0.2987    5.5161 H   0  0  0  0  0  0  0  0  0  0  0  0
   -0.2343    1.5213    7.2634 H   0  0  0  0  0  0  0  0  0  0  0  0
    2.5174   -2.1567    6.7978 H   0  0  0  0  0  0  0  0  0  0  0  0
    2.4236   -0.6397    5.9137 H   0  0  0  0  0  0  0  0  0  0  0  0
    1.4870   -1.9971    5.3939 H   0  0  0  0  0  0  0  0  0  0  0  0
    2.2270   -0.5553    8.7069 H   0  0  0  0  0  0  0  0  0  0  0  0
    0.6644    0.1547    9.0723 H   0  0  0  0  0  0  0  0  0  0  0  0
    1.6923    0.8440    7.8202 H   0  0  0  0  0  0  0  0  0  0  0  0
   -0.7187   -1.6672    8.4286 H   0  0  0  0  0  0  0  0  0  0  0  0
    1.2946   -2.2594    9.6642 H   0  0  0  0  0  0  0  0  0  0  0  0
   -0.1171   -3.2318    9.8088 H   0  0  0  0  0  0  0  0  0  0  0  0
    2.3614   -3.9354    8.1674 H   0  0  0  0  0  0  0  0  0  0  0  0
    1.7859   -4.6895    9.6321 H   0  0  0  0  0  0  0  0  0  0  0  0
   -0.5929   -6.9990    7.1561 H   0  0  0  0  0  0  0  0  0  0  0  0
    3.0860   -6.4333    8.0943 H   0  0  0  0  0  0  0  0  0  0  0  0
    2.8990   -5.3880    6.6649 H   0  0  0  0  0  0  0  0  0  0  0  0
    3.6649   -6.9217    6.5180 H   0  0  0  0  0  0  0  0  0  0  0  0
    2.3172   -8.8569    7.5924 H   0  0  0  0  0  0  0  0  0  0  0  0
    0.7199   -9.1208    6.9804 H   0  0  0  0  0  0  0  0  0  0  0  0
    3.0789   -8.4247    5.1490 H   0  0  0  0  0  0  0  0  0  0  0  0
    3.1093  -10.7192    4.7850 H   0  0  0  0  0  0  0  0  0  0  0  0
   -0.1651  -10.4599    5.4672 H   0  0  0  0  0  0  0  0  0  0  0  0
    0.9334  -11.3223    4.4336 H   0  0  0  0  0  0  0  0  0  0  0  0
   -0.4126  -10.5224    3.7152 H   0  0  0  0  0  0  0  0  0  0  0  0
  1  2  1  0
  1 42  1  0
  1 43  1  0
  1 44  1  0
  2  3  1  0
  2 39  1  0
  2 45  1  1
  3  4  2  3
  3 46  1  0
  4  5  1  0
  4 47  1  0
  5  6  1  0
  5 48  1  0
  5 49  1  0
  6  7  1  0
  6  8  1  0
  6 50  1  1
  7 51  1  0
  7 52  1  0
  7 53  1  0
  8 37  1  0
  8  9  1  0
  8 54  1  6
  9 10  1  0
  9 55  1  0
  9 56  1  0
 10 11  1  0
 10 57  1  0
 10 58  1  0
 11 37  1  0
 11 12  1  1
 11 13  1  0
 12 59  1  0
 12 60  1  0
 12 61  1  0
 13 32  1  0
 13 14  1  0
 13 62  1  6
 14 15  1  0
 14 63  1  0
 14 64  1  0
 15 28  1  0
 15 16  1  0
 15 65  1  6
 16 25  1  0
 16 17  1  1
 16 18  1  0
 17 66  1  0
 17 67  1  0
 17 68  1  0
 18 19  1  0
 18 69  1  0
 18 70  1  0
 19 20  1  0
 19 71  1  0
 19 72  1  0
 20 21  1  0
 20 22  1  0
 20 73  1  6
 21 74  1  0
 22 23  1  0
 22 24  1  0
 22 25  1  0
 23 75  1  0
 23 76  1  0
 23 77  1  0
 24 78  1  0
 24 79  1  0
 24 80  1  0
 25 26  1  0
 25 81  1  1
 26 27  1  0
 26 82  1  0
 26 83  1  0
 28 27  1  1
 27 84  1  0
 27 85  1  0
 28 31  1  0
 28 29  1  0
 29 30  2  0
 29 31  1  0
 31 32  1  0
 31 86  1  6
 32 33  1  1
 32 34  1  0
 33 87  1  0
 33 88  1  0
 33 89  1  0
 34 35  1  0
 34 90  1  0
 34 91  1  0
 35 36  1  0
 35 37  1  0
 35 92  1  6
 36 93  1  0
 37 38  1  1
 38 94  1  0
 38 95  1  0
 38 96  1  0
 39 40  2  0
 39 41  1  0
M  CHG  1  41  -1
M  END
>  <i_m_ct_stereo_status>  (358) 
1

>  <s_m_source_file>  (358) 
/var/tmp/pbs.5076255.sched01/tmpt95b3wv2/135g3gtwtb2.sdf

>  <i_m_source_file_index>  (358) 
9

>  <i_lp_mmshare_version>  (358) 
48012

>  <i_f3d_flags>  (358) 
0

>  <s_epik_input>  (358) 
Tz1DKFtPSF0pW0NASF0oW0NIM10pL1tDSF09W0NIXS9bQ0gyXVtDQEhdKFtDSDNdKVtDQEhdKFtDSDJdW0NIMl0xKVtDQEBdKFtDSDNdKShbQ0BIXShbT0hdKVtDSDJdW0NAXTIoW0NIM10pW0NIXTNDND1PKVtDQEBdMShbQ0gzXSlbQ0BIXTJbQ0gyXVtDQEhdKEMzNDUpW0NAQF02KFtDSDNdKVtDQEBIXShbQ0gyXVtDSDJdNSlDKFtDSDNdKShbQ0gzXSlbQ0BIXShbT0hdKVtDSDJdW0NIMl02

>  <s_epik_cmdline>  (358) 
J2VwaWtfcHl0aG9uJywgJy1waHQnLCAnMi4wJywgJy1waCcsICc3LjAnLCAnLXRuJywgJzgnLCAnLW1hJywgJzIwMCcsICctaW1hZScsICc8aW5maWxlLm1hZT4nLCAnLW9tYWUnLCAnPG91dGZpbGUubWFlPic=

>  <r_epik_Ionization_Penalty>  (358) 
0.00149679

>  <r_epik_Ionization_Penalty_Charging>  (358) 
0.00149294

>  <r_epik_Ionization_Penalty_Neutral>  (358) 
3.85434e-06

>  <r_epik_State_Penalty>  (358) 
0.000999864

>  <r_epik_Charging_Adjusted_Penalty>  (358) 
0.0024928

>  <i_epik_Tot_Q>  (358) 
-1

>  <i_epik_Tot_abs_Q>  (358) 
1

>  <s_lp_Force_Field>  (358) 
OPLS3e

>  <r_lp_Energy>  (358) 
153.516

>  <b_lp_Chiralities_Consistent>  (358) 
1

>  <s_lp_Variant>  (358) 
93:0-2

>  <s_i_glide_gridfile>  (358) 
pfpi4k_grid

>  <i_i_glide_lignum>  (358) 
9

>  <i_i_glide_rotatable_bonds>  (358) 
7

>  <r_i_docking_score>  (358) 
-0.648861

>  <r_i_glide_ligand_efficiency>  (358) 
-0.0158259

>  <r_i_glide_ligand_efficiency_sa>  (358) 
-0.0545711

>  <r_i_glide_ligand_efficiency_ln>  (358) 
-0.137658

>  <r_i_glide_gscore>  (358) 
-0.648861

>  <r_i_glide_lipo>  (358) 
-0.110687

>  <r_i_glide_hbond>  (358) 
-0.346454

>  <r_i_glide_metal>  (358) 
-0

>  <r_i_glide_rewards>  (358) 
-0.0447153

>  <r_i_glide_evdw>  (358) 
-6.96484

>  <r_i_glide_ecoul>  (358) 
-0.483052

>  <r_i_glide_erotb>  (358) 
0.170804

>  <r_i_glide_esite>  (358) 
-0.0268301

>  <r_i_glide_emodel>  (358) 
-3.16062

>  <r_i_glide_energy>  (358) 
-7.44789

>  <r_i_glide_einternal>  (358) 
3.32532

>  <r_i_glide_intrahb_reward>  (358) 
-0

>  <i_i_glide_confnum>  (358) 
4

>  <i_i_glide_posenum>  (358) 
12

>  <r_i_glide_eff_state_penalty>  (358) 
0

>  <ligand_id>  (358) 
93

>  <original_smiles>  (358) 
CC(C=CCC(C)C1CCC2(C)C3CC4C5(C)CCC(O)C(C)(C)C5CCC45C(=O)C5C3(C)CC(O)C12C)C(=O)O

>  <smiles>  (358) 
[H]OC1([H])C([H])([H])C([H])([H])C2(C([H])([H])[H])C3([H])C([H])([H])C4([H])C(C([H])([H])[H])(C([H])([H])C([H])(O[H])C5(C([H])([H])[H])C([H])(C([H])(C([H])([H])[H])C([H])([H])C([H])=C([H])C([H])(C(=O)[O-])C([H])([H])[H])C([H])([H])C([H])([H])C45C([H])([H])[H])C4([H])C(=O)C43C([H])([H])C([H])([H])C2([H])C1(C([H])([H])[H])C([H])([H])[H]

$$$$
93:2:0
     RDKit          3D

 96101  0  0  1  0  0  0  0  0999 V2000
   -5.3912    4.4718    2.1968 C   0  0  0  0  0  0  0  0  0  0  0  0
   -4.3550    5.4730    1.6062 C   0  0  2  0  0  0  0  0  0  0  0  0
   -3.0118    5.2630    2.2914 C   0  0  0  0  0  0  0  0  0  0  0  0
   -1.9040    6.0292    2.0889 C   0  0  0  0  0  0  0  0  0  0  0  0
   -0.6035    5.9216    2.8854 C   0  0  0  0  0  0  0  0  0  0  0  0
   -0.4022    4.6028    3.6822 C   0  0  2  0  0  0  0  0  0  0  0  0
   -1.4881    4.5063    4.8072 C   0  0  0  0  0  0  0  0  0  0  0  0
    1.0439    4.4875    4.2855 C   0  0  2  0  0  0  0  0  0  0  0  0
    2.1597    4.7016    3.2393 C   0  0  0  0  0  0  0  0  0  0  0  0
    3.2184    3.6588    3.5277 C   0  0  0  0  0  0  0  0  0  0  0  0
    2.5215    2.4530    4.1865 C   0  0  2  0  0  0  0  0  0  0  0  0
    3.5798    1.6179    4.9489 C   0  0  0  0  0  0  0  0  0  0  0  0
    1.7933    1.5691    3.0937 C   0  0  1  0  0  0  0  0  0  0  0  0
    2.7364    0.8121    2.0899 C   0  0  0  0  0  0  0  0  0  0  0  0
    2.9646   -0.7374    2.2362 C   0  0  1  0  0  0  0  0  0  0  0  0
    4.3461   -1.2920    1.6841 C   0  0  2  0  0  0  0  0  0  0  0  0
    5.5656   -0.4955    2.2493 C   0  0  0  0  0  0  0  0  0  0  0  0
    4.4492   -1.0957    0.1392 C   0  0  0  0  0  0  0  0  0  0  0  0
    3.7208   -2.1508   -0.7022 C   0  0  0  0  0  0  0  0  0  0  0  0
    4.2117   -3.5609   -0.3470 C   0  0  1  0  0  0  0  0  0  0  0  0
    5.5623   -3.6924   -0.7511 O   0  0  0  0  0  0  0  0  0  0  0  0
    4.0030   -3.9028    1.1623 C   0  0  0  0  0  0  0  0  0  0  0  0
    2.4957   -4.1074    1.3993 C   0  0  0  0  0  0  0  0  0  0  0  0
    4.7062   -5.2565    1.4497 C   0  0  0  0  0  0  0  0  0  0  0  0
    4.6104   -2.7846    2.0896 C   0  0  2  0  0  0  0  0  0  0  0  0
    4.4447   -3.0226    3.6200 C   0  0  0  0  0  0  0  0  0  0  0  0
    3.6183   -1.9763    4.4049 C   0  0  0  0  0  0  0  0  0  0  0  0
    2.5152   -1.2943    3.5929 C   0  0  2  0  0  0  0  0  0  0  0  0
    1.1755   -1.9570    3.7095 C   0  0  0  0  0  0  0  0  0  0  0  0
    0.4767   -2.9712    3.6790 O   0  0  0  0  0  0  0  0  0  0  0  0
    1.3425   -0.5981    4.2953 C   0  0  2  0  0  0  0  0  0  0  0  0
    0.6955    0.6255    3.6302 C   0  0  2  0  0  0  0  0  0  0  0  0
   -0.2377    0.2546    2.4608 C   0  0  0  0  0  0  0  0  0  0  0  0
   -0.2465    1.3438    4.6269 C   0  0  0  0  0  0  0  0  0  0  0  0
    0.4285    2.2355    5.6842 C   0  0  1  0  0  0  0  0  0  0  0  0
    0.8932    1.3971    6.7191 O   0  0  0  0  0  0  0  0  0  0  0  0
    1.5163    3.2157    5.1287 C   0  0  2  0  0  0  0  0  0  0  0  0
    2.2316    3.8407    6.3699 C   0  0  0  0  0  0  0  0  0  0  0  0
   -4.9020    6.9355    1.6585 C   0  0  0  0  0  0  0  0  0  0  0  0
   -6.0933    7.1204    1.3163 O   0  0  0  0  0  0  0  0  0  0  0  0
   -4.1382    7.8467    2.0633 O   0  0  0  0  0  0  0  0  0  0  0  0
   -5.6882    4.6026    3.2385 H   0  0  0  0  0  0  0  0  0  0  0  0
   -5.0472    3.4422    2.1100 H   0  0  0  0  0  0  0  0  0  0  0  0
   -6.3053    4.5988    1.6269 H   0  0  0  0  0  0  0  0  0  0  0  0
   -4.2154    5.2176    0.5548 H   0  0  0  0  0  0  0  0  0  0  0  0
   -3.0334    4.4430    2.9499 H   0  0  0  0  0  0  0  0  0  0  0  0
   -1.9140    6.8136    1.3389 H   0  0  0  0  0  0  0  0  0  0  0  0
    0.1929    6.1101    2.1627 H   0  0  0  0  0  0  0  0  0  0  0  0
   -0.5473    6.7750    3.5667 H   0  0  0  0  0  0  0  0  0  0  0  0
   -0.5206    3.8206    2.9225 H   0  0  0  0  0  0  0  0  0  0  0  0
   -1.1563    4.9989    5.7285 H   0  0  0  0  0  0  0  0  0  0  0  0
   -1.8166    3.4839    4.9876 H   0  0  0  0  0  0  0  0  0  0  0  0
   -2.4381    4.9122    4.5431 H   0  0  0  0  0  0  0  0  0  0  0  0
    1.0922    5.3613    4.9364 H   0  0  0  0  0  0  0  0  0  0  0  0
    1.8125    4.5458    2.2191 H   0  0  0  0  0  0  0  0  0  0  0  0
    2.5823    5.7060    3.2751 H   0  0  0  0  0  0  0  0  0  0  0  0
    3.7110    3.4413    2.6030 H   0  0  0  0  0  0  0  0  0  0  0  0
    3.9867    4.0697    4.1817 H   0  0  0  0  0  0  0  0  0  0  0  0
    3.1410    0.8545    5.5837 H   0  0  0  0  0  0  0  0  0  0  0  0
    4.2131    2.2305    5.5854 H   0  0  0  0  0  0  0  0  0  0  0  0
    4.2577    1.1138    4.2673 H   0  0  0  0  0  0  0  0  0  0  0  0
    1.2458    2.2803    2.4763 H   0  0  0  0  0  0  0  0  0  0  0  0
    2.3466    0.9730    1.0887 H   0  0  0  0  0  0  0  0  0  0  0  0
    3.6745    1.3307    2.0594 H   0  0  0  0  0  0  0  0  0  0  0  0
    2.2401   -1.1507    1.5469 H   0  0  0  0  0  0  0  0  0  0  0  0
    6.5306   -0.9046    1.9165 H   0  0  0  0  0  0  0  0  0  0  0  0
    5.6048   -0.4260    3.3406 H   0  0  0  0  0  0  0  0  0  0  0  0
    5.5717    0.4935    1.8443 H   0  0  0  0  0  0  0  0  0  0  0  0
    4.1145   -0.1010   -0.1545 H   0  0  0  0  0  0  0  0  0  0  0  0
    5.4934   -1.1202   -0.1734 H   0  0  0  0  0  0  0  0  0  0  0  0
    2.6431   -2.0792   -0.5706 H   0  0  0  0  0  0  0  0  0  0  0  0
    3.8890   -1.9609   -1.7626 H   0  0  0  0  0  0  0  0  0  0  0  0
    3.6559   -4.2838   -0.9485 H   0  0  0  0  0  0  0  0  0  0  0  0
    5.5727   -3.8377   -1.6948 H   0  0  0  0  0  0  0  0  0  0  0  0
    2.2751   -4.4070    2.4202 H   0  0  0  0  0  0  0  0  0  0  0  0
    2.0993   -4.8831    0.7467 H   0  0  0  0  0  0  0  0  0  0  0  0
    1.9131   -3.2155    1.1957 H   0  0  0  0  0  0  0  0  0  0  0  0
    4.4520   -5.6683    2.4249 H   0  0  0  0  0  0  0  0  0  0  0  0
    5.7921   -5.1712    1.4218 H   0  0  0  0  0  0  0  0  0  0  0  0
    4.4337   -6.0118    0.7127 H   0  0  0  0  0  0  0  0  0  0  0  0
    5.6817   -2.9182    1.9198 H   0  0  0  0  0  0  0  0  0  0  0  0
    4.0322   -4.0107    3.8122 H   0  0  0  0  0  0  0  0  0  0  0  0
    5.4351   -3.0572    4.0828 H   0  0  0  0  0  0  0  0  0  0  0  0
    3.2040   -2.4503    5.2960 H   0  0  0  0  0  0  0  0  0  0  0  0
    4.2829   -1.2136    4.7997 H   0  0  0  0  0  0  0  0  0  0  0  0
    1.3705   -0.5638    5.3748 H   0  0  0  0  0  0  0  0  0  0  0  0
   -1.0766   -0.2661    2.9019 H   0  0  0  0  0  0  0  0  0  0  0  0
    0.2272   -0.3146    1.6495 H   0  0  0  0  0  0  0  0  0  0  0  0
   -0.6900    1.1227    1.9764 H   0  0  0  0  0  0  0  0  0  0  0  0
   -0.9086    1.9445    4.0188 H   0  0  0  0  0  0  0  0  0  0  0  0
   -0.9179    0.6274    5.1102 H   0  0  0  0  0  0  0  0  0  0  0  0
   -0.3164    2.8079    6.2268 H   0  0  0  0  0  0  0  0  0  0  0  0
    1.5838    0.8469    6.3602 H   0  0  0  0  0  0  0  0  0  0  0  0
    2.7167    3.1080    7.0097 H   0  0  0  0  0  0  0  0  0  0  0  0
    1.5197    4.3688    7.0033 H   0  0  0  0  0  0  0  0  0  0  0  0
    2.9958    4.5685    6.0987 H   0  0  0  0  0  0  0  0  0  0  0  0
  1  2  1  0
  1 42  1  0
  1 43  1  0
  1 44  1  0
  2  3  1  0
  2 39  1  0
  2 45  1  6
  3  4  2  3
  3 46  1  0
  4  5  1  0
  4 47  1  0
  5  6  1  0
  5 48  1  0
  5 49  1  0
  6  7  1  0
  6  8  1  0
  6 50  1  6
  7 51  1  0
  7 52  1  0
  7 53  1  0
  8 37  1  0
  8  9  1  0
  8 54  1  1
  9 10  1  0
  9 55  1  0
  9 56  1  0
 10 11  1  0
 10 57  1  0
 10 58  1  0
 11 37  1  0
 11 12  1  1
 11 13  1  0
 12 59  1  0
 12 60  1  0
 12 61  1  0
 13 32  1  0
 13 14  1  0
 13 62  1  6
 14 15  1  0
 14 63  1  0
 14 64  1  0
 15 28  1  0
 15 16  1  0
 15 65  1  6
 16 25  1  0
 16 17  1  1
 16 18  1  0
 17 66  1  0
 17 67  1  0
 17 68  1  0
 18 19  1  0
 18 69  1  0
 18 70  1  0
 19 20  1  0
 19 71  1  0
 19 72  1  0
 20 21  1  0
 20 22  1  0
 20 73  1  6
 21 74  1  0
 22 23  1  0
 22 24  1  0
 22 25  1  0
 23 75  1  0
 23 76  1  0
 23 77  1  0
 24 78  1  0
 24 79  1  0
 24 80  1  0
 25 26  1  0
 25 81  1  1
 26 27  1  0
 26 82  1  0
 26 83  1  0
 28 27  1  1
 27 84  1  0
 27 85  1  0
 28 31  1  0
 28 29  1  0
 29 30  2  0
 29 31  1  0
 31 32  1  0
 31 86  1  1
 32 33  1  6
 32 34  1  0
 33 87  1  0
 33 88  1  0
 33 89  1  0
 34 35  1  0
 34 90  1  0
 34 91  1  0
 35 36  1  0
 35 37  1  0
 35 92  1  1
 36 93  1  0
 37 38  1  1
 38 94  1  0
 38 95  1  0
 38 96  1  0
 39 40  2  0
 39 41  1  0
M  CHG  1  41  -1
M  END
>  <i_m_ct_stereo_status>  (359) 
1

>  <s_m_source_file>  (359) 
/var/tmp/pbs.5076255.sched01/tmpt95b3wv2/135g3gtwtb2.sdf

>  <i_m_source_file_index>  (359) 
10

>  <i_lp_mmshare_version>  (359) 
48012

>  <i_f3d_flags>  (359) 
0

>  <s_epik_input>  (359) 
Tz1DKFtPSF0pW0NASF0oW0NIM10pL1tDSF09W0NIXS9bQ0gyXVtDQEhdKFtDSDNdKVtDQEhdKFtDSDJdW0NIMl0xKVtDQEBdKFtDSDNdKShbQ0BIXShbT0hdKVtDSDJdW0NAXTIoW0NIM10pW0NIXTNDND1PKVtDQEBdMShbQ0gzXSlbQ0BIXTJbQ0gyXVtDQEhdKEMzNDUpW0NAQF02KFtDSDNdKVtDQEBIXShbQ0gyXVtDSDJdNSlDKFtDSDNdKShbQ0gzXSlbQ0BIXShbT0hdKVtDSDJdW0NIMl02

>  <s_epik_cmdline>  (359) 
J2VwaWtfcHl0aG9uJywgJy1waHQnLCAnMi4wJywgJy1waCcsICc3LjAnLCAnLXRuJywgJzgnLCAnLW1hJywgJzIwMCcsICctaW1hZScsICc8aW5maWxlLm1hZT4nLCAnLW9tYWUnLCAnPG91dGZpbGUubWFlPic=

>  <r_epik_Ionization_Penalty>  (359) 
0.00149679

>  <r_epik_Ionization_Penalty_Charging>  (359) 
0.00149294

>  <r_epik_Ionization_Penalty_Neutral>  (359) 
3.85434e-06

>  <r_epik_State_Penalty>  (359) 
0.000999864

>  <r_epik_Charging_Adjusted_Penalty>  (359) 
0.0024928

>  <i_epik_Tot_Q>  (359) 
-1

>  <i_epik_Tot_abs_Q>  (359) 
1

>  <s_lp_Force_Field>  (359) 
OPLS3e

>  <r_lp_Energy>  (359) 
113.809

>  <b_lp_Chiralities_Consistent>  (359) 
1

>  <s_lp_Variant>  (359) 
93:0-3

>  <s_i_glide_gridfile>  (359) 
pfpi4k_grid

>  <i_i_glide_lignum>  (359) 
10

>  <i_i_glide_rotatable_bonds>  (359) 
7

>  <r_i_docking_score>  (359) 
-1.95873

>  <r_i_glide_ligand_efficiency>  (359) 
-0.0477739

>  <r_i_glide_ligand_efficiency_sa>  (359) 
-0.164735

>  <r_i_glide_ligand_efficiency_ln>  (359) 
-0.415551

>  <r_i_glide_gscore>  (359) 
-1.95873

>  <r_i_glide_lipo>  (359) 
-0.283576

>  <r_i_glide_hbond>  (359) 
-0.160188

>  <r_i_glide_metal>  (359) 
-0

>  <r_i_glide_rewards>  (359) 
-0.139457

>  <r_i_glide_evdw>  (359) 
-17.5723

>  <r_i_glide_ecoul>  (359) 
-4.45131

>  <r_i_glide_erotb>  (359) 
0.170804

>  <r_i_glide_esite>  (359) 
0

>  <r_i_glide_emodel>  (359) 
-20.8295

>  <r_i_glide_energy>  (359) 
-22.0236

>  <r_i_glide_einternal>  (359) 
4.85322

>  <r_i_glide_intrahb_reward>  (359) 
-0

>  <i_i_glide_confnum>  (359) 
1

>  <i_i_glide_posenum>  (359) 
16

>  <r_i_glide_eff_state_penalty>  (359) 
0

>  <ligand_id>  (359) 
93

>  <original_smiles>  (359) 
CC(C=CCC(C)C1CCC2(C)C3CC4C5(C)CCC(O)C(C)(C)C5CCC45C(=O)C5C3(C)CC(O)C12C)C(=O)O

>  <smiles>  (359) 
[H]OC1([H])C([H])([H])C([H])([H])C2(C([H])([H])[H])C3([H])C([H])([H])C4([H])C(C([H])([H])[H])(C([H])([H])C([H])(O[H])C5(C([H])([H])[H])C([H])(C([H])(C([H])([H])[H])C([H])([H])C([H])=C([H])C([H])(C(=O)[O-])C([H])([H])[H])C([H])([H])C([H])([H])C45C([H])([H])[H])C4([H])C(=O)C43C([H])([H])C([H])([H])C2([H])C1(C([H])([H])[H])C([H])([H])[H]

$$$$
93:2:1
     RDKit          3D

 96101  0  0  1  0  0  0  0  0999 V2000
    0.9883   -9.3108    2.7168 C   0  0  0  0  0  0  0  0  0  0  0  0
    0.9818   -7.9620    1.9607 C   0  0  2  0  0  0  0  0  0  0  0  0
    1.9919   -6.9984    2.5682 C   0  0  0  0  0  0  0  0  0  0  0  0
    2.5322   -5.9862    1.8828 C   0  0  0  0  0  0  0  0  0  0  0  0
    3.4886   -4.9364    2.4480 C   0  0  0  0  0  0  0  0  0  0  0  0
    3.0166   -3.4575    2.2621 C   0  0  2  0  0  0  0  0  0  0  0  0
    2.8196   -3.2215    0.7261 C   0  0  0  0  0  0  0  0  0  0  0  0
    4.0461   -2.4760    2.9562 C   0  0  2  0  0  0  0  0  0  0  0  0
    4.1863   -2.6654    4.4864 C   0  0  0  0  0  0  0  0  0  0  0  0
    4.2416   -1.2772    5.1408 C   0  0  0  0  0  0  0  0  0  0  0  0
    3.4998   -0.3213    4.1902 C   0  0  2  0  0  0  0  0  0  0  0  0
    3.9571    1.1371    4.4699 C   0  0  0  0  0  0  0  0  0  0  0  0
    1.9390   -0.4348    4.3970 C   0  0  1  0  0  0  0  0  0  0  0  0
    1.3976    0.0351    5.7810 C   0  0  0  0  0  0  0  0  0  0  0  0
    0.6020    1.3870    5.8807 C   0  0  1  0  0  0  0  0  0  0  0  0
    0.7143    2.1122    7.2754 C   0  0  2  0  0  0  0  0  0  0  0  0
    2.1724    2.2378    7.7986 C   0  0  0  0  0  0  0  0  0  0  0  0
    0.0172    1.2766    8.3626 C   0  0  0  0  0  0  0  0  0  0  0  0
   -1.4895    1.3900    8.4122 C   0  0  0  0  0  0  0  0  0  0  0  0
   -1.9732    2.8268    8.5852 C   0  0  1  0  0  0  0  0  0  0  0  0
   -1.5965    3.2642    9.8743 O   0  0  0  0  0  0  0  0  0  0  0  0
   -1.4359    3.7407    7.4492 C   0  0  0  0  0  0  0  0  0  0  0  0
   -2.2680    3.4012    6.1786 C   0  0  0  0  0  0  0  0  0  0  0  0
   -1.6713    5.2207    7.8705 C   0  0  0  0  0  0  0  0  0  0  0  0
    0.1108    3.5559    7.2424 C   0  0  2  0  0  0  0  0  0  0  0  0
    0.7194    4.4225    6.1103 C   0  0  0  0  0  0  0  0  0  0  0  0
    1.3733    3.6569    4.9532 C   0  0  0  0  0  0  0  0  0  0  0  0
    0.7542    2.3052    4.6548 C   0  0  2  0  0  0  0  0  0  0  0  0
   -0.3142    2.3041    3.6000 C   0  0  0  0  0  0  0  0  0  0  0  0
   -1.4230    2.6885    3.1850 O   0  0  0  0  0  0  0  0  0  0  0  0
    0.9825    1.6319    3.3148 C   0  0  2  0  0  0  0  0  0  0  0  0
    1.0528    0.1081    3.2582 C   0  0  2  0  0  0  0  0  0  0  0  0
   -0.3455   -0.5254    3.3905 C   0  0  0  0  0  0  0  0  0  0  0  0
    1.5558   -0.3781    1.8917 C   0  0  0  0  0  0  0  0  0  0  0  0
    3.0750   -0.3828    1.6422 C   0  0  1  0  0  0  0  0  0  0  0  0
    3.3654    0.9449    1.3355 O   0  0  0  0  0  0  0  0  0  0  0  0
    3.9658   -0.9127    2.7976 C   0  0  2  0  0  0  0  0  0  0  0  0
    5.4529   -0.5401    2.4742 C   0  0  0  0  0  0  0  0  0  0  0  0
   -0.3908   -7.2984    1.9176 C   0  0  0  0  0  0  0  0  0  0  0  0
   -0.5359   -6.3802    1.0703 O   0  0  0  0  0  0  0  0  0  0  0  0
   -1.2631   -7.6043    2.7712 O   0  0  0  0  0  0  0  0  0  0  0  0
    0.7200   -9.1772    3.7655 H   0  0  0  0  0  0  0  0  0  0  0  0
    1.9742   -9.7692    2.6760 H   0  0  0  0  0  0  0  0  0  0  0  0
    0.2788  -10.0115    2.2752 H   0  0  0  0  0  0  0  0  0  0  0  0
    1.2729   -8.1622    0.9243 H   0  0  0  0  0  0  0  0  0  0  0  0
    2.2436   -7.1373    3.6079 H   0  0  0  0  0  0  0  0  0  0  0  0
    2.2490   -5.9309    0.8414 H   0  0  0  0  0  0  0  0  0  0  0  0
    3.6666   -5.1631    3.5021 H   0  0  0  0  0  0  0  0  0  0  0  0
    4.4415   -5.0678    1.9376 H   0  0  0  0  0  0  0  0  0  0  0  0
    2.0657   -3.3481    2.7875 H   0  0  0  0  0  0  0  0  0  0  0  0
    3.7784   -2.9851    0.2506 H   0  0  0  0  0  0  0  0  0  0  0  0
    2.0965   -2.4528    0.4724 H   0  0  0  0  0  0  0  0  0  0  0  0
    2.3827   -4.0550    0.1913 H   0  0  0  0  0  0  0  0  0  0  0  0
    5.0052   -2.7771    2.5290 H   0  0  0  0  0  0  0  0  0  0  0  0
    3.3291   -3.2072    4.8785 H   0  0  0  0  0  0  0  0  0  0  0  0
    5.0793   -3.2365    4.7430 H   0  0  0  0  0  0  0  0  0  0  0  0
    3.8485   -1.2986    6.1543 H   0  0  0  0  0  0  0  0  0  0  0  0
    5.2812   -0.9609    5.2353 H   0  0  0  0  0  0  0  0  0  0  0  0
    3.5886    1.8463    3.7310 H   0  0  0  0  0  0  0  0  0  0  0  0
    5.0386    1.2405    4.4977 H   0  0  0  0  0  0  0  0  0  0  0  0
    3.6047    1.4799    5.4392 H   0  0  0  0  0  0  0  0  0  0  0  0
    1.7586   -1.5065    4.3790 H   0  0  0  0  0  0  0  0  0  0  0  0
    0.7254   -0.7456    6.1338 H   0  0  0  0  0  0  0  0  0  0  0  0
    2.2010    0.0002    6.4946 H   0  0  0  0  0  0  0  0  0  0  0  0
   -0.4346    1.0759    5.8158 H   0  0  0  0  0  0  0  0  0  0  0  0
    2.1994    2.7934    8.7386 H   0  0  0  0  0  0  0  0  0  0  0  0
    2.8253    2.7631    7.1096 H   0  0  0  0  0  0  0  0  0  0  0  0
    2.6212    1.2751    8.0381 H   0  0  0  0  0  0  0  0  0  0  0  0
    0.2678    0.2242    8.2759 H   0  0  0  0  0  0  0  0  0  0  0  0
    0.3743    1.5650    9.3500 H   0  0  0  0  0  0  0  0  0  0  0  0
   -1.9820    0.9225    7.5691 H   0  0  0  0  0  0  0  0  0  0  0  0
   -1.7260    0.8133    9.2754 H   0  0  0  0  0  0  0  0  0  0  0  0
   -3.0669    2.8407    8.5902 H   0  0  0  0  0  0  0  0  0  0  0  0
   -0.6704    3.1216    9.9866 H   0  0  0  0  0  0  0  0  0  0  0  0
   -2.0011    4.0346    5.3381 H   0  0  0  0  0  0  0  0  0  0  0  0
   -3.3432    3.5035    6.3399 H   0  0  0  0  0  0  0  0  0  0  0  0
   -2.1349    2.3721    5.8491 H   0  0  0  0  0  0  0  0  0  0  0  0
   -1.3672    5.9221    7.0825 H   0  0  0  0  0  0  0  0  0  0  0  0
   -1.1876    5.4475    8.8394 H   0  0  0  0  0  0  0  0  0  0  0  0
   -2.7329    5.3772    8.0438 H   0  0  0  0  0  0  0  0  0  0  0  0
    0.4773    4.0170    8.1578 H   0  0  0  0  0  0  0  0  0  0  0  0
   -0.0302    5.0719    5.6721 H   0  0  0  0  0  0  0  0  0  0  0  0
    1.4545    5.0958    6.5527 H   0  0  0  0  0  0  0  0  0  0  0  0
    1.3363    4.2746    4.0552 H   0  0  0  0  0  0  0  0  0  0  0  0
    2.4291    3.5297    5.1615 H   0  0  0  0  0  0  0  0  0  0  0  0
    1.6564    2.1199    2.6174 H   0  0  0  0  0  0  0  0  0  0  0  0
   -0.9591   -0.1801    2.5547 H   0  0  0  0  0  0  0  0  0  0  0  0
   -0.8969   -0.3253    4.3019 H   0  0  0  0  0  0  0  0  0  0  0  0
   -0.2536   -1.6042    3.3169 H   0  0  0  0  0  0  0  0  0  0  0  0
    1.2019   -1.3934    1.8063 H   0  0  0  0  0  0  0  0  0  0  0  0
    1.0627    0.1953    1.1008 H   0  0  0  0  0  0  0  0  0  0  0  0
    3.3513   -0.8188    0.6865 H   0  0  0  0  0  0  0  0  0  0  0  0
    4.2791    1.0232    1.1280 H   0  0  0  0  0  0  0  0  0  0  0  0
    5.6117    0.5263    2.4558 H   0  0  0  0  0  0  0  0  0  0  0  0
    5.7689   -0.8832    1.4845 H   0  0  0  0  0  0  0  0  0  0  0  0
    6.1765   -0.8849    3.2173 H   0  0  0  0  0  0  0  0  0  0  0  0
  1  2  1  0
  1 42  1  0
  1 43  1  0
  1 44  1  0
  2  3  1  0
  2 39  1  0
  2 45  1  6
  3  4  2  3
  3 46  1  0
  4  5  1  0
  4 47  1  0
  5  6  1  0
  5 48  1  0
  5 49  1  0
  6  7  1  0
  6  8  1  0
  6 50  1  1
  7 51  1  0
  7 52  1  0
  7 53  1  0
  8 37  1  0
  8  9  1  0
  8 54  1  6
  9 10  1  0
  9 55  1  0
  9 56  1  0
 10 11  1  0
 10 57  1  0
 10 58  1  0
 11 37  1  0
 11 12  1  1
 11 13  1  0
 12 59  1  0
 12 60  1  0
 12 61  1  0
 13 32  1  0
 13 14  1  0
 13 62  1  1
 14 15  1  0
 14 63  1  0
 14 64  1  0
 15 28  1  0
 15 16  1  0
 15 65  1  6
 16 25  1  0
 16 17  1  1
 16 18  1  0
 17 66  1  0
 17 67  1  0
 17 68  1  0
 18 19  1  0
 18 69  1  0
 18 70  1  0
 19 20  1  0
 19 71  1  0
 19 72  1  0
 20 21  1  0
 20 22  1  0
 20 73  1  1
 21 74  1  0
 22 23  1  0
 22 24  1  0
 22 25  1  0
 23 75  1  0
 23 76  1  0
 23 77  1  0
 24 78  1  0
 24 79  1  0
 24 80  1  0
 25 26  1  0
 25 81  1  1
 26 27  1  0
 26 82  1  0
 26 83  1  0
 28 27  1  1
 27 84  1  0
 27 85  1  0
 28 31  1  0
 28 29  1  0
 29 30  2  0
 29 31  1  0
 31 32  1  0
 31 86  1  6
 32 33  1  1
 32 34  1  0
 33 87  1  0
 33 88  1  0
 33 89  1  0
 34 35  1  0
 34 90  1  0
 34 91  1  0
 35 36  1  0
 35 37  1  0
 35 92  1  6
 36 93  1  0
 37 38  1  6
 38 94  1  0
 38 95  1  0
 38 96  1  0
 39 40  2  0
 39 41  1  0
M  CHG  1  41  -1
M  END
>  <i_m_ct_stereo_status>  (360) 
1

>  <s_m_source_file>  (360) 
/var/tmp/pbs.5076255.sched01/tmpt95b3wv2/135g3gtwtb2.sdf

>  <i_m_source_file_index>  (360) 
10

>  <i_lp_mmshare_version>  (360) 
48012

>  <i_f3d_flags>  (360) 
0

>  <s_epik_input>  (360) 
Tz1DKFtPSF0pW0NASF0oW0NIM10pL1tDSF09W0NIXS9bQ0gyXVtDQEhdKFtDSDNdKVtDQEhdKFtDSDJdW0NIMl0xKVtDQEBdKFtDSDNdKShbQ0BIXShbT0hdKVtDSDJdW0NAXTIoW0NIM10pW0NIXTNDND1PKVtDQEBdMShbQ0gzXSlbQ0BIXTJbQ0gyXVtDQEhdKEMzNDUpW0NAQF02KFtDSDNdKVtDQEBIXShbQ0gyXVtDSDJdNSlDKFtDSDNdKShbQ0gzXSlbQ0BIXShbT0hdKVtDSDJdW0NIMl02

>  <s_epik_cmdline>  (360) 
J2VwaWtfcHl0aG9uJywgJy1waHQnLCAnMi4wJywgJy1waCcsICc3LjAnLCAnLXRuJywgJzgnLCAnLW1hJywgJzIwMCcsICctaW1hZScsICc8aW5maWxlLm1hZT4nLCAnLW9tYWUnLCAnPG91dGZpbGUubWFlPic=

>  <r_epik_Ionization_Penalty>  (360) 
0.00149679

>  <r_epik_Ionization_Penalty_Charging>  (360) 
0.00149294

>  <r_epik_Ionization_Penalty_Neutral>  (360) 
3.85434e-06

>  <r_epik_State_Penalty>  (360) 
0.000999864

>  <r_epik_Charging_Adjusted_Penalty>  (360) 
0.0024928

>  <i_epik_Tot_Q>  (360) 
-1

>  <i_epik_Tot_abs_Q>  (360) 
1

>  <s_lp_Force_Field>  (360) 
OPLS3e

>  <r_lp_Energy>  (360) 
113.809

>  <b_lp_Chiralities_Consistent>  (360) 
1

>  <s_lp_Variant>  (360) 
93:0-3

>  <s_i_glide_gridfile>  (360) 
pfpi4k_grid

>  <i_i_glide_lignum>  (360) 
10

>  <i_i_glide_rotatable_bonds>  (360) 
7

>  <r_i_docking_score>  (360) 
-1.83345

>  <r_i_glide_ligand_efficiency>  (360) 
-0.0447183

>  <r_i_glide_ligand_efficiency_sa>  (360) 
-0.154199

>  <r_i_glide_ligand_efficiency_ln>  (360) 
-0.388973

>  <r_i_glide_gscore>  (360) 
-1.83345

>  <r_i_glide_lipo>  (360) 
-0.230955

>  <r_i_glide_hbond>  (360) 
-0.426494

>  <r_i_glide_metal>  (360) 
-0

>  <r_i_glide_rewards>  (360) 
0

>  <r_i_glide_evdw>  (360) 
-14.5978

>  <r_i_glide_ecoul>  (360) 
-3.20295

>  <r_i_glide_erotb>  (360) 
0.170804

>  <r_i_glide_esite>  (360) 
-0.136474

>  <r_i_glide_emodel>  (360) 
-16.2688

>  <r_i_glide_energy>  (360) 
-17.8007

>  <r_i_glide_einternal>  (360) 
2.51652

>  <r_i_glide_intrahb_reward>  (360) 
-0

>  <i_i_glide_confnum>  (360) 
1

>  <i_i_glide_posenum>  (360) 
14

>  <r_i_glide_eff_state_penalty>  (360) 
0

>  <ligand_id>  (360) 
93

>  <original_smiles>  (360) 
CC(C=CCC(C)C1CCC2(C)C3CC4C5(C)CCC(O)C(C)(C)C5CCC45C(=O)C5C3(C)CC(O)C12C)C(=O)O

>  <smiles>  (360) 
[H]OC1([H])C([H])([H])C([H])([H])C2(C([H])([H])[H])C3([H])C([H])([H])C4([H])C(C([H])([H])[H])(C([H])([H])C([H])(O[H])C5(C([H])([H])[H])C([H])(C([H])(C([H])([H])[H])C([H])([H])C([H])=C([H])C([H])(C(=O)[O-])C([H])([H])[H])C([H])([H])C([H])([H])C45C([H])([H])[H])C4([H])C(=O)C43C([H])([H])C([H])([H])C2([H])C1(C([H])([H])[H])C([H])([H])[H]

$$$$
93:2:2
     RDKit          3D

 96101  0  0  1  0  0  0  0  0999 V2000
    3.0086   -2.6341   -2.4863 C   0  0  0  0  0  0  0  0  0  0  0  0
    4.2691   -2.8738   -1.6080 C   0  0  2  0  0  0  0  0  0  0  0  0
    3.8489   -2.9601   -0.1933 C   0  0  0  0  0  0  0  0  0  0  0  0
    3.8327   -4.0295    0.6104 C   0  0  0  0  0  0  0  0  0  0  0  0
    3.5772   -4.0209    2.1247 C   0  0  0  0  0  0  0  0  0  0  0  0
    4.0361   -2.7084    2.8628 C   0  0  2  0  0  0  0  0  0  0  0  0
    5.3711   -2.1800    2.2195 C   0  0  0  0  0  0  0  0  0  0  0  0
    4.1347   -2.9342    4.4207 C   0  0  2  0  0  0  0  0  0  0  0  0
    2.8467   -3.5190    5.0714 C   0  0  0  0  0  0  0  0  0  0  0  0
    2.6337   -2.7871    6.4050 C   0  0  0  0  0  0  0  0  0  0  0  0
    3.3061   -1.4058    6.2570 C   0  0  2  0  0  0  0  0  0  0  0  0
    3.6155   -0.8370    7.6657 C   0  0  0  0  0  0  0  0  0  0  0  0
    2.3587   -0.4198    5.4512 C   0  0  1  0  0  0  0  0  0  0  0  0
    1.0342   -0.0295    6.1869 C   0  0  0  0  0  0  0  0  0  0  0  0
    0.8666    1.4050    6.7967 C   0  0  1  0  0  0  0  0  0  0  0  0
   -0.1210    1.5098    8.0280 C   0  0  2  0  0  0  0  0  0  0  0  0
    0.1808    0.4345    9.1187 C   0  0  0  0  0  0  0  0  0  0  0  0
   -1.5803    1.2143    7.5804 C   0  0  0  0  0  0  0  0  0  0  0  0
   -2.3211    2.3728    6.9094 C   0  0  0  0  0  0  0  0  0  0  0  0
   -2.3283    3.6130    7.8005 C   0  0  1  0  0  0  0  0  0  0  0  0
   -3.1171    3.3280    8.9452 O   0  0  0  0  0  0  0  0  0  0  0  0
   -0.8924    4.0942    8.1614 C   0  0  0  0  0  0  0  0  0  0  0  0
   -0.2763    4.7228    6.8915 C   0  0  0  0  0  0  0  0  0  0  0  0
   -1.0308    5.2301    9.2109 C   0  0  0  0  0  0  0  0  0  0  0  0
   -0.0319    2.9069    8.7496 C   0  0  2  0  0  0  0  0  0  0  0  0
    1.4317    3.2934    9.1250 C   0  0  0  0  0  0  0  0  0  0  0  0
    2.5554    2.5658    8.3650 C   0  0  0  0  0  0  0  0  0  0  0  0
    2.1949    2.1774    6.9391 C   0  0  2  0  0  0  0  0  0  0  0  0
    2.5990    3.1981    5.8843 C   0  0  0  0  0  0  0  0  0  0  0  0
    2.5203    4.3062    5.4093 O   0  0  0  0  0  0  0  0  0  0  0  0
    3.2935    1.8605    5.9228 C   0  0  2  0  0  0  0  0  0  0  0  0
    3.0277    0.8354    4.8223 C   0  0  2  0  0  0  0  0  0  0  0  0
    2.1230    1.3872    3.6750 C   0  0  0  0  0  0  0  0  0  0  0  0
    4.3358    0.4509    4.1116 C   0  0  0  0  0  0  0  0  0  0  0  0
    5.2798   -0.5115    4.8581 C   0  0  1  0  0  0  0  0  0  0  0  0
    6.0110    0.2170    5.8293 O   0  0  0  0  0  0  0  0  0  0  0  0
    4.5971   -1.7964    5.4377 C   0  0  2  0  0  0  0  0  0  0  0  0
    5.6687   -2.5078    6.3435 C   0  0  0  0  0  0  0  0  0  0  0  0
    5.3391   -1.7857   -1.8394 C   0  0  0  0  0  0  0  0  0  0  0  0
    6.5163   -2.0487   -1.5108 O   0  0  0  0  0  0  0  0  0  0  0  0
    4.9788   -0.6827   -2.3247 O   0  0  0  0  0  0  0  0  0  0  0  0
    2.5397   -1.6934   -2.2205 H   0  0  0  0  0  0  0  0  0  0  0  0
    2.2910   -3.4254   -2.3055 H   0  0  0  0  0  0  0  0  0  0  0  0
    3.2406   -2.6129   -3.5491 H   0  0  0  0  0  0  0  0  0  0  0  0
    4.7104   -3.8372   -1.9150 H   0  0  0  0  0  0  0  0  0  0  0  0
    3.6709   -1.9694    0.3298 H   0  0  0  0  0  0  0  0  0  0  0  0
    3.9961   -5.0012    0.1469 H   0  0  0  0  0  0  0  0  0  0  0  0
    2.5263   -4.2742    2.2933 H   0  0  0  0  0  0  0  0  0  0  0  0
    4.1449   -4.8687    2.5088 H   0  0  0  0  0  0  0  0  0  0  0  0
    3.2147   -2.0142    2.6904 H   0  0  0  0  0  0  0  0  0  0  0  0
    6.2154   -2.6183    2.7788 H   0  0  0  0  0  0  0  0  0  0  0  0
    5.4335   -1.1038    2.3060 H   0  0  0  0  0  0  0  0  0  0  0  0
    5.4590   -2.3346    1.1917 H   0  0  0  0  0  0  0  0  0  0  0  0
    4.8622   -3.7453    4.4969 H   0  0  0  0  0  0  0  0  0  0  0  0
    1.9734   -3.3575    4.4400 H   0  0  0  0  0  0  0  0  0  0  0  0
    2.9145   -4.6008    5.2456 H   0  0  0  0  0  0  0  0  0  0  0  0
    1.5804   -2.7514    6.6784 H   0  0  0  0  0  0  0  0  0  0  0  0
    3.1180   -3.3499    7.2057 H   0  0  0  0  0  0  0  0  0  0  0  0
    4.2311    0.0578    7.6271 H   0  0  0  0  0  0  0  0  0  0  0  0
    4.1313   -1.5556    8.3022 H   0  0  0  0  0  0  0  0  0  0  0  0
    2.7026   -0.5795    8.1921 H   0  0  0  0  0  0  0  0  0  0  0  0
    2.0402   -1.0036    4.5954 H   0  0  0  0  0  0  0  0  0  0  0  0
    0.2311   -0.1466    5.4587 H   0  0  0  0  0  0  0  0  0  0  0  0
    0.8108   -0.7920    6.9193 H   0  0  0  0  0  0  0  0  0  0  0  0
    0.3673    1.9581    6.0073 H   0  0  0  0  0  0  0  0  0  0  0  0
   -0.4615    0.5639    9.9898 H   0  0  0  0  0  0  0  0  0  0  0  0
    1.1979    0.4652    9.4965 H   0  0  0  0  0  0  0  0  0  0  0  0
   -0.0118   -0.5837    8.7873 H   0  0  0  0  0  0  0  0  0  0  0  0
   -1.6035    0.3489    6.9240 H   0  0  0  0  0  0  0  0  0  0  0  0
   -2.1642    0.9438    8.4633 H   0  0  0  0  0  0  0  0  0  0  0  0
   -1.8833    2.5865    5.9329 H   0  0  0  0  0  0  0  0  0  0  0  0
   -3.3524    2.0800    6.7044 H   0  0  0  0  0  0  0  0  0  0  0  0
   -2.8586    4.4031    7.2796 H   0  0  0  0  0  0  0  0  0  0  0  0
   -3.1076    4.0868    9.5060 H   0  0  0  0  0  0  0  0  0  0  0  0
    0.7103    5.1404    7.0941 H   0  0  0  0  0  0  0  0  0  0  0  0
   -0.8959    5.5375    6.5126 H   0  0  0  0  0  0  0  0  0  0  0  0
   -0.1731    4.0121    6.0793 H   0  0  0  0  0  0  0  0  0  0  0  0
   -0.0911    5.7562    9.3729 H   0  0  0  0  0  0  0  0  0  0  0  0
   -1.3504    4.8532   10.1834 H   0  0  0  0  0  0  0  0  0  0  0  0
   -1.7604    5.9812    8.8996 H   0  0  0  0  0  0  0  0  0  0  0  0
   -0.5198    2.7471    9.7062 H   0  0  0  0  0  0  0  0  0  0  0  0
    1.5787    4.3631    9.0247 H   0  0  0  0  0  0  0  0  0  0  0  0
    1.5667    3.1051   10.1969 H   0  0  0  0  0  0  0  0  0  0  0  0
    3.4425    3.2004    8.3612 H   0  0  0  0  0  0  0  0  0  0  0  0
    2.8532    1.6816    8.9166 H   0  0  0  0  0  0  0  0  0  0  0  0
    4.3172    1.8632    6.2840 H   0  0  0  0  0  0  0  0  0  0  0  0
    2.5935    2.2303    3.1637 H   0  0  0  0  0  0  0  0  0  0  0  0
    1.1413    1.7050    4.0098 H   0  0  0  0  0  0  0  0  0  0  0  0
    1.9486    0.6240    2.9190 H   0  0  0  0  0  0  0  0  0  0  0  0
    4.0412   -0.0022    3.1682 H   0  0  0  0  0  0  0  0  0  0  0  0
    4.9017    1.3399    3.8359 H   0  0  0  0  0  0  0  0  0  0  0  0
    6.0996   -0.7961    4.2111 H   0  0  0  0  0  0  0  0  0  0  0  0
    6.6276   -0.3696    6.2369 H   0  0  0  0  0  0  0  0  0  0  0  0
    6.0282   -1.8925    7.1692 H   0  0  0  0  0  0  0  0  0  0  0  0
    6.5486   -2.7875    5.7604 H   0  0  0  0  0  0  0  0  0  0  0  0
    5.2970   -3.4317    6.7885 H   0  0  0  0  0  0  0  0  0  0  0  0
  1  2  1  0
  1 42  1  0
  1 43  1  0
  1 44  1  0
  2  3  1  0
  2 39  1  0
  2 45  1  6
  3  4  2  3
  3 46  1  0
  4  5  1  0
  4 47  1  0
  5  6  1  0
  5 48  1  0
  5 49  1  0
  6  7  1  0
  6  8  1  0
  6 50  1  1
  7 51  1  0
  7 52  1  0
  7 53  1  0
  8 37  1  0
  8  9  1  0
  8 54  1  6
  9 10  1  0
  9 55  1  0
  9 56  1  0
 10 11  1  0
 10 57  1  0
 10 58  1  0
 11 37  1  0
 11 12  1  1
 11 13  1  0
 12 59  1  0
 12 60  1  0
 12 61  1  0
 13 32  1  0
 13 14  1  0
 13 62  1  6
 14 15  1  0
 14 63  1  0
 14 64  1  0
 15 28  1  0
 15 16  1  0
 15 65  1  6
 16 25  1  0
 16 17  1  1
 16 18  1  0
 17 66  1  0
 17 67  1  0
 17 68  1  0
 18 19  1  0
 18 69  1  0
 18 70  1  0
 19 20  1  0
 19 71  1  0
 19 72  1  0
 20 21  1  0
 20 22  1  0
 20 73  1  6
 21 74  1  0
 22 23  1  0
 22 24  1  0
 22 25  1  0
 23 75  1  0
 23 76  1  0
 23 77  1  0
 24 78  1  0
 24 79  1  0
 24 80  1  0
 25 26  1  0
 25 81  1  1
 26 27  1  0
 26 82  1  0
 26 83  1  0
 28 27  1  1
 27 84  1  0
 27 85  1  0
 28 31  1  0
 28 29  1  0
 29 30  2  0
 29 31  1  0
 31 32  1  0
 31 86  1  1
 32 33  1  6
 32 34  1  0
 33 87  1  0
 33 88  1  0
 33 89  1  0
 34 35  1  0
 34 90  1  0
 34 91  1  0
 35 36  1  0
 35 37  1  0
 35 92  1  6
 36 93  1  0
 37 38  1  1
 38 94  1  0
 38 95  1  0
 38 96  1  0
 39 40  2  0
 39 41  1  0
M  CHG  1  41  -1
M  END
>  <i_m_ct_stereo_status>  (361) 
1

>  <s_m_source_file>  (361) 
/var/tmp/pbs.5076255.sched01/tmpt95b3wv2/135g3gtwtb2.sdf

>  <i_m_source_file_index>  (361) 
10

>  <i_lp_mmshare_version>  (361) 
48012

>  <i_f3d_flags>  (361) 
0

>  <s_epik_input>  (361) 
Tz1DKFtPSF0pW0NASF0oW0NIM10pL1tDSF09W0NIXS9bQ0gyXVtDQEhdKFtDSDNdKVtDQEhdKFtDSDJdW0NIMl0xKVtDQEBdKFtDSDNdKShbQ0BIXShbT0hdKVtDSDJdW0NAXTIoW0NIM10pW0NIXTNDND1PKVtDQEBdMShbQ0gzXSlbQ0BIXTJbQ0gyXVtDQEhdKEMzNDUpW0NAQF02KFtDSDNdKVtDQEBIXShbQ0gyXVtDSDJdNSlDKFtDSDNdKShbQ0gzXSlbQ0BIXShbT0hdKVtDSDJdW0NIMl02

>  <s_epik_cmdline>  (361) 
J2VwaWtfcHl0aG9uJywgJy1waHQnLCAnMi4wJywgJy1waCcsICc3LjAnLCAnLXRuJywgJzgnLCAnLW1hJywgJzIwMCcsICctaW1hZScsICc8aW5maWxlLm1hZT4nLCAnLW9tYWUnLCAnPG91dGZpbGUubWFlPic=

>  <r_epik_Ionization_Penalty>  (361) 
0.00149679

>  <r_epik_Ionization_Penalty_Charging>  (361) 
0.00149294

>  <r_epik_Ionization_Penalty_Neutral>  (361) 
3.85434e-06

>  <r_epik_State_Penalty>  (361) 
0.000999864

>  <r_epik_Charging_Adjusted_Penalty>  (361) 
0.0024928

>  <i_epik_Tot_Q>  (361) 
-1

>  <i_epik_Tot_abs_Q>  (361) 
1

>  <s_lp_Force_Field>  (361) 
OPLS3e

>  <r_lp_Energy>  (361) 
113.809

>  <b_lp_Chiralities_Consistent>  (361) 
1

>  <s_lp_Variant>  (361) 
93:0-3

>  <s_i_glide_gridfile>  (361) 
pfpi4k_grid

>  <i_i_glide_lignum>  (361) 
10

>  <i_i_glide_rotatable_bonds>  (361) 
7

>  <r_i_docking_score>  (361) 
-1.53767

>  <r_i_glide_ligand_efficiency>  (361) 
-0.0375042

>  <r_i_glide_ligand_efficiency_sa>  (361) 
-0.129323

>  <r_i_glide_ligand_efficiency_ln>  (361) 
-0.326222

>  <r_i_glide_gscore>  (361) 
-1.53767

>  <r_i_glide_lipo>  (361) 
-0.309839

>  <r_i_glide_hbond>  (361) 
-0.2

>  <r_i_glide_metal>  (361) 
-0

>  <r_i_glide_rewards>  (361) 
0

>  <r_i_glide_evdw>  (361) 
-21.039

>  <r_i_glide_ecoul>  (361) 
-0.728201

>  <r_i_glide_erotb>  (361) 
0.170804

>  <r_i_glide_esite>  (361) 
-0.0374554

>  <r_i_glide_emodel>  (361) 
-18.244

>  <r_i_glide_energy>  (361) 
-21.7672

>  <r_i_glide_einternal>  (361) 
6.0176

>  <r_i_glide_intrahb_reward>  (361) 
-0

>  <i_i_glide_confnum>  (361) 
1

>  <i_i_glide_posenum>  (361) 
30

>  <r_i_glide_eff_state_penalty>  (361) 
0

>  <ligand_id>  (361) 
93

>  <original_smiles>  (361) 
CC(C=CCC(C)C1CCC2(C)C3CC4C5(C)CCC(O)C(C)(C)C5CCC45C(=O)C5C3(C)CC(O)C12C)C(=O)O

>  <smiles>  (361) 
[H]OC1([H])C([H])([H])C([H])([H])C2(C([H])([H])[H])C3([H])C([H])([H])C4([H])C(C([H])([H])[H])(C([H])([H])C([H])(O[H])C5(C([H])([H])[H])C([H])(C([H])(C([H])([H])[H])C([H])([H])C([H])=C([H])C([H])(C(=O)[O-])C([H])([H])[H])C([H])([H])C([H])([H])C45C([H])([H])[H])C4([H])C(=O)C43C([H])([H])C([H])([H])C2([H])C1(C([H])([H])[H])C([H])([H])[H]

$$$$
93:3:0
     RDKit          3D

 96101  0  0  1  0  0  0  0  0999 V2000
    0.3504   -2.5136    4.4187 C   0  0  0  0  0  0  0  0  0  0  0  0
   -0.3115   -1.1307    4.5654 C   0  0  2  0  0  0  0  0  0  0  0  0
    0.7018    0.0205    4.6674 C   0  0  0  0  0  0  0  0  0  0  0  0
    1.7105    0.3181    3.8300 C   0  0  0  0  0  0  0  0  0  0  0  0
    2.1295   -0.3902    2.5435 C   0  0  0  0  0  0  0  0  0  0  0  0
    3.3379   -1.3755    2.7268 C   0  0  2  0  0  0  0  0  0  0  0  0
    4.5648   -0.5460    3.1807 C   0  0  0  0  0  0  0  0  0  0  0  0
    3.5835   -2.2341    1.4274 C   0  0  2  0  0  0  0  0  0  0  0  0
    2.3089   -2.9168    0.9154 C   0  0  0  0  0  0  0  0  0  0  0  0
    2.6435   -4.3155    0.4386 C   0  0  0  0  0  0  0  0  0  0  0  0
    3.8624   -4.7430    1.2637 C   0  0  2  0  0  0  0  0  0  0  0  0
    4.5800   -5.8829    0.4975 C   0  0  0  0  0  0  0  0  0  0  0  0
    3.4184   -5.2172    2.7087 C   0  0  1  0  0  0  0  0  0  0  0  0
    2.5583   -6.5324    2.7336 C   0  0  0  0  0  0  0  0  0  0  0  0
    3.2070   -7.8764    3.2411 C   0  0  1  0  0  0  0  0  0  0  0  0
    2.5685   -9.1928    2.6374 C   0  0  2  0  0  0  0  0  0  0  0  0
    2.4602   -9.1224    1.0999 C   0  0  0  0  0  0  0  0  0  0  0  0
    1.0980   -9.3720    3.1128 C   0  0  0  0  0  0  0  0  0  0  0  0
    0.9380   -9.9345    4.5306 C   0  0  0  0  0  0  0  0  0  0  0  0
    1.6581  -11.2717    4.6496 C   0  0  1  0  0  0  0  0  0  0  0  0
    0.9591  -12.1557    3.8077 O   0  0  0  0  0  0  0  0  0  0  0  0
    3.1689  -11.1749    4.3411 C   0  0  0  0  0  0  0  0  0  0  0  0
    3.8575  -10.4583    5.5164 C   0  0  0  0  0  0  0  0  0  0  0  0
    3.7605  -12.6040    4.3095 C   0  0  0  0  0  0  0  0  0  0  0  0
    3.4155  -10.4630    2.9658 C   0  0  2  0  0  0  0  0  0  0  0  0
    4.9098  -10.2865    2.5919 C   0  0  0  0  0  0  0  0  0  0  0  0
    5.4227   -8.8507    2.3906 C   0  0  0  0  0  0  0  0  0  0  0  0
    4.7363   -7.8223    3.2734 C   0  0  2  0  0  0  0  0  0  0  0  0
    5.4141   -7.5668    4.6031 C   0  0  0  0  0  0  0  0  0  0  0  0
    5.8528   -7.9802    5.6792 O   0  0  0  0  0  0  0  0  0  0  0  0
    5.3846   -6.4777    3.5779 C   0  0  2  0  0  0  0  0  0  0  0  0
    4.5098   -5.2470    3.8049 C   0  0  2  0  0  0  0  0  0  0  0  0
    3.8564   -5.2428    5.2123 C   0  0  0  0  0  0  0  0  0  0  0  0
    5.3450   -3.9532    3.7631 C   0  0  0  0  0  0  0  0  0  0  0  0
    5.7809   -3.4613    2.3678 C   0  0  1  0  0  0  0  0  0  0  0  0
    6.8076   -4.3021    1.8881 O   0  0  0  0  0  0  0  0  0  0  0  0
    4.6603   -3.3879    1.3031 C   0  0  2  0  0  0  0  0  0  0  0  0
    5.3617   -3.0794   -0.0646 C   0  0  0  0  0  0  0  0  0  0  0  0
   -1.3331   -1.1675    5.7272 C   0  0  0  0  0  0  0  0  0  0  0  0
   -1.6552   -0.1263    6.3004 O   0  0  0  0  0  0  0  0  0  0  0  0
   -1.8063   -2.2907    6.0565 O   0  0  0  0  0  0  0  0  0  0  0  0
    0.9778   -2.7596    5.2752 H   0  0  0  0  0  0  0  0  0  0  0  0
    0.9790   -2.5503    3.5532 H   0  0  0  0  0  0  0  0  0  0  0  0
   -0.3674   -3.3123    4.2488 H   0  0  0  0  0  0  0  0  0  0  0  0
   -0.9112   -0.8888    3.6912 H   0  0  0  0  0  0  0  0  0  0  0  0
    0.5991    0.6881    5.5113 H   0  0  0  0  0  0  0  0  0  0  0  0
    2.3175    1.1758    4.0968 H   0  0  0  0  0  0  0  0  0  0  0  0
    1.2399   -0.8640    2.1293 H   0  0  0  0  0  0  0  0  0  0  0  0
    2.3812    0.3778    1.8074 H   0  0  0  0  0  0  0  0  0  0  0  0
    3.1018   -2.0491    3.5471 H   0  0  0  0  0  0  0  0  0  0  0  0
    5.0723   -0.0981    2.3279 H   0  0  0  0  0  0  0  0  0  0  0  0
    5.2768   -1.1301    3.7546 H   0  0  0  0  0  0  0  0  0  0  0  0
    4.2985    0.2586    3.8649 H   0  0  0  0  0  0  0  0  0  0  0  0
    3.8258   -1.4680    0.6877 H   0  0  0  0  0  0  0  0  0  0  0  0
    1.5661   -2.9993    1.6899 H   0  0  0  0  0  0  0  0  0  0  0  0
    1.8648   -2.3475    0.1163 H   0  0  0  0  0  0  0  0  0  0  0  0
    1.7990   -4.9881    0.5287 H   0  0  0  0  0  0  0  0  0  0  0  0
    2.8845   -4.2843   -0.6245 H   0  0  0  0  0  0  0  0  0  0  0  0
    5.5428   -6.1365    0.9328 H   0  0  0  0  0  0  0  0  0  0  0  0
    4.7517   -5.6367   -0.5509 H   0  0  0  0  0  0  0  0  0  0  0  0
    3.9845   -6.7905    0.5008 H   0  0  0  0  0  0  0  0  0  0  0  0
    2.7231   -4.4514    3.0393 H   0  0  0  0  0  0  0  0  0  0  0  0
    1.7131   -6.3350    3.3979 H   0  0  0  0  0  0  0  0  0  0  0  0
    2.0853   -6.6647    1.7670 H   0  0  0  0  0  0  0  0  0  0  0  0
    2.9241   -7.9104    4.2944 H   0  0  0  0  0  0  0  0  0  0  0  0
    2.1228  -10.0670    0.6974 H   0  0  0  0  0  0  0  0  0  0  0  0
    3.3868   -8.9217    0.5767 H   0  0  0  0  0  0  0  0  0  0  0  0
    1.6972   -8.4071    0.8164 H   0  0  0  0  0  0  0  0  0  0  0  0
    0.5570   -8.4289    3.0465 H   0  0  0  0  0  0  0  0  0  0  0  0
    0.5702  -10.0421    2.4242 H   0  0  0  0  0  0  0  0  0  0  0  0
    1.3034   -9.2242    5.2678 H   0  0  0  0  0  0  0  0  0  0  0  0
   -0.1241  -10.0630    4.7485 H   0  0  0  0  0  0  0  0  0  0  0  0
    1.5317  -11.6330    5.6821 H   0  0  0  0  0  0  0  0  0  0  0  0
    1.4311  -12.9817    3.7346 H   0  0  0  0  0  0  0  0  0  0  0  0
    4.9418  -10.4124    5.3880 H   0  0  0  0  0  0  0  0  0  0  0  0
    3.6638  -10.9816    6.4580 H   0  0  0  0  0  0  0  0  0  0  0  0
    3.4959   -9.4434    5.6475 H   0  0  0  0  0  0  0  0  0  0  0  0
    4.8522  -12.6172    4.3022 H   0  0  0  0  0  0  0  0  0  0  0  0
    3.4287  -13.1273    3.4151 H   0  0  0  0  0  0  0  0  0  0  0  0
    3.4462  -13.1868    5.1787 H   0  0  0  0  0  0  0  0  0  0  0  0
    3.0515  -11.2104    2.2714 H   0  0  0  0  0  0  0  0  0  0  0  0
    5.5559  -10.7901    3.2990 H   0  0  0  0  0  0  0  0  0  0  0  0
    5.1181  -10.8115    1.6678 H   0  0  0  0  0  0  0  0  0  0  0  0
    6.4886   -8.8275    2.5816 H   0  0  0  0  0  0  0  0  0  0  0  0
    5.3134   -8.5552    1.3533 H   0  0  0  0  0  0  0  0  0  0  0  0
    6.2885   -6.2798    3.0395 H   0  0  0  0  0  0  0  0  0  0  0  0
    4.6120   -5.2288    6.0029 H   0  0  0  0  0  0  0  0  0  0  0  0
    3.2101   -6.0995    5.3954 H   0  0  0  0  0  0  0  0  0  0  0  0
    3.2326   -4.3584    5.3485 H   0  0  0  0  0  0  0  0  0  0  0  0
    4.7710   -3.1674    4.2411 H   0  0  0  0  0  0  0  0  0  0  0  0
    6.2165   -4.0644    4.4183 H   0  0  0  0  0  0  0  0  0  0  0  0
    6.2459   -2.4798    2.4356 H   0  0  0  0  0  0  0  0  0  0  0  0
    7.5241   -4.2798    2.5078 H   0  0  0  0  0  0  0  0  0  0  0  0
    6.0806   -3.8393   -0.3755 H   0  0  0  0  0  0  0  0  0  0  0  0
    5.9149   -2.1373   -0.0129 H   0  0  0  0  0  0  0  0  0  0  0  0
    4.6499   -2.9789   -0.8857 H   0  0  0  0  0  0  0  0  0  0  0  0
  1  2  1  0
  1 42  1  0
  1 43  1  0
  1 44  1  0
  2  3  1  0
  2 39  1  0
  2 45  1  6
  3  4  2  3
  3 46  1  0
  4  5  1  0
  4 47  1  0
  5  6  1  0
  5 48  1  0
  5 49  1  0
  6  7  1  0
  6  8  1  0
  6 50  1  1
  7 51  1  0
  7 52  1  0
  7 53  1  0
  8 37  1  0
  8  9  1  0
  8 54  1  6
  9 10  1  0
  9 55  1  0
  9 56  1  0
 10 11  1  0
 10 57  1  0
 10 58  1  0
 11 37  1  0
 11 12  1  6
 11 13  1  0
 12 59  1  0
 12 60  1  0
 12 61  1  0
 13 32  1  0
 13 14  1  0
 13 62  1  1
 14 15  1  0
 14 63  1  0
 14 64  1  0
 15 28  1  0
 15 16  1  0
 15 65  1  1
 16 25  1  0
 16 17  1  6
 16 18  1  0
 17 66  1  0
 17 67  1  0
 17 68  1  0
 18 19  1  0
 18 69  1  0
 18 70  1  0
 19 20  1  0
 19 71  1  0
 19 72  1  0
 20 21  1  0
 20 22  1  0
 20 73  1  1
 21 74  1  0
 22 23  1  0
 22 24  1  0
 22 25  1  0
 23 75  1  0
 23 76  1  0
 23 77  1  0
 24 78  1  0
 24 79  1  0
 24 80  1  0
 25 26  1  0
 25 81  1  6
 26 27  1  0
 26 82  1  0
 26 83  1  0
 28 27  1  6
 27 84  1  0
 27 85  1  0
 28 31  1  0
 28 29  1  0
 29 30  2  0
 29 31  1  0
 31 32  1  0
 31 86  1  6
 32 33  1  1
 32 34  1  0
 33 87  1  0
 33 88  1  0
 33 89  1  0
 34 35  1  0
 34 90  1  0
 34 91  1  0
 35 36  1  0
 35 37  1  0
 35 92  1  1
 36 93  1  0
 37 38  1  6
 38 94  1  0
 38 95  1  0
 38 96  1  0
 39 40  2  0
 39 41  1  0
M  CHG  1  41  -1
M  END
>  <i_m_ct_stereo_status>  (362) 
1

>  <s_m_source_file>  (362) 
/var/tmp/pbs.5076255.sched01/tmpt95b3wv2/135g3gtwtb2.sdf

>  <i_m_source_file_index>  (362) 
11

>  <i_lp_mmshare_version>  (362) 
48012

>  <i_f3d_flags>  (362) 
0

>  <s_epik_input>  (362) 
Tz1DKFtPSF0pW0NASF0oW0NIM10pL1tDSF09W0NIXS9bQ0gyXVtDQEhdKFtDSDNdKVtDQEhdKFtDSDJdW0NIMl0xKVtDQEBdKFtDSDNdKShbQ0BIXShbT0hdKVtDSDJdW0NAXTIoW0NIM10pW0NIXTNDND1PKVtDQEBdMShbQ0gzXSlbQ0BIXTJbQ0gyXVtDQEhdKEMzNDUpW0NAQF02KFtDSDNdKVtDQEBIXShbQ0gyXVtDSDJdNSlDKFtDSDNdKShbQ0gzXSlbQ0BIXShbT0hdKVtDSDJdW0NIMl02

>  <s_epik_cmdline>  (362) 
J2VwaWtfcHl0aG9uJywgJy1waHQnLCAnMi4wJywgJy1waCcsICc3LjAnLCAnLXRuJywgJzgnLCAnLW1hJywgJzIwMCcsICctaW1hZScsICc8aW5maWxlLm1hZT4nLCAnLW9tYWUnLCAnPG91dGZpbGUubWFlPic=

>  <r_epik_Ionization_Penalty>  (362) 
0.00149679

>  <r_epik_Ionization_Penalty_Charging>  (362) 
0.00149294

>  <r_epik_Ionization_Penalty_Neutral>  (362) 
3.85434e-06

>  <r_epik_State_Penalty>  (362) 
0.000999864

>  <r_epik_Charging_Adjusted_Penalty>  (362) 
0.0024928

>  <i_epik_Tot_Q>  (362) 
-1

>  <i_epik_Tot_abs_Q>  (362) 
1

>  <s_lp_Force_Field>  (362) 
OPLS3e

>  <r_lp_Energy>  (362) 
110.652

>  <b_lp_Chiralities_Consistent>  (362) 
1

>  <s_lp_Variant>  (362) 
93:0-4

>  <s_i_glide_gridfile>  (362) 
pfpi4k_grid

>  <i_i_glide_lignum>  (362) 
11

>  <i_i_glide_rotatable_bonds>  (362) 
7

>  <r_i_docking_score>  (362) 
-2.94773

>  <r_i_glide_ligand_efficiency>  (362) 
-0.0718958

>  <r_i_glide_ligand_efficiency_sa>  (362) 
-0.247912

>  <r_i_glide_ligand_efficiency_ln>  (362) 
-0.62537

>  <r_i_glide_gscore>  (362) 
-2.94773

>  <r_i_glide_lipo>  (362) 
-0.355463

>  <r_i_glide_hbond>  (362) 
-0.509866

>  <r_i_glide_metal>  (362) 
-0

>  <r_i_glide_rewards>  (362) 
0

>  <r_i_glide_evdw>  (362) 
-14.9171

>  <r_i_glide_ecoul>  (362) 
-9.64491

>  <r_i_glide_erotb>  (362) 
0.170804

>  <r_i_glide_esite>  (362) 
-0.060611

>  <r_i_glide_emodel>  (362) 
-28.9369

>  <r_i_glide_energy>  (362) 
-24.562

>  <r_i_glide_einternal>  (362) 
6.2774

>  <r_i_glide_intrahb_reward>  (362) 
-0

>  <i_i_glide_confnum>  (362) 
2

>  <i_i_glide_posenum>  (362) 
12

>  <r_i_glide_eff_state_penalty>  (362) 
0

>  <ligand_id>  (362) 
93

>  <original_smiles>  (362) 
CC(C=CCC(C)C1CCC2(C)C3CC4C5(C)CCC(O)C(C)(C)C5CCC45C(=O)C5C3(C)CC(O)C12C)C(=O)O

>  <smiles>  (362) 
[H]OC1([H])C([H])([H])C([H])([H])C2(C([H])([H])[H])C3([H])C([H])([H])C4([H])C(C([H])([H])[H])(C([H])([H])C([H])(O[H])C5(C([H])([H])[H])C([H])(C([H])(C([H])([H])[H])C([H])([H])C([H])=C([H])C([H])(C(=O)[O-])C([H])([H])[H])C([H])([H])C([H])([H])C45C([H])([H])[H])C4([H])C(=O)C43C([H])([H])C([H])([H])C2([H])C1(C([H])([H])[H])C([H])([H])[H]

$$$$
93:3:1
     RDKit          3D

 96101  0  0  1  0  0  0  0  0999 V2000
    2.5183   -8.8235    1.5220 C   0  0  0  0  0  0  0  0  0  0  0  0
    1.3684   -8.1172    2.2141 C   0  0  2  0  0  0  0  0  0  0  0  0
    0.1987   -8.9905    2.5709 C   0  0  0  0  0  0  0  0  0  0  0  0
   -0.4243   -9.1996    3.7373 C   0  0  0  0  0  0  0  0  0  0  0  0
   -0.1189   -8.6512    5.1341 C   0  0  0  0  0  0  0  0  0  0  0  0
    1.2075   -7.8463    5.2934 C   0  0  2  0  0  0  0  0  0  0  0  0
    2.3664   -8.8946    5.1593 C   0  0  0  0  0  0  0  0  0  0  0  0
    1.3163   -6.9454    6.5357 C   0  0  2  0  0  0  0  0  0  0  0  0
   -0.0027   -6.1709    6.7697 C   0  0  0  0  0  0  0  0  0  0  0  0
    0.3405   -4.7468    7.1524 C   0  0  0  0  0  0  0  0  0  0  0  0
    1.6974   -4.4385    6.4835 C   0  0  2  0  0  0  0  0  0  0  0  0
    2.3550   -3.2679    7.2477 C   0  0  0  0  0  0  0  0  0  0  0  0
    1.5017   -4.0520    4.9573 C   0  0  1  0  0  0  0  0  0  0  0  0
    0.6984   -2.7292    4.7029 C   0  0  0  0  0  0  0  0  0  0  0  0
    1.4718   -1.4432    4.2305 C   0  0  1  0  0  0  0  0  0  0  0  0
    0.7982   -0.0651    4.6316 C   0  0  2  0  0  0  0  0  0  0  0  0
    0.4400   -0.0033    6.1479 C   0  0  0  0  0  0  0  0  0  0  0  0
   -0.5730    0.1162    3.9069 C   0  0  0  0  0  0  0  0  0  0  0  0
   -0.4950    0.5762    2.4487 C   0  0  0  0  0  0  0  0  0  0  0  0
    0.2844    1.8857    2.3376 C   0  0  1  0  0  0  0  0  0  0  0  0
   -0.4616    2.9363    2.9402 O   0  0  0  0  0  0  0  0  0  0  0  0
    1.7367    1.7721    2.8861 C   0  0  0  0  0  0  0  0  0  0  0  0
    2.5593    0.9221    1.8884 C   0  0  0  0  0  0  0  0  0  0  0  0
    2.3582    3.1982    2.9010 C   0  0  0  0  0  0  0  0  0  0  0  0
    1.7470    1.1631    4.3422 C   0  0  2  0  0  0  0  0  0  0  0  0
    3.1656    0.9907    4.9727 C   0  0  0  0  0  0  0  0  0  0  0  0
    3.5928   -0.4486    5.3232 C   0  0  0  0  0  0  0  0  0  0  0  0
    3.0095   -1.5157    4.4228 C   0  0  2  0  0  0  0  0  0  0  0  0
    3.8889   -1.9004    3.2528 C   0  0  0  0  0  0  0  0  0  0  0  0
    4.4953   -1.6109    2.2263 O   0  0  0  0  0  0  0  0  0  0  0  0
    3.6692   -2.8893    4.3494 C   0  0  2  0  0  0  0  0  0  0  0  0
    2.7852   -4.1100    4.0724 C   0  0  2  0  0  0  0  0  0  0  0  0
    2.3573   -4.1366    2.5849 C   0  0  0  0  0  0  0  0  0  0  0  0
    3.5432   -5.4497    4.3132 C   0  0  0  0  0  0  0  0  0  0  0  0
    3.7339   -5.8930    5.7769 C   0  0  1  0  0  0  0  0  0  0  0  0
    4.8092   -5.1265    6.2881 O   0  0  0  0  0  0  0  0  0  0  0  0
    2.4468   -5.8206    6.6799 C   0  0  2  0  0  0  0  0  0  0  0  0
    2.9281   -6.0301    8.1507 C   0  0  0  0  0  0  0  0  0  0  0  0
    0.8936   -6.8616    1.4981 C   0  0  0  0  0  0  0  0  0  0  0  0
   -0.2019   -6.3259    1.9003 O   0  0  0  0  0  0  0  0  0  0  0  0
    1.6069   -6.3343    0.6533 O   0  0  0  0  0  0  0  0  0  0  0  0
    2.2281   -9.1148    0.5058 H   0  0  0  0  0  0  0  0  0  0  0  0
    2.8122   -9.7108    2.0982 H   0  0  0  0  0  0  0  0  0  0  0  0
    3.3905   -8.1589    1.4998 H   0  0  0  0  0  0  0  0  0  0  0  0
    1.9443   -7.8031    3.0104 H   0  0  0  0  0  0  0  0  0  0  0  0
   -0.2483   -9.4919    1.7021 H   0  0  0  0  0  0  0  0  0  0  0  0
   -1.3010   -9.8320    3.6819 H   0  0  0  0  0  0  0  0  0  0  0  0
   -1.0055   -8.0598    5.3612 H   0  0  0  0  0  0  0  0  0  0  0  0
   -0.1384   -9.4854    5.8476 H   0  0  0  0  0  0  0  0  0  0  0  0
    1.1360   -7.0717    4.5433 H   0  0  0  0  0  0  0  0  0  0  0  0
    2.6054   -9.3748    6.1033 H   0  0  0  0  0  0  0  0  0  0  0  0
    3.2852   -8.5063    4.7326 H   0  0  0  0  0  0  0  0  0  0  0  0
    2.1078   -9.7201    4.4907 H   0  0  0  0  0  0  0  0  0  0  0  0
    1.4244   -7.6817    7.3455 H   0  0  0  0  0  0  0  0  0  0  0  0
   -0.6149   -6.0972    5.8725 H   0  0  0  0  0  0  0  0  0  0  0  0
   -0.5685   -6.6698    7.5425 H   0  0  0  0  0  0  0  0  0  0  0  0
   -0.4719   -4.0764    6.8879 H   0  0  0  0  0  0  0  0  0  0  0  0
    0.4271   -4.7018    8.2345 H   0  0  0  0  0  0  0  0  0  0  0  0
    3.3855   -3.0971    6.9513 H   0  0  0  0  0  0  0  0  0  0  0  0
    2.3610   -3.4263    8.3217 H   0  0  0  0  0  0  0  0  0  0  0  0
    1.8165   -2.3401    7.0937 H   0  0  0  0  0  0  0  0  0  0  0  0
    0.8446   -4.8367    4.5629 H   0  0  0  0  0  0  0  0  0  0  0  0
   -0.0601   -2.9292    3.9479 H   0  0  0  0  0  0  0  0  0  0  0  0
    0.1005   -2.5295    5.5717 H   0  0  0  0  0  0  0  0  0  0  0  0
    1.3622   -1.4721    3.1565 H   0  0  0  0  0  0  0  0  0  0  0  0
    0.0489    0.9779    6.4258 H   0  0  0  0  0  0  0  0  0  0  0  0
    1.2917   -0.1772    6.7989 H   0  0  0  0  0  0  0  0  0  0  0  0
   -0.3425   -0.7034    6.4332 H   0  0  0  0  0  0  0  0  0  0  0  0
   -1.1684   -0.7925    3.9674 H   0  0  0  0  0  0  0  0  0  0  0  0
   -1.1700    0.8652    4.4251 H   0  0  0  0  0  0  0  0  0  0  0  0
   -0.0410   -0.1817    1.8137 H   0  0  0  0  0  0  0  0  0  0  0  0
   -1.4963    0.7258    2.0442 H   0  0  0  0  0  0  0  0  0  0  0  0
    0.3330    2.1268    1.2755 H   0  0  0  0  0  0  0  0  0  0  0  0
   -0.3892    3.6805    2.3432 H   0  0  0  0  0  0  0  0  0  0  0  0
    3.6047    0.8468    2.1695 H   0  0  0  0  0  0  0  0  0  0  0  0
    2.5343    1.3381    0.8877 H   0  0  0  0  0  0  0  0  0  0  0  0
    2.1781   -0.0860    1.7728 H   0  0  0  0  0  0  0  0  0  0  0  0
    3.4225    3.1897    3.0988 H   0  0  0  0  0  0  0  0  0  0  0  0
    1.9185    3.8337    3.6698 H   0  0  0  0  0  0  0  0  0  0  0  0
    2.2219    3.7135    1.9504 H   0  0  0  0  0  0  0  0  0  0  0  0
    1.3073    1.9837    4.9159 H   0  0  0  0  0  0  0  0  0  0  0  0
    3.9323    1.4439    4.3441 H   0  0  0  0  0  0  0  0  0  0  0  0
    3.2124    1.5667    5.8972 H   0  0  0  0  0  0  0  0  0  0  0  0
    4.6860   -0.5093    5.3236 H   0  0  0  0  0  0  0  0  0  0  0  0
    3.3242   -0.6708    6.3531 H   0  0  0  0  0  0  0  0  0  0  0  0
    4.5184   -3.1080    4.9934 H   0  0  0  0  0  0  0  0  0  0  0  0
    3.1794   -4.3487    1.8861 H   0  0  0  0  0  0  0  0  0  0  0  0
    1.7515   -3.3025    2.2152 H   0  0  0  0  0  0  0  0  0  0  0  0
    1.6955   -4.9068    2.6140 H   0  0  0  0  0  0  0  0  0  0  0  0
    3.0036   -6.2479    3.8216 H   0  0  0  0  0  0  0  0  0  0  0  0
    4.4935   -5.4397    3.7756 H   0  0  0  0  0  0  0  0  0  0  0  0
    4.1295   -6.9068    5.7990 H   0  0  0  0  0  0  0  0  0  0  0  0
    5.5820   -5.3022    5.7708 H   0  0  0  0  0  0  0  0  0  0  0  0
    3.6238   -5.2712    8.4947 H   0  0  0  0  0  0  0  0  0  0  0  0
    3.4397   -6.9862    8.2537 H   0  0  0  0  0  0  0  0  0  0  0  0
    2.1020   -6.0460    8.8573 H   0  0  0  0  0  0  0  0  0  0  0  0
  1  2  1  0
  1 42  1  0
  1 43  1  0
  1 44  1  0
  2  3  1  0
  2 39  1  0
  2 45  1  1
  3  4  2  3
  3 46  1  0
  4  5  1  0
  4 47  1  0
  5  6  1  0
  5 48  1  0
  5 49  1  0
  6  7  1  0
  6  8  1  0
  6 50  1  6
  7 51  1  0
  7 52  1  0
  7 53  1  0
  8 37  1  0
  8  9  1  0
  8 54  1  1
  9 10  1  0
  9 55  1  0
  9 56  1  0
 10 11  1  0
 10 57  1  0
 10 58  1  0
 11 37  1  0
 11 12  1  1
 11 13  1  0
 12 59  1  0
 12 60  1  0
 12 61  1  0
 13 32  1  0
 13 14  1  0
 13 62  1  6
 14 15  1  0
 14 63  1  0
 14 64  1  0
 15 28  1  0
 15 16  1  0
 15 65  1  6
 16 25  1  0
 16 17  1  1
 16 18  1  0
 17 66  1  0
 17 67  1  0
 17 68  1  0
 18 19  1  0
 18 69  1  0
 18 70  1  0
 19 20  1  0
 19 71  1  0
 19 72  1  0
 20 21  1  0
 20 22  1  0
 20 73  1  6
 21 74  1  0
 22 23  1  0
 22 24  1  0
 22 25  1  0
 23 75  1  0
 23 76  1  0
 23 77  1  0
 24 78  1  0
 24 79  1  0
 24 80  1  0
 25 26  1  0
 25 81  1  1
 26 27  1  0
 26 82  1  0
 26 83  1  0
 28 27  1  1
 27 84  1  0
 27 85  1  0
 28 31  1  0
 28 29  1  0
 29 30  2  0
 29 31  1  0
 31 32  1  0
 31 86  1  1
 32 33  1  6
 32 34  1  0
 33 87  1  0
 33 88  1  0
 33 89  1  0
 34 35  1  0
 34 90  1  0
 34 91  1  0
 35 36  1  0
 35 37  1  0
 35 92  1  6
 36 93  1  0
 37 38  1  1
 38 94  1  0
 38 95  1  0
 38 96  1  0
 39 40  2  0
 39 41  1  0
M  CHG  1  41  -1
M  END
>  <i_m_ct_stereo_status>  (363) 
1

>  <s_m_source_file>  (363) 
/var/tmp/pbs.5076255.sched01/tmpt95b3wv2/135g3gtwtb2.sdf

>  <i_m_source_file_index>  (363) 
11

>  <i_lp_mmshare_version>  (363) 
48012

>  <i_f3d_flags>  (363) 
0

>  <s_epik_input>  (363) 
Tz1DKFtPSF0pW0NASF0oW0NIM10pL1tDSF09W0NIXS9bQ0gyXVtDQEhdKFtDSDNdKVtDQEhdKFtDSDJdW0NIMl0xKVtDQEBdKFtDSDNdKShbQ0BIXShbT0hdKVtDSDJdW0NAXTIoW0NIM10pW0NIXTNDND1PKVtDQEBdMShbQ0gzXSlbQ0BIXTJbQ0gyXVtDQEhdKEMzNDUpW0NAQF02KFtDSDNdKVtDQEBIXShbQ0gyXVtDSDJdNSlDKFtDSDNdKShbQ0gzXSlbQ0BIXShbT0hdKVtDSDJdW0NIMl02

>  <s_epik_cmdline>  (363) 
J2VwaWtfcHl0aG9uJywgJy1waHQnLCAnMi4wJywgJy1waCcsICc3LjAnLCAnLXRuJywgJzgnLCAnLW1hJywgJzIwMCcsICctaW1hZScsICc8aW5maWxlLm1hZT4nLCAnLW9tYWUnLCAnPG91dGZpbGUubWFlPic=

>  <r_epik_Ionization_Penalty>  (363) 
0.00149679

>  <r_epik_Ionization_Penalty_Charging>  (363) 
0.00149294

>  <r_epik_Ionization_Penalty_Neutral>  (363) 
3.85434e-06

>  <r_epik_State_Penalty>  (363) 
0.000999864

>  <r_epik_Charging_Adjusted_Penalty>  (363) 
0.0024928

>  <i_epik_Tot_Q>  (363) 
-1

>  <i_epik_Tot_abs_Q>  (363) 
1

>  <s_lp_Force_Field>  (363) 
OPLS3e

>  <r_lp_Energy>  (363) 
110.652

>  <b_lp_Chiralities_Consistent>  (363) 
1

>  <s_lp_Variant>  (363) 
93:0-4

>  <s_i_glide_gridfile>  (363) 
pfpi4k_grid

>  <i_i_glide_lignum>  (363) 
11

>  <i_i_glide_rotatable_bonds>  (363) 
7

>  <r_i_docking_score>  (363) 
-2.83946

>  <r_i_glide_ligand_efficiency>  (363) 
-0.0692552

>  <r_i_glide_ligand_efficiency_sa>  (363) 
-0.238807

>  <r_i_glide_ligand_efficiency_ln>  (363) 
-0.602402

>  <r_i_glide_gscore>  (363) 
-2.83946

>  <r_i_glide_lipo>  (363) 
-0.0223798

>  <r_i_glide_hbond>  (363) 
-0.537571

>  <r_i_glide_metal>  (363) 
-0

>  <r_i_glide_rewards>  (363) 
-0.00027065

>  <r_i_glide_evdw>  (363) 
-22.4839

>  <r_i_glide_ecoul>  (363) 
-8.64821

>  <r_i_glide_erotb>  (363) 
0.170804

>  <r_i_glide_esite>  (363) 
-0.0758187

>  <r_i_glide_emodel>  (363) 
-33.33

>  <r_i_glide_energy>  (363) 
-31.1321

>  <r_i_glide_einternal>  (363) 
4.01058

>  <r_i_glide_intrahb_reward>  (363) 
-0

>  <i_i_glide_confnum>  (363) 
2

>  <i_i_glide_posenum>  (363) 
1

>  <r_i_glide_eff_state_penalty>  (363) 
0

>  <ligand_id>  (363) 
93

>  <original_smiles>  (363) 
CC(C=CCC(C)C1CCC2(C)C3CC4C5(C)CCC(O)C(C)(C)C5CCC45C(=O)C5C3(C)CC(O)C12C)C(=O)O

>  <smiles>  (363) 
[H]OC1([H])C([H])([H])C([H])([H])C2(C([H])([H])[H])C3([H])C([H])([H])C4([H])C(C([H])([H])[H])(C([H])([H])C([H])(O[H])C5(C([H])([H])[H])C([H])(C([H])(C([H])([H])[H])C([H])([H])C([H])=C([H])C([H])(C(=O)[O-])C([H])([H])[H])C([H])([H])C([H])([H])C45C([H])([H])[H])C4([H])C(=O)C43C([H])([H])C([H])([H])C2([H])C1(C([H])([H])[H])C([H])([H])[H]

$$$$
93:3:2
     RDKit          3D

 96101  0  0  1  0  0  0  0  0999 V2000
   -1.8149    2.0567    3.2421 C   0  0  0  0  0  0  0  0  0  0  0  0
   -1.1521    2.6167    4.5127 C   0  0  2  0  0  0  0  0  0  0  0  0
   -1.8034    2.0521    5.7603 C   0  0  0  0  0  0  0  0  0  0  0  0
   -1.2002    1.4245    6.7873 C   0  0  0  0  0  0  0  0  0  0  0  0
    0.2853    1.1146    6.9492 C   0  0  0  0  0  0  0  0  0  0  0  0
    0.6019   -0.2780    7.5700 C   0  0  2  0  0  0  0  0  0  0  0  0
    0.0984   -0.2464    9.0413 C   0  0  0  0  0  0  0  0  0  0  0  0
    2.1389   -0.6195    7.4265 C   0  0  2  0  0  0  0  0  0  0  0  0
    2.6249   -0.5521    5.9550 C   0  0  0  0  0  0  0  0  0  0  0  0
    3.5614   -1.7350    5.7202 C   0  0  0  0  0  0  0  0  0  0  0  0
    3.1370   -2.8303    6.7231 C   0  0  2  0  0  0  0  0  0  0  0  0
    4.3299   -3.7989    6.9330 C   0  0  0  0  0  0  0  0  0  0  0  0
    1.8685   -3.6109    6.1772 C   0  0  1  0  0  0  0  0  0  0  0  0
    2.1225   -4.4601    4.8819 C   0  0  0  0  0  0  0  0  0  0  0  0
    2.1916   -6.0290    4.9817 C   0  0  1  0  0  0  0  0  0  0  0  0
    3.0726   -6.7287    3.8638 C   0  0  2  0  0  0  0  0  0  0  0  0
    4.4806   -6.0773    3.7227 C   0  0  0  0  0  0  0  0  0  0  0  0
    2.4222   -6.5539    2.4605 C   0  0  0  0  0  0  0  0  0  0  0  0
    1.2554   -7.5006    2.1468 C   0  0  0  0  0  0  0  0  0  0  0  0
    1.6783   -8.9669    2.3017 C   0  0  1  0  0  0  0  0  0  0  0  0
    2.6440   -9.2533    1.3054 O   0  0  0  0  0  0  0  0  0  0  0  0
    2.1977   -9.2836    3.7321 C   0  0  0  0  0  0  0  0  0  0  0  0
    0.9799   -9.3099    4.6862 C   0  0  0  0  0  0  0  0  0  0  0  0
    2.7787  -10.7252    3.7124 C   0  0  0  0  0  0  0  0  0  0  0  0
    3.3101   -8.2535    4.1733 C   0  0  2  0  0  0  0  0  0  0  0  0
    3.8801   -8.4853    5.6013 C   0  0  0  0  0  0  0  0  0  0  0  0
    3.6657   -7.3523    6.6257 C   0  0  0  0  0  0  0  0  0  0  0  0
    2.3934   -6.5483    6.4189 C   0  0  2  0  0  0  0  0  0  0  0  0
    1.1904   -7.0299    7.2065 C   0  0  0  0  0  0  0  0  0  0  0  0
    0.3777   -7.9048    7.4891 O   0  0  0  0  0  0  0  0  0  0  0  0
    1.7997   -5.7064    7.5482 C   0  0  2  0  0  0  0  0  0  0  0  0
    1.0459   -4.4112    7.2238 C   0  0  2  0  0  0  0  0  0  0  0  0
   -0.3869   -4.6814    6.6658 C   0  0  0  0  0  0  0  0  0  0  0  0
    0.8075   -3.5676    8.4966 C   0  0  0  0  0  0  0  0  0  0  0  0
    2.0084   -2.7753    9.0524 C   0  0  1  0  0  0  0  0  0  0  0  0
    2.8219   -3.6778    9.7774 O   0  0  0  0  0  0  0  0  0  0  0  0
    2.8054   -1.9510    7.9922 C   0  0  2  0  0  0  0  0  0  0  0  0
    4.1058   -1.4433    8.7031 C   0  0  0  0  0  0  0  0  0  0  0  0
   -1.1747    4.1501    4.5606 C   0  0  0  0  0  0  0  0  0  0  0  0
   -1.7848    4.7844    3.6710 O   0  0  0  0  0  0  0  0  0  0  0  0
   -0.5898    4.6999    5.5240 O   0  0  0  0  0  0  0  0  0  0  0  0
   -2.8615    2.3591    3.1614 H   0  0  0  0  0  0  0  0  0  0  0  0
   -1.7775    0.9697    3.2449 H   0  0  0  0  0  0  0  0  0  0  0  0
   -1.2899    2.4063    2.3512 H   0  0  0  0  0  0  0  0  0  0  0  0
   -0.1007    2.3456    4.4687 H   0  0  0  0  0  0  0  0  0  0  0  0
   -2.8704    2.1976    5.8247 H   0  0  0  0  0  0  0  0  0  0  0  0
   -1.8572    1.1471    7.5891 H   0  0  0  0  0  0  0  0  0  0  0  0
    0.7850    1.2236    5.9907 H   0  0  0  0  0  0  0  0  0  0  0  0
    0.7103    1.8972    7.5815 H   0  0  0  0  0  0  0  0  0  0  0  0
    0.0392   -1.0080    6.9887 H   0  0  0  0  0  0  0  0  0  0  0  0
    0.8496    0.1992    9.6941 H   0  0  0  0  0  0  0  0  0  0  0  0
   -0.1694   -1.2198    9.4400 H   0  0  0  0  0  0  0  0  0  0  0  0
   -0.8065    0.3417    9.1785 H   0  0  0  0  0  0  0  0  0  0  0  0
    2.6203    0.2247    7.9253 H   0  0  0  0  0  0  0  0  0  0  0  0
    1.7909   -0.6294    5.2568 H   0  0  0  0  0  0  0  0  0  0  0  0
    3.1328    0.3888    5.7297 H   0  0  0  0  0  0  0  0  0  0  0  0
    3.5554   -2.0438    4.6757 H   0  0  0  0  0  0  0  0  0  0  0  0
    4.5853   -1.4185    5.9195 H   0  0  0  0  0  0  0  0  0  0  0  0
    4.1618   -4.5000    7.7437 H   0  0  0  0  0  0  0  0  0  0  0  0
    5.2604   -3.2759    7.1460 H   0  0  0  0  0  0  0  0  0  0  0  0
    4.5197   -4.3813    6.0384 H   0  0  0  0  0  0  0  0  0  0  0  0
    1.1941   -2.8184    5.8527 H   0  0  0  0  0  0  0  0  0  0  0  0
    1.3018   -4.2325    4.2012 H   0  0  0  0  0  0  0  0  0  0  0  0
    2.9860   -4.0622    4.3700 H   0  0  0  0  0  0  0  0  0  0  0  0
    1.1763   -6.3389    4.7509 H   0  0  0  0  0  0  0  0  0  0  0  0
    5.0925   -6.6202    3.0032 H   0  0  0  0  0  0  0  0  0  0  0  0
    5.0554   -6.0592    4.6440 H   0  0  0  0  0  0  0  0  0  0  0  0
    4.4502   -5.0620    3.3355 H   0  0  0  0  0  0  0  0  0  0  0  0
    2.0982   -5.5240    2.3211 H   0  0  0  0  0  0  0  0  0  0  0  0
    3.1819   -6.7160    1.6907 H   0  0  0  0  0  0  0  0  0  0  0  0
    0.4031   -7.2744    2.7817 H   0  0  0  0  0  0  0  0  0  0  0  0
    0.9104   -7.3278    1.1264 H   0  0  0  0  0  0  0  0  0  0  0  0
    0.8150   -9.5953    2.0794 H   0  0  0  0  0  0  0  0  0  0  0  0
    2.8373  -10.1835    1.3215 H   0  0  0  0  0  0  0  0  0  0  0  0
    1.2670   -9.5999    5.6943 H   0  0  0  0  0  0  0  0  0  0  0  0
    0.2308  -10.0302    4.3496 H   0  0  0  0  0  0  0  0  0  0  0  0
    0.4777   -8.3512    4.7440 H   0  0  0  0  0  0  0  0  0  0  0  0
    2.9861  -11.1013    4.7127 H   0  0  0  0  0  0  0  0  0  0  0  0
    3.7129  -10.7806    3.1508 H   0  0  0  0  0  0  0  0  0  0  0  0
    2.0849  -11.4287    3.2503 H   0  0  0  0  0  0  0  0  0  0  0  0
    4.1293   -8.5331    3.5187 H   0  0  0  0  0  0  0  0  0  0  0  0
    3.4845   -9.3996    6.0293 H   0  0  0  0  0  0  0  0  0  0  0  0
    4.9529   -8.6681    5.5238 H   0  0  0  0  0  0  0  0  0  0  0  0
    3.6595   -7.7751    7.6305 H   0  0  0  0  0  0  0  0  0  0  0  0
    4.5181   -6.6776    6.6147 H   0  0  0  0  0  0  0  0  0  0  0  0
    2.3703   -5.6589    8.4632 H   0  0  0  0  0  0  0  0  0  0  0  0
   -1.0068   -5.2065    7.3940 H   0  0  0  0  0  0  0  0  0  0  0  0
   -0.3971   -5.2631    5.7468 H   0  0  0  0  0  0  0  0  0  0  0  0
   -0.8954   -3.7455    6.4310 H   0  0  0  0  0  0  0  0  0  0  0  0
    0.0222   -2.8660    8.2405 H   0  0  0  0  0  0  0  0  0  0  0  0
    0.3872   -4.1863    9.2903 H   0  0  0  0  0  0  0  0  0  0  0  0
    1.6914   -2.1052    9.8454 H   0  0  0  0  0  0  0  0  0  0  0  0
    3.2079   -4.2909    9.1670 H   0  0  0  0  0  0  0  0  0  0  0  0
    4.7465   -2.2443    9.0670 H   0  0  0  0  0  0  0  0  0  0  0  0
    3.8548   -0.8363    9.5739 H   0  0  0  0  0  0  0  0  0  0  0  0
    4.7240   -0.8176    8.0584 H   0  0  0  0  0  0  0  0  0  0  0  0
  1  2  1  0
  1 42  1  0
  1 43  1  0
  1 44  1  0
  2  3  1  0
  2 39  1  0
  2 45  1  6
  3  4  2  3
  3 46  1  0
  4  5  1  0
  4 47  1  0
  5  6  1  0
  5 48  1  0
  5 49  1  0
  6  7  1  0
  6  8  1  0
  6 50  1  6
  7 51  1  0
  7 52  1  0
  7 53  1  0
  8 37  1  0
  8  9  1  0
  8 54  1  1
  9 10  1  0
  9 55  1  0
  9 56  1  0
 10 11  1  0
 10 57  1  0
 10 58  1  0
 11 37  1  0
 11 12  1  1
 11 13  1  0
 12 59  1  0
 12 60  1  0
 12 61  1  0
 13 32  1  0
 13 14  1  0
 13 62  1  6
 14 15  1  0
 14 63  1  0
 14 64  1  0
 15 28  1  0
 15 16  1  0
 15 65  1  6
 16 25  1  0
 16 17  1  6
 16 18  1  0
 17 66  1  0
 17 67  1  0
 17 68  1  0
 18 19  1  0
 18 69  1  0
 18 70  1  0
 19 20  1  0
 19 71  1  0
 19 72  1  0
 20 21  1  0
 20 22  1  0
 20 73  1  6
 21 74  1  0
 22 23  1  0
 22 24  1  0
 22 25  1  0
 23 75  1  0
 23 76  1  0
 23 77  1  0
 24 78  1  0
 24 79  1  0
 24 80  1  0
 25 26  1  0
 25 81  1  6
 26 27  1  0
 26 82  1  0
 26 83  1  0
 28 27  1  1
 27 84  1  0
 27 85  1  0
 28 31  1  0
 28 29  1  0
 29 30  2  0
 29 31  1  0
 31 32  1  0
 31 86  1  1
 32 33  1  6
 32 34  1  0
 33 87  1  0
 33 88  1  0
 33 89  1  0
 34 35  1  0
 34 90  1  0
 34 91  1  0
 35 36  1  0
 35 37  1  0
 35 92  1  1
 36 93  1  0
 37 38  1  1
 38 94  1  0
 38 95  1  0
 38 96  1  0
 39 40  2  0
 39 41  1  0
M  CHG  1  41  -1
M  END
>  <i_m_ct_stereo_status>  (364) 
1

>  <s_m_source_file>  (364) 
/var/tmp/pbs.5076255.sched01/tmpt95b3wv2/135g3gtwtb2.sdf

>  <i_m_source_file_index>  (364) 
11

>  <i_lp_mmshare_version>  (364) 
48012

>  <i_f3d_flags>  (364) 
0

>  <s_epik_input>  (364) 
Tz1DKFtPSF0pW0NASF0oW0NIM10pL1tDSF09W0NIXS9bQ0gyXVtDQEhdKFtDSDNdKVtDQEhdKFtDSDJdW0NIMl0xKVtDQEBdKFtDSDNdKShbQ0BIXShbT0hdKVtDSDJdW0NAXTIoW0NIM10pW0NIXTNDND1PKVtDQEBdMShbQ0gzXSlbQ0BIXTJbQ0gyXVtDQEhdKEMzNDUpW0NAQF02KFtDSDNdKVtDQEBIXShbQ0gyXVtDSDJdNSlDKFtDSDNdKShbQ0gzXSlbQ0BIXShbT0hdKVtDSDJdW0NIMl02

>  <s_epik_cmdline>  (364) 
J2VwaWtfcHl0aG9uJywgJy1waHQnLCAnMi4wJywgJy1waCcsICc3LjAnLCAnLXRuJywgJzgnLCAnLW1hJywgJzIwMCcsICctaW1hZScsICc8aW5maWxlLm1hZT4nLCAnLW9tYWUnLCAnPG91dGZpbGUubWFlPic=

>  <r_epik_Ionization_Penalty>  (364) 
0.00149679

>  <r_epik_Ionization_Penalty_Charging>  (364) 
0.00149294

>  <r_epik_Ionization_Penalty_Neutral>  (364) 
3.85434e-06

>  <r_epik_State_Penalty>  (364) 
0.000999864

>  <r_epik_Charging_Adjusted_Penalty>  (364) 
0.0024928

>  <i_epik_Tot_Q>  (364) 
-1

>  <i_epik_Tot_abs_Q>  (364) 
1

>  <s_lp_Force_Field>  (364) 
OPLS3e

>  <r_lp_Energy>  (364) 
110.652

>  <b_lp_Chiralities_Consistent>  (364) 
1

>  <s_lp_Variant>  (364) 
93:0-4

>  <s_i_glide_gridfile>  (364) 
pfpi4k_grid

>  <i_i_glide_lignum>  (364) 
11

>  <i_i_glide_rotatable_bonds>  (364) 
7

>  <r_i_docking_score>  (364) 
-1.75199

>  <r_i_glide_ligand_efficiency>  (364) 
-0.0427315

>  <r_i_glide_ligand_efficiency_sa>  (364) 
-0.147348

>  <r_i_glide_ligand_efficiency_ln>  (364) 
-0.371691

>  <r_i_glide_gscore>  (364) 
-1.75199

>  <r_i_glide_lipo>  (364) 
-0.0205605

>  <r_i_glide_hbond>  (364) 
-0.2

>  <r_i_glide_metal>  (364) 
-0

>  <r_i_glide_rewards>  (364) 
0

>  <r_i_glide_evdw>  (364) 
-19.4673

>  <r_i_glide_ecoul>  (364) 
-4.4481

>  <r_i_glide_erotb>  (364) 
0.170804

>  <r_i_glide_esite>  (364) 
-0.0616547

>  <r_i_glide_emodel>  (364) 
-27.9001

>  <r_i_glide_energy>  (364) 
-23.9154

>  <r_i_glide_einternal>  (364) 
1.17624

>  <r_i_glide_intrahb_reward>  (364) 
-0

>  <i_i_glide_confnum>  (364) 
2

>  <i_i_glide_posenum>  (364) 
28

>  <r_i_glide_eff_state_penalty>  (364) 
0

>  <ligand_id>  (364) 
93

>  <original_smiles>  (364) 
CC(C=CCC(C)C1CCC2(C)C3CC4C5(C)CCC(O)C(C)(C)C5CCC45C(=O)C5C3(C)CC(O)C12C)C(=O)O

>  <smiles>  (364) 
[H]OC1([H])C([H])([H])C([H])([H])C2(C([H])([H])[H])C3([H])C([H])([H])C4([H])C(C([H])([H])[H])(C([H])([H])C([H])(O[H])C5(C([H])([H])[H])C([H])(C([H])(C([H])([H])[H])C([H])([H])C([H])=C([H])C([H])(C(=O)[O-])C([H])([H])[H])C([H])([H])C([H])([H])C45C([H])([H])[H])C4([H])C(=O)C43C([H])([H])C([H])([H])C2([H])C1(C([H])([H])[H])C([H])([H])[H]

$$$$
93:4:0
     RDKit          3D

 96101  0  0  1  0  0  0  0  0999 V2000
    0.0388   -9.3226    2.5912 C   0  0  0  0  0  0  0  0  0  0  0  0
    0.8824   -8.1137    2.1043 C   0  0  2  0  0  0  0  0  0  0  0  0
    1.8813   -7.6425    3.1509 C   0  0  0  0  0  0  0  0  0  0  0  0
    1.6701   -7.6279    4.4801 C   0  0  0  0  0  0  0  0  0  0  0  0
    2.6633   -7.1557    5.5288 C   0  0  0  0  0  0  0  0  0  0  0  0
    2.0945   -6.0765    6.4965 C   0  0  2  0  0  0  0  0  0  0  0  0
    0.8343   -6.6488    7.1878 C   0  0  0  0  0  0  0  0  0  0  0  0
    1.8886   -4.6902    5.8025 C   0  0  2  0  0  0  0  0  0  0  0  0
    3.1665   -4.1600    5.1240 C   0  0  0  0  0  0  0  0  0  0  0  0
    3.0461   -2.6318    5.0647 C   0  0  0  0  0  0  0  0  0  0  0  0
    1.6503   -2.2532    5.6186 C   0  0  2  0  0  0  0  0  0  0  0  0
    0.7403   -2.2690    4.3454 C   0  0  0  0  0  0  0  0  0  0  0  0
    1.6599   -0.7953    6.2814 C   0  0  1  0  0  0  0  0  0  0  0  0
    0.3599    0.0436    6.0684 C   0  0  0  0  0  0  0  0  0  0  0  0
    0.5535    1.5484    6.3982 C   0  0  1  0  0  0  0  0  0  0  0  0
   -0.6085    2.5205    5.9690 C   0  0  2  0  0  0  0  0  0  0  0  0
   -1.8811    2.1961    6.7928 C   0  0  0  0  0  0  0  0  0  0  0  0
   -1.0401    2.3644    4.4868 C   0  0  0  0  0  0  0  0  0  0  0  0
   -0.0280    2.8966    3.4750 C   0  0  0  0  0  0  0  0  0  0  0  0
    0.1936    4.3990    3.6765 C   0  0  1  0  0  0  0  0  0  0  0  0
   -0.9886    5.0755    3.2735 O   0  0  0  0  0  0  0  0  0  0  0  0
    0.6758    4.7437    5.1101 C   0  0  0  0  0  0  0  0  0  0  0  0
    2.1961    4.4397    5.1624 C   0  0  0  0  0  0  0  0  0  0  0  0
    0.5748    6.2803    5.3004 C   0  0  0  0  0  0  0  0  0  0  0  0
   -0.1876    4.0082    6.2145 C   0  0  2  0  0  0  0  0  0  0  0  0
    0.2845    4.2049    7.6786 C   0  0  0  0  0  0  0  0  0  0  0  0
    1.3218    3.1747    8.1700 C   0  0  0  0  0  0  0  0  0  0  0  0
    1.0014    1.7291    7.8389 C   0  0  1  0  0  0  0  0  0  0  0  0
    0.3803    0.8522    8.8850 C   0  0  0  0  0  0  0  0  0  0  0  0
   -0.5625    0.5970    9.6318 O   0  0  0  0  0  0  0  0  0  0  0  0
    1.8087    0.6184    8.4703 C   0  0  1  0  0  0  0  0  0  0  0  0
    2.2093   -0.6797    7.7569 C   0  0  2  0  0  0  0  0  0  0  0  0
    3.7640   -0.6458    7.7810 C   0  0  0  0  0  0  0  0  0  0  0  0
    1.7159   -1.8679    8.5891 C   0  0  0  0  0  0  0  0  0  0  0  0
    2.0307   -3.2294    7.9541 C   0  0  1  0  0  0  0  0  0  0  0  0
    1.6634   -4.1412    8.9682 O   0  0  0  0  0  0  0  0  0  0  0  0
    1.3061   -3.4533    6.5854 C   0  0  2  0  0  0  0  0  0  0  0  0
   -0.2259   -3.5814    6.7794 C   0  0  0  0  0  0  0  0  0  0  0  0
   -0.0411   -6.9581    1.6989 C   0  0  0  0  0  0  0  0  0  0  0  0
   -0.9855   -6.6996    2.4684 O   0  0  0  0  0  0  0  0  0  0  0  0
    0.2612   -6.2636    0.7111 O   0  0  0  0  0  0  0  0  0  0  0  0
   -0.5722   -9.1006    3.4676 H   0  0  0  0  0  0  0  0  0  0  0  0
    0.6935  -10.1587    2.8462 H   0  0  0  0  0  0  0  0  0  0  0  0
   -0.6580   -9.6649    1.8273 H   0  0  0  0  0  0  0  0  0  0  0  0
    1.4551   -8.4290    1.2351 H   0  0  0  0  0  0  0  0  0  0  0  0
    2.8214   -7.2795    2.7629 H   0  0  0  0  0  0  0  0  0  0  0  0
    0.7242   -7.9807    4.8595 H   0  0  0  0  0  0  0  0  0  0  0  0
    2.9554   -8.0331    6.1096 H   0  0  0  0  0  0  0  0  0  0  0  0
    3.5732   -6.8271    5.0296 H   0  0  0  0  0  0  0  0  0  0  0  0
    2.8550   -5.9467    7.2692 H   0  0  0  0  0  0  0  0  0  0  0  0
   -0.0204   -6.6653    6.5130 H   0  0  0  0  0  0  0  0  0  0  0  0
    0.5106   -6.0844    8.0510 H   0  0  0  0  0  0  0  0  0  0  0  0
    1.0168   -7.6577    7.5597 H   0  0  0  0  0  0  0  0  0  0  0  0
    1.1925   -4.9024    4.9931 H   0  0  0  0  0  0  0  0  0  0  0  0
    4.0578   -4.4260    5.6947 H   0  0  0  0  0  0  0  0  0  0  0  0
    3.2934   -4.5880    4.1276 H   0  0  0  0  0  0  0  0  0  0  0  0
    3.8603   -2.1983    5.6302 H   0  0  0  0  0  0  0  0  0  0  0  0
    3.1967   -2.2777    4.0442 H   0  0  0  0  0  0  0  0  0  0  0  0
   -0.3175   -2.1350    4.5708 H   0  0  0  0  0  0  0  0  0  0  0  0
    0.8086   -3.1949    3.7750 H   0  0  0  0  0  0  0  0  0  0  0  0
    1.0181   -1.4820    3.6420 H   0  0  0  0  0  0  0  0  0  0  0  0
    2.3660   -0.2439    5.6615 H   0  0  0  0  0  0  0  0  0  0  0  0
    0.0777    0.0058    5.0261 H   0  0  0  0  0  0  0  0  0  0  0  0
   -0.4556   -0.3749    6.6553 H   0  0  0  0  0  0  0  0  0  0  0  0
    1.4167    1.8318    5.8102 H   0  0  0  0  0  0  0  0  0  0  0  0
   -2.7083    2.8513    6.5139 H   0  0  0  0  0  0  0  0  0  0  0  0
   -1.7367    2.3172    7.8656 H   0  0  0  0  0  0  0  0  0  0  0  0
   -2.2184    1.1745    6.6225 H   0  0  0  0  0  0  0  0  0  0  0  0
   -1.3060    1.3398    4.2382 H   0  0  0  0  0  0  0  0  0  0  0  0
   -1.9678    2.9123    4.3304 H   0  0  0  0  0  0  0  0  0  0  0  0
    0.9119    2.3551    3.5633 H   0  0  0  0  0  0  0  0  0  0  0  0
   -0.3827    2.6971    2.4650 H   0  0  0  0  0  0  0  0  0  0  0  0
    0.9464    4.7284    2.9578 H   0  0  0  0  0  0  0  0  0  0  0  0
   -0.9630    5.0198    2.3274 H   0  0  0  0  0  0  0  0  0  0  0  0
    2.6413    4.6881    6.1208 H   0  0  0  0  0  0  0  0  0  0  0  0
    2.7398    5.0216    4.4159 H   0  0  0  0  0  0  0  0  0  0  0  0
    2.4300    3.4030    4.9364 H   0  0  0  0  0  0  0  0  0  0  0  0
    1.0845    6.6265    6.1976 H   0  0  0  0  0  0  0  0  0  0  0  0
   -0.4622    6.5997    5.3865 H   0  0  0  0  0  0  0  0  0  0  0  0
    1.0042    6.8254    4.4565 H   0  0  0  0  0  0  0  0  0  0  0  0
   -1.1221    4.5652    6.1651 H   0  0  0  0  0  0  0  0  0  0  0  0
    0.6805    5.2082    7.8297 H   0  0  0  0  0  0  0  0  0  0  0  0
   -0.5830    4.1567    8.3360 H   0  0  0  0  0  0  0  0  0  0  0  0
    2.3126    3.3989    7.7830 H   0  0  0  0  0  0  0  0  0  0  0  0
    1.4162    3.2726    9.2546 H   0  0  0  0  0  0  0  0  0  0  0  0
    2.5501    0.9211    9.2071 H   0  0  0  0  0  0  0  0  0  0  0  0
    4.1551   -0.3750    8.7639 H   0  0  0  0  0  0  0  0  0  0  0  0
    4.1661    0.0726    7.0641 H   0  0  0  0  0  0  0  0  0  0  0  0
    4.2333   -1.6001    7.5662 H   0  0  0  0  0  0  0  0  0  0  0  0
    2.1372   -1.8078    9.5932 H   0  0  0  0  0  0  0  0  0  0  0  0
    0.6362   -1.7974    8.7119 H   0  0  0  0  0  0  0  0  0  0  0  0
    3.1031   -3.3543    7.8150 H   0  0  0  0  0  0  0  0  0  0  0  0
    2.2687   -4.0712    9.6766 H   0  0  0  0  0  0  0  0  0  0  0  0
   -0.6893   -2.6145    6.9486 H   0  0  0  0  0  0  0  0  0  0  0  0
   -0.4972   -4.2078    7.6248 H   0  0  0  0  0  0  0  0  0  0  0  0
   -0.7029   -4.0255    5.9059 H   0  0  0  0  0  0  0  0  0  0  0  0
  1  2  1  0
  1 42  1  0
  1 43  1  0
  1 44  1  0
  2  3  1  0
  2 39  1  0
  2 45  1  6
  3  4  2  3
  3 46  1  0
  4  5  1  0
  4 47  1  0
  5  6  1  0
  5 48  1  0
  5 49  1  0
  6  7  1  0
  6  8  1  0
  6 50  1  1
  7 51  1  0
  7 52  1  0
  7 53  1  0
  8 37  1  0
  8  9  1  0
  8 54  1  6
  9 10  1  0
  9 55  1  0
  9 56  1  0
 10 11  1  0
 10 57  1  0
 10 58  1  0
 11 37  1  0
 11 12  1  6
 11 13  1  0
 12 59  1  0
 12 60  1  0
 12 61  1  0
 13 32  1  0
 13 14  1  0
 13 62  1  6
 14 15  1  0
 14 63  1  0
 14 64  1  0
 15 28  1  0
 15 16  1  0
 15 65  1  6
 16 25  1  0
 16 17  1  1
 16 18  1  0
 17 66  1  0
 17 67  1  0
 17 68  1  0
 18 19  1  0
 18 69  1  0
 18 70  1  0
 19 20  1  0
 19 71  1  0
 19 72  1  0
 20 21  1  0
 20 22  1  0
 20 73  1  6
 21 74  1  0
 22 23  1  0
 22 24  1  0
 22 25  1  0
 23 75  1  0
 23 76  1  0
 23 77  1  0
 24 78  1  0
 24 79  1  0
 24 80  1  0
 25 26  1  0
 25 81  1  1
 26 27  1  0
 26 82  1  0
 26 83  1  0
 28 27  1  1
 27 84  1  0
 27 85  1  0
 28 31  1  0
 28 29  1  0
 29 30  2  0
 29 31  1  0
 31 32  1  0
 31 86  1  1
 32 33  1  6
 32 34  1  0
 33 87  1  0
 33 88  1  0
 33 89  1  0
 34 35  1  0
 34 90  1  0
 34 91  1  0
 35 36  1  0
 35 37  1  0
 35 92  1  6
 36 93  1  0
 37 38  1  1
 38 94  1  0
 38 95  1  0
 38 96  1  0
 39 40  2  0
 39 41  1  0
M  CHG  1  41  -1
M  END
>  <i_m_ct_stereo_status>  (365) 
1

>  <s_m_source_file>  (365) 
/var/tmp/pbs.5076255.sched01/tmpt95b3wv2/135g3gtwtb2.sdf

>  <i_m_source_file_index>  (365) 
12

>  <i_lp_mmshare_version>  (365) 
48012

>  <i_f3d_flags>  (365) 
0

>  <s_epik_input>  (365) 
Tz1DKFtPSF0pW0NASF0oW0NIM10pL1tDSF09W0NIXS9bQ0gyXVtDQEhdKFtDSDNdKVtDQEhdKFtDSDJdW0NIMl0xKVtDQEBdKFtDSDNdKShbQ0BIXShbT0hdKVtDSDJdW0NAXTIoW0NIM10pW0NIXTNDND1PKVtDQEBdMShbQ0gzXSlbQ0BIXTJbQ0gyXVtDQEhdKEMzNDUpW0NAQF02KFtDSDNdKVtDQEBIXShbQ0gyXVtDSDJdNSlDKFtDSDNdKShbQ0gzXSlbQ0BIXShbT0hdKVtDSDJdW0NIMl02

>  <s_epik_cmdline>  (365) 
J2VwaWtfcHl0aG9uJywgJy1waHQnLCAnMi4wJywgJy1waCcsICc3LjAnLCAnLXRuJywgJzgnLCAnLW1hJywgJzIwMCcsICctaW1hZScsICc8aW5maWxlLm1hZT4nLCAnLW9tYWUnLCAnPG91dGZpbGUubWFlPic=

>  <r_epik_Ionization_Penalty>  (365) 
0.00149679

>  <r_epik_Ionization_Penalty_Charging>  (365) 
0.00149294

>  <r_epik_Ionization_Penalty_Neutral>  (365) 
3.85434e-06

>  <r_epik_State_Penalty>  (365) 
0.000999864

>  <r_epik_Charging_Adjusted_Penalty>  (365) 
0.0024928

>  <i_epik_Tot_Q>  (365) 
-1

>  <i_epik_Tot_abs_Q>  (365) 
1

>  <s_lp_Force_Field>  (365) 
OPLS3e

>  <r_lp_Energy>  (365) 
98.7291

>  <b_lp_Chiralities_Consistent>  (365) 
1

>  <s_lp_Variant>  (365) 
93:0-5

>  <s_i_glide_gridfile>  (365) 
pfpi4k_grid

>  <i_i_glide_lignum>  (365) 
12

>  <i_i_glide_rotatable_bonds>  (365) 
7

>  <r_i_docking_score>  (365) 
-3.57705

>  <r_i_glide_ligand_efficiency>  (365) 
-0.0872451

>  <r_i_glide_ligand_efficiency_sa>  (365) 
-0.30084

>  <r_i_glide_ligand_efficiency_ln>  (365) 
-0.758883

>  <r_i_glide_gscore>  (365) 
-3.57705

>  <r_i_glide_lipo>  (365) 
-0.0298852

>  <r_i_glide_hbond>  (365) 
-0.70723

>  <r_i_glide_metal>  (365) 
-0

>  <r_i_glide_rewards>  (365) 
0

>  <r_i_glide_evdw>  (365) 
-18.5279

>  <r_i_glide_ecoul>  (365) 
-13.1291

>  <r_i_glide_erotb>  (365) 
0.170804

>  <r_i_glide_esite>  (365) 
-0.114976

>  <r_i_glide_emodel>  (365) 
-40.8363

>  <r_i_glide_energy>  (365) 
-31.657

>  <r_i_glide_einternal>  (365) 
3.57552

>  <r_i_glide_intrahb_reward>  (365) 
-0

>  <i_i_glide_confnum>  (365) 
2

>  <i_i_glide_posenum>  (365) 
38

>  <r_i_glide_eff_state_penalty>  (365) 
0

>  <ligand_id>  (365) 
93

>  <original_smiles>  (365) 
CC(C=CCC(C)C1CCC2(C)C3CC4C5(C)CCC(O)C(C)(C)C5CCC45C(=O)C5C3(C)CC(O)C12C)C(=O)O

>  <smiles>  (365) 
[H]OC1([H])C([H])([H])C([H])([H])C2(C([H])([H])[H])C3([H])C([H])([H])C4([H])C(C([H])([H])[H])(C([H])([H])C([H])(O[H])C5(C([H])([H])[H])C([H])(C([H])(C([H])([H])[H])C([H])([H])C([H])=C([H])C([H])(C(=O)[O-])C([H])([H])[H])C([H])([H])C([H])([H])C45C([H])([H])[H])C4([H])C(=O)C43C([H])([H])C([H])([H])C2([H])C1(C([H])([H])[H])C([H])([H])[H]

$$$$
93:4:1
     RDKit          3D

 96101  0  0  1  0  0  0  0  0999 V2000
    0.0919   -9.3470    2.6076 C   0  0  0  0  0  0  0  0  0  0  0  0
    0.9238   -8.0986    2.2069 C   0  0  2  0  0  0  0  0  0  0  0  0
    1.8738   -7.6625    3.3162 C   0  0  0  0  0  0  0  0  0  0  0  0
    1.6092   -7.7133    4.6357 C   0  0  0  0  0  0  0  0  0  0  0  0
    2.5497   -7.2690    5.7432 C   0  0  0  0  0  0  0  0  0  0  0  0
    1.9480   -6.1822    6.6797 C   0  0  2  0  0  0  0  0  0  0  0  0
    0.6871   -6.7551    7.3639 C   0  0  0  0  0  0  0  0  0  0  0  0
    1.7204   -4.8139    5.9580 C   0  0  2  0  0  0  0  0  0  0  0  0
    2.9774   -4.3078    5.2259 C   0  0  0  0  0  0  0  0  0  0  0  0
    2.8632   -2.7824    5.1306 C   0  0  0  0  0  0  0  0  0  0  0  0
    1.4901   -2.3820    5.7230 C   0  0  2  0  0  0  0  0  0  0  0  0
    0.5364   -2.4214    4.4821 C   0  0  0  0  0  0  0  0  0  0  0  0
    1.5355   -0.9080    6.3472 C   0  0  1  0  0  0  0  0  0  0  0  0
    0.2323   -0.0660    6.1587 C   0  0  0  0  0  0  0  0  0  0  0  0
    0.4498    1.4488    6.4425 C   0  0  1  0  0  0  0  0  0  0  0  0
   -0.7225    2.4171    6.0269 C   0  0  2  0  0  0  0  0  0  0  0  0
   -1.9671    2.1208    6.9046 C   0  0  0  0  0  0  0  0  0  0  0  0
   -1.2085    2.2273    4.5642 C   0  0  0  0  0  0  0  0  0  0  0  0
   -0.2297    2.7296    3.5034 C   0  0  0  0  0  0  0  0  0  0  0  0
    0.0069    4.2350    3.6660 C   0  0  1  0  0  0  0  0  0  0  0  0
   -1.1809    4.9191    3.2872 O   0  0  0  0  0  0  0  0  0  0  0  0
    0.5468    4.6095    5.0741 C   0  0  0  0  0  0  0  0  0  0  0  0
    2.0654    4.2927    5.0787 C   0  0  0  0  0  0  0  0  0  0  0  0
    0.4703    6.1509    5.2287 C   0  0  0  0  0  0  0  0  0  0  0  0
   -0.2846    3.9079    6.2240 C   0  0  2  0  0  0  0  0  0  0  0  0
    0.2408    4.1360    7.6643 C   0  0  0  0  0  0  0  0  0  0  0  0
    1.2878    3.1118    8.1468 C   0  0  0  0  0  0  0  0  0  0  0  0
    0.9458    1.6618    7.8623 C   0  0  1  0  0  0  0  0  0  0  0  0
    0.3583    0.8163    8.9565 C   0  0  0  0  0  0  0  0  0  0  0  0
   -0.5615    0.5848    9.7368 O   0  0  0  0  0  0  0  0  0  0  0  0
    1.7709    0.5632    8.4922 C   0  0  1  0  0  0  0  0  0  0  0  0
    2.1336   -0.7592    7.8005 C   0  0  2  0  0  0  0  0  0  0  0  0
    3.6898   -0.7367    7.7692 C   0  0  0  0  0  0  0  0  0  0  0  0
    1.6599   -1.9246    8.6791 C   0  0  0  0  0  0  0  0  0  0  0  0
    1.9382   -3.3082    8.0691 C   0  0  1  0  0  0  0  0  0  0  0  0
    1.6361   -4.2160    9.1084 O   0  0  0  0  0  0  0  0  0  0  0  0
    1.1689   -3.5570    6.7296 C   0  0  2  0  0  0  0  0  0  0  0  0
   -0.3561   -3.6673    6.9805 C   0  0  0  0  0  0  0  0  0  0  0  0
    0.0113   -6.9558    1.7769 C   0  0  0  0  0  0  0  0  0  0  0  0
    0.3525   -6.2591    0.7892 O   0  0  0  0  0  0  0  0  0  0  0  0
   -0.9886   -6.7036    2.4780 O   0  0  0  0  0  0  0  0  0  0  0  0
   -0.5624   -9.1709    3.4647 H   0  0  0  0  0  0  0  0  0  0  0  0
    0.7533  -10.1852    2.8581 H   0  0  0  0  0  0  0  0  0  0  0  0
   -0.5605   -9.6720    1.7978 H   0  0  0  0  0  0  0  0  0  0  0  0
    1.5527   -8.3912    1.3616 H   0  0  0  0  0  0  0  0  0  0  0  0
    2.8225   -7.2657    2.9860 H   0  0  0  0  0  0  0  0  0  0  0  0
    0.6566   -8.0969    4.9657 H   0  0  0  0  0  0  0  0  0  0  0  0
    2.7967   -8.1539    6.3341 H   0  0  0  0  0  0  0  0  0  0  0  0
    3.4922   -6.9508    5.3010 H   0  0  0  0  0  0  0  0  0  0  0  0
    2.6949   -6.0301    7.4612 H   0  0  0  0  0  0  0  0  0  0  0  0
   -0.1549   -6.8101    6.6742 H   0  0  0  0  0  0  0  0  0  0  0  0
    0.3620   -6.1648    8.2123 H   0  0  0  0  0  0  0  0  0  0  0  0
    0.8765   -7.7553    7.7555 H   0  0  0  0  0  0  0  0  0  0  0  0
    0.9975   -5.0419    5.1767 H   0  0  0  0  0  0  0  0  0  0  0  0
    3.8860   -4.5639    5.7733 H   0  0  0  0  0  0  0  0  0  0  0  0
    3.0671   -4.7619    4.2373 H   0  0  0  0  0  0  0  0  0  0  0  0
    3.6997   -2.3408    5.6560 H   0  0  0  0  0  0  0  0  0  0  0  0
    2.9813   -2.4548    4.0970 H   0  0  0  0  0  0  0  0  0  0  0  0
   -0.5125   -2.2735    4.7415 H   0  0  0  0  0  0  0  0  0  0  0  0
    0.5820   -3.3622    3.9339 H   0  0  0  0  0  0  0  0  0  0  0  0
    0.7970   -1.6532    3.7510 H   0  0  0  0  0  0  0  0  0  0  0  0
    2.2240   -0.3751    5.6893 H   0  0  0  0  0  0  0  0  0  0  0  0
   -0.0865   -0.1265    5.1292 H   0  0  0  0  0  0  0  0  0  0  0  0
   -0.5664   -0.4616    6.7854 H   0  0  0  0  0  0  0  0  0  0  0  0
    1.2954    1.7111    5.8144 H   0  0  0  0  0  0  0  0  0  0  0  0
   -2.7994    2.7759    6.6403 H   0  0  0  0  0  0  0  0  0  0  0  0
   -1.7860    2.2677    7.9695 H   0  0  0  0  0  0  0  0  0  0  0  0
   -2.3182    1.0984    6.7730 H   0  0  0  0  0  0  0  0  0  0  0  0
   -1.4890    1.1973    4.3541 H   0  0  0  0  0  0  0  0  0  0  0  0
   -2.1379    2.7784    4.4308 H   0  0  0  0  0  0  0  0  0  0  0  0
    0.7093    2.1840    3.5758 H   0  0  0  0  0  0  0  0  0  0  0  0
   -0.6135    2.5151    2.5041 H   0  0  0  0  0  0  0  0  0  0  0  0
    0.7394    4.5388    2.9171 H   0  0  0  0  0  0  0  0  0  0  0  0
   -1.1775    4.8740    2.3374 H   0  0  0  0  0  0  0  0  0  0  0  0
    2.5453    4.5647    6.0144 H   0  0  0  0  0  0  0  0  0  0  0  0
    2.5857    4.8542    4.2993 H   0  0  0  0  0  0  0  0  0  0  0  0
    2.2857    3.2474    4.8703 H   0  0  0  0  0  0  0  0  0  0  0  0
    1.0167    6.5127    6.0980 H   0  0  0  0  0  0  0  0  0  0  0  0
   -0.5571    6.4821    5.3457 H   0  0  0  0  0  0  0  0  0  0  0  0
    0.8728    6.6692    4.3547 H   0  0  0  0  0  0  0  0  0  0  0  0
   -1.2166    4.4724    6.1932 H   0  0  0  0  0  0  0  0  0  0  0  0
    0.6488    5.1404    7.7780 H   0  0  0  0  0  0  0  0  0  0  0  0
   -0.6021    4.1118    8.3529 H   0  0  0  0  0  0  0  0  0  0  0  0
    2.2651    3.3184    7.7191 H   0  0  0  0  0  0  0  0  0  0  0  0
    1.4213    3.2347    9.2240 H   0  0  0  0  0  0  0  0  0  0  0  0
    2.5387    0.8771    9.1955 H   0  0  0  0  0  0  0  0  0  0  0  0
    4.1156   -0.4433    8.7309 H   0  0  0  0  0  0  0  0  0  0  0  0
    4.0706   -0.0368    7.0218 H   0  0  0  0  0  0  0  0  0  0  0  0
    4.1457   -1.7014    7.5636 H   0  0  0  0  0  0  0  0  0  0  0  0
    2.1226   -1.8488    9.6629 H   0  0  0  0  0  0  0  0  0  0  0  0
    0.5875   -1.8348    8.8423 H   0  0  0  0  0  0  0  0  0  0  0  0
    3.0041   -3.4361    7.8937 H   0  0  0  0  0  0  0  0  0  0  0  0
    0.7311   -4.1259    9.3390 H   0  0  0  0  0  0  0  0  0  0  0  0
   -0.8027   -2.6914    7.1407 H   0  0  0  0  0  0  0  0  0  0  0  0
   -0.6057   -4.2707    7.8483 H   0  0  0  0  0  0  0  0  0  0  0  0
   -0.8684   -4.1261    6.1339 H   0  0  0  0  0  0  0  0  0  0  0  0
  1  2  1  0
  1 42  1  0
  1 43  1  0
  1 44  1  0
  2  3  1  0
  2 39  1  0
  2 45  1  6
  3  4  2  3
  3 46  1  0
  4  5  1  0
  4 47  1  0
  5  6  1  0
  5 48  1  0
  5 49  1  0
  6  7  1  0
  6  8  1  0
  6 50  1  1
  7 51  1  0
  7 52  1  0
  7 53  1  0
  8 37  1  0
  8  9  1  0
  8 54  1  6
  9 10  1  0
  9 55  1  0
  9 56  1  0
 10 11  1  0
 10 57  1  0
 10 58  1  0
 11 37  1  0
 11 12  1  6
 11 13  1  0
 12 59  1  0
 12 60  1  0
 12 61  1  0
 13 32  1  0
 13 14  1  0
 13 62  1  6
 14 15  1  0
 14 63  1  0
 14 64  1  0
 15 28  1  0
 15 16  1  0
 15 65  1  6
 16 25  1  0
 16 17  1  1
 16 18  1  0
 17 66  1  0
 17 67  1  0
 17 68  1  0
 18 19  1  0
 18 69  1  0
 18 70  1  0
 19 20  1  0
 19 71  1  0
 19 72  1  0
 20 21  1  0
 20 22  1  0
 20 73  1  6
 21 74  1  0
 22 23  1  0
 22 24  1  0
 22 25  1  0
 23 75  1  0
 23 76  1  0
 23 77  1  0
 24 78  1  0
 24 79  1  0
 24 80  1  0
 25 26  1  0
 25 81  1  1
 26 27  1  0
 26 82  1  0
 26 83  1  0
 28 27  1  1
 27 84  1  0
 27 85  1  0
 28 31  1  0
 28 29  1  0
 29 30  2  0
 29 31  1  0
 31 32  1  0
 31 86  1  1
 32 33  1  6
 32 34  1  0
 33 87  1  0
 33 88  1  0
 33 89  1  0
 34 35  1  0
 34 90  1  0
 34 91  1  0
 35 36  1  0
 35 37  1  0
 35 92  1  6
 36 93  1  0
 37 38  1  1
 38 94  1  0
 38 95  1  0
 38 96  1  0
 39 40  2  0
 39 41  1  0
M  CHG  1  41  -1
M  END
>  <i_m_ct_stereo_status>  (366) 
1

>  <s_m_source_file>  (366) 
/var/tmp/pbs.5076255.sched01/tmpt95b3wv2/135g3gtwtb2.sdf

>  <i_m_source_file_index>  (366) 
12

>  <i_lp_mmshare_version>  (366) 
48012

>  <i_f3d_flags>  (366) 
0

>  <s_epik_input>  (366) 
Tz1DKFtPSF0pW0NASF0oW0NIM10pL1tDSF09W0NIXS9bQ0gyXVtDQEhdKFtDSDNdKVtDQEhdKFtDSDJdW0NIMl0xKVtDQEBdKFtDSDNdKShbQ0BIXShbT0hdKVtDSDJdW0NAXTIoW0NIM10pW0NIXTNDND1PKVtDQEBdMShbQ0gzXSlbQ0BIXTJbQ0gyXVtDQEhdKEMzNDUpW0NAQF02KFtDSDNdKVtDQEBIXShbQ0gyXVtDSDJdNSlDKFtDSDNdKShbQ0gzXSlbQ0BIXShbT0hdKVtDSDJdW0NIMl02

>  <s_epik_cmdline>  (366) 
J2VwaWtfcHl0aG9uJywgJy1waHQnLCAnMi4wJywgJy1waCcsICc3LjAnLCAnLXRuJywgJzgnLCAnLW1hJywgJzIwMCcsICctaW1hZScsICc8aW5maWxlLm1hZT4nLCAnLW9tYWUnLCAnPG91dGZpbGUubWFlPic=

>  <r_epik_Ionization_Penalty>  (366) 
0.00149679

>  <r_epik_Ionization_Penalty_Charging>  (366) 
0.00149294

>  <r_epik_Ionization_Penalty_Neutral>  (366) 
3.85434e-06

>  <r_epik_State_Penalty>  (366) 
0.000999864

>  <r_epik_Charging_Adjusted_Penalty>  (366) 
0.0024928

>  <i_epik_Tot_Q>  (366) 
-1

>  <i_epik_Tot_abs_Q>  (366) 
1

>  <s_lp_Force_Field>  (366) 
OPLS3e

>  <r_lp_Energy>  (366) 
98.7291

>  <b_lp_Chiralities_Consistent>  (366) 
1

>  <s_lp_Variant>  (366) 
93:0-5

>  <s_i_glide_gridfile>  (366) 
pfpi4k_grid

>  <i_i_glide_lignum>  (366) 
12

>  <i_i_glide_rotatable_bonds>  (366) 
7

>  <r_i_docking_score>  (366) 
-3.42388

>  <r_i_glide_ligand_efficiency>  (366) 
-0.0835093

>  <r_i_glide_ligand_efficiency_sa>  (366) 
-0.287958

>  <r_i_glide_ligand_efficiency_ln>  (366) 
-0.726388

>  <r_i_glide_gscore>  (366) 
-3.42388

>  <r_i_glide_lipo>  (366) 
-0.0430135

>  <r_i_glide_hbond>  (366) 
-0.682317

>  <r_i_glide_metal>  (366) 
-0

>  <r_i_glide_rewards>  (366) 
0

>  <r_i_glide_evdw>  (366) 
-19.1291

>  <r_i_glide_ecoul>  (366) 
-11.9795

>  <r_i_glide_erotb>  (366) 
0.170804

>  <r_i_glide_esite>  (366) 
-0.115973

>  <r_i_glide_emodel>  (366) 
-40.1297

>  <r_i_glide_energy>  (366) 
-31.1086

>  <r_i_glide_einternal>  (366) 
3.15803

>  <r_i_glide_intrahb_reward>  (366) 
-0

>  <i_i_glide_confnum>  (366) 
2

>  <i_i_glide_posenum>  (366) 
31

>  <r_i_glide_eff_state_penalty>  (366) 
0

>  <ligand_id>  (366) 
93

>  <original_smiles>  (366) 
CC(C=CCC(C)C1CCC2(C)C3CC4C5(C)CCC(O)C(C)(C)C5CCC45C(=O)C5C3(C)CC(O)C12C)C(=O)O

>  <smiles>  (366) 
[H]OC1([H])C([H])([H])C([H])([H])C2(C([H])([H])[H])C3([H])C([H])([H])C4([H])C(C([H])([H])[H])(C([H])([H])C([H])(O[H])C5(C([H])([H])[H])C([H])(C([H])(C([H])([H])[H])C([H])([H])C([H])=C([H])C([H])(C(=O)[O-])C([H])([H])[H])C([H])([H])C([H])([H])C45C([H])([H])[H])C4([H])C(=O)C43C([H])([H])C([H])([H])C2([H])C1(C([H])([H])[H])C([H])([H])[H]

$$$$
93:4:2
     RDKit          3D

 96101  0  0  1  0  0  0  0  0999 V2000
    0.0472   -9.2813    2.8473 C   0  0  0  0  0  0  0  0  0  0  0  0
    0.9355   -8.1092    2.3501 C   0  0  2  0  0  0  0  0  0  0  0  0
    1.8815   -7.5894    3.4241 C   0  0  0  0  0  0  0  0  0  0  0  0
    1.6927   -7.6913    4.7548 C   0  0  0  0  0  0  0  0  0  0  0  0
    2.6381   -7.1786    5.8261 C   0  0  0  0  0  0  0  0  0  0  0  0
    2.0182   -6.0861    6.7461 C   0  0  2  0  0  0  0  0  0  0  0  0
    0.6984   -6.6237    7.3505 C   0  0  0  0  0  0  0  0  0  0  0  0
    1.8791   -4.7060    6.0228 C   0  0  2  0  0  0  0  0  0  0  0  0
    3.2020   -4.2178    5.4022 C   0  0  0  0  0  0  0  0  0  0  0  0
    3.1308   -2.6902    5.3189 C   0  0  0  0  0  0  0  0  0  0  0  0
    1.7229   -2.2627    5.8020 C   0  0  2  0  0  0  0  0  0  0  0  0
    0.8688   -2.2645    4.4919 C   0  0  0  0  0  0  0  0  0  0  0  0
    1.7523   -0.7967    6.4513 C   0  0  1  0  0  0  0  0  0  0  0  0
    0.4856    0.0757    6.1781 C   0  0  0  0  0  0  0  0  0  0  0  0
    0.7178    1.5768    6.4889 C   0  0  1  0  0  0  0  0  0  0  0  0
   -0.3973    2.5782    6.0039 C   0  0  2  0  0  0  0  0  0  0  0  0
   -1.7175    2.3042    6.7789 C   0  0  0  0  0  0  0  0  0  0  0  0
   -0.7712    2.4214    4.5058 C   0  0  0  0  0  0  0  0  0  0  0  0
    0.3032    2.9119    3.5342 C   0  0  0  0  0  0  0  0  0  0  0  0
    0.5610    4.4102    3.7335 C   0  0  1  0  0  0  0  0  0  0  0  0
   -0.5832    5.1188    3.2895 O   0  0  0  0  0  0  0  0  0  0  0  0
    0.9930    4.7591    5.1875 C   0  0  0  0  0  0  0  0  0  0  0  0
    2.4985    4.4026    5.3101 C   0  0  0  0  0  0  0  0  0  0  0  0
    0.9238    6.3002    5.3581 C   0  0  0  0  0  0  0  0  0  0  0  0
    0.0545    4.0635    6.2588 C   0  0  2  0  0  0  0  0  0  0  0  0
    0.4721    4.2569    7.7411 C   0  0  0  0  0  0  0  0  0  0  0  0
    1.4505    3.2003    8.2914 C   0  0  0  0  0  0  0  0  0  0  0  0
    1.0900    1.7641    7.9525 C   0  0  1  0  0  0  0  0  0  0  0  0
    0.4046    0.9261    8.9991 C   0  0  0  0  0  0  0  0  0  0  0  0
   -0.5837    0.6978    9.6820 O   0  0  0  0  0  0  0  0  0  0  0  0
    1.8443    0.6382    8.6399 C   0  0  1  0  0  0  0  0  0  0  0  0
    2.2383   -0.6842    7.9497 C   0  0  2  0  0  0  0  0  0  0  0  0
    3.7908   -0.6988    8.0451 C   0  0  0  0  0  0  0  0  0  0  0  0
    1.6662   -1.8506    8.7706 C   0  0  0  0  0  0  0  0  0  0  0  0
    1.9708   -3.2272    8.1635 C   0  0  1  0  0  0  0  0  0  0  0  0
    1.5584   -4.1495    9.1453 O   0  0  0  0  0  0  0  0  0  0  0  0
    1.3006   -3.4434    6.7662 C   0  0  2  0  0  0  0  0  0  0  0  0
   -0.2433   -3.5222    6.8959 C   0  0  0  0  0  0  0  0  0  0  0  0
    0.0621   -6.9637    1.8216 C   0  0  0  0  0  0  0  0  0  0  0  0
    0.4902   -6.2631    0.8766 O   0  0  0  0  0  0  0  0  0  0  0  0
   -1.0038   -6.7282    2.4260 O   0  0  0  0  0  0  0  0  0  0  0  0
   -0.6154   -8.9948    3.6684 H   0  0  0  0  0  0  0  0  0  0  0  0
    0.6678  -10.1109    3.1911 H   0  0  0  0  0  0  0  0  0  0  0  0
   -0.6022   -9.6562    2.0580 H   0  0  0  0  0  0  0  0  0  0  0  0
    1.5553   -8.4836    1.5282 H   0  0  0  0  0  0  0  0  0  0  0  0
    2.7653   -7.0853    3.0589 H   0  0  0  0  0  0  0  0  0  0  0  0
    0.8055   -8.1737    5.1342 H   0  0  0  0  0  0  0  0  0  0  0  0
    2.9172   -8.0398    6.4357 H   0  0  0  0  0  0  0  0  0  0  0  0
    3.5651   -6.8501    5.3566 H   0  0  0  0  0  0  0  0  0  0  0  0
    2.7336   -5.9674    7.5614 H   0  0  0  0  0  0  0  0  0  0  0  0
   -0.1006   -6.6454    6.6070 H   0  0  0  0  0  0  0  0  0  0  0  0
    0.3240   -6.0401    8.1830 H   0  0  0  0  0  0  0  0  0  0  0  0
    0.8305   -7.6363    7.7350 H   0  0  0  0  0  0  0  0  0  0  0  0
    1.2143   -4.9103    5.1828 H   0  0  0  0  0  0  0  0  0  0  0  0
    4.0581   -4.5033    6.0149 H   0  0  0  0  0  0  0  0  0  0  0  0
    3.3586   -4.6557    4.4160 H   0  0  0  0  0  0  0  0  0  0  0  0
    3.9308   -2.2727    5.9165 H   0  0  0  0  0  0  0  0  0  0  0  0
    3.3383   -2.3488    4.3053 H   0  0  0  0  0  0  0  0  0  0  0  0
   -0.1925   -2.0944    4.6725 H   0  0  0  0  0  0  0  0  0  0  0  0
    0.9374   -3.1989    3.9372 H   0  0  0  0  0  0  0  0  0  0  0  0
    1.2060   -1.4924    3.7984 H   0  0  0  0  0  0  0  0  0  0  0  0
    2.5031   -0.2730    5.8624 H   0  0  0  0  0  0  0  0  0  0  0  0
    0.2475    0.0342    5.1268 H   0  0  0  0  0  0  0  0  0  0  0  0
   -0.3744   -0.3112    6.7294 H   0  0  0  0  0  0  0  0  0  0  0  0
    1.6159    1.8318    5.9423 H   0  0  0  0  0  0  0  0  0  0  0  0
   -2.5109    2.9817    6.4575 H   0  0  0  0  0  0  0  0  0  0  0  0
   -1.6180    2.4333    7.8545 H   0  0  0  0  0  0  0  0  0  0  0  0
   -2.0774    1.2931    6.6050 H   0  0  0  0  0  0  0  0  0  0  0  0
   -1.0572    1.4013    4.2603 H   0  0  0  0  0  0  0  0  0  0  0  0
   -1.6747    2.9978    4.3067 H   0  0  0  0  0  0  0  0  0  0  0  0
    1.2209    2.3442    3.6734 H   0  0  0  0  0  0  0  0  0  0  0  0
   -0.0095    2.7157    2.5078 H   0  0  0  0  0  0  0  0  0  0  0  0
    1.3497    4.7092    3.0427 H   0  0  0  0  0  0  0  0  0  0  0  0
   -0.5579    5.0391    2.3318 H   0  0  0  0  0  0  0  0  0  0  0  0
    2.9039    4.6536    6.2839 H   0  0  0  0  0  0  0  0  0  0  0  0
    3.0892    4.9638    4.5842 H   0  0  0  0  0  0  0  0  0  0  0  0
    2.7090    3.3563    5.1052 H   0  0  0  0  0  0  0  0  0  0  0  0
    1.4060    6.6365    6.2738 H   0  0  0  0  0  0  0  0  0  0  0  0
   -0.1086    6.6533    5.3867 H   0  0  0  0  0  0  0  0  0  0  0  0
    1.4124    6.8175    4.5301 H   0  0  0  0  0  0  0  0  0  0  0  0
   -0.8649    4.6443    6.1617 H   0  0  0  0  0  0  0  0  0  0  0  0
    0.8864    5.2490    7.9013 H   0  0  0  0  0  0  0  0  0  0  0  0
   -0.4255    4.2425    8.3579 H   0  0  0  0  0  0  0  0  0  0  0  0
    2.4620    3.3887    7.9442 H   0  0  0  0  0  0  0  0  0  0  0  0
    1.5010    3.3084    9.3791 H   0  0  0  0  0  0  0  0  0  0  0  0
    2.5624    0.9268    9.4061 H   0  0  0  0  0  0  0  0  0  0  0  0
    4.1407   -0.4263    9.0421 H   0  0  0  0  0  0  0  0  0  0  0  0
    4.2410    0.0040    7.3437 H   0  0  0  0  0  0  0  0  0  0  0  0
    4.2400   -1.6679    7.8635 H   0  0  0  0  0  0  0  0  0  0  0  0
    2.0463   -1.8022    9.7918 H   0  0  0  0  0  0  0  0  0  0  0  0
    0.5848   -1.7468    8.8539 H   0  0  0  0  0  0  0  0  0  0  0  0
    3.0444   -3.3739    8.0729 H   0  0  0  0  0  0  0  0  0  0  0  0
    1.8296   -5.0074    8.8629 H   0  0  0  0  0  0  0  0  0  0  0  0
   -0.6807   -2.5379    7.0343 H   0  0  0  0  0  0  0  0  0  0  0  0
   -0.5721   -4.1257    7.7371 H   0  0  0  0  0  0  0  0  0  0  0  0
   -0.6996   -3.9582    6.0068 H   0  0  0  0  0  0  0  0  0  0  0  0
  1  2  1  0
  1 42  1  0
  1 43  1  0
  1 44  1  0
  2  3  1  0
  2 39  1  0
  2 45  1  6
  3  4  2  3
  3 46  1  0
  4  5  1  0
  4 47  1  0
  5  6  1  0
  5 48  1  0
  5 49  1  0
  6  7  1  0
  6  8  1  0
  6 50  1  1
  7 51  1  0
  7 52  1  0
  7 53  1  0
  8 37  1  0
  8  9  1  0
  8 54  1  6
  9 10  1  0
  9 55  1  0
  9 56  1  0
 10 11  1  0
 10 57  1  0
 10 58  1  0
 11 37  1  0
 11 12  1  6
 11 13  1  0
 12 59  1  0
 12 60  1  0
 12 61  1  0
 13 32  1  0
 13 14  1  0
 13 62  1  6
 14 15  1  0
 14 63  1  0
 14 64  1  0
 15 28  1  0
 15 16  1  0
 15 65  1  6
 16 25  1  0
 16 17  1  1
 16 18  1  0
 17 66  1  0
 17 67  1  0
 17 68  1  0
 18 19  1  0
 18 69  1  0
 18 70  1  0
 19 20  1  0
 19 71  1  0
 19 72  1  0
 20 21  1  0
 20 22  1  0
 20 73  1  6
 21 74  1  0
 22 23  1  0
 22 24  1  0
 22 25  1  0
 23 75  1  0
 23 76  1  0
 23 77  1  0
 24 78  1  0
 24 79  1  0
 24 80  1  0
 25 26  1  0
 25 81  1  1
 26 27  1  0
 26 82  1  0
 26 83  1  0
 28 27  1  1
 27 84  1  0
 27 85  1  0
 28 31  1  0
 28 29  1  0
 29 30  2  0
 29 31  1  0
 31 32  1  0
 31 86  1  1
 32 33  1  6
 32 34  1  0
 33 87  1  0
 33 88  1  0
 33 89  1  0
 34 35  1  0
 34 90  1  0
 34 91  1  0
 35 36  1  0
 35 37  1  0
 35 92  1  6
 36 93  1  0
 37 38  1  1
 38 94  1  0
 38 95  1  0
 38 96  1  0
 39 40  2  0
 39 41  1  0
M  CHG  1  41  -1
M  END
>  <i_m_ct_stereo_status>  (367) 
1

>  <s_m_source_file>  (367) 
/var/tmp/pbs.5076255.sched01/tmpt95b3wv2/135g3gtwtb2.sdf

>  <i_m_source_file_index>  (367) 
12

>  <i_lp_mmshare_version>  (367) 
48012

>  <i_f3d_flags>  (367) 
0

>  <s_epik_input>  (367) 
Tz1DKFtPSF0pW0NASF0oW0NIM10pL1tDSF09W0NIXS9bQ0gyXVtDQEhdKFtDSDNdKVtDQEhdKFtDSDJdW0NIMl0xKVtDQEBdKFtDSDNdKShbQ0BIXShbT0hdKVtDSDJdW0NAXTIoW0NIM10pW0NIXTNDND1PKVtDQEBdMShbQ0gzXSlbQ0BIXTJbQ0gyXVtDQEhdKEMzNDUpW0NAQF02KFtDSDNdKVtDQEBIXShbQ0gyXVtDSDJdNSlDKFtDSDNdKShbQ0gzXSlbQ0BIXShbT0hdKVtDSDJdW0NIMl02

>  <s_epik_cmdline>  (367) 
J2VwaWtfcHl0aG9uJywgJy1waHQnLCAnMi4wJywgJy1waCcsICc3LjAnLCAnLXRuJywgJzgnLCAnLW1hJywgJzIwMCcsICctaW1hZScsICc8aW5maWxlLm1hZT4nLCAnLW9tYWUnLCAnPG91dGZpbGUubWFlPic=

>  <r_epik_Ionization_Penalty>  (367) 
0.00149679

>  <r_epik_Ionization_Penalty_Charging>  (367) 
0.00149294

>  <r_epik_Ionization_Penalty_Neutral>  (367) 
3.85434e-06

>  <r_epik_State_Penalty>  (367) 
0.000999864

>  <r_epik_Charging_Adjusted_Penalty>  (367) 
0.0024928

>  <i_epik_Tot_Q>  (367) 
-1

>  <i_epik_Tot_abs_Q>  (367) 
1

>  <s_lp_Force_Field>  (367) 
OPLS3e

>  <r_lp_Energy>  (367) 
98.7291

>  <b_lp_Chiralities_Consistent>  (367) 
1

>  <s_lp_Variant>  (367) 
93:0-5

>  <s_i_glide_gridfile>  (367) 
pfpi4k_grid

>  <i_i_glide_lignum>  (367) 
12

>  <i_i_glide_rotatable_bonds>  (367) 
7

>  <r_i_docking_score>  (367) 
-3.33369

>  <r_i_glide_ligand_efficiency>  (367) 
-0.0813095

>  <r_i_glide_ligand_efficiency_sa>  (367) 
-0.280373

>  <r_i_glide_ligand_efficiency_ln>  (367) 
-0.707254

>  <r_i_glide_gscore>  (367) 
-3.33369

>  <r_i_glide_lipo>  (367) 
-0.0161172

>  <r_i_glide_hbond>  (367) 
-0.608297

>  <r_i_glide_metal>  (367) 
-0

>  <r_i_glide_rewards>  (367) 
0

>  <r_i_glide_evdw>  (367) 
-18.4363

>  <r_i_glide_ecoul>  (367) 
-12.2981

>  <r_i_glide_erotb>  (367) 
0.170804

>  <r_i_glide_esite>  (367) 
-0.113557

>  <r_i_glide_emodel>  (367) 
-39.4516

>  <r_i_glide_energy>  (367) 
-30.7344

>  <r_i_glide_einternal>  (367) 
3.30484

>  <r_i_glide_intrahb_reward>  (367) 
-0

>  <i_i_glide_confnum>  (367) 
2

>  <i_i_glide_posenum>  (367) 
30

>  <r_i_glide_eff_state_penalty>  (367) 
0

>  <ligand_id>  (367) 
93

>  <original_smiles>  (367) 
CC(C=CCC(C)C1CCC2(C)C3CC4C5(C)CCC(O)C(C)(C)C5CCC45C(=O)C5C3(C)CC(O)C12C)C(=O)O

>  <smiles>  (367) 
[H]OC1([H])C([H])([H])C([H])([H])C2(C([H])([H])[H])C3([H])C([H])([H])C4([H])C(C([H])([H])[H])(C([H])([H])C([H])(O[H])C5(C([H])([H])[H])C([H])(C([H])(C([H])([H])[H])C([H])([H])C([H])=C([H])C([H])(C(=O)[O-])C([H])([H])[H])C([H])([H])C([H])([H])C45C([H])([H])[H])C4([H])C(=O)C43C([H])([H])C([H])([H])C2([H])C1(C([H])([H])[H])C([H])([H])[H]

$$$$
93:6:0
     RDKit          3D

 96101  0  0  1  0  0  0  0  0999 V2000
   -2.7854    3.1057    5.6843 C   0  0  0  0  0  0  0  0  0  0  0  0
   -1.5240    2.7450    6.5000 C   0  0  2  0  0  0  0  0  0  0  0  0
   -0.2393    2.8625    5.6971 C   0  0  0  0  0  0  0  0  0  0  0  0
   -0.1391    2.7951    4.3597 C   0  0  0  0  0  0  0  0  0  0  0  0
    1.1600    2.8812    3.5774 C   0  0  0  0  0  0  0  0  0  0  0  0
    1.5054    1.5673    2.8150 C   0  0  2  0  0  0  0  0  0  0  0  0
    0.4012    1.2842    1.7687 C   0  0  0  0  0  0  0  0  0  0  0  0
    1.7679    0.3690    3.7896 C   0  0  2  0  0  0  0  0  0  0  0  0
    2.8838    0.6479    4.8090 C   0  0  0  0  0  0  0  0  0  0  0  0
    3.4596   -0.7097    5.2283 C   0  0  0  0  0  0  0  0  0  0  0  0
    2.6132   -1.8121    4.5515 C   0  0  2  0  0  0  0  0  0  0  0  0
    1.4612   -2.1051    5.5719 C   0  0  0  0  0  0  0  0  0  0  0  0
    3.4793   -3.1322    4.3085 C   0  0  1  0  0  0  0  0  0  0  0  0
    2.7297   -4.5106    4.6211 C   0  0  0  0  0  0  0  0  0  0  0  0
    3.3015   -5.8638    4.0384 C   0  0  1  0  0  0  0  0  0  0  0  0
    2.3852   -7.1311    4.2403 C   0  0  2  0  0  0  0  0  0  0  0  0
    2.1200   -7.2222    5.7686 C   0  0  0  0  0  0  0  0  0  0  0  0
    3.1507   -8.4135    3.7964 C   0  0  0  0  0  0  0  0  0  0  0  0
    2.2946   -9.7011    3.8406 C   0  0  0  0  0  0  0  0  0  0  0  0
    0.9784   -9.5717    3.0508 C   0  0  1  0  0  0  0  0  0  0  0  0
    0.2170  -10.7473    3.2164 O   0  0  0  0  0  0  0  0  0  0  0  0
    0.1434   -8.3144    3.4205 C   0  0  0  0  0  0  0  0  0  0  0  0
   -1.0246   -8.1758    2.4052 C   0  0  0  0  0  0  0  0  0  0  0  0
   -0.5402   -8.4830    4.8050 C   0  0  0  0  0  0  0  0  0  0  0  0
    1.0685   -7.0380    3.3759 C   0  0  2  0  0  0  0  0  0  0  0  0
    1.4285   -6.6502    1.9115 C   0  0  0  0  0  0  0  0  0  0  0  0
    2.3112   -5.4114    1.8020 C   0  0  0  0  0  0  0  0  0  0  0  0
    3.6010   -5.5591    2.5927 C   0  0  2  0  0  0  0  0  0  0  0  0
    4.8198   -5.5432    1.6826 C   0  0  0  0  0  0  0  0  0  0  0  0
    5.4043   -6.0026    0.7066 O   0  0  0  0  0  0  0  0  0  0  0  0
    4.7758   -4.5833    2.8038 C   0  0  1  0  0  0  0  0  0  0  0  0
    4.3820   -3.1343    3.0104 C   0  0  2  0  0  0  0  0  0  0  0  0
    5.7214   -2.3947    3.2463 C   0  0  0  0  0  0  0  0  0  0  0  0
    3.7109   -2.4658    1.7983 C   0  0  0  0  0  0  0  0  0  0  0  0
    3.1732   -1.0696    2.1331 C   0  0  1  0  0  0  0  0  0  0  0  0
    2.8129   -0.5125    0.8827 O   0  0  0  0  0  0  0  0  0  0  0  0
    2.0765   -1.0730    3.2555 C   0  0  2  0  0  0  0  0  0  0  0  0
    0.7855   -1.7397    2.7528 C   0  0  0  0  0  0  0  0  0  0  0  0
   -1.6284    1.3414    7.1180 C   0  0  0  0  0  0  0  0  0  0  0  0
   -1.1239    1.1771    8.2501 O   0  0  0  0  0  0  0  0  0  0  0  0
   -2.1951    0.4275    6.4722 O   0  0  0  0  0  0  0  0  0  0  0  0
   -2.9331    2.4491    4.8254 H   0  0  0  0  0  0  0  0  0  0  0  0
   -2.6961    4.1216    5.2999 H   0  0  0  0  0  0  0  0  0  0  0  0
   -3.6912    3.0479    6.2924 H   0  0  0  0  0  0  0  0  0  0  0  0
   -1.4511    3.4636    7.3174 H   0  0  0  0  0  0  0  0  0  0  0  0
    0.6545    2.9958    6.2893 H   0  0  0  0  0  0  0  0  0  0  0  0
   -1.0203    2.6570    3.7518 H   0  0  0  0  0  0  0  0  0  0  0  0
    1.0373    3.7038    2.8698 H   0  0  0  0  0  0  0  0  0  0  0  0
    1.9657    3.1931    4.2453 H   0  0  0  0  0  0  0  0  0  0  0  0
    2.4289    1.7730    2.2741 H   0  0  0  0  0  0  0  0  0  0  0  0
   -0.5507    1.0055    2.2215 H   0  0  0  0  0  0  0  0  0  0  0  0
    0.6724    0.5371    1.0375 H   0  0  0  0  0  0  0  0  0  0  0  0
    0.2094    2.1481    1.1402 H   0  0  0  0  0  0  0  0  0  0  0  0
    0.8516    0.2887    4.3710 H   0  0  0  0  0  0  0  0  0  0  0  0
    3.6752    1.2576    4.3706 H   0  0  0  0  0  0  0  0  0  0  0  0
    2.4990    1.1927    5.6727 H   0  0  0  0  0  0  0  0  0  0  0  0
    4.4965   -0.7482    4.9185 H   0  0  0  0  0  0  0  0  0  0  0  0
    3.4734   -0.8193    6.3120 H   0  0  0  0  0  0  0  0  0  0  0  0
    0.6854   -2.7656    5.1829 H   0  0  0  0  0  0  0  0  0  0  0  0
    0.9403   -1.2021    5.8911 H   0  0  0  0  0  0  0  0  0  0  0  0
    1.8498   -2.5656    6.4820 H   0  0  0  0  0  0  0  0  0  0  0  0
    4.1990   -3.1246    5.1331 H   0  0  0  0  0  0  0  0  0  0  0  0
    2.7088   -4.6132    5.7004 H   0  0  0  0  0  0  0  0  0  0  0  0
    1.6840   -4.4335    4.3241 H   0  0  0  0  0  0  0  0  0  0  0  0
    4.2376   -6.0910    4.5514 H   0  0  0  0  0  0  0  0  0  0  0  0
    1.8823   -8.2259    6.1116 H   0  0  0  0  0  0  0  0  0  0  0  0
    1.3030   -6.5680    6.0788 H   0  0  0  0  0  0  0  0  0  0  0  0
    3.0014   -6.9400    6.3487 H   0  0  0  0  0  0  0  0  0  0  0  0
    3.5094   -8.2945    2.7743 H   0  0  0  0  0  0  0  0  0  0  0  0
    4.0482   -8.5551    4.4046 H   0  0  0  0  0  0  0  0  0  0  0  0
    2.8730  -10.5214    3.4134 H   0  0  0  0  0  0  0  0  0  0  0  0
    2.0980   -9.9986    4.8698 H   0  0  0  0  0  0  0  0  0  0  0  0
    1.2416   -9.5271    1.9951 H   0  0  0  0  0  0  0  0  0  0  0  0
   -0.2523  -10.7028    4.0438 H   0  0  0  0  0  0  0  0  0  0  0  0
   -1.5479   -7.2249    2.5181 H   0  0  0  0  0  0  0  0  0  0  0  0
   -1.7621   -8.9735    2.5257 H   0  0  0  0  0  0  0  0  0  0  0  0
   -0.6774   -8.2521    1.3741 H   0  0  0  0  0  0  0  0  0  0  0  0
   -0.7742   -7.5195    5.2620 H   0  0  0  0  0  0  0  0  0  0  0  0
    0.0599   -9.0615    5.5060 H   0  0  0  0  0  0  0  0  0  0  0  0
   -1.4809   -9.0338    4.7303 H   0  0  0  0  0  0  0  0  0  0  0  0
    0.4725   -6.2152    3.7667 H   0  0  0  0  0  0  0  0  0  0  0  0
    1.9136   -7.4760    1.3903 H   0  0  0  0  0  0  0  0  0  0  0  0
    0.5299   -6.4263    1.3419 H   0  0  0  0  0  0  0  0  0  0  0  0
    2.5468   -5.2259    0.7553 H   0  0  0  0  0  0  0  0  0  0  0  0
    1.7368   -4.5717    2.1693 H   0  0  0  0  0  0  0  0  0  0  0  0
    5.5158   -4.8248    3.5658 H   0  0  0  0  0  0  0  0  0  0  0  0
    6.4230   -2.6261    2.4426 H   0  0  0  0  0  0  0  0  0  0  0  0
    6.1781   -2.6897    4.1873 H   0  0  0  0  0  0  0  0  0  0  0  0
    5.6473   -1.3123    3.2542 H   0  0  0  0  0  0  0  0  0  0  0  0
    4.4447   -2.3837    0.9955 H   0  0  0  0  0  0  0  0  0  0  0  0
    2.9026   -3.0383    1.3650 H   0  0  0  0  0  0  0  0  0  0  0  0
    3.9771   -0.4178    2.4537 H   0  0  0  0  0  0  0  0  0  0  0  0
    2.0216   -0.9328    0.5524 H   0  0  0  0  0  0  0  0  0  0  0  0
    0.8011   -2.8159    2.8734 H   0  0  0  0  0  0  0  0  0  0  0  0
    0.6235   -1.5289    1.7026 H   0  0  0  0  0  0  0  0  0  0  0  0
   -0.0940   -1.3881    3.2900 H   0  0  0  0  0  0  0  0  0  0  0  0
  1  2  1  0
  1 42  1  0
  1 43  1  0
  1 44  1  0
  2  3  1  0
  2 39  1  0
  2 45  1  1
  3  4  2  3
  3 46  1  0
  4  5  1  0
  4 47  1  0
  5  6  1  0
  5 48  1  0
  5 49  1  0
  6  7  1  0
  6  8  1  0
  6 50  1  6
  7 51  1  0
  7 52  1  0
  7 53  1  0
  8 37  1  0
  8  9  1  0
  8 54  1  1
  9 10  1  0
  9 55  1  0
  9 56  1  0
 10 11  1  0
 10 57  1  0
 10 58  1  0
 11 37  1  0
 11 12  1  1
 11 13  1  0
 12 59  1  0
 12 60  1  0
 12 61  1  0
 13 32  1  0
 13 14  1  0
 13 62  1  1
 14 15  1  0
 14 63  1  0
 14 64  1  0
 15 28  1  0
 15 16  1  0
 15 65  1  1
 16 25  1  0
 16 17  1  1
 16 18  1  0
 17 66  1  0
 17 67  1  0
 17 68  1  0
 18 19  1  0
 18 69  1  0
 18 70  1  0
 19 20  1  0
 19 71  1  0
 19 72  1  0
 20 21  1  0
 20 22  1  0
 20 73  1  6
 21 74  1  0
 22 23  1  0
 22 24  1  0
 22 25  1  0
 23 75  1  0
 23 76  1  0
 23 77  1  0
 24 78  1  0
 24 79  1  0
 24 80  1  0
 25 26  1  0
 25 81  1  1
 26 27  1  0
 26 82  1  0
 26 83  1  0
 28 27  1  6
 27 84  1  0
 27 85  1  0
 28 31  1  0
 28 29  1  0
 29 30  2  0
 29 31  1  0
 31 32  1  0
 31 86  1  1
 32 33  1  1
 32 34  1  0
 33 87  1  0
 33 88  1  0
 33 89  1  0
 34 35  1  0
 34 90  1  0
 34 91  1  0
 35 36  1  0
 35 37  1  0
 35 92  1  1
 36 93  1  0
 37 38  1  6
 38 94  1  0
 38 95  1  0
 38 96  1  0
 39 40  2  0
 39 41  1  0
M  CHG  1  41  -1
M  END
>  <i_m_ct_stereo_status>  (368) 
1

>  <s_m_source_file>  (368) 
/var/tmp/pbs.5076255.sched01/tmpt95b3wv2/135g3gtwtb2.sdf

>  <i_m_source_file_index>  (368) 
14

>  <i_lp_mmshare_version>  (368) 
48012

>  <i_f3d_flags>  (368) 
0

>  <s_epik_input>  (368) 
Tz1DKFtPSF0pW0NASF0oW0NIM10pL1tDSF09W0NIXS9bQ0gyXVtDQEhdKFtDSDNdKVtDQEhdKFtDSDJdW0NIMl0xKVtDQEBdKFtDSDNdKShbQ0BIXShbT0hdKVtDSDJdW0NAXTIoW0NIM10pW0NIXTNDND1PKVtDQEBdMShbQ0gzXSlbQ0BIXTJbQ0gyXVtDQEhdKEMzNDUpW0NAQF02KFtDSDNdKVtDQEBIXShbQ0gyXVtDSDJdNSlDKFtDSDNdKShbQ0gzXSlbQ0BIXShbT0hdKVtDSDJdW0NIMl02

>  <s_epik_cmdline>  (368) 
J2VwaWtfcHl0aG9uJywgJy1waHQnLCAnMi4wJywgJy1waCcsICc3LjAnLCAnLXRuJywgJzgnLCAnLW1hJywgJzIwMCcsICctaW1hZScsICc8aW5maWxlLm1hZT4nLCAnLW9tYWUnLCAnPG91dGZpbGUubWFlPic=

>  <r_epik_Ionization_Penalty>  (368) 
0.00149679

>  <r_epik_Ionization_Penalty_Charging>  (368) 
0.00149294

>  <r_epik_Ionization_Penalty_Neutral>  (368) 
3.85434e-06

>  <r_epik_State_Penalty>  (368) 
0.000999864

>  <r_epik_Charging_Adjusted_Penalty>  (368) 
0.0024928

>  <i_epik_Tot_Q>  (368) 
-1

>  <i_epik_Tot_abs_Q>  (368) 
1

>  <s_lp_Force_Field>  (368) 
OPLS3e

>  <r_lp_Energy>  (368) 
124.48

>  <b_lp_Chiralities_Consistent>  (368) 
1

>  <s_lp_Variant>  (368) 
93:0-7

>  <s_i_glide_gridfile>  (368) 
pfpi4k_grid

>  <i_i_glide_lignum>  (368) 
14

>  <i_i_glide_rotatable_bonds>  (368) 
7

>  <r_i_docking_score>  (368) 
-2.81158

>  <r_i_glide_ligand_efficiency>  (368) 
-0.0685752

>  <r_i_glide_ligand_efficiency_sa>  (368) 
-0.236462

>  <r_i_glide_ligand_efficiency_ln>  (368) 
-0.596487

>  <r_i_glide_gscore>  (368) 
-2.81158

>  <r_i_glide_lipo>  (368) 
-0.133166

>  <r_i_glide_hbond>  (368) 
-0.447554

>  <r_i_glide_metal>  (368) 
-0

>  <r_i_glide_rewards>  (368) 
-0.0452042

>  <r_i_glide_evdw>  (368) 
-22.5558

>  <r_i_glide_ecoul>  (368) 
-7.76515

>  <r_i_glide_erotb>  (368) 
0.170804

>  <r_i_glide_esite>  (368) 
-0.0639009

>  <r_i_glide_emodel>  (368) 
-35.9698

>  <r_i_glide_energy>  (368) 
-30.3209

>  <r_i_glide_einternal>  (368) 
2.68018

>  <r_i_glide_intrahb_reward>  (368) 
-0

>  <i_i_glide_confnum>  (368) 
1

>  <i_i_glide_posenum>  (368) 
22

>  <r_i_glide_eff_state_penalty>  (368) 
0

>  <ligand_id>  (368) 
93

>  <original_smiles>  (368) 
CC(C=CCC(C)C1CCC2(C)C3CC4C5(C)CCC(O)C(C)(C)C5CCC45C(=O)C5C3(C)CC(O)C12C)C(=O)O

>  <smiles>  (368) 
[H]OC1([H])C([H])([H])C([H])([H])C2(C([H])([H])[H])C3([H])C([H])([H])C4([H])C(C([H])([H])[H])(C([H])([H])C([H])(O[H])C5(C([H])([H])[H])C([H])(C([H])(C([H])([H])[H])C([H])([H])C([H])=C([H])C([H])(C(=O)[O-])C([H])([H])[H])C([H])([H])C([H])([H])C45C([H])([H])[H])C4([H])C(=O)C43C([H])([H])C([H])([H])C2([H])C1(C([H])([H])[H])C([H])([H])[H]

$$$$
93:6:1
     RDKit          3D

 96101  0  0  1  0  0  0  0  0999 V2000
   -2.2105    2.3689    3.8888 C   0  0  0  0  0  0  0  0  0  0  0  0
   -1.3749    1.9791    5.1289 C   0  0  2  0  0  0  0  0  0  0  0  0
    0.1196    2.0329    4.8624 C   0  0  0  0  0  0  0  0  0  0  0  0
    0.7207    2.0801    3.6512 C   0  0  0  0  0  0  0  0  0  0  0  0
    2.2222    2.0581    3.4393 C   0  0  0  0  0  0  0  0  0  0  0  0
    2.7720    0.6606    3.0220 C   0  0  2  0  0  0  0  0  0  0  0  0
    2.2805    0.3381    1.5934 C   0  0  0  0  0  0  0  0  0  0  0  0
    2.4479   -0.4603    4.0721 C   0  0  2  0  0  0  0  0  0  0  0  0
    2.8743   -0.0870    5.5063 C   0  0  0  0  0  0  0  0  0  0  0  0
    3.0995   -1.3881    6.2666 C   0  0  0  0  0  0  0  0  0  0  0  0
    2.7145   -2.5536    5.3273 C   0  0  2  0  0  0  0  0  0  0  0  0
    1.1898   -2.7966    5.5967 C   0  0  0  0  0  0  0  0  0  0  0  0
    3.5523   -3.8569    5.7057 C   0  0  1  0  0  0  0  0  0  0  0  0
    2.7292   -5.2270    5.6868 C   0  0  0  0  0  0  0  0  0  0  0  0
    3.5020   -6.6014    5.6134 C   0  0  1  0  0  0  0  0  0  0  0  0
    2.6051   -7.8787    5.3956 C   0  0  2  0  0  0  0  0  0  0  0  0
    1.5529   -7.8585    6.5390 C   0  0  0  0  0  0  0  0  0  0  0  0
    3.4689   -9.1681    5.5361 C   0  0  0  0  0  0  0  0  0  0  0  0
    2.7082  -10.4756    5.2167 C   0  0  0  0  0  0  0  0  0  0  0  0
    2.0324  -10.4490    3.8335 C   0  0  1  0  0  0  0  0  0  0  0  0
    1.2662  -11.6293    3.6666 O   0  0  0  0  0  0  0  0  0  0  0  0
    1.1480   -9.1886    3.6006 C   0  0  0  0  0  0  0  0  0  0  0  0
    0.7198   -9.1696    2.1138 C   0  0  0  0  0  0  0  0  0  0  0  0
   -0.1798   -9.2663    4.3967 C   0  0  0  0  0  0  0  0  0  0  0  0
    1.9688   -7.8902    3.9528 C   0  0  2  0  0  0  0  0  0  0  0  0
    3.0648   -7.6045    2.8858 C   0  0  0  0  0  0  0  0  0  0  0  0
    3.8851   -6.3530    3.1644 C   0  0  0  0  0  0  0  0  0  0  0  0
    4.5386   -6.4007    4.5377 C   0  0  2  0  0  0  0  0  0  0  0  0
    6.0561   -6.4179    4.4347 C   0  0  0  0  0  0  0  0  0  0  0  0
    7.0696   -6.9247    3.9632 O   0  0  0  0  0  0  0  0  0  0  0  0
    5.4313   -5.3756    5.2697 C   0  0  1  0  0  0  0  0  0  0  0  0
    5.0181   -3.9245    5.1056 C   0  0  2  0  0  0  0  0  0  0  0  0
    6.0336   -3.1367    5.9841 C   0  0  0  0  0  0  0  0  0  0  0  0
    5.0991   -3.3671    3.6661 C   0  0  0  0  0  0  0  0  0  0  0  0
    4.4845   -1.9688    3.5330 C   0  0  1  0  0  0  0  0  0  0  0  0
    4.7996   -1.5445    2.2203 O   0  0  0  0  0  0  0  0  0  0  0  0
    2.9584   -1.9343    3.8816 C   0  0  2  0  0  0  0  0  0  0  0  0
    2.1211   -2.6816    2.8073 C   0  0  0  0  0  0  0  0  0  0  0  0
   -1.7837    0.5978    5.6748 C   0  0  0  0  0  0  0  0  0  0  0  0
   -2.1780    0.5429    6.8708 O   0  0  0  0  0  0  0  0  0  0  0  0
   -1.7317   -0.3970    4.9228 O   0  0  0  0  0  0  0  0  0  0  0  0
   -2.0617    1.6729    3.0581 H   0  0  0  0  0  0  0  0  0  0  0  0
   -1.9164    3.3623    3.5441 H   0  0  0  0  0  0  0  0  0  0  0  0
   -3.2821    2.4064    4.0928 H   0  0  0  0  0  0  0  0  0  0  0  0
   -1.5659    2.7191    5.9074 H   0  0  0  0  0  0  0  0  0  0  0  0
    0.7152    2.0128    5.7596 H   0  0  0  0  0  0  0  0  0  0  0  0
    0.1410    2.1206    2.7384 H   0  0  0  0  0  0  0  0  0  0  0  0
    2.4518    2.7901    2.6594 H   0  0  0  0  0  0  0  0  0  0  0  0
    2.7241    2.4249    4.3363 H   0  0  0  0  0  0  0  0  0  0  0  0
    3.8542    0.7790    2.9695 H   0  0  0  0  0  0  0  0  0  0  0  0
    1.2080    0.1361    1.5613 H   0  0  0  0  0  0  0  0  0  0  0  0
    2.7899   -0.5156    1.1555 H   0  0  0  0  0  0  0  0  0  0  0  0
    2.4808    1.1720    0.9211 H   0  0  0  0  0  0  0  0  0  0  0  0
    1.3617   -0.5191    4.0802 H   0  0  0  0  0  0  0  0  0  0  0  0
    3.7905    0.5057    5.5063 H   0  0  0  0  0  0  0  0  0  0  0  0
    2.1045    0.4816    6.0211 H   0  0  0  0  0  0  0  0  0  0  0  0
    4.1343   -1.4252    6.5878 H   0  0  0  0  0  0  0  0  0  0  0  0
    2.5132   -1.4041    7.1847 H   0  0  0  0  0  0  0  0  0  0  0  0
    0.7308   -3.5058    4.9070 H   0  0  0  0  0  0  0  0  0  0  0  0
    0.5977   -1.8866    5.5142 H   0  0  0  0  0  0  0  0  0  0  0  0
    1.0203   -3.1720    6.6084 H   0  0  0  0  0  0  0  0  0  0  0  0
    3.7140   -3.7645    6.7819 H   0  0  0  0  0  0  0  0  0  0  0  0
    2.1213   -5.2461    6.5889 H   0  0  0  0  0  0  0  0  0  0  0  0
    2.0203   -5.2032    4.8679 H   0  0  0  0  0  0  0  0  0  0  0  0
    4.0105   -6.7584    6.5678 H   0  0  0  0  0  0  0  0  0  0  0  0
    1.1517   -8.8405    6.7774 H   0  0  0  0  0  0  0  0  0  0  0  0
    0.7098   -7.2064    6.3037 H   0  0  0  0  0  0  0  0  0  0  0  0
    1.9884   -7.5055    7.4774 H   0  0  0  0  0  0  0  0  0  0  0  0
    4.3266   -9.1139    4.8651 H   0  0  0  0  0  0  0  0  0  0  0  0
    3.8894   -9.2337    6.5421 H   0  0  0  0  0  0  0  0  0  0  0  0
    3.4090  -11.3103    5.2534 H   0  0  0  0  0  0  0  0  0  0  0  0
    1.9739  -10.6866    5.9930 H   0  0  0  0  0  0  0  0  0  0  0  0
    2.8185  -10.4807    3.0789 H   0  0  0  0  0  0  0  0  0  0  0  0
    1.8334  -12.3869    3.6940 H   0  0  0  0  0  0  0  0  0  0  0  0
    0.2319   -8.2318    1.8424 H   0  0  0  0  0  0  0  0  0  0  0  0
    0.0145   -9.9799    1.9162 H   0  0  0  0  0  0  0  0  0  0  0  0
    1.5625   -9.3322    1.4401 H   0  0  0  0  0  0  0  0  0  0  0  0
   -0.6136   -8.2814    4.5820 H   0  0  0  0  0  0  0  0  0  0  0  0
   -0.0716   -9.7858    5.3494 H   0  0  0  0  0  0  0  0  0  0  0  0
   -0.9304   -9.8397    3.8470 H   0  0  0  0  0  0  0  0  0  0  0  0
    1.2635   -7.0641    3.8896 H   0  0  0  0  0  0  0  0  0  0  0  0
    3.7378   -8.4545    2.7738 H   0  0  0  0  0  0  0  0  0  0  0  0
    2.6136   -7.4506    1.9084 H   0  0  0  0  0  0  0  0  0  0  0  0
    4.6472   -6.2421    2.3930 H   0  0  0  0  0  0  0  0  0  0  0  0
    3.2092   -5.5110    3.0913 H   0  0  0  0  0  0  0  0  0  0  0  0
    5.6377   -5.5364    6.3267 H   0  0  0  0  0  0  0  0  0  0  0  0
    7.0517   -3.4266    5.7253 H   0  0  0  0  0  0  0  0  0  0  0  0
    5.9155   -3.3463    7.0498 H   0  0  0  0  0  0  0  0  0  0  0  0
    5.9908   -2.0560    5.8635 H   0  0  0  0  0  0  0  0  0  0  0  0
    6.1360   -3.3214    3.3478 H   0  0  0  0  0  0  0  0  0  0  0  0
    4.6318   -4.0033    2.9306 H   0  0  0  0  0  0  0  0  0  0  0  0
    5.0127   -1.2694    4.1752 H   0  0  0  0  0  0  0  0  0  0  0  0
    4.2587   -2.0309    1.6178 H   0  0  0  0  0  0  0  0  0  0  0  0
    2.0707   -3.7461    3.0026 H   0  0  0  0  0  0  0  0  0  0  0  0
    2.5066   -2.5733    1.7960 H   0  0  0  0  0  0  0  0  0  0  0  0
    1.0919   -2.3261    2.7840 H   0  0  0  0  0  0  0  0  0  0  0  0
  1  2  1  0
  1 42  1  0
  1 43  1  0
  1 44  1  0
  2  3  1  0
  2 39  1  0
  2 45  1  1
  3  4  2  3
  3 46  1  0
  4  5  1  0
  4 47  1  0
  5  6  1  0
  5 48  1  0
  5 49  1  0
  6  7  1  0
  6  8  1  0
  6 50  1  6
  7 51  1  0
  7 52  1  0
  7 53  1  0
  8 37  1  0
  8  9  1  0
  8 54  1  1
  9 10  1  0
  9 55  1  0
  9 56  1  0
 10 11  1  0
 10 57  1  0
 10 58  1  0
 11 37  1  0
 11 12  1  6
 11 13  1  0
 12 59  1  0
 12 60  1  0
 12 61  1  0
 13 32  1  0
 13 14  1  0
 13 62  1  1
 14 15  1  0
 14 63  1  0
 14 64  1  0
 15 28  1  0
 15 16  1  0
 15 65  1  1
 16 25  1  0
 16 17  1  1
 16 18  1  0
 17 66  1  0
 17 67  1  0
 17 68  1  0
 18 19  1  0
 18 69  1  0
 18 70  1  0
 19 20  1  0
 19 71  1  0
 19 72  1  0
 20 21  1  0
 20 22  1  0
 20 73  1  6
 21 74  1  0
 22 23  1  0
 22 24  1  0
 22 25  1  0
 23 75  1  0
 23 76  1  0
 23 77  1  0
 24 78  1  0
 24 79  1  0
 24 80  1  0
 25 26  1  0
 25 81  1  1
 26 27  1  0
 26 82  1  0
 26 83  1  0
 28 27  1  6
 27 84  1  0
 27 85  1  0
 28 31  1  0
 28 29  1  0
 29 30  2  0
 29 31  1  0
 31 32  1  0
 31 86  1  1
 32 33  1  1
 32 34  1  0
 33 87  1  0
 33 88  1  0
 33 89  1  0
 34 35  1  0
 34 90  1  0
 34 91  1  0
 35 36  1  0
 35 37  1  0
 35 92  1  1
 36 93  1  0
 37 38  1  6
 38 94  1  0
 38 95  1  0
 38 96  1  0
 39 40  2  0
 39 41  1  0
M  CHG  1  41  -1
M  END
>  <i_m_ct_stereo_status>  (369) 
1

>  <s_m_source_file>  (369) 
/var/tmp/pbs.5076255.sched01/tmpt95b3wv2/135g3gtwtb2.sdf

>  <i_m_source_file_index>  (369) 
14

>  <i_lp_mmshare_version>  (369) 
48012

>  <i_f3d_flags>  (369) 
0

>  <s_epik_input>  (369) 
Tz1DKFtPSF0pW0NASF0oW0NIM10pL1tDSF09W0NIXS9bQ0gyXVtDQEhdKFtDSDNdKVtDQEhdKFtDSDJdW0NIMl0xKVtDQEBdKFtDSDNdKShbQ0BIXShbT0hdKVtDSDJdW0NAXTIoW0NIM10pW0NIXTNDND1PKVtDQEBdMShbQ0gzXSlbQ0BIXTJbQ0gyXVtDQEhdKEMzNDUpW0NAQF02KFtDSDNdKVtDQEBIXShbQ0gyXVtDSDJdNSlDKFtDSDNdKShbQ0gzXSlbQ0BIXShbT0hdKVtDSDJdW0NIMl02

>  <s_epik_cmdline>  (369) 
J2VwaWtfcHl0aG9uJywgJy1waHQnLCAnMi4wJywgJy1waCcsICc3LjAnLCAnLXRuJywgJzgnLCAnLW1hJywgJzIwMCcsICctaW1hZScsICc8aW5maWxlLm1hZT4nLCAnLW9tYWUnLCAnPG91dGZpbGUubWFlPic=

>  <r_epik_Ionization_Penalty>  (369) 
0.00149679

>  <r_epik_Ionization_Penalty_Charging>  (369) 
0.00149294

>  <r_epik_Ionization_Penalty_Neutral>  (369) 
3.85434e-06

>  <r_epik_State_Penalty>  (369) 
0.000999864

>  <r_epik_Charging_Adjusted_Penalty>  (369) 
0.0024928

>  <i_epik_Tot_Q>  (369) 
-1

>  <i_epik_Tot_abs_Q>  (369) 
1

>  <s_lp_Force_Field>  (369) 
OPLS3e

>  <r_lp_Energy>  (369) 
124.48

>  <b_lp_Chiralities_Consistent>  (369) 
1

>  <s_lp_Variant>  (369) 
93:0-7

>  <s_i_glide_gridfile>  (369) 
pfpi4k_grid

>  <i_i_glide_lignum>  (369) 
14

>  <i_i_glide_rotatable_bonds>  (369) 
7

>  <r_i_docking_score>  (369) 
-2.33198

>  <r_i_glide_ligand_efficiency>  (369) 
-0.0568776

>  <r_i_glide_ligand_efficiency_sa>  (369) 
-0.196126

>  <r_i_glide_ligand_efficiency_ln>  (369) 
-0.494738

>  <r_i_glide_gscore>  (369) 
-2.33198

>  <r_i_glide_lipo>  (369) 
-0.110561

>  <r_i_glide_hbond>  (369) 
-0.335031

>  <r_i_glide_metal>  (369) 
-0

>  <r_i_glide_rewards>  (369) 
0

>  <r_i_glide_evdw>  (369) 
-20.3712

>  <r_i_glide_ecoul>  (369) 
-6.54817

>  <r_i_glide_erotb>  (369) 
0.170804

>  <r_i_glide_esite>  (369) 
-0.0564065

>  <r_i_glide_emodel>  (369) 
-30.4982

>  <r_i_glide_energy>  (369) 
-26.9194

>  <r_i_glide_einternal>  (369) 
4.00592

>  <r_i_glide_intrahb_reward>  (369) 
-0

>  <i_i_glide_confnum>  (369) 
1

>  <i_i_glide_posenum>  (369) 
1

>  <r_i_glide_eff_state_penalty>  (369) 
0

>  <ligand_id>  (369) 
93

>  <original_smiles>  (369) 
CC(C=CCC(C)C1CCC2(C)C3CC4C5(C)CCC(O)C(C)(C)C5CCC45C(=O)C5C3(C)CC(O)C12C)C(=O)O

>  <smiles>  (369) 
[H]OC1([H])C([H])([H])C([H])([H])C2(C([H])([H])[H])C3([H])C([H])([H])C4([H])C(C([H])([H])[H])(C([H])([H])C([H])(O[H])C5(C([H])([H])[H])C([H])(C([H])(C([H])([H])[H])C([H])([H])C([H])=C([H])C([H])(C(=O)[O-])C([H])([H])[H])C([H])([H])C([H])([H])C45C([H])([H])[H])C4([H])C(=O)C43C([H])([H])C([H])([H])C2([H])C1(C([H])([H])[H])C([H])([H])[H]

$$$$
93:6:2
     RDKit          3D

 96101  0  0  1  0  0  0  0  0999 V2000
   -2.2387    2.3170    3.8303 C   0  0  0  0  0  0  0  0  0  0  0  0
   -1.4049    1.9790    5.0873 C   0  0  2  0  0  0  0  0  0  0  0  0
    0.0871    2.0723    4.8385 C   0  0  0  0  0  0  0  0  0  0  0  0
    0.7029    2.0097    3.6403 C   0  0  0  0  0  0  0  0  0  0  0  0
    2.2072    2.0384    3.4396 C   0  0  0  0  0  0  0  0  0  0  0  0
    2.8083    0.6530    3.0576 C   0  0  2  0  0  0  0  0  0  0  0  0
    2.3869    0.3127    1.6093 C   0  0  0  0  0  0  0  0  0  0  0  0
    2.4592   -0.4655    4.1021 C   0  0  2  0  0  0  0  0  0  0  0  0
    2.8466   -0.0843    5.5445 C   0  0  0  0  0  0  0  0  0  0  0  0
    3.0596   -1.3832    6.3168 C   0  0  0  0  0  0  0  0  0  0  0  0
    2.7025   -2.5541    5.3716 C   0  0  2  0  0  0  0  0  0  0  0  0
    1.1741   -2.7997    5.6101 C   0  0  0  0  0  0  0  0  0  0  0  0
    3.5340   -3.8590    5.7618 C   0  0  1  0  0  0  0  0  0  0  0  0
    2.7118   -5.2299    5.7272 C   0  0  0  0  0  0  0  0  0  0  0  0
    3.4839   -6.6053    5.6660 C   0  0  1  0  0  0  0  0  0  0  0  0
    2.5909   -7.8824    5.4325 C   0  0  2  0  0  0  0  0  0  0  0  0
    1.5173   -7.8617    6.5560 C   0  0  0  0  0  0  0  0  0  0  0  0
    3.4503   -9.1726    5.5904 C   0  0  0  0  0  0  0  0  0  0  0  0
    2.6944  -10.4799    5.2564 C   0  0  0  0  0  0  0  0  0  0  0  0
    2.0459  -10.4530    3.8609 C   0  0  1  0  0  0  0  0  0  0  0  0
    1.2793  -11.6305    3.6805 O   0  0  0  0  0  0  0  0  0  0  0  0
    1.1687   -9.1928    3.6107 C   0  0  0  0  0  0  0  0  0  0  0  0
    0.7675   -9.1740    2.1163 C   0  0  0  0  0  0  0  0  0  0  0  0
   -0.1779   -9.2700    4.3792 C   0  0  0  0  0  0  0  0  0  0  0  0
    1.9806   -7.8946    3.9786 C   0  0  2  0  0  0  0  0  0  0  0  0
    3.0965   -7.6101    2.9342 C   0  0  0  0  0  0  0  0  0  0  0  0
    3.9138   -6.3577    3.2261 C   0  0  0  0  0  0  0  0  0  0  0  0
    4.5393   -6.4053    4.6112 C   0  0  2  0  0  0  0  0  0  0  0  0
    6.0593   -6.4262    4.5390 C   0  0  0  0  0  0  0  0  0  0  0  0
    7.0833   -6.9309    4.0864 O   0  0  0  0  0  0  0  0  0  0  0  0
    5.4171   -5.3825    5.3619 C   0  0  1  0  0  0  0  0  0  0  0  0
    5.0117   -3.9309    5.1894 C   0  0  2  0  0  0  0  0  0  0  0  0
    6.0147   -3.1433    6.0845 C   0  0  0  0  0  0  0  0  0  0  0  0
    5.1172   -3.3704    3.7555 C   0  0  0  0  0  0  0  0  0  0  0  0
    4.5084   -1.9723    3.6230 C   0  0  1  0  0  0  0  0  0  0  0  0
    4.8513   -1.5544    2.3176 O   0  0  0  0  0  0  0  0  0  0  0  0
    2.9752   -1.9369    3.9319 C   0  0  2  0  0  0  0  0  0  0  0  0
    2.1634   -2.6853    2.8406 C   0  0  0  0  0  0  0  0  0  0  0  0
   -1.7908    0.6008    5.6592 C   0  0  0  0  0  0  0  0  0  0  0  0
   -1.7255   -0.3953    4.9053 O   0  0  0  0  0  0  0  0  0  0  0  0
   -2.1522    0.5623    6.8600 O   0  0  0  0  0  0  0  0  0  0  0  0
   -2.0605    1.5995    3.0264 H   0  0  0  0  0  0  0  0  0  0  0  0
   -1.9703    3.3086    3.4540 H   0  0  0  0  0  0  0  0  0  0  0  0
   -3.3113    2.3278    4.0328 H   0  0  0  0  0  0  0  0  0  0  0  0
   -1.6384    2.7281    5.8446 H   0  0  0  0  0  0  0  0  0  0  0  0
    0.6800    2.1862    5.7334 H   0  0  0  0  0  0  0  0  0  0  0  0
    0.1279    1.9148    2.7279 H   0  0  0  0  0  0  0  0  0  0  0  0
    2.4162    2.7638    2.6484 H   0  0  0  0  0  0  0  0  0  0  0  0
    2.6816    2.4439    4.3362 H   0  0  0  0  0  0  0  0  0  0  0  0
    3.8864    0.8061    3.0630 H   0  0  0  0  0  0  0  0  0  0  0  0
    1.3197    0.0939    1.5367 H   0  0  0  0  0  0  0  0  0  0  0  0
    2.9219   -0.5339    1.1877 H   0  0  0  0  0  0  0  0  0  0  0  0
    2.5977    1.1521    0.9471 H   0  0  0  0  0  0  0  0  0  0  0  0
    1.3737   -0.5316    4.0872 H   0  0  0  0  0  0  0  0  0  0  0  0
    3.7574    0.5144    5.5702 H   0  0  0  0  0  0  0  0  0  0  0  0
    2.0612    0.4959    6.0239 H   0  0  0  0  0  0  0  0  0  0  0  0
    4.0907   -1.4170    6.6506 H   0  0  0  0  0  0  0  0  0  0  0  0
    2.4609   -1.4029    7.2283 H   0  0  0  0  0  0  0  0  0  0  0  0
    0.7309   -3.5085    4.9095 H   0  0  0  0  0  0  0  0  0  0  0  0
    0.5842   -1.8891    5.5165 H   0  0  0  0  0  0  0  0  0  0  0  0
    0.9868   -3.1769    6.6187 H   0  0  0  0  0  0  0  0  0  0  0  0
    3.6747   -3.7706    6.8411 H   0  0  0  0  0  0  0  0  0  0  0  0
    2.0859   -5.2513    6.6161 H   0  0  0  0  0  0  0  0  0  0  0  0
    2.0176   -5.2052    4.8939 H   0  0  0  0  0  0  0  0  0  0  0  0
    3.9735   -6.7613    6.6306 H   0  0  0  0  0  0  0  0  0  0  0  0
    1.1107   -8.8445    6.7858 H   0  0  0  0  0  0  0  0  0  0  0  0
    0.6796   -7.2078    6.3045 H   0  0  0  0  0  0  0  0  0  0  0  0
    1.9371   -7.5096    7.5031 H   0  0  0  0  0  0  0  0  0  0  0  0
    4.3221   -9.1197    4.9378 H   0  0  0  0  0  0  0  0  0  0  0  0
    3.8506   -9.2389    6.6063 H   0  0  0  0  0  0  0  0  0  0  0  0
    3.3931  -11.3153    5.3095 H   0  0  0  0  0  0  0  0  0  0  0  0
    1.9443  -10.6878    6.0179 H   0  0  0  0  0  0  0  0  0  0  0  0
    2.8456  -10.4860    3.1224 H   0  0  0  0  0  0  0  0  0  0  0  0
    1.8416  -12.3898    3.7253 H   0  0  0  0  0  0  0  0  0  0  0  0
    0.2830   -8.2353    1.8375 H   0  0  0  0  0  0  0  0  0  0  0  0
    0.0648   -9.9849    1.9073 H   0  0  0  0  0  0  0  0  0  0  0  0
    1.6220   -9.3371    1.4573 H   0  0  0  0  0  0  0  0  0  0  0  0
   -0.6145   -8.2834    4.5550 H   0  0  0  0  0  0  0  0  0  0  0  0
   -0.0882   -9.7889    5.3350 H   0  0  0  0  0  0  0  0  0  0  0  0
   -0.9186   -9.8444    3.8149 H   0  0  0  0  0  0  0  0  0  0  0  0
    1.2770   -7.0686    3.9016 H   0  0  0  0  0  0  0  0  0  0  0  0
    3.7717   -8.4599    2.8337 H   0  0  0  0  0  0  0  0  0  0  0  0
    2.6645   -7.4550    1.9482 H   0  0  0  0  0  0  0  0  0  0  0  0
    4.6907   -6.2477    2.4691 H   0  0  0  0  0  0  0  0  0  0  0  0
    3.2391   -5.5157    3.1415 H   0  0  0  0  0  0  0  0  0  0  0  0
    5.6019   -5.5405    6.4225 H   0  0  0  0  0  0  0  0  0  0  0  0
    7.0401   -3.4302    5.8446 H   0  0  0  0  0  0  0  0  0  0  0  0
    5.8757   -3.3560    7.1472 H   0  0  0  0  0  0  0  0  0  0  0  0
    5.9730   -2.0616    5.9687 H   0  0  0  0  0  0  0  0  0  0  0  0
    6.1581   -3.3252    3.4487 H   0  0  0  0  0  0  0  0  0  0  0  0
    4.6581   -3.9998    3.0074 H   0  0  0  0  0  0  0  0  0  0  0  0
    5.0199   -1.2723    4.2810 H   0  0  0  0  0  0  0  0  0  0  0  0
    4.4260   -0.7279    2.1582 H   0  0  0  0  0  0  0  0  0  0  0  0
    2.1072   -3.7486    3.0323 H   0  0  0  0  0  0  0  0  0  0  0  0
    2.5759   -2.5771    1.8410 H   0  0  0  0  0  0  0  0  0  0  0  0
    1.1358   -2.3315    2.7924 H   0  0  0  0  0  0  0  0  0  0  0  0
  1  2  1  0
  1 42  1  0
  1 43  1  0
  1 44  1  0
  2  3  1  0
  2 39  1  0
  2 45  1  1
  3  4  2  3
  3 46  1  0
  4  5  1  0
  4 47  1  0
  5  6  1  0
  5 48  1  0
  5 49  1  0
  6  7  1  0
  6  8  1  0
  6 50  1  6
  7 51  1  0
  7 52  1  0
  7 53  1  0
  8 37  1  0
  8  9  1  0
  8 54  1  1
  9 10  1  0
  9 55  1  0
  9 56  1  0
 10 11  1  0
 10 57  1  0
 10 58  1  0
 11 37  1  0
 11 12  1  6
 11 13  1  0
 12 59  1  0
 12 60  1  0
 12 61  1  0
 13 32  1  0
 13 14  1  0
 13 62  1  1
 14 15  1  0
 14 63  1  0
 14 64  1  0
 15 28  1  0
 15 16  1  0
 15 65  1  1
 16 25  1  0
 16 17  1  1
 16 18  1  0
 17 66  1  0
 17 67  1  0
 17 68  1  0
 18 19  1  0
 18 69  1  0
 18 70  1  0
 19 20  1  0
 19 71  1  0
 19 72  1  0
 20 21  1  0
 20 22  1  0
 20 73  1  6
 21 74  1  0
 22 23  1  0
 22 24  1  0
 22 25  1  0
 23 75  1  0
 23 76  1  0
 23 77  1  0
 24 78  1  0
 24 79  1  0
 24 80  1  0
 25 26  1  0
 25 81  1  1
 26 27  1  0
 26 82  1  0
 26 83  1  0
 28 27  1  6
 27 84  1  0
 27 85  1  0
 28 31  1  0
 28 29  1  0
 29 30  2  0
 29 31  1  0
 31 32  1  0
 31 86  1  1
 32 33  1  1
 32 34  1  0
 33 87  1  0
 33 88  1  0
 33 89  1  0
 34 35  1  0
 34 90  1  0
 34 91  1  0
 35 36  1  0
 35 37  1  0
 35 92  1  1
 36 93  1  0
 37 38  1  6
 38 94  1  0
 38 95  1  0
 38 96  1  0
 39 40  2  0
 39 41  1  0
M  CHG  1  41  -1
M  END
>  <i_m_ct_stereo_status>  (370) 
1

>  <s_m_source_file>  (370) 
/var/tmp/pbs.5076255.sched01/tmpt95b3wv2/135g3gtwtb2.sdf

>  <i_m_source_file_index>  (370) 
14

>  <i_lp_mmshare_version>  (370) 
48012

>  <i_f3d_flags>  (370) 
0

>  <s_epik_input>  (370) 
Tz1DKFtPSF0pW0NASF0oW0NIM10pL1tDSF09W0NIXS9bQ0gyXVtDQEhdKFtDSDNdKVtDQEhdKFtDSDJdW0NIMl0xKVtDQEBdKFtDSDNdKShbQ0BIXShbT0hdKVtDSDJdW0NAXTIoW0NIM10pW0NIXTNDND1PKVtDQEBdMShbQ0gzXSlbQ0BIXTJbQ0gyXVtDQEhdKEMzNDUpW0NAQF02KFtDSDNdKVtDQEBIXShbQ0gyXVtDSDJdNSlDKFtDSDNdKShbQ0gzXSlbQ0BIXShbT0hdKVtDSDJdW0NIMl02

>  <s_epik_cmdline>  (370) 
J2VwaWtfcHl0aG9uJywgJy1waHQnLCAnMi4wJywgJy1waCcsICc3LjAnLCAnLXRuJywgJzgnLCAnLW1hJywgJzIwMCcsICctaW1hZScsICc8aW5maWxlLm1hZT4nLCAnLW9tYWUnLCAnPG91dGZpbGUubWFlPic=

>  <r_epik_Ionization_Penalty>  (370) 
0.00149679

>  <r_epik_Ionization_Penalty_Charging>  (370) 
0.00149294

>  <r_epik_Ionization_Penalty_Neutral>  (370) 
3.85434e-06

>  <r_epik_State_Penalty>  (370) 
0.000999864

>  <r_epik_Charging_Adjusted_Penalty>  (370) 
0.0024928

>  <i_epik_Tot_Q>  (370) 
-1

>  <i_epik_Tot_abs_Q>  (370) 
1

>  <s_lp_Force_Field>  (370) 
OPLS3e

>  <r_lp_Energy>  (370) 
124.48

>  <b_lp_Chiralities_Consistent>  (370) 
1

>  <s_lp_Variant>  (370) 
93:0-7

>  <s_i_glide_gridfile>  (370) 
pfpi4k_grid

>  <i_i_glide_lignum>  (370) 
14

>  <i_i_glide_rotatable_bonds>  (370) 
7

>  <r_i_docking_score>  (370) 
-2.24457

>  <r_i_glide_ligand_efficiency>  (370) 
-0.0547456

>  <r_i_glide_ligand_efficiency_sa>  (370) 
-0.188775

>  <r_i_glide_ligand_efficiency_ln>  (370) 
-0.476193

>  <r_i_glide_gscore>  (370) 
-2.24457

>  <r_i_glide_lipo>  (370) 
-0.113033

>  <r_i_glide_hbond>  (370) 
-0.332523

>  <r_i_glide_metal>  (370) 
-0

>  <r_i_glide_rewards>  (370) 
0

>  <r_i_glide_evdw>  (370) 
-20.1301

>  <r_i_glide_ecoul>  (370) 
-6.04971

>  <r_i_glide_erotb>  (370) 
0.170804

>  <r_i_glide_esite>  (370) 
-0.0558595

>  <r_i_glide_emodel>  (370) 
-29.7287

>  <r_i_glide_energy>  (370) 
-26.1798

>  <r_i_glide_einternal>  (370) 
3.92603

>  <r_i_glide_intrahb_reward>  (370) 
-0

>  <i_i_glide_confnum>  (370) 
1

>  <i_i_glide_posenum>  (370) 
24

>  <r_i_glide_eff_state_penalty>  (370) 
0

>  <ligand_id>  (370) 
93

>  <original_smiles>  (370) 
CC(C=CCC(C)C1CCC2(C)C3CC4C5(C)CCC(O)C(C)(C)C5CCC45C(=O)C5C3(C)CC(O)C12C)C(=O)O

>  <smiles>  (370) 
[H]OC1([H])C([H])([H])C([H])([H])C2(C([H])([H])[H])C3([H])C([H])([H])C4([H])C(C([H])([H])[H])(C([H])([H])C([H])(O[H])C5(C([H])([H])[H])C([H])(C([H])(C([H])([H])[H])C([H])([H])C([H])=C([H])C([H])(C(=O)[O-])C([H])([H])[H])C([H])([H])C([H])([H])C45C([H])([H])[H])C4([H])C(=O)C43C([H])([H])C([H])([H])C2([H])C1(C([H])([H])[H])C([H])([H])[H]

$$$$
93:7:0
     RDKit          3D

 96101  0  0  1  0  0  0  0  0999 V2000
   -1.8696   -8.4951    3.5456 C   0  0  0  0  0  0  0  0  0  0  0  0
   -1.0237   -8.4517    2.2590 C   0  0  2  0  0  0  0  0  0  0  0  0
    0.0889   -9.5127    2.2717 C   0  0  0  0  0  0  0  0  0  0  0  0
    1.4279   -9.3502    2.3392 C   0  0  0  0  0  0  0  0  0  0  0  0
    2.1804   -8.0188    2.4437 C   0  0  0  0  0  0  0  0  0  0  0  0
    3.4789   -8.0825    3.3116 C   0  0  2  0  0  0  0  0  0  0  0  0
    3.2478   -8.8665    4.6497 C   0  0  0  0  0  0  0  0  0  0  0  0
    4.0923   -6.6332    3.5020 C   0  0  2  0  0  0  0  0  0  0  0  0
    5.3910   -6.6257    4.3446 C   0  0  0  0  0  0  0  0  0  0  0  0
    5.5059   -5.2477    4.9872 C   0  0  0  0  0  0  0  0  0  0  0  0
    4.3682   -4.3519    4.4252 C   0  0  2  0  0  0  0  0  0  0  0  0
    4.9958   -3.6847    3.1545 C   0  0  0  0  0  0  0  0  0  0  0  0
    3.9582   -3.2363    5.5002 C   0  0  1  0  0  0  0  0  0  0  0  0
    3.7411   -1.7669    4.9135 C   0  0  0  0  0  0  0  0  0  0  0  0
    2.9313   -0.6980    5.7524 C   0  0  1  0  0  0  0  0  0  0  0  0
    2.5606    0.6428    5.0062 C   0  0  2  0  0  0  0  0  0  0  0  0
    3.9017    1.2047    4.4507 C   0  0  0  0  0  0  0  0  0  0  0  0
    1.9608    1.6576    6.0228 C   0  0  0  0  0  0  0  0  0  0  0  0
    1.4641    2.9744    5.3838 C   0  0  0  0  0  0  0  0  0  0  0  0
    0.4551    2.7389    4.2400 C   0  0  1  0  0  0  0  0  0  0  0  0
    0.0943    3.9923    3.6728 O   0  0  0  0  0  0  0  0  0  0  0  0
    0.9467    1.7169    3.1629 C   0  0  0  0  0  0  0  0  0  0  0  0
   -0.2567    1.3817    2.2412 C   0  0  0  0  0  0  0  0  0  0  0  0
    2.0479    2.3509    2.2667 C   0  0  0  0  0  0  0  0  0  0  0  0
    1.4636    0.4031    3.8885 C   0  0  2  0  0  0  0  0  0  0  0  0
    0.2830   -0.4424    4.4632 C   0  0  0  0  0  0  0  0  0  0  0  0
    0.7228   -1.7317    5.1566 C   0  0  0  0  0  0  0  0  0  0  0  0
    1.7162   -1.4428    6.2799 C   0  0  2  0  0  0  0  0  0  0  0  0
    1.1354   -1.8242    7.6315 C   0  0  0  0  0  0  0  0  0  0  0  0
    0.2150   -1.7297    8.4374 O   0  0  0  0  0  0  0  0  0  0  0  0
    2.4397   -2.3984    7.2667 C   0  0  1  0  0  0  0  0  0  0  0  0
    2.9448   -3.6926    6.6388 C   0  0  2  0  0  0  0  0  0  0  0  0
    3.6643   -4.4424    7.7987 C   0  0  0  0  0  0  0  0  0  0  0  0
    1.8424   -4.6247    6.1054 C   0  0  0  0  0  0  0  0  0  0  0  0
    2.4182   -5.8084    5.3185 C   0  0  1  0  0  0  0  0  0  0  0  0
    1.2876   -6.6058    5.0811 O   0  0  0  0  0  0  0  0  0  0  0  0
    3.2399   -5.4033    4.0364 C   0  0  2  0  0  0  0  0  0  0  0  0
    2.3014   -4.8233    2.9306 C   0  0  0  0  0  0  0  0  0  0  0  0
   -0.5300   -7.0252    2.0001 C   0  0  0  0  0  0  0  0  0  0  0  0
   -0.4602   -6.2701    2.9750 O   0  0  0  0  0  0  0  0  0  0  0  0
   -0.1559   -6.7170    0.8550 O   0  0  0  0  0  0  0  0  0  0  0  0
   -1.2658   -8.3262    4.4391 H   0  0  0  0  0  0  0  0  0  0  0  0
   -2.3702   -9.4554    3.6768 H   0  0  0  0  0  0  0  0  0  0  0  0
   -2.6619   -7.7453    3.5414 H   0  0  0  0  0  0  0  0  0  0  0  0
   -1.6878   -8.6900    1.4209 H   0  0  0  0  0  0  0  0  0  0  0  0
   -0.2909  -10.5319    2.2189 H   0  0  0  0  0  0  0  0  0  0  0  0
    2.0273  -10.2572    2.3276 H   0  0  0  0  0  0  0  0  0  0  0  0
    2.4272   -7.7082    1.4185 H   0  0  0  0  0  0  0  0  0  0  0  0
    1.5292   -7.3022    2.8754 H   0  0  0  0  0  0  0  0  0  0  0  0
    4.2133   -8.6572    2.7235 H   0  0  0  0  0  0  0  0  0  0  0  0
    2.5918   -8.3261    5.3391 H   0  0  0  0  0  0  0  0  0  0  0  0
    4.2036   -9.0975    5.1427 H   0  0  0  0  0  0  0  0  0  0  0  0
    2.7934   -9.8467    4.4532 H   0  0  0  0  0  0  0  0  0  0  0  0
    4.4177   -6.3584    2.4967 H   0  0  0  0  0  0  0  0  0  0  0  0
    5.3580   -7.3639    5.1429 H   0  0  0  0  0  0  0  0  0  0  0  0
    6.2625   -6.8646    3.7261 H   0  0  0  0  0  0  0  0  0  0  0  0
    5.4231   -5.3776    6.0626 H   0  0  0  0  0  0  0  0  0  0  0  0
    6.4965   -4.8154    4.8321 H   0  0  0  0  0  0  0  0  0  0  0  0
    4.2812   -3.1090    2.5699 H   0  0  0  0  0  0  0  0  0  0  0  0
    5.4196   -4.4132    2.4648 H   0  0  0  0  0  0  0  0  0  0  0  0
    5.8075   -3.0062    3.4162 H   0  0  0  0  0  0  0  0  0  0  0  0
    4.8853   -3.0597    6.0624 H   0  0  0  0  0  0  0  0  0  0  0  0
    4.7093   -1.3522    4.6565 H   0  0  0  0  0  0  0  0  0  0  0  0
    3.2189   -1.8555    3.9579 H   0  0  0  0  0  0  0  0  0  0  0  0
    3.5536   -0.3966    6.5984 H   0  0  0  0  0  0  0  0  0  0  0  0
    3.9001    2.2781    4.2963 H   0  0  0  0  0  0  0  0  0  0  0  0
    4.1752    0.7399    3.5050 H   0  0  0  0  0  0  0  0  0  0  0  0
    4.7274    1.0346    5.1426 H   0  0  0  0  0  0  0  0  0  0  0  0
    1.1215    1.2075    6.5528 H   0  0  0  0  0  0  0  0  0  0  0  0
    2.6947    1.8898    6.8000 H   0  0  0  0  0  0  0  0  0  0  0  0
    0.9859    3.5784    6.1577 H   0  0  0  0  0  0  0  0  0  0  0  0
    2.3060    3.5743    5.0378 H   0  0  0  0  0  0  0  0  0  0  0  0
   -0.4558    2.3526    4.6968 H   0  0  0  0  0  0  0  0  0  0  0  0
    0.2161    3.9624    2.7326 H   0  0  0  0  0  0  0  0  0  0  0  0
   -0.0332    0.5503    1.5692 H   0  0  0  0  0  0  0  0  0  0  0  0
   -0.5361    2.2285    1.6159 H   0  0  0  0  0  0  0  0  0  0  0  0
   -1.1573    1.1335    2.8013 H   0  0  0  0  0  0  0  0  0  0  0  0
    2.6873    1.5960    1.8066 H   0  0  0  0  0  0  0  0  0  0  0  0
    2.6785    3.0587    2.7953 H   0  0  0  0  0  0  0  0  0  0  0  0
    1.6242    2.9317    1.4469 H   0  0  0  0  0  0  0  0  0  0  0  0
    1.9221   -0.2151    3.1163 H   0  0  0  0  0  0  0  0  0  0  0  0
   -0.3168    0.1432    5.1580 H   0  0  0  0  0  0  0  0  0  0  0  0
   -0.3984   -0.7449    3.6690 H   0  0  0  0  0  0  0  0  0  0  0  0
   -0.1580   -2.2536    5.5325 H   0  0  0  0  0  0  0  0  0  0  0  0
    1.1597   -2.3666    4.3925 H   0  0  0  0  0  0  0  0  0  0  0  0
    3.2272   -1.9910    7.8926 H   0  0  0  0  0  0  0  0  0  0  0  0
    3.0130   -4.5291    8.6702 H   0  0  0  0  0  0  0  0  0  0  0  0
    4.5658   -3.9201    8.1244 H   0  0  0  0  0  0  0  0  0  0  0  0
    3.9632   -5.4598    7.5687 H   0  0  0  0  0  0  0  0  0  0  0  0
    1.2511   -4.9969    6.9445 H   0  0  0  0  0  0  0  0  0  0  0  0
    1.1200   -4.1475    5.4604 H   0  0  0  0  0  0  0  0  0  0  0  0
    3.0493   -6.4120    5.9742 H   0  0  0  0  0  0  0  0  0  0  0  0
    1.5795   -7.4409    4.6719 H   0  0  0  0  0  0  0  0  0  0  0  0
    2.1334   -3.7641    3.0996 H   0  0  0  0  0  0  0  0  0  0  0  0
    1.3809   -5.2949    2.8979 H   0  0  0  0  0  0  0  0  0  0  0  0
    2.7768   -4.8885    1.9525 H   0  0  0  0  0  0  0  0  0  0  0  0
  1  2  1  0
  1 42  1  0
  1 43  1  0
  1 44  1  0
  2  3  1  0
  2 39  1  0
  2 45  1  6
  3  4  2  3
  3 46  1  0
  4  5  1  0
  4 47  1  0
  5  6  1  0
  5 48  1  0
  5 49  1  0
  6  7  1  0
  6  8  1  0
  6 50  1  6
  7 51  1  0
  7 52  1  0
  7 53  1  0
  8 37  1  0
  8  9  1  0
  8 54  1  6
  9 10  1  0
  9 55  1  0
  9 56  1  0
 10 11  1  0
 10 57  1  0
 10 58  1  0
 11 37  1  0
 11 12  1  6
 11 13  1  0
 12 59  1  0
 12 60  1  0
 12 61  1  0
 13 32  1  0
 13 14  1  0
 13 62  1  1
 14 15  1  0
 14 63  1  0
 14 64  1  0
 15 28  1  0
 15 16  1  0
 15 65  1  1
 16 25  1  0
 16 17  1  6
 16 18  1  0
 17 66  1  0
 17 67  1  0
 17 68  1  0
 18 19  1  0
 18 69  1  0
 18 70  1  0
 19 20  1  0
 19 71  1  0
 19 72  1  0
 20 21  1  0
 20 22  1  0
 20 73  1  1
 21 74  1  0
 22 23  1  0
 22 24  1  0
 22 25  1  0
 23 75  1  0
 23 76  1  0
 23 77  1  0
 24 78  1  0
 24 79  1  0
 24 80  1  0
 25 26  1  0
 25 81  1  6
 26 27  1  0
 26 82  1  0
 26 83  1  0
 28 27  1  6
 27 84  1  0
 27 85  1  0
 28 31  1  0
 28 29  1  0
 29 30  2  0
 29 31  1  0
 31 32  1  0
 31 86  1  1
 32 33  1  1
 32 34  1  0
 33 87  1  0
 33 88  1  0
 33 89  1  0
 34 35  1  0
 34 90  1  0
 34 91  1  0
 35 36  1  0
 35 37  1  0
 35 92  1  1
 36 93  1  0
 37 38  1  6
 38 94  1  0
 38 95  1  0
 38 96  1  0
 39 40  2  0
 39 41  1  0
M  CHG  1  41  -1
M  END
>  <i_m_ct_stereo_status>  (371) 
1

>  <s_m_source_file>  (371) 
/var/tmp/pbs.5076255.sched01/tmpt95b3wv2/135g3gtwtb2.sdf

>  <i_m_source_file_index>  (371) 
15

>  <i_lp_mmshare_version>  (371) 
48012

>  <i_f3d_flags>  (371) 
0

>  <s_epik_input>  (371) 
Tz1DKFtPSF0pW0NASF0oW0NIM10pL1tDSF09W0NIXS9bQ0gyXVtDQEhdKFtDSDNdKVtDQEhdKFtDSDJdW0NIMl0xKVtDQEBdKFtDSDNdKShbQ0BIXShbT0hdKVtDSDJdW0NAXTIoW0NIM10pW0NIXTNDND1PKVtDQEBdMShbQ0gzXSlbQ0BIXTJbQ0gyXVtDQEhdKEMzNDUpW0NAQF02KFtDSDNdKVtDQEBIXShbQ0gyXVtDSDJdNSlDKFtDSDNdKShbQ0gzXSlbQ0BIXShbT0hdKVtDSDJdW0NIMl02

>  <s_epik_cmdline>  (371) 
J2VwaWtfcHl0aG9uJywgJy1waHQnLCAnMi4wJywgJy1waCcsICc3LjAnLCAnLXRuJywgJzgnLCAnLW1hJywgJzIwMCcsICctaW1hZScsICc8aW5maWxlLm1hZT4nLCAnLW9tYWUnLCAnPG91dGZpbGUubWFlPic=

>  <r_epik_Ionization_Penalty>  (371) 
0.00149679

>  <r_epik_Ionization_Penalty_Charging>  (371) 
0.00149294

>  <r_epik_Ionization_Penalty_Neutral>  (371) 
3.85434e-06

>  <r_epik_State_Penalty>  (371) 
0.000999864

>  <r_epik_Charging_Adjusted_Penalty>  (371) 
0.0024928

>  <i_epik_Tot_Q>  (371) 
-1

>  <i_epik_Tot_abs_Q>  (371) 
1

>  <s_lp_Force_Field>  (371) 
OPLS3e

>  <r_lp_Energy>  (371) 
128.076

>  <b_lp_Chiralities_Consistent>  (371) 
1

>  <s_lp_Variant>  (371) 
93:0-8

>  <s_i_glide_gridfile>  (371) 
pfpi4k_grid

>  <i_i_glide_lignum>  (371) 
15

>  <i_i_glide_rotatable_bonds>  (371) 
7

>  <r_i_docking_score>  (371) 
-2.70548

>  <r_i_glide_ligand_efficiency>  (371) 
-0.0659874

>  <r_i_glide_ligand_efficiency_sa>  (371) 
-0.227539

>  <r_i_glide_ligand_efficiency_ln>  (371) 
-0.573978

>  <r_i_glide_gscore>  (371) 
-2.70548

>  <r_i_glide_lipo>  (371) 
-0.113945

>  <r_i_glide_hbond>  (371) 
-0.627024

>  <r_i_glide_metal>  (371) 
-0

>  <r_i_glide_rewards>  (371) 
0

>  <r_i_glide_evdw>  (371) 
-20.4903

>  <r_i_glide_ecoul>  (371) 
-8.10619

>  <r_i_glide_erotb>  (371) 
0.170804

>  <r_i_glide_esite>  (371) 
-0.108088

>  <r_i_glide_emodel>  (371) 
-26.9972

>  <r_i_glide_energy>  (371) 
-28.5965

>  <r_i_glide_einternal>  (371) 
10.6291

>  <r_i_glide_intrahb_reward>  (371) 
-0

>  <i_i_glide_confnum>  (371) 
3

>  <i_i_glide_posenum>  (371) 
33

>  <r_i_glide_eff_state_penalty>  (371) 
0

>  <ligand_id>  (371) 
93

>  <original_smiles>  (371) 
CC(C=CCC(C)C1CCC2(C)C3CC4C5(C)CCC(O)C(C)(C)C5CCC45C(=O)C5C3(C)CC(O)C12C)C(=O)O

>  <smiles>  (371) 
[H]OC1([H])C([H])([H])C([H])([H])C2(C([H])([H])[H])C3([H])C([H])([H])C4([H])C(C([H])([H])[H])(C([H])([H])C([H])(O[H])C5(C([H])([H])[H])C([H])(C([H])(C([H])([H])[H])C([H])([H])C([H])=C([H])C([H])(C(=O)[O-])C([H])([H])[H])C([H])([H])C([H])([H])C45C([H])([H])[H])C4([H])C(=O)C43C([H])([H])C([H])([H])C2([H])C1(C([H])([H])[H])C([H])([H])[H]

$$$$
93:7:1
     RDKit          3D

 96101  0  0  1  0  0  0  0  0999 V2000
   -4.0312    7.3197   -1.0149 C   0  0  0  0  0  0  0  0  0  0  0  0
   -3.8520    7.1759    0.4966 C   0  0  2  0  0  0  0  0  0  0  0  0
   -4.6659    6.0124    1.0335 C   0  0  0  0  0  0  0  0  0  0  0  0
   -4.2695    5.1131    1.9517 C   0  0  0  0  0  0  0  0  0  0  0  0
   -2.8770    4.9733    2.5841 C   0  0  0  0  0  0  0  0  0  0  0  0
   -2.2562    3.5634    2.6463 C   0  0  2  0  0  0  0  0  0  0  0  0
   -3.1960    2.5461    2.0230 C   0  0  0  0  0  0  0  0  0  0  0  0
   -1.6821    3.1325    4.0332 C   0  0  2  0  0  0  0  0  0  0  0  0
   -0.9084    4.2601    4.7388 C   0  0  0  0  0  0  0  0  0  0  0  0
    0.0866    3.6096    5.6879 C   0  0  0  0  0  0  0  0  0  0  0  0
   -0.1157    2.0845    5.6201 C   0  0  2  0  0  0  0  0  0  0  0  0
   -1.1820    1.7772    6.7223 C   0  0  0  0  0  0  0  0  0  0  0  0
    1.2519    1.3387    5.9470 C   0  0  1  0  0  0  0  0  0  0  0  0
    1.1094    0.0388    6.8747 C   0  0  0  0  0  0  0  0  0  0  0  0
    2.2935   -1.0134    6.9412 C   0  0  1  0  0  0  0  0  0  0  0  0
    1.9933   -2.3328    7.7509 C   0  0  2  0  0  0  0  0  0  0  0  0
    1.5398   -1.8787    9.1666 C   0  0  0  0  0  0  0  0  0  0  0  0
    3.2982   -3.1632    7.8962 C   0  0  0  0  0  0  0  0  0  0  0  0
    3.1041   -4.5436    8.5630 C   0  0  0  0  0  0  0  0  0  0  0  0
    2.0258   -5.3902    7.8645 C   0  0  1  0  0  0  0  0  0  0  0  0
    1.8449   -6.5784    8.5990 O   0  0  0  0  0  0  0  0  0  0  0  0
    0.6702   -4.6435    7.6834 C   0  0  0  0  0  0  0  0  0  0  0  0
   -0.2418   -5.5129    6.7815 C   0  0  0  0  0  0  0  0  0  0  0  0
   -0.0968   -4.5148    9.0293 C   0  0  0  0  0  0  0  0  0  0  0  0
    0.9331   -3.2404    7.0141 C   0  0  2  0  0  0  0  0  0  0  0  0
    1.3138   -3.3905    5.5209 C   0  0  0  0  0  0  0  0  0  0  0  0
    1.5724   -2.0543    4.8204 C   0  0  0  0  0  0  0  0  0  0  0  0
    2.6548   -1.2403    5.5035 C   0  0  2  0  0  0  0  0  0  0  0  0
    3.8633   -1.0704    4.6143 C   0  0  0  0  0  0  0  0  0  0  0  0
    4.7550   -1.5957    3.9207 O   0  0  0  0  0  0  0  0  0  0  0  0
    3.2525    0.1369    5.1741 C   0  0  1  0  0  0  0  0  0  0  0  0
    2.2546    1.1857    4.7282 C   0  0  2  0  0  0  0  0  0  0  0  0
    3.1134    2.4652    4.5309 C   0  0  0  0  0  0  0  0  0  0  0  0
    1.5445    0.8951    3.3880 C   0  0  0  0  0  0  0  0  0  0  0  0
    0.4145    1.8929    3.0931 C   0  0  1  0  0  0  0  0  0  0  0  0
   -0.0196    1.5718    1.7918 O   0  0  0  0  0  0  0  0  0  0  0  0
   -0.7276    1.8801    4.1678 C   0  0  2  0  0  0  0  0  0  0  0  0
   -1.5371    0.5592    4.0832 C   0  0  0  0  0  0  0  0  0  0  0  0
   -4.2147    8.4558    1.2776 C   0  0  0  0  0  0  0  0  0  0  0  0
   -3.7901    8.5434    2.4422 O   0  0  0  0  0  0  0  0  0  0  0  0
   -4.9730    9.2905    0.7089 O   0  0  0  0  0  0  0  0  0  0  0  0
   -5.0701    7.5063   -1.3008 H   0  0  0  0  0  0  0  0  0  0  0  0
   -3.7036    6.4117   -1.5302 H   0  0  0  0  0  0  0  0  0  0  0  0
   -3.4235    8.1427   -1.3957 H   0  0  0  0  0  0  0  0  0  0  0  0
   -2.7885    7.0188    0.6585 H   0  0  0  0  0  0  0  0  0  0  0  0
   -5.6753    5.9267    0.6538 H   0  0  0  0  0  0  0  0  0  0  0  0
   -5.0343    4.4079    2.2693 H   0  0  0  0  0  0  0  0  0  0  0  0
   -2.1352    5.6646    2.1810 H   0  0  0  0  0  0  0  0  0  0  0  0
   -2.9833    5.2410    3.6008 H   0  0  0  0  0  0  0  0  0  0  0  0
   -1.3764    3.6429    2.0685 H   0  0  0  0  0  0  0  0  0  0  0  0
   -4.0183    2.3601    2.7092 H   0  0  0  0  0  0  0  0  0  0  0  0
   -2.6092    1.6770    1.7286 H   0  0  0  0  0  0  0  0  0  0  0  0
   -3.6821    2.8359    1.0952 H   0  0  0  0  0  0  0  0  0  0  0  0
   -2.5702    2.9405    4.6310 H   0  0  0  0  0  0  0  0  0  0  0  0
   -0.3826    4.9006    4.0274 H   0  0  0  0  0  0  0  0  0  0  0  0
   -1.5907    4.8952    5.2980 H   0  0  0  0  0  0  0  0  0  0  0  0
    1.0827    3.9094    5.3829 H   0  0  0  0  0  0  0  0  0  0  0  0
   -0.0343    3.9888    6.7025 H   0  0  0  0  0  0  0  0  0  0  0  0
   -1.5319    0.7458    6.7185 H   0  0  0  0  0  0  0  0  0  0  0  0
   -2.0784    2.3879    6.6287 H   0  0  0  0  0  0  0  0  0  0  0  0
   -0.7883    1.9796    7.7188 H   0  0  0  0  0  0  0  0  0  0  0  0
    1.7698    2.0171    6.6389 H   0  0  0  0  0  0  0  0  0  0  0  0
    0.9691    0.4078    7.8855 H   0  0  0  0  0  0  0  0  0  0  0  0
    0.1880   -0.5035    6.6426 H   0  0  0  0  0  0  0  0  0  0  0  0
    3.1423   -0.5461    7.4529 H   0  0  0  0  0  0  0  0  0  0  0  0
    1.7010   -2.6240    9.9406 H   0  0  0  0  0  0  0  0  0  0  0  0
    0.4866   -1.6110    9.1921 H   0  0  0  0  0  0  0  0  0  0  0  0
    2.1029   -1.0082    9.5113 H   0  0  0  0  0  0  0  0  0  0  0  0
    3.7313   -3.3424    6.9115 H   0  0  0  0  0  0  0  0  0  0  0  0
    4.0590   -2.5982    8.4507 H   0  0  0  0  0  0  0  0  0  0  0  0
    4.0518   -5.0870    8.5322 H   0  0  0  0  0  0  0  0  0  0  0  0
    2.8791   -4.4270    9.6243 H   0  0  0  0  0  0  0  0  0  0  0  0
    2.4061   -5.6743    6.8860 H   0  0  0  0  0  0  0  0  0  0  0  0
    2.6525   -7.0860    8.5597 H   0  0  0  0  0  0  0  0  0  0  0  0
   -1.1394   -4.9737    6.4667 H   0  0  0  0  0  0  0  0  0  0  0  0
   -0.5690   -6.4231    7.2911 H   0  0  0  0  0  0  0  0  0  0  0  0
    0.2760   -5.8553    5.8889 H   0  0  0  0  0  0  0  0  0  0  0  0
   -0.7986   -3.6771    9.0249 H   0  0  0  0  0  0  0  0  0  0  0  0
    0.5674   -4.3887    9.8778 H   0  0  0  0  0  0  0  0  0  0  0  0
   -0.6785   -5.4113    9.2684 H   0  0  0  0  0  0  0  0  0  0  0  0
   -0.0192   -2.7159    7.0268 H   0  0  0  0  0  0  0  0  0  0  0  0
    2.1903   -4.0226    5.3883 H   0  0  0  0  0  0  0  0  0  0  0  0
    0.5076   -3.8625    4.9542 H   0  0  0  0  0  0  0  0  0  0  0  0
    1.8634   -2.2411    3.7867 H   0  0  0  0  0  0  0  0  0  0  0  0
    0.6302   -1.5121    4.7959 H   0  0  0  0  0  0  0  0  0  0  0  0
    3.8896    0.5977    5.9191 H   0  0  0  0  0  0  0  0  0  0  0  0
    3.9600    2.2645    3.8743 H   0  0  0  0  0  0  0  0  0  0  0  0
    3.5202    2.8488    5.4719 H   0  0  0  0  0  0  0  0  0  0  0  0
    2.5832    3.2894    4.0602 H   0  0  0  0  0  0  0  0  0  0  0  0
    2.2847    0.9309    2.5849 H   0  0  0  0  0  0  0  0  0  0  0  0
    1.1274   -0.0995    3.3238 H   0  0  0  0  0  0  0  0  0  0  0  0
    0.8216    2.9022    3.0040 H   0  0  0  0  0  0  0  0  0  0  0  0
   -0.1627    2.3887    1.3157 H   0  0  0  0  0  0  0  0  0  0  0  0
   -1.0590   -0.2438    4.6298 H   0  0  0  0  0  0  0  0  0  0  0  0
   -1.6682    0.2076    3.0640 H   0  0  0  0  0  0  0  0  0  0  0  0
   -2.5368    0.6742    4.4940 H   0  0  0  0  0  0  0  0  0  0  0  0
  1  2  1  0
  1 42  1  0
  1 43  1  0
  1 44  1  0
  2  3  1  0
  2 39  1  0
  2 45  1  6
  3  4  2  3
  3 46  1  0
  4  5  1  0
  4 47  1  0
  5  6  1  0
  5 48  1  0
  5 49  1  0
  6  7  1  0
  6  8  1  0
  6 50  1  6
  7 51  1  0
  7 52  1  0
  7 53  1  0
  8 37  1  0
  8  9  1  0
  8 54  1  1
  9 10  1  0
  9 55  1  0
  9 56  1  0
 10 11  1  0
 10 57  1  0
 10 58  1  0
 11 37  1  0
 11 12  1  1
 11 13  1  0
 12 59  1  0
 12 60  1  0
 12 61  1  0
 13 32  1  0
 13 14  1  0
 13 62  1  1
 14 15  1  0
 14 63  1  0
 14 64  1  0
 15 28  1  0
 15 16  1  0
 15 65  1  1
 16 25  1  0
 16 17  1  1
 16 18  1  0
 17 66  1  0
 17 67  1  0
 17 68  1  0
 18 19  1  0
 18 69  1  0
 18 70  1  0
 19 20  1  0
 19 71  1  0
 19 72  1  0
 20 21  1  0
 20 22  1  0
 20 73  1  6
 21 74  1  0
 22 23  1  0
 22 24  1  0
 22 25  1  0
 23 75  1  0
 23 76  1  0
 23 77  1  0
 24 78  1  0
 24 79  1  0
 24 80  1  0
 25 26  1  0
 25 81  1  6
 26 27  1  0
 26 82  1  0
 26 83  1  0
 28 27  1  6
 27 84  1  0
 27 85  1  0
 28 31  1  0
 28 29  1  0
 29 30  2  0
 29 31  1  0
 31 32  1  0
 31 86  1  1
 32 33  1  6
 32 34  1  0
 33 87  1  0
 33 88  1  0
 33 89  1  0
 34 35  1  0
 34 90  1  0
 34 91  1  0
 35 36  1  0
 35 37  1  0
 35 92  1  6
 36 93  1  0
 37 38  1  1
 38 94  1  0
 38 95  1  0
 38 96  1  0
 39 40  2  0
 39 41  1  0
M  CHG  1  41  -1
M  END
>  <i_m_ct_stereo_status>  (372) 
1

>  <s_m_source_file>  (372) 
/var/tmp/pbs.5076255.sched01/tmpt95b3wv2/135g3gtwtb2.sdf

>  <i_m_source_file_index>  (372) 
15

>  <i_lp_mmshare_version>  (372) 
48012

>  <i_f3d_flags>  (372) 
0

>  <s_epik_input>  (372) 
Tz1DKFtPSF0pW0NASF0oW0NIM10pL1tDSF09W0NIXS9bQ0gyXVtDQEhdKFtDSDNdKVtDQEhdKFtDSDJdW0NIMl0xKVtDQEBdKFtDSDNdKShbQ0BIXShbT0hdKVtDSDJdW0NAXTIoW0NIM10pW0NIXTNDND1PKVtDQEBdMShbQ0gzXSlbQ0BIXTJbQ0gyXVtDQEhdKEMzNDUpW0NAQF02KFtDSDNdKVtDQEBIXShbQ0gyXVtDSDJdNSlDKFtDSDNdKShbQ0gzXSlbQ0BIXShbT0hdKVtDSDJdW0NIMl02

>  <s_epik_cmdline>  (372) 
J2VwaWtfcHl0aG9uJywgJy1waHQnLCAnMi4wJywgJy1waCcsICc3LjAnLCAnLXRuJywgJzgnLCAnLW1hJywgJzIwMCcsICctaW1hZScsICc8aW5maWxlLm1hZT4nLCAnLW9tYWUnLCAnPG91dGZpbGUubWFlPic=

>  <r_epik_Ionization_Penalty>  (372) 
0.00149679

>  <r_epik_Ionization_Penalty_Charging>  (372) 
0.00149294

>  <r_epik_Ionization_Penalty_Neutral>  (372) 
3.85434e-06

>  <r_epik_State_Penalty>  (372) 
0.000999864

>  <r_epik_Charging_Adjusted_Penalty>  (372) 
0.0024928

>  <i_epik_Tot_Q>  (372) 
-1

>  <i_epik_Tot_abs_Q>  (372) 
1

>  <s_lp_Force_Field>  (372) 
OPLS3e

>  <r_lp_Energy>  (372) 
128.076

>  <b_lp_Chiralities_Consistent>  (372) 
1

>  <s_lp_Variant>  (372) 
93:0-8

>  <s_i_glide_gridfile>  (372) 
pfpi4k_grid

>  <i_i_glide_lignum>  (372) 
15

>  <i_i_glide_rotatable_bonds>  (372) 
7

>  <r_i_docking_score>  (372) 
-2.625

>  <r_i_glide_ligand_efficiency>  (372) 
-0.0640243

>  <r_i_glide_ligand_efficiency_sa>  (372) 
-0.22077

>  <r_i_glide_ligand_efficiency_ln>  (372) 
-0.556902

>  <r_i_glide_gscore>  (372) 
-2.625

>  <r_i_glide_lipo>  (372) 
-0.670032

>  <r_i_glide_hbond>  (372) 
-0.36

>  <r_i_glide_metal>  (372) 
-0

>  <r_i_glide_rewards>  (372) 
0

>  <r_i_glide_evdw>  (372) 
-18.6985

>  <r_i_glide_ecoul>  (372) 
-5.36988

>  <r_i_glide_erotb>  (372) 
0.170804

>  <r_i_glide_esite>  (372) 
-0.0253591

>  <r_i_glide_emodel>  (372) 
-26.857

>  <r_i_glide_energy>  (372) 
-24.0684

>  <r_i_glide_einternal>  (372) 
7.5031

>  <r_i_glide_intrahb_reward>  (372) 
-0

>  <i_i_glide_confnum>  (372) 
2

>  <i_i_glide_posenum>  (372) 
5

>  <r_i_glide_eff_state_penalty>  (372) 
0

>  <ligand_id>  (372) 
93

>  <original_smiles>  (372) 
CC(C=CCC(C)C1CCC2(C)C3CC4C5(C)CCC(O)C(C)(C)C5CCC45C(=O)C5C3(C)CC(O)C12C)C(=O)O

>  <smiles>  (372) 
[H]OC1([H])C([H])([H])C([H])([H])C2(C([H])([H])[H])C3([H])C([H])([H])C4([H])C(C([H])([H])[H])(C([H])([H])C([H])(O[H])C5(C([H])([H])[H])C([H])(C([H])(C([H])([H])[H])C([H])([H])C([H])=C([H])C([H])(C(=O)[O-])C([H])([H])[H])C([H])([H])C([H])([H])C45C([H])([H])[H])C4([H])C(=O)C43C([H])([H])C([H])([H])C2([H])C1(C([H])([H])[H])C([H])([H])[H]

$$$$
93:7:2
     RDKit          3D

 96101  0  0  1  0  0  0  0  0999 V2000
   -2.3687    3.1181    3.0802 C   0  0  0  0  0  0  0  0  0  0  0  0
   -1.4793    3.0535    4.3407 C   0  0  2  0  0  0  0  0  0  0  0  0
   -2.2890    2.6365    5.5651 C   0  0  0  0  0  0  0  0  0  0  0  0
   -2.1238    1.5623    6.3753 C   0  0  0  0  0  0  0  0  0  0  0  0
   -1.1014    0.4330    6.1967 C   0  0  0  0  0  0  0  0  0  0  0  0
    0.2815    0.6587    6.9203 C   0  0  2  0  0  0  0  0  0  0  0  0
    1.1293    1.7495    6.1796 C   0  0  0  0  0  0  0  0  0  0  0  0
    1.0394   -0.6837    7.2325 C   0  0  2  0  0  0  0  0  0  0  0  0
    2.4205   -0.4637    7.8994 C   0  0  0  0  0  0  0  0  0  0  0  0
    3.2700   -1.6626    7.5280 C   0  0  0  0  0  0  0  0  0  0  0  0
    2.3805   -2.6864    6.7843 C   0  0  2  0  0  0  0  0  0  0  0  0
    1.7824   -3.5609    7.9325 C   0  0  0  0  0  0  0  0  0  0  0  0
    3.2581   -3.5666    5.7924 C   0  0  1  0  0  0  0  0  0  0  0  0
    2.8896   -5.1171    5.7781 C   0  0  0  0  0  0  0  0  0  0  0  0
    3.3704   -6.0190    4.5751 C   0  0  1  0  0  0  0  0  0  0  0  0
    2.8170   -7.4970    4.5449 C   0  0  2  0  0  0  0  0  0  0  0  0
    3.1825   -8.1140    5.9209 C   0  0  0  0  0  0  0  0  0  0  0  0
    3.5257   -8.3082    3.4219 C   0  0  0  0  0  0  0  0  0  0  0  0
    2.9789   -9.7393    3.2293 C   0  0  0  0  0  0  0  0  0  0  0  0
    1.4515   -9.7621    3.0021 C   0  0  1  0  0  0  0  0  0  0  0  0
    1.0019  -11.1027    2.9103 O   0  0  0  0  0  0  0  0  0  0  0  0
    0.6400   -8.9714    4.0750 C   0  0  0  0  0  0  0  0  0  0  0  0
   -0.8251   -8.8733    3.5828 C   0  0  0  0  0  0  0  0  0  0  0  0
    0.6049   -9.7407    5.4230 C   0  0  0  0  0  0  0  0  0  0  0  0
    1.2632   -7.5292    4.2362 C   0  0  2  0  0  0  0  0  0  0  0  0
    0.9441   -6.6257    3.0091 C   0  0  0  0  0  0  0  0  0  0  0  0
    1.5117   -5.2152    3.1322 C   0  0  0  0  0  0  0  0  0  0  0  0
    3.0171   -5.2249    3.3360 C   0  0  2  0  0  0  0  0  0  0  0  0
    3.7412   -4.5861    2.1706 C   0  0  0  0  0  0  0  0  0  0  0  0
    3.9410   -4.5658    0.9487 O   0  0  0  0  0  0  0  0  0  0  0  0
    4.0338   -4.0626    3.5039 C   0  0  1  0  0  0  0  0  0  0  0  0
    3.5584   -2.9157    4.3736 C   0  0  2  0  0  0  0  0  0  0  0  0
    4.7586   -1.9325    4.4162 C   0  0  0  0  0  0  0  0  0  0  0  0
    2.3589   -2.1610    3.7883 C   0  0  0  0  0  0  0  0  0  0  0  0
    1.7739   -1.1502    4.7598 C   0  0  1  0  0  0  0  0  0  0  0  0
    0.7691   -0.4955    3.9945 O   0  0  0  0  0  0  0  0  0  0  0  0
    1.2673   -1.7765    6.1070 C   0  0  2  0  0  0  0  0  0  0  0  0
   -0.0513   -2.5696    5.8696 C   0  0  0  0  0  0  0  0  0  0  0  0
   -0.7863    4.4048    4.5820 C   0  0  0  0  0  0  0  0  0  0  0  0
   -0.0427    4.4995    5.5826 O   0  0  0  0  0  0  0  0  0  0  0  0
   -1.0324    5.2896    3.7354 O   0  0  0  0  0  0  0  0  0  0  0  0
   -3.1486    3.8728    3.1724 H   0  0  0  0  0  0  0  0  0  0  0  0
   -2.8575    2.1690    2.8654 H   0  0  0  0  0  0  0  0  0  0  0  0
   -1.7818    3.3729    2.1993 H   0  0  0  0  0  0  0  0  0  0  0  0
   -0.7299    2.2978    4.1326 H   0  0  0  0  0  0  0  0  0  0  0  0
   -3.1256    3.2824    5.7801 H   0  0  0  0  0  0  0  0  0  0  0  0
   -2.8045    1.4509    7.2202 H   0  0  0  0  0  0  0  0  0  0  0  0
   -1.5906   -0.4830    6.5711 H   0  0  0  0  0  0  0  0  0  0  0  0
   -0.9530    0.3055    5.1113 H   0  0  0  0  0  0  0  0  0  0  0  0
    0.0393    1.0887    7.8985 H   0  0  0  0  0  0  0  0  0  0  0  0
    1.5158    1.3514    5.2086 H   0  0  0  0  0  0  0  0  0  0  0  0
    1.9723    2.0930    6.8177 H   0  0  0  0  0  0  0  0  0  0  0  0
    0.4567    2.5779    6.0174 H   0  0  0  0  0  0  0  0  0  0  0  0
    0.4286   -1.1415    8.0223 H   0  0  0  0  0  0  0  0  0  0  0  0
    2.9706    0.3982    7.5280 H   0  0  0  0  0  0  0  0  0  0  0  0
    2.3301   -0.3031    8.9801 H   0  0  0  0  0  0  0  0  0  0  0  0
    4.0846   -1.3087    6.9038 H   0  0  0  0  0  0  0  0  0  0  0  0
    3.7412   -2.0801    8.4126 H   0  0  0  0  0  0  0  0  0  0  0  0
    1.0246   -4.2629    7.5981 H   0  0  0  0  0  0  0  0  0  0  0  0
    1.3141   -2.9757    8.7221 H   0  0  0  0  0  0  0  0  0  0  0  0
    2.5621   -4.1399    8.4209 H   0  0  0  0  0  0  0  0  0  0  0  0
    4.2511   -3.5939    6.2763 H   0  0  0  0  0  0  0  0  0  0  0  0
    3.3098   -5.5395    6.6715 H   0  0  0  0  0  0  0  0  0  0  0  0
    1.8008   -5.2528    5.8799 H   0  0  0  0  0  0  0  0  0  0  0  0
    4.4579   -6.1225    4.6213 H   0  0  0  0  0  0  0  0  0  0  0  0
    3.2526   -9.1941    5.9133 H   0  0  0  0  0  0  0  0  0  0  0  0
    2.4668   -7.8458    6.6943 H   0  0  0  0  0  0  0  0  0  0  0  0
    4.1628   -7.7842    6.2616 H   0  0  0  0  0  0  0  0  0  0  0  0
    3.4216   -7.7892    2.4727 H   0  0  0  0  0  0  0  0  0  0  0  0
    4.6008   -8.3567    3.6136 H   0  0  0  0  0  0  0  0  0  0  0  0
    3.4633  -10.1936    2.3639 H   0  0  0  0  0  0  0  0  0  0  0  0
    3.2499  -10.3709    4.0739 H   0  0  0  0  0  0  0  0  0  0  0  0
    1.2634   -9.3245    2.0179 H   0  0  0  0  0  0  0  0  0  0  0  0
    1.2230  -11.5662    3.7121 H   0  0  0  0  0  0  0  0  0  0  0  0
   -1.4174   -8.1963    4.1995 H   0  0  0  0  0  0  0  0  0  0  0  0
   -1.3178   -9.8429    3.5940 H   0  0  0  0  0  0  0  0  0  0  0  0
   -0.8963   -8.5475    2.5497 H   0  0  0  0  0  0  0  0  0  0  0  0
    0.4221   -9.0788    6.2687 H   0  0  0  0  0  0  0  0  0  0  0  0
    1.5065  -10.3063    5.6212 H   0  0  0  0  0  0  0  0  0  0  0  0
   -0.1707  -10.4921    5.4475 H   0  0  0  0  0  0  0  0  0  0  0  0
    0.7492   -7.0741    5.0820 H   0  0  0  0  0  0  0  0  0  0  0  0
    1.3063   -7.0768    2.0847 H   0  0  0  0  0  0  0  0  0  0  0  0
   -0.1327   -6.5093    2.8903 H   0  0  0  0  0  0  0  0  0  0  0  0
    1.2896   -4.6634    2.2317 H   0  0  0  0  0  0  0  0  0  0  0  0
    1.0002   -4.7302    3.9532 H   0  0  0  0  0  0  0  0  0  0  0  0
    5.0353   -4.3144    3.8244 H   0  0  0  0  0  0  0  0  0  0  0  0
    5.1033   -1.6898    3.4096 H   0  0  0  0  0  0  0  0  0  0  0  0
    5.6035   -2.3493    4.9621 H   0  0  0  0  0  0  0  0  0  0  0  0
    4.5387   -0.9791    4.8738 H   0  0  0  0  0  0  0  0  0  0  0  0
    2.6739   -1.6399    2.8829 H   0  0  0  0  0  0  0  0  0  0  0  0
    1.5303   -2.7856    3.4857 H   0  0  0  0  0  0  0  0  0  0  0  0
    2.5485   -0.4244    5.0048 H   0  0  0  0  0  0  0  0  0  0  0  0
    1.2395    0.0336    3.3612 H   0  0  0  0  0  0  0  0  0  0  0  0
    0.1622   -3.5674    5.5069 H   0  0  0  0  0  0  0  0  0  0  0  0
   -0.7088   -2.0995    5.1411 H   0  0  0  0  0  0  0  0  0  0  0  0
   -0.6352   -2.6852    6.7835 H   0  0  0  0  0  0  0  0  0  0  0  0
  1  2  1  0
  1 42  1  0
  1 43  1  0
  1 44  1  0
  2  3  1  0
  2 39  1  0
  2 45  1  6
  3  4  2  3
  3 46  1  0
  4  5  1  0
  4 47  1  0
  5  6  1  0
  5 48  1  0
  5 49  1  0
  6  7  1  0
  6  8  1  0
  6 50  1  1
  7 51  1  0
  7 52  1  0
  7 53  1  0
  8 37  1  0
  8  9  1  0
  8 54  1  1
  9 10  1  0
  9 55  1  0
  9 56  1  0
 10 11  1  0
 10 57  1  0
 10 58  1  0
 11 37  1  0
 11 12  1  1
 11 13  1  0
 12 59  1  0
 12 60  1  0
 12 61  1  0
 13 32  1  0
 13 14  1  0
 13 62  1  1
 14 15  1  0
 14 63  1  0
 14 64  1  0
 15 28  1  0
 15 16  1  0
 15 65  1  1
 16 25  1  0
 16 17  1  1
 16 18  1  0
 17 66  1  0
 17 67  1  0
 17 68  1  0
 18 19  1  0
 18 69  1  0
 18 70  1  0
 19 20  1  0
 19 71  1  0
 19 72  1  0
 20 21  1  0
 20 22  1  0
 20 73  1  6
 21 74  1  0
 22 23  1  0
 22 24  1  0
 22 25  1  0
 23 75  1  0
 23 76  1  0
 23 77  1  0
 24 78  1  0
 24 79  1  0
 24 80  1  0
 25 26  1  0
 25 81  1  1
 26 27  1  0
 26 82  1  0
 26 83  1  0
 28 27  1  6
 27 84  1  0
 27 85  1  0
 28 31  1  0
 28 29  1  0
 29 30  2  0
 29 31  1  0
 31 32  1  0
 31 86  1  1
 32 33  1  1
 32 34  1  0
 33 87  1  0
 33 88  1  0
 33 89  1  0
 34 35  1  0
 34 90  1  0
 34 91  1  0
 35 36  1  0
 35 37  1  0
 35 92  1  1
 36 93  1  0
 37 38  1  6
 38 94  1  0
 38 95  1  0
 38 96  1  0
 39 40  2  0
 39 41  1  0
M  CHG  1  41  -1
M  END
>  <i_m_ct_stereo_status>  (373) 
1

>  <s_m_source_file>  (373) 
/var/tmp/pbs.5076255.sched01/tmpt95b3wv2/135g3gtwtb2.sdf

>  <i_m_source_file_index>  (373) 
15

>  <i_lp_mmshare_version>  (373) 
48012

>  <i_f3d_flags>  (373) 
0

>  <s_epik_input>  (373) 
Tz1DKFtPSF0pW0NASF0oW0NIM10pL1tDSF09W0NIXS9bQ0gyXVtDQEhdKFtDSDNdKVtDQEhdKFtDSDJdW0NIMl0xKVtDQEBdKFtDSDNdKShbQ0BIXShbT0hdKVtDSDJdW0NAXTIoW0NIM10pW0NIXTNDND1PKVtDQEBdMShbQ0gzXSlbQ0BIXTJbQ0gyXVtDQEhdKEMzNDUpW0NAQF02KFtDSDNdKVtDQEBIXShbQ0gyXVtDSDJdNSlDKFtDSDNdKShbQ0gzXSlbQ0BIXShbT0hdKVtDSDJdW0NIMl02

>  <s_epik_cmdline>  (373) 
J2VwaWtfcHl0aG9uJywgJy1waHQnLCAnMi4wJywgJy1waCcsICc3LjAnLCAnLXRuJywgJzgnLCAnLW1hJywgJzIwMCcsICctaW1hZScsICc8aW5maWxlLm1hZT4nLCAnLW9tYWUnLCAnPG91dGZpbGUubWFlPic=

>  <r_epik_Ionization_Penalty>  (373) 
0.00149679

>  <r_epik_Ionization_Penalty_Charging>  (373) 
0.00149294

>  <r_epik_Ionization_Penalty_Neutral>  (373) 
3.85434e-06

>  <r_epik_State_Penalty>  (373) 
0.000999864

>  <r_epik_Charging_Adjusted_Penalty>  (373) 
0.0024928

>  <i_epik_Tot_Q>  (373) 
-1

>  <i_epik_Tot_abs_Q>  (373) 
1

>  <s_lp_Force_Field>  (373) 
OPLS3e

>  <r_lp_Energy>  (373) 
128.076

>  <b_lp_Chiralities_Consistent>  (373) 
1

>  <s_lp_Variant>  (373) 
93:0-8

>  <s_i_glide_gridfile>  (373) 
pfpi4k_grid

>  <i_i_glide_lignum>  (373) 
15

>  <i_i_glide_rotatable_bonds>  (373) 
7

>  <r_i_docking_score>  (373) 
-1.30344

>  <r_i_glide_ligand_efficiency>  (373) 
-0.0317911

>  <r_i_glide_ligand_efficiency_sa>  (373) 
-0.109623

>  <r_i_glide_ligand_efficiency_ln>  (373) 
-0.276528

>  <r_i_glide_gscore>  (373) 
-1.30344

>  <r_i_glide_lipo>  (373) 
-0.132934

>  <r_i_glide_hbond>  (373) 
-0.158614

>  <r_i_glide_metal>  (373) 
-0

>  <r_i_glide_rewards>  (373) 
-0.00348737

>  <r_i_glide_evdw>  (373) 
-21.7844

>  <r_i_glide_ecoul>  (373) 
-0.924385

>  <r_i_glide_erotb>  (373) 
0.170804

>  <r_i_glide_esite>  (373) 
-0.0587694

>  <r_i_glide_emodel>  (373) 
-19.1252

>  <r_i_glide_energy>  (373) 
-22.7088

>  <r_i_glide_einternal>  (373) 
6.59117

>  <r_i_glide_intrahb_reward>  (373) 
-0

>  <i_i_glide_confnum>  (373) 
3

>  <i_i_glide_posenum>  (373) 
3

>  <r_i_glide_eff_state_penalty>  (373) 
0

>  <ligand_id>  (373) 
93

>  <original_smiles>  (373) 
CC(C=CCC(C)C1CCC2(C)C3CC4C5(C)CCC(O)C(C)(C)C5CCC45C(=O)C5C3(C)CC(O)C12C)C(=O)O

>  <smiles>  (373) 
[H]OC1([H])C([H])([H])C([H])([H])C2(C([H])([H])[H])C3([H])C([H])([H])C4([H])C(C([H])([H])[H])(C([H])([H])C([H])(O[H])C5(C([H])([H])[H])C([H])(C([H])(C([H])([H])[H])C([H])([H])C([H])=C([H])C([H])(C(=O)[O-])C([H])([H])[H])C([H])([H])C([H])([H])C45C([H])([H])[H])C4([H])C(=O)C43C([H])([H])C([H])([H])C2([H])C1(C([H])([H])[H])C([H])([H])[H]

$$$$
94:0:0
     RDKit          3D

 49 54  0  0  1  0  0  0  0  0999 V2000
    5.3473   -5.6941    4.3330 C   0  0  0  0  0  0  0  0  0  0  0  0
    4.9333   -4.4510    3.7730 O   0  0  0  0  0  0  0  0  0  0  0  0
    4.5693   -4.4064    2.3867 C   0  0  1  0  0  0  0  0  0  0  0  0
    5.8781   -4.7645    1.5943 C   0  0  0  0  0  0  0  0  0  0  0  0
    5.9788   -4.3578    0.1122 C   0  0  0  0  0  0  0  0  0  0  0  0
    5.2631   -3.0297   -0.1593 C   0  0  0  0  0  0  0  0  0  0  0  0
    5.6829   -2.0503   -0.8594 N   0  0  0  0  0  0  0  0  0  0  0  0
    6.9852   -2.2804   -1.3853 O   0  0  0  0  0  0  0  0  0  0  0  0
    3.8857   -3.0136    0.5233 C   0  0  1  0  0  0  0  0  0  0  0  0
    3.0898   -4.2269   -0.0903 C   0  0  0  0  0  0  0  0  0  0  0  0
    2.8952   -5.4728    0.7847 C   0  0  0  0  0  0  0  0  0  0  0  0
    1.7228   -6.2538    0.6352 C   0  0  0  0  0  0  0  0  0  0  0  0
    0.9375   -6.5854    1.7600 C   0  0  0  0  0  0  0  0  0  0  0  0
    1.1772   -5.8940    2.9620 C   0  0  0  0  0  0  0  0  0  0  0  0
    0.2224   -5.8818    3.9393 O   0  0  0  0  0  0  0  0  0  0  0  0
    2.3132   -5.0752    3.0739 C   0  0  0  0  0  0  0  0  0  0  0  0
    3.3031   -5.2229    2.0901 C   0  0  0  0  0  0  0  0  0  0  0  0
    2.3089   -3.9101    3.7959 O   0  0  0  0  0  0  0  0  0  0  0  0
    2.6859   -2.7828    2.9533 C   0  0  1  0  0  0  0  0  0  0  0  0
    2.7184   -1.5694    3.8962 C   0  0  1  0  0  0  0  0  0  0  0  0
    3.6495   -1.8687    5.0450 C   0  0  0  0  0  0  0  0  0  0  0  0
    4.9013   -1.5705    4.7019 C   0  0  0  0  0  0  0  0  0  0  0  0
    4.9188   -0.9990    3.3122 C   0  0  1  0  0  0  0  0  0  0  0  0
    5.8647    0.0234    3.2449 O   0  0  0  0  0  0  0  0  0  0  0  0
    5.1216   -2.0256    2.3842 O   0  0  0  0  0  0  0  0  0  0  0  0
    4.0584   -2.9880    2.1044 C   0  0  1  0  0  0  0  0  0  0  0  0
    3.4782   -0.4476    3.1908 C   0  0  1  0  0  0  0  0  0  0  0  0
    3.0506   -0.0876    1.8909 O   0  0  0  0  0  0  0  0  0  0  0  0
    5.4687   -5.5757    5.4101 H   0  0  0  0  0  0  0  0  0  0  0  0
    6.3128   -6.0265    3.9546 H   0  0  0  0  0  0  0  0  0  0  0  0
    4.6149   -6.4842    4.1748 H   0  0  0  0  0  0  0  0  0  0  0  0
    6.6908   -4.2246    2.0804 H   0  0  0  0  0  0  0  0  0  0  0  0
    6.1361   -5.8187    1.7035 H   0  0  0  0  0  0  0  0  0  0  0  0
    7.0230   -4.3315   -0.1888 H   0  0  0  0  0  0  0  0  0  0  0  0
    5.5260   -5.1449   -0.4854 H   0  0  0  0  0  0  0  0  0  0  0  0
    7.1320   -3.2001   -1.1942 H   0  0  0  0  0  0  0  0  0  0  0  0
    3.3986   -2.0899    0.2050 H   0  0  0  0  0  0  0  0  0  0  0  0
    2.0977   -3.8518   -0.3252 H   0  0  0  0  0  0  0  0  0  0  0  0
    3.4769   -4.5199   -1.0676 H   0  0  0  0  0  0  0  0  0  0  0  0
    1.3338   -6.4786   -0.3445 H   0  0  0  0  0  0  0  0  0  0  0  0
    0.0382   -7.1638    1.6393 H   0  0  0  0  0  0  0  0  0  0  0  0
    0.5283   -5.4034    4.6959 H   0  0  0  0  0  0  0  0  0  0  0  0
    1.8741   -2.6185    2.2418 H   0  0  0  0  0  0  0  0  0  0  0  0
    1.7293   -1.2680    4.2523 H   0  0  0  0  0  0  0  0  0  0  0  0
    3.3484   -2.2909    5.9813 H   0  0  0  0  0  0  0  0  0  0  0  0
    5.7816   -1.6816    5.3124 H   0  0  0  0  0  0  0  0  0  0  0  0
    6.7129   -0.3734    3.0841 H   0  0  0  0  0  0  0  0  0  0  0  0
    3.4270    0.4408    3.8160 H   0  0  0  0  0  0  0  0  0  0  0  0
    2.1574    0.2263    1.9354 H   0  0  0  0  0  0  0  0  0  0  0  0
  1  2  1  0
  1 29  1  0
  1 30  1  0
  1 31  1  0
  3  2  1  1
  3 17  1  0
  3 26  1  0
  3  4  1  0
  4  5  1  0
  4 32  1  0
  4 33  1  0
  5  6  1  0
  5 34  1  0
  5 35  1  0
  6  7  2  3
  6  9  1  0
  7  8  1  0
  8 36  1  0
  9 26  1  0
  9 10  1  0
  9 37  1  6
 10 11  1  0
 10 38  1  0
 10 39  1  0
 11 17  2  0
 11 12  1  0
 12 13  2  0
 12 40  1  0
 13 14  1  0
 13 41  1  0
 14 15  1  0
 14 16  2  0
 15 42  1  0
 16 17  1  0
 16 18  1  0
 18 19  1  0
 19 26  1  0
 19 20  1  0
 19 43  1  6
 20 27  1  0
 20 21  1  0
 20 44  1  1
 21 22  2  0
 21 45  1  0
 22 23  1  0
 22 46  1  0
 23 24  1  1
 23 25  1  0
 23 27  1  0
 24 47  1  0
 26 25  1  6
 27 28  1  0
 27 48  1  1
 28 49  1  0
M  END
>  <i_m_ct_stereo_status>  (374) 
1

>  <s_m_source_file>  (374) 
/var/tmp/pbs.5076255.sched01/tmpt95b3wv2/135g3gtwtb2.sdf

>  <i_m_source_file_index>  (374) 
16

>  <i_lp_mmshare_version>  (374) 
48012

>  <i_f3d_flags>  (374) 
0

>  <s_epik_input>  (374) 
W0NIMl0xW0NIMl0vQyg9TlxbT0hdKVtDQEhdMltDSDJdYyhjM1tDQEBdMShbQ0BAXTI0NSlPW0NIM10pW2NIXVtjSF1jKFtPSF0pYzNPW0NASF00W0NASF02W0NIXT1bQ0hdW0NAXShPNSkoW09IXSlbQ0BIXTZbT0hd

>  <s_epik_cmdline>  (374) 
J2VwaWtfcHl0aG9uJywgJy1waHQnLCAnMi4wJywgJy1waCcsICc3LjAnLCAnLXRuJywgJzgnLCAnLW1hJywgJzIwMCcsICctaW1hZScsICc8aW5maWxlLm1hZT4nLCAnLW9tYWUnLCAnPG91dGZpbGUubWFlPic=

>  <r_lp_tautomer_probability>  (374) 
1

>  <r_epik_Ionization_Penalty>  (374) 
0.000453868

>  <r_epik_Ionization_Penalty_Charging>  (374) 
0

>  <r_epik_Ionization_Penalty_Neutral>  (374) 
0.000453868

>  <r_epik_State_Penalty>  (374) 
0.000215155

>  <r_epik_Charging_Adjusted_Penalty>  (374) 
0.000215155

>  <i_epik_Tot_Q>  (374) 
0

>  <i_epik_Tot_abs_Q>  (374) 
0

>  <s_epik_Chemistry_Notes>  (374) 
This compound has an imine and may undergo hydrolysis.

>  <s_lp_Force_Field>  (374) 
OPLS3e

>  <r_lp_Energy>  (374) 
122.533

>  <b_lp_Chiralities_Consistent>  (374) 
1

>  <s_lp_Variant>  (374) 
94:0-1

>  <s_i_glide_gridfile>  (374) 
pfpi4k_grid

>  <i_i_glide_lignum>  (374) 
16

>  <i_i_glide_rotatable_bonds>  (374) 
5

>  <r_i_docking_score>  (374) 
-2.75504

>  <r_i_glide_ligand_efficiency>  (374) 
-0.0983943

>  <r_i_glide_ligand_efficiency_sa>  (374) 
-0.298783

>  <r_i_glide_ligand_efficiency_ln>  (374) 
-0.635944

>  <r_i_glide_gscore>  (374) 
-2.75504

>  <r_i_glide_lipo>  (374) 
-0.192604

>  <r_i_glide_hbond>  (374) 
0

>  <r_i_glide_metal>  (374) 
-0

>  <r_i_glide_rewards>  (374) 
-0.935726

>  <r_i_glide_evdw>  (374) 
-19.8854

>  <r_i_glide_ecoul>  (374) 
-4.33287

>  <r_i_glide_erotb>  (374) 
0.129764

>  <r_i_glide_esite>  (374) 
-0.112276

>  <r_i_glide_emodel>  (374) 
-28.0899

>  <r_i_glide_energy>  (374) 
-24.2182

>  <r_i_glide_einternal>  (374) 
0.503955

>  <r_i_glide_intrahb_reward>  (374) 
-0

>  <i_i_glide_confnum>  (374) 
3

>  <i_i_glide_posenum>  (374) 
24

>  <r_i_glide_eff_state_penalty>  (374) 
0

>  <ligand_id>  (374) 
94

>  <original_smiles>  (374) 
COC12CCC(=NO)C3Cc4ccc(O)c(c41)OC1C4C=CC(O)(OC312)C4O

>  <smiles>  (374) 
[H]ON=C1C([H])([H])C([H])([H])C2(OC([H])([H])[H])c3c4c(O[H])c([H])c([H])c3C([H])([H])C1([H])C21OC2(O[H])C([H])=C([H])C([H])(C2([H])O[H])C1([H])O4

$$$$
94:0:1
     RDKit          3D

 49 54  0  0  1  0  0  0  0  0999 V2000
    6.2412   -5.2377    2.2960 C   0  0  0  0  0  0  0  0  0  0  0  0
    5.5577   -4.0405    1.9649 O   0  0  0  0  0  0  0  0  0  0  0  0
    4.6503   -4.1085    0.8585 C   0  0  1  0  0  0  0  0  0  0  0  0
    5.5604   -4.3582   -0.4019 C   0  0  0  0  0  0  0  0  0  0  0  0
    5.0455   -3.9521   -1.7939 C   0  0  0  0  0  0  0  0  0  0  0  0
    4.1022   -2.7550   -1.7509 C   0  0  0  0  0  0  0  0  0  0  0  0
    3.9775   -1.8181   -2.5936 N   0  0  0  0  0  0  0  0  0  0  0  0
    4.8265   -2.0358   -3.6821 O   0  0  0  0  0  0  0  0  0  0  0  0
    3.1714   -2.8318   -0.5486 C   0  0  1  0  0  0  0  0  0  0  0  0
    2.2560   -4.0901   -0.8055 C   0  0  0  0  0  0  0  0  0  0  0  0
    2.5164   -5.3326    0.1071 C   0  0  0  0  0  0  0  0  0  0  0  0
    1.4824   -6.2409    0.4775 C   0  0  0  0  0  0  0  0  0  0  0  0
    1.2779   -6.5509    1.8392 C   0  0  0  0  0  0  0  0  0  0  0  0
    1.9131   -5.7800    2.8089 C   0  0  0  0  0  0  0  0  0  0  0  0
    1.4984   -5.7953    4.1072 O   0  0  0  0  0  0  0  0  0  0  0  0
    2.9390   -4.8931    2.4240 C   0  0  0  0  0  0  0  0  0  0  0  0
    3.4418   -5.0365    1.1185 C   0  0  0  0  0  0  0  0  0  0  0  0
    3.1333   -3.7134    3.0731 O   0  0  0  0  0  0  0  0  0  0  0  0
    3.0206   -2.6019    2.1455 C   0  0  1  0  0  0  0  0  0  0  0  0
    3.3417   -1.3420    2.9638 C   0  0  1  0  0  0  0  0  0  0  0  0
    4.7134   -1.5014    3.5869 C   0  0  0  0  0  0  0  0  0  0  0  0
    5.6466   -1.1301    2.7159 C   0  0  0  0  0  0  0  0  0  0  0  0
    5.0063   -0.6895    1.4399 C   0  0  1  0  0  0  0  0  0  0  0  0
    5.7730    0.2778    0.8498 O   0  0  0  0  0  0  0  0  0  0  0  0
    4.8943   -1.7598    0.5930 O   0  0  0  0  0  0  0  0  0  0  0  0
    3.9307   -2.7769    0.8227 C   0  0  1  0  0  0  0  0  0  0  0  0
    3.6329   -0.2061    1.9775 C   0  0  1  0  0  0  0  0  0  0  0  0
    2.6375    0.1323    1.0349 O   0  0  0  0  0  0  0  0  0  0  0  0
    6.7918   -5.0645    3.2136 H   0  0  0  0  0  0  0  0  0  0  0  0
    6.9697   -5.5370    1.5422 H   0  0  0  0  0  0  0  0  0  0  0  0
    5.5518   -6.0578    2.4857 H   0  0  0  0  0  0  0  0  0  0  0  0
    6.4538   -3.7483   -0.2762 H   0  0  0  0  0  0  0  0  0  0  0  0
    5.8738   -5.4033   -0.4260 H   0  0  0  0  0  0  0  0  0  0  0  0
    5.8379   -3.8422   -2.5373 H   0  0  0  0  0  0  0  0  0  0  0  0
    4.4874   -4.7996   -2.1199 H   0  0  0  0  0  0  0  0  0  0  0  0
    5.3042   -2.7940   -3.3902 H   0  0  0  0  0  0  0  0  0  0  0  0
    2.6266   -1.9078   -0.6108 H   0  0  0  0  0  0  0  0  0  0  0  0
    1.2265   -3.7811   -0.6793 H   0  0  0  0  0  0  0  0  0  0  0  0
    2.2116   -4.2865   -1.8884 H   0  0  0  0  0  0  0  0  0  0  0  0
    0.7515   -6.5436   -0.2371 H   0  0  0  0  0  0  0  0  0  0  0  0
    0.4734   -7.1954    2.1248 H   0  0  0  0  0  0  0  0  0  0  0  0
    2.0276   -5.2304    4.6411 H   0  0  0  0  0  0  0  0  0  0  0  0
    1.9807   -2.5118    1.8308 H   0  0  0  0  0  0  0  0  0  0  0  0
    2.5870   -1.0767    3.7102 H   0  0  0  0  0  0  0  0  0  0  0  0
    4.8933   -1.8711    4.5850 H   0  0  0  0  0  0  0  0  0  0  0  0
    6.7083   -1.0608    2.8770 H   0  0  0  0  0  0  0  0  0  0  0  0
    5.1995    0.7751    0.2647 H   0  0  0  0  0  0  0  0  0  0  0  0
    3.8224    0.7023    2.5538 H   0  0  0  0  0  0  0  0  0  0  0  0
    2.3994   -0.6199    0.5071 H   0  0  0  0  0  0  0  0  0  0  0  0
  1  2  1  0
  1 29  1  0
  1 30  1  0
  1 31  1  0
  3  2  1  1
  3 17  1  0
  3 26  1  0
  3  4  1  0
  4  5  1  0
  4 32  1  0
  4 33  1  0
  5  6  1  0
  5 34  1  0
  5 35  1  0
  6  7  2  3
  6  9  1  0
  7  8  1  0
  8 36  1  0
  9 26  1  0
  9 10  1  0
  9 37  1  1
 10 11  1  0
 10 38  1  0
 10 39  1  0
 11 17  2  0
 11 12  1  0
 12 13  2  0
 12 40  1  0
 13 14  1  0
 13 41  1  0
 14 15  1  0
 14 16  2  0
 15 42  1  0
 16 17  1  0
 16 18  1  0
 18 19  1  0
 19 26  1  0
 19 20  1  0
 19 43  1  6
 20 27  1  0
 20 21  1  0
 20 44  1  1
 21 22  2  0
 21 45  1  0
 22 23  1  0
 22 46  1  0
 23 24  1  6
 23 25  1  0
 23 27  1  0
 24 47  1  0
 26 25  1  6
 27 28  1  0
 27 48  1  1
 28 49  1  0
M  END
>  <i_m_ct_stereo_status>  (375) 
1

>  <s_m_source_file>  (375) 
/var/tmp/pbs.5076255.sched01/tmpt95b3wv2/135g3gtwtb2.sdf

>  <i_m_source_file_index>  (375) 
16

>  <i_lp_mmshare_version>  (375) 
48012

>  <i_f3d_flags>  (375) 
0

>  <s_epik_input>  (375) 
W0NIMl0xW0NIMl0vQyg9TlxbT0hdKVtDQEhdMltDSDJdYyhjM1tDQEBdMShbQ0BAXTI0NSlPW0NIM10pW2NIXVtjSF1jKFtPSF0pYzNPW0NASF00W0NASF02W0NIXT1bQ0hdW0NAXShPNSkoW09IXSlbQ0BIXTZbT0hd

>  <s_epik_cmdline>  (375) 
J2VwaWtfcHl0aG9uJywgJy1waHQnLCAnMi4wJywgJy1waCcsICc3LjAnLCAnLXRuJywgJzgnLCAnLW1hJywgJzIwMCcsICctaW1hZScsICc8aW5maWxlLm1hZT4nLCAnLW9tYWUnLCAnPG91dGZpbGUubWFlPic=

>  <r_lp_tautomer_probability>  (375) 
1

>  <r_epik_Ionization_Penalty>  (375) 
0.000453868

>  <r_epik_Ionization_Penalty_Charging>  (375) 
0

>  <r_epik_Ionization_Penalty_Neutral>  (375) 
0.000453868

>  <r_epik_State_Penalty>  (375) 
0.000215155

>  <r_epik_Charging_Adjusted_Penalty>  (375) 
0.000215155

>  <i_epik_Tot_Q>  (375) 
0

>  <i_epik_Tot_abs_Q>  (375) 
0

>  <s_epik_Chemistry_Notes>  (375) 
This compound has an imine and may undergo hydrolysis.

>  <s_lp_Force_Field>  (375) 
OPLS3e

>  <r_lp_Energy>  (375) 
122.533

>  <b_lp_Chiralities_Consistent>  (375) 
1

>  <s_lp_Variant>  (375) 
94:0-1

>  <s_i_glide_gridfile>  (375) 
pfpi4k_grid

>  <i_i_glide_lignum>  (375) 
16

>  <i_i_glide_rotatable_bonds>  (375) 
5

>  <r_i_docking_score>  (375) 
-2.62171

>  <r_i_glide_ligand_efficiency>  (375) 
-0.0936327

>  <r_i_glide_ligand_efficiency_sa>  (375) 
-0.284324

>  <r_i_glide_ligand_efficiency_ln>  (375) 
-0.605169

>  <r_i_glide_gscore>  (375) 
-2.62171

>  <r_i_glide_lipo>  (375) 
-0.278089

>  <r_i_glide_hbond>  (375) 
0

>  <r_i_glide_metal>  (375) 
-0

>  <r_i_glide_rewards>  (375) 
-0.962851

>  <r_i_glide_evdw>  (375) 
-7.06982

>  <r_i_glide_ecoul>  (375) 
-7.48839

>  <r_i_glide_erotb>  (375) 
0.129764

>  <r_i_glide_esite>  (375) 
-0.0337899

>  <r_i_glide_emodel>  (375) 
-17.0164

>  <r_i_glide_energy>  (375) 
-14.5582

>  <r_i_glide_einternal>  (375) 
0.268712

>  <r_i_glide_intrahb_reward>  (375) 
-0

>  <i_i_glide_confnum>  (375) 
3

>  <i_i_glide_posenum>  (375) 
1

>  <r_i_glide_eff_state_penalty>  (375) 
0

>  <ligand_id>  (375) 
94

>  <original_smiles>  (375) 
COC12CCC(=NO)C3Cc4ccc(O)c(c41)OC1C4C=CC(O)(OC312)C4O

>  <smiles>  (375) 
[H]ON=C1C([H])([H])C([H])([H])C2(OC([H])([H])[H])c3c4c(O[H])c([H])c([H])c3C([H])([H])C1([H])C21OC2(O[H])C([H])=C([H])C([H])(C2([H])O[H])C1([H])O4

$$$$
94:0:2
     RDKit          3D

 49 54  0  0  1  0  0  0  0  0999 V2000
    6.4734   -5.2573    2.3664 C   0  0  0  0  0  0  0  0  0  0  0  0
    5.7777   -4.0678    2.0256 O   0  0  0  0  0  0  0  0  0  0  0  0
    4.8204   -4.1550    0.9721 C   0  0  1  0  0  0  0  0  0  0  0  0
    5.6906   -4.4290   -0.3058 C   0  0  0  0  0  0  0  0  0  0  0  0
    5.1288   -4.0679   -1.6775 C   0  0  0  0  0  0  0  0  0  0  0  0
    4.1725   -2.8766   -1.6196 C   0  0  0  0  0  0  0  0  0  0  0  0
    4.0591   -1.9358   -2.4679 N   0  0  0  0  0  0  0  0  0  0  0  0
    5.0006   -2.1182   -3.5223 O   0  0  0  0  0  0  0  0  0  0  0  0
    3.2824   -2.9272   -0.3990 C   0  0  1  0  0  0  0  0  0  0  0  0
    2.4322   -4.2241   -0.5595 C   0  0  0  0  0  0  0  0  0  0  0  0
    2.7325   -5.4580    0.3168 C   0  0  0  0  0  0  0  0  0  0  0  0
    1.6803   -6.3002    0.7444 C   0  0  0  0  0  0  0  0  0  0  0  0
    1.5198   -6.6082    2.1081 C   0  0  0  0  0  0  0  0  0  0  0  0
    2.2130   -5.8207    3.0629 C   0  0  0  0  0  0  0  0  0  0  0  0
    1.8212   -5.8295    4.3608 O   0  0  0  0  0  0  0  0  0  0  0  0
    3.1969   -4.9215    2.6293 C   0  0  0  0  0  0  0  0  0  0  0  0
    3.6510   -5.0741    1.3186 C   0  0  0  0  0  0  0  0  0  0  0  0
    3.4185   -3.7127    3.2478 O   0  0  0  0  0  0  0  0  0  0  0  0
    3.2364   -2.6377    2.2907 C   0  0  1  0  0  0  0  0  0  0  0  0
    3.5608   -1.3748    3.0840 C   0  0  1  0  0  0  0  0  0  0  0  0
    4.9476   -1.4910    3.6363 C   0  0  0  0  0  0  0  0  0  0  0  0
    5.8208   -1.0930    2.7134 C   0  0  0  0  0  0  0  0  0  0  0  0
    5.1284   -0.7272    1.4440 C   0  0  1  0  0  0  0  0  0  0  0  0
    5.8313    0.2243    0.7852 O   0  0  0  0  0  0  0  0  0  0  0  0
    5.0381   -1.8607    0.6644 O   0  0  0  0  0  0  0  0  0  0  0  0
    4.0804   -2.8451    0.9361 C   0  0  1  0  0  0  0  0  0  0  0  0
    3.7782   -0.2679    2.0733 C   0  0  1  0  0  0  0  0  0  0  0  0
    2.7786    0.0463    1.1628 O   0  0  0  0  0  0  0  0  0  0  0  0
    7.0514   -5.0560    3.2621 H   0  0  0  0  0  0  0  0  0  0  0  0
    7.1807   -5.5828    1.6034 H   0  0  0  0  0  0  0  0  0  0  0  0
    5.7982   -6.0775    2.6024 H   0  0  0  0  0  0  0  0  0  0  0  0
    6.5705   -3.8000   -0.2519 H   0  0  0  0  0  0  0  0  0  0  0  0
    6.0397   -5.4609   -0.3012 H   0  0  0  0  0  0  0  0  0  0  0  0
    5.8714   -3.9831   -2.4701 H   0  0  0  0  0  0  0  0  0  0  0  0
    4.6309   -4.9774   -1.9362 H   0  0  0  0  0  0  0  0  0  0  0  0
    5.3724   -2.9666   -3.2989 H   0  0  0  0  0  0  0  0  0  0  0  0
    2.6440   -2.0521   -0.4775 H   0  0  0  0  0  0  0  0  0  0  0  0
    1.4559   -3.9066   -0.2987 H   0  0  0  0  0  0  0  0  0  0  0  0
    2.2137   -4.4853   -1.5827 H   0  0  0  0  0  0  0  0  0  0  0  0
    0.9197   -6.6398    0.0473 H   0  0  0  0  0  0  0  0  0  0  0  0
    0.7377   -7.2769    2.4158 H   0  0  0  0  0  0  0  0  0  0  0  0
    1.1424   -6.4574    4.5309 H   0  0  0  0  0  0  0  0  0  0  0  0
    2.1826   -2.5760    2.0133 H   0  0  0  0  0  0  0  0  0  0  0  0
    2.8437   -1.1092    3.8534 H   0  0  0  0  0  0  0  0  0  0  0  0
    5.1932   -1.8444    4.6148 H   0  0  0  0  0  0  0  0  0  0  0  0
    6.8741   -0.9474    2.8313 H   0  0  0  0  0  0  0  0  0  0  0  0
    5.2548    0.6686    0.1855 H   0  0  0  0  0  0  0  0  0  0  0  0
    4.0111    0.6434    2.6039 H   0  0  0  0  0  0  0  0  0  0  0  0
    3.1320    0.6986    0.5784 H   0  0  0  0  0  0  0  0  0  0  0  0
  1  2  1  0
  1 29  1  0
  1 30  1  0
  1 31  1  0
  3  2  1  1
  3 17  1  0
  3 26  1  0
  3  4  1  0
  4  5  1  0
  4 32  1  0
  4 33  1  0
  5  6  1  0
  5 34  1  0
  5 35  1  0
  6  7  2  3
  6  9  1  0
  7  8  1  0
  8 36  1  0
  9 26  1  0
  9 10  1  0
  9 37  1  6
 10 11  1  0
 10 38  1  0
 10 39  1  0
 11 17  2  0
 11 12  1  0
 12 13  2  0
 12 40  1  0
 13 14  1  0
 13 41  1  0
 14 15  1  0
 14 16  2  0
 15 42  1  0
 16 17  1  0
 16 18  1  0
 18 19  1  0
 19 26  1  0
 19 20  1  0
 19 43  1  6
 20 27  1  0
 20 21  1  0
 20 44  1  1
 21 22  2  0
 21 45  1  0
 22 23  1  0
 22 46  1  0
 23 24  1  6
 23 25  1  0
 23 27  1  0
 24 47  1  0
 26 25  1  6
 27 28  1  0
 27 48  1  1
 28 49  1  0
M  END
>  <i_m_ct_stereo_status>  (376) 
1

>  <s_m_source_file>  (376) 
/var/tmp/pbs.5076255.sched01/tmpt95b3wv2/135g3gtwtb2.sdf

>  <i_m_source_file_index>  (376) 
16

>  <i_lp_mmshare_version>  (376) 
48012

>  <i_f3d_flags>  (376) 
0

>  <s_epik_input>  (376) 
W0NIMl0xW0NIMl0vQyg9TlxbT0hdKVtDQEhdMltDSDJdYyhjM1tDQEBdMShbQ0BAXTI0NSlPW0NIM10pW2NIXVtjSF1jKFtPSF0pYzNPW0NASF00W0NASF02W0NIXT1bQ0hdW0NAXShPNSkoW09IXSlbQ0BIXTZbT0hd

>  <s_epik_cmdline>  (376) 
J2VwaWtfcHl0aG9uJywgJy1waHQnLCAnMi4wJywgJy1waCcsICc3LjAnLCAnLXRuJywgJzgnLCAnLW1hJywgJzIwMCcsICctaW1hZScsICc8aW5maWxlLm1hZT4nLCAnLW9tYWUnLCAnPG91dGZpbGUubWFlPic=

>  <r_lp_tautomer_probability>  (376) 
1

>  <r_epik_Ionization_Penalty>  (376) 
0.000453868

>  <r_epik_Ionization_Penalty_Charging>  (376) 
0

>  <r_epik_Ionization_Penalty_Neutral>  (376) 
0.000453868

>  <r_epik_State_Penalty>  (376) 
0.000215155

>  <r_epik_Charging_Adjusted_Penalty>  (376) 
0.000215155

>  <i_epik_Tot_Q>  (376) 
0

>  <i_epik_Tot_abs_Q>  (376) 
0

>  <s_epik_Chemistry_Notes>  (376) 
This compound has an imine and may undergo hydrolysis.

>  <s_lp_Force_Field>  (376) 
OPLS3e

>  <r_lp_Energy>  (376) 
122.533

>  <b_lp_Chiralities_Consistent>  (376) 
1

>  <s_lp_Variant>  (376) 
94:0-1

>  <s_i_glide_gridfile>  (376) 
pfpi4k_grid

>  <i_i_glide_lignum>  (376) 
16

>  <i_i_glide_rotatable_bonds>  (376) 
5

>  <r_i_docking_score>  (376) 
-2.19714

>  <r_i_glide_ligand_efficiency>  (376) 
-0.0784693

>  <r_i_glide_ligand_efficiency_sa>  (376) 
-0.238279

>  <r_i_glide_ligand_efficiency_ln>  (376) 
-0.507165

>  <r_i_glide_gscore>  (376) 
-2.19714

>  <r_i_glide_lipo>  (376) 
-0.310198

>  <r_i_glide_hbond>  (376) 
0

>  <r_i_glide_metal>  (376) 
-0

>  <r_i_glide_rewards>  (376) 
-0.969203

>  <r_i_glide_evdw>  (376) 
-9.39949

>  <r_i_glide_ecoul>  (376) 
-3.60894

>  <r_i_glide_erotb>  (376) 
0.129764

>  <r_i_glide_esite>  (376) 
-0.0361889

>  <r_i_glide_emodel>  (376) 
-14.5895

>  <r_i_glide_energy>  (376) 
-13.0084

>  <r_i_glide_einternal>  (376) 
0.421476

>  <r_i_glide_intrahb_reward>  (376) 
-0

>  <i_i_glide_confnum>  (376) 
3

>  <i_i_glide_posenum>  (376) 
5

>  <r_i_glide_eff_state_penalty>  (376) 
0

>  <ligand_id>  (376) 
94

>  <original_smiles>  (376) 
COC12CCC(=NO)C3Cc4ccc(O)c(c41)OC1C4C=CC(O)(OC312)C4O

>  <smiles>  (376) 
[H]ON=C1C([H])([H])C([H])([H])C2(OC([H])([H])[H])c3c4c(O[H])c([H])c([H])c3C([H])([H])C1([H])C21OC2(O[H])C([H])=C([H])C([H])(C2([H])O[H])C1([H])O4

$$$$
94:1:0
     RDKit          3D

 49 54  0  0  1  0  0  0  0  0999 V2000
    8.0995   -3.6485   -0.6975 C   0  0  0  0  0  0  0  0  0  0  0  0
    6.8705   -3.8300    0.0061 O   0  0  0  0  0  0  0  0  0  0  0  0
    5.9677   -2.7178    0.1328 C   0  0  1  0  0  0  0  0  0  0  0  0
    6.7810   -1.6124    0.8616 C   0  0  0  0  0  0  0  0  0  0  0  0
    6.0046   -0.5118    1.5970 C   0  0  0  0  0  0  0  0  0  0  0  0
    4.7188   -0.9992    2.1928 C   0  0  0  0  0  0  0  0  0  0  0  0
    4.4147   -0.6546    3.3770 N   0  0  0  0  0  0  0  0  0  0  0  0
    3.1825   -1.2268    3.7746 O   0  0  0  0  0  0  0  0  0  0  0  0
    3.9511   -1.8671    1.1981 C   0  0  1  0  0  0  0  0  0  0  0  0
    3.7244   -0.9372   -0.0558 C   0  0  0  0  0  0  0  0  0  0  0  0
    4.5775   -1.1445   -1.3220 C   0  0  0  0  0  0  0  0  0  0  0  0
    4.0508   -0.8873   -2.6089 C   0  0  0  0  0  0  0  0  0  0  0  0
    4.0899   -1.8824   -3.6054 C   0  0  0  0  0  0  0  0  0  0  0  0
    4.4433   -3.2022   -3.2280 C   0  0  0  0  0  0  0  0  0  0  0  0
    4.1667   -4.2501   -4.0586 O   0  0  0  0  0  0  0  0  0  0  0  0
    4.9278   -3.4498   -1.9333 C   0  0  0  0  0  0  0  0  0  0  0  0
    5.3086   -2.3391   -1.1830 C   0  0  0  0  0  0  0  0  0  0  0  0
    4.6576   -4.6032   -1.2328 O   0  0  0  0  0  0  0  0  0  0  0  0
    3.9882   -4.3056    0.0231 C   0  0  1  0  0  0  0  0  0  0  0  0
    3.7949   -5.6641    0.7159 C   0  0  1  0  0  0  0  0  0  0  0  0
    5.1245   -6.3479    0.8404 C   0  0  0  0  0  0  0  0  0  0  0  0
    5.7712   -5.9334    1.9233 C   0  0  0  0  0  0  0  0  0  0  0  0
    4.8965   -4.9769    2.6847 C   0  0  1  0  0  0  0  0  0  0  0  0
    5.0640   -5.1608    4.0737 O   0  0  0  0  0  0  0  0  0  0  0  0
    5.1648   -3.6707    2.2503 O   0  0  0  0  0  0  0  0  0  0  0  0
    4.7542   -3.2086    0.9301 C   0  0  1  0  0  0  0  0  0  0  0  0
    3.4960   -5.4225    2.1915 C   0  0  1  0  0  0  0  0  0  0  0  0
    2.4145   -4.5550    2.4660 O   0  0  0  0  0  0  0  0  0  0  0  0
    8.6089   -4.6091   -0.7864 H   0  0  0  0  0  0  0  0  0  0  0  0
    8.8024   -3.0057   -0.1669 H   0  0  0  0  0  0  0  0  0  0  0  0
    7.9432   -3.2522   -1.7027 H   0  0  0  0  0  0  0  0  0  0  0  0
    7.3169   -2.1386    1.6644 H   0  0  0  0  0  0  0  0  0  0  0  0
    7.5475   -1.1576    0.2271 H   0  0  0  0  0  0  0  0  0  0  0  0
    6.6092   -0.1510    2.4311 H   0  0  0  0  0  0  0  0  0  0  0  0
    5.8146    0.3107    0.9131 H   0  0  0  0  0  0  0  0  0  0  0  0
    3.0885   -0.8788    4.6503 H   0  0  0  0  0  0  0  0  0  0  0  0
    2.9737   -2.0874    1.6235 H   0  0  0  0  0  0  0  0  0  0  0  0
    2.6943   -1.1000   -0.3505 H   0  0  0  0  0  0  0  0  0  0  0  0
    3.7491    0.1177    0.2075 H   0  0  0  0  0  0  0  0  0  0  0  0
    3.4324   -0.0099   -2.7807 H   0  0  0  0  0  0  0  0  0  0  0  0
    3.6215   -1.7039   -4.5600 H   0  0  0  0  0  0  0  0  0  0  0  0
    3.8363   -4.9761   -3.5263 H   0  0  0  0  0  0  0  0  0  0  0  0
    2.9953   -3.9217   -0.2231 H   0  0  0  0  0  0  0  0  0  0  0  0
    3.0577   -6.2981    0.2183 H   0  0  0  0  0  0  0  0  0  0  0  0
    5.4765   -7.0537    0.1212 H   0  0  0  0  0  0  0  0  0  0  0  0
    6.7507   -6.2587    2.2382 H   0  0  0  0  0  0  0  0  0  0  0  0
    5.9590   -4.9442    4.2850 H   0  0  0  0  0  0  0  0  0  0  0  0
    3.2728   -6.3816    2.6549 H   0  0  0  0  0  0  0  0  0  0  0  0
    2.6979   -3.6795    2.2555 H   0  0  0  0  0  0  0  0  0  0  0  0
  1  2  1  0
  1 29  1  0
  1 30  1  0
  1 31  1  0
  3  2  1  6
  3 17  1  0
  3 26  1  0
  3  4  1  0
  4  5  1  0
  4 32  1  0
  4 33  1  0
  5  6  1  0
  5 34  1  0
  5 35  1  0
  6  7  2  3
  6  9  1  0
  7  8  1  0
  8 36  1  0
  9 26  1  0
  9 10  1  0
  9 37  1  1
 10 11  1  0
 10 38  1  0
 10 39  1  0
 11 17  2  0
 11 12  1  0
 12 13  2  0
 12 40  1  0
 13 14  1  0
 13 41  1  0
 14 15  1  0
 14 16  2  0
 15 42  1  0
 16 17  1  0
 16 18  1  0
 18 19  1  0
 19 26  1  0
 19 20  1  0
 19 43  1  6
 20 27  1  0
 20 21  1  0
 20 44  1  6
 21 22  2  0
 21 45  1  0
 22 23  1  0
 22 46  1  0
 23 24  1  1
 23 25  1  0
 23 27  1  0
 24 47  1  0
 26 25  1  1
 27 28  1  0
 27 48  1  1
 28 49  1  0
M  END
>  <i_m_ct_stereo_status>  (377) 
1

>  <s_m_source_file>  (377) 
/var/tmp/pbs.5076255.sched01/tmpt95b3wv2/135g3gtwtb2.sdf

>  <i_m_source_file_index>  (377) 
17

>  <i_lp_mmshare_version>  (377) 
48012

>  <i_f3d_flags>  (377) 
0

>  <s_epik_input>  (377) 
W0NIMl0xW0NIMl0vQyg9TlxbT0hdKVtDQEhdMltDSDJdYyhjM1tDQEBdMShbQ0BAXTI0NSlPW0NIM10pW2NIXVtjSF1jKFtPSF0pYzNPW0NASF00W0NASF02W0NIXT1bQ0hdW0NAXShPNSkoW09IXSlbQ0BIXTZbT0hd

>  <s_epik_cmdline>  (377) 
J2VwaWtfcHl0aG9uJywgJy1waHQnLCAnMi4wJywgJy1waCcsICc3LjAnLCAnLXRuJywgJzgnLCAnLW1hJywgJzIwMCcsICctaW1hZScsICc8aW5maWxlLm1hZT4nLCAnLW9tYWUnLCAnPG91dGZpbGUubWFlPic=

>  <r_lp_tautomer_probability>  (377) 
1

>  <r_epik_Ionization_Penalty>  (377) 
0.000453868

>  <r_epik_Ionization_Penalty_Charging>  (377) 
0

>  <r_epik_Ionization_Penalty_Neutral>  (377) 
0.000453868

>  <r_epik_State_Penalty>  (377) 
0.000215155

>  <r_epik_Charging_Adjusted_Penalty>  (377) 
0.000215155

>  <i_epik_Tot_Q>  (377) 
0

>  <i_epik_Tot_abs_Q>  (377) 
0

>  <s_epik_Chemistry_Notes>  (377) 
This compound has an imine and may undergo hydrolysis.

>  <s_lp_Force_Field>  (377) 
OPLS3e

>  <r_lp_Energy>  (377) 
122.257

>  <b_lp_Chiralities_Consistent>  (377) 
1

>  <s_lp_Variant>  (377) 
94:0-2

>  <s_i_glide_gridfile>  (377) 
pfpi4k_grid

>  <i_i_glide_lignum>  (377) 
17

>  <i_i_glide_rotatable_bonds>  (377) 
5

>  <r_i_docking_score>  (377) 
-3.65074

>  <r_i_glide_ligand_efficiency>  (377) 
-0.130384

>  <r_i_glide_ligand_efficiency_sa>  (377) 
-0.395922

>  <r_i_glide_ligand_efficiency_ln>  (377) 
-0.842699

>  <r_i_glide_gscore>  (377) 
-3.65074

>  <r_i_glide_lipo>  (377) 
-0.874364

>  <r_i_glide_hbond>  (377) 
0

>  <r_i_glide_metal>  (377) 
-0

>  <r_i_glide_rewards>  (377) 
-0.887516

>  <r_i_glide_evdw>  (377) 
-23.246

>  <r_i_glide_ecoul>  (377) 
-5.70885

>  <r_i_glide_erotb>  (377) 
0.129764

>  <r_i_glide_esite>  (377) 
0

>  <r_i_glide_emodel>  (377) 
-33.9587

>  <r_i_glide_energy>  (377) 
-28.9549

>  <r_i_glide_einternal>  (377) 
1.33547

>  <r_i_glide_intrahb_reward>  (377) 
-0

>  <i_i_glide_confnum>  (377) 
4

>  <i_i_glide_posenum>  (377) 
2

>  <r_i_glide_eff_state_penalty>  (377) 
0

>  <ligand_id>  (377) 
94

>  <original_smiles>  (377) 
COC12CCC(=NO)C3Cc4ccc(O)c(c41)OC1C4C=CC(O)(OC312)C4O

>  <smiles>  (377) 
[H]ON=C1C([H])([H])C([H])([H])C2(OC([H])([H])[H])c3c4c(O[H])c([H])c([H])c3C([H])([H])C1([H])C21OC2(O[H])C([H])=C([H])C([H])(C2([H])O[H])C1([H])O4

$$$$
94:1:1
     RDKit          3D

 49 54  0  0  1  0  0  0  0  0999 V2000
    5.3489   -3.4780    5.6708 C   0  0  0  0  0  0  0  0  0  0  0  0
    4.9830   -3.0475    4.3607 O   0  0  0  0  0  0  0  0  0  0  0  0
    4.3323   -3.9899    3.4835 C   0  0  1  0  0  0  0  0  0  0  0  0
    5.3856   -5.1395    3.2674 C   0  0  0  0  0  0  0  0  0  0  0  0
    5.2049   -6.0532    2.0497 C   0  0  0  0  0  0  0  0  0  0  0  0
    4.6643   -5.2979    0.8602 C   0  0  0  0  0  0  0  0  0  0  0  0
    5.1973   -5.4619   -0.2766 N   0  0  0  0  0  0  0  0  0  0  0  0
    4.5606   -4.6261   -1.2474 O   0  0  0  0  0  0  0  0  0  0  0  0
    3.4905   -4.3965    1.2522 C   0  0  1  0  0  0  0  0  0  0  0  0
    2.4270   -5.3892    1.8523 C   0  0  0  0  0  0  0  0  0  0  0  0
    2.2316   -5.4601    3.3777 C   0  0  0  0  0  0  0  0  0  0  0  0
    0.9703   -5.7470    3.9543 C   0  0  0  0  0  0  0  0  0  0  0  0
    0.4022   -4.8734    4.9115 C   0  0  0  0  0  0  0  0  0  0  0  0
    0.9833   -3.5838    5.0823 C   0  0  0  0  0  0  0  0  0  0  0  0
    0.2680   -2.5976    5.6885 O   0  0  0  0  0  0  0  0  0  0  0  0
    2.2260   -3.2890    4.4915 C   0  0  0  0  0  0  0  0  0  0  0  0
    2.9236   -4.3743    3.9613 C   0  0  0  0  0  0  0  0  0  0  0  0
    2.5261   -2.0463    3.9911 O   0  0  0  0  0  0  0  0  0  0  0  0
    2.8654   -2.1219    2.5872 C   0  0  1  0  0  0  0  0  0  0  0  0
    3.2579   -0.6843    2.2094 C   0  0  1  0  0  0  0  0  0  0  0  0
    4.3796   -0.2277    3.1125 C   0  0  0  0  0  0  0  0  0  0  0  0
    5.5560   -0.6255    2.6244 C   0  0  0  0  0  0  0  0  0  0  0  0
    5.3424   -1.3560    1.3212 C   0  0  1  0  0  0  0  0  0  0  0  0
    6.3531   -1.0864    0.3678 O   0  0  0  0  0  0  0  0  0  0  0  0
    5.1774   -2.7111    1.6172 O   0  0  0  0  0  0  0  0  0  0  0  0
    3.9755   -3.2317    2.2106 C   0  0  1  0  0  0  0  0  0  0  0  0
    4.0011   -0.7458    0.8780 C   0  0  1  0  0  0  0  0  0  0  0  0
    3.4121   -1.3786   -0.2325 O   0  0  0  0  0  0  0  0  0  0  0  0
    5.7195   -2.6197    6.2325 H   0  0  0  0  0  0  0  0  0  0  0  0
    6.1589   -4.2086    5.6686 H   0  0  0  0  0  0  0  0  0  0  0  0
    4.5038   -3.8880    6.2240 H   0  0  0  0  0  0  0  0  0  0  0  0
    6.3508   -4.6595    3.1000 H   0  0  0  0  0  0  0  0  0  0  0  0
    5.5166   -5.7496    4.1595 H   0  0  0  0  0  0  0  0  0  0  0  0
    6.1499   -6.5347    1.7890 H   0  0  0  0  0  0  0  0  0  0  0  0
    4.5320   -6.8683    2.3056 H   0  0  0  0  0  0  0  0  0  0  0  0
    4.0709   -5.2582   -1.7736 H   0  0  0  0  0  0  0  0  0  0  0  0
    3.0562   -3.9697    0.3501 H   0  0  0  0  0  0  0  0  0  0  0  0
    1.4603   -5.0976    1.4504 H   0  0  0  0  0  0  0  0  0  0  0  0
    2.5273   -6.4178    1.4865 H   0  0  0  0  0  0  0  0  0  0  0  0
    0.3585   -6.5328    3.5427 H   0  0  0  0  0  0  0  0  0  0  0  0
   -0.5750   -5.0651    5.3083 H   0  0  0  0  0  0  0  0  0  0  0  0
    0.7391   -1.7808    5.6563 H   0  0  0  0  0  0  0  0  0  0  0  0
    1.9469   -2.3524    2.0482 H   0  0  0  0  0  0  0  0  0  0  0  0
    2.4244    0.0185    2.2066 H   0  0  0  0  0  0  0  0  0  0  0  0
    4.2158    0.3145    4.0336 H   0  0  0  0  0  0  0  0  0  0  0  0
    6.5206   -0.4300    3.0754 H   0  0  0  0  0  0  0  0  0  0  0  0
    6.0160   -1.5043   -0.4042 H   0  0  0  0  0  0  0  0  0  0  0  0
    4.2035    0.2870    0.5684 H   0  0  0  0  0  0  0  0  0  0  0  0
    2.5159   -1.0625   -0.3444 H   0  0  0  0  0  0  0  0  0  0  0  0
  1  2  1  0
  1 29  1  0
  1 30  1  0
  1 31  1  0
  3  2  1  1
  3 17  1  0
  3 26  1  0
  3  4  1  0
  4  5  1  0
  4 32  1  0
  4 33  1  0
  5  6  1  0
  5 34  1  0
  5 35  1  0
  6  7  2  3
  6  9  1  0
  7  8  1  0
  8 36  1  0
  9 26  1  0
  9 10  1  0
  9 37  1  6
 10 11  1  0
 10 38  1  0
 10 39  1  0
 11 17  2  0
 11 12  1  0
 12 13  2  0
 12 40  1  0
 13 14  1  0
 13 41  1  0
 14 15  1  0
 14 16  2  0
 15 42  1  0
 16 17  1  0
 16 18  1  0
 18 19  1  0
 19 26  1  0
 19 20  1  0
 19 43  1  6
 20 27  1  0
 20 21  1  0
 20 44  1  6
 21 22  2  0
 21 45  1  0
 22 23  1  0
 22 46  1  0
 23 24  1  6
 23 25  1  0
 23 27  1  0
 24 47  1  0
 26 25  1  6
 27 28  1  0
 27 48  1  6
 28 49  1  0
M  END
>  <i_m_ct_stereo_status>  (378) 
1

>  <s_m_source_file>  (378) 
/var/tmp/pbs.5076255.sched01/tmpt95b3wv2/135g3gtwtb2.sdf

>  <i_m_source_file_index>  (378) 
17

>  <i_lp_mmshare_version>  (378) 
48012

>  <i_f3d_flags>  (378) 
0

>  <s_epik_input>  (378) 
W0NIMl0xW0NIMl0vQyg9TlxbT0hdKVtDQEhdMltDSDJdYyhjM1tDQEBdMShbQ0BAXTI0NSlPW0NIM10pW2NIXVtjSF1jKFtPSF0pYzNPW0NASF00W0NASF02W0NIXT1bQ0hdW0NAXShPNSkoW09IXSlbQ0BIXTZbT0hd

>  <s_epik_cmdline>  (378) 
J2VwaWtfcHl0aG9uJywgJy1waHQnLCAnMi4wJywgJy1waCcsICc3LjAnLCAnLXRuJywgJzgnLCAnLW1hJywgJzIwMCcsICctaW1hZScsICc8aW5maWxlLm1hZT4nLCAnLW9tYWUnLCAnPG91dGZpbGUubWFlPic=

>  <r_lp_tautomer_probability>  (378) 
1

>  <r_epik_Ionization_Penalty>  (378) 
0.000453868

>  <r_epik_Ionization_Penalty_Charging>  (378) 
0

>  <r_epik_Ionization_Penalty_Neutral>  (378) 
0.000453868

>  <r_epik_State_Penalty>  (378) 
0.000215155

>  <r_epik_Charging_Adjusted_Penalty>  (378) 
0.000215155

>  <i_epik_Tot_Q>  (378) 
0

>  <i_epik_Tot_abs_Q>  (378) 
0

>  <s_epik_Chemistry_Notes>  (378) 
This compound has an imine and may undergo hydrolysis.

>  <s_lp_Force_Field>  (378) 
OPLS3e

>  <r_lp_Energy>  (378) 
122.257

>  <b_lp_Chiralities_Consistent>  (378) 
1

>  <s_lp_Variant>  (378) 
94:0-2

>  <s_i_glide_gridfile>  (378) 
pfpi4k_grid

>  <i_i_glide_lignum>  (378) 
17

>  <i_i_glide_rotatable_bonds>  (378) 
5

>  <r_i_docking_score>  (378) 
-3.52672

>  <r_i_glide_ligand_efficiency>  (378) 
-0.125954

>  <r_i_glide_ligand_efficiency_sa>  (378) 
-0.382472

>  <r_i_glide_ligand_efficiency_ln>  (378) 
-0.814071

>  <r_i_glide_gscore>  (378) 
-3.52672

>  <r_i_glide_lipo>  (378) 
-0.228016

>  <r_i_glide_hbond>  (378) 
-0.304

>  <r_i_glide_metal>  (378) 
-0

>  <r_i_glide_rewards>  (378) 
-1.00119

>  <r_i_glide_evdw>  (378) 
-17.7744

>  <r_i_glide_ecoul>  (378) 
-7.97104

>  <r_i_glide_erotb>  (378) 
0.129764

>  <r_i_glide_esite>  (378) 
-0.0389102

>  <r_i_glide_emodel>  (378) 
-30.352

>  <r_i_glide_energy>  (378) 
-25.7454

>  <r_i_glide_einternal>  (378) 
2.47505

>  <r_i_glide_intrahb_reward>  (378) 
-0

>  <i_i_glide_confnum>  (378) 
2

>  <i_i_glide_posenum>  (378) 
21

>  <r_i_glide_eff_state_penalty>  (378) 
0

>  <ligand_id>  (378) 
94

>  <original_smiles>  (378) 
COC12CCC(=NO)C3Cc4ccc(O)c(c41)OC1C4C=CC(O)(OC312)C4O

>  <smiles>  (378) 
[H]ON=C1C([H])([H])C([H])([H])C2(OC([H])([H])[H])c3c4c(O[H])c([H])c([H])c3C([H])([H])C1([H])C21OC2(O[H])C([H])=C([H])C([H])(C2([H])O[H])C1([H])O4

$$$$
94:1:2
     RDKit          3D

 49 54  0  0  1  0  0  0  0  0999 V2000
    5.3423   -3.4742    5.6754 C   0  0  0  0  0  0  0  0  0  0  0  0
    4.9855   -3.0484    4.3618 O   0  0  0  0  0  0  0  0  0  0  0  0
    4.3449   -3.9889    3.4828 C   0  0  1  0  0  0  0  0  0  0  0  0
    5.3999   -5.1352    3.2639 C   0  0  0  0  0  0  0  0  0  0  0  0
    5.2212   -6.0588    2.0507 C   0  0  0  0  0  0  0  0  0  0  0  0
    4.6786   -5.3000    0.8568 C   0  0  0  0  0  0  0  0  0  0  0  0
    5.1995   -5.4591   -0.2880 N   0  0  0  0  0  0  0  0  0  0  0  0
    4.5734   -4.6393   -1.2537 O   0  0  0  0  0  0  0  0  0  0  0  0
    3.4916   -4.4089    1.2498 C   0  0  1  0  0  0  0  0  0  0  0  0
    2.4224   -5.4054    1.8451 C   0  0  0  0  0  0  0  0  0  0  0  0
    2.2387   -5.4503    3.3728 C   0  0  0  0  0  0  0  0  0  0  0  0
    0.9825   -5.7536    3.9437 C   0  0  0  0  0  0  0  0  0  0  0  0
    0.4058   -4.8799    4.8953 C   0  0  0  0  0  0  0  0  0  0  0  0
    0.9744   -3.6021    5.0689 C   0  0  0  0  0  0  0  0  0  0  0  0
    0.2590   -2.6094    5.6718 O   0  0  0  0  0  0  0  0  0  0  0  0
    2.2180   -3.3051    4.4780 C   0  0  0  0  0  0  0  0  0  0  0  0
    2.9434   -4.3857    3.9619 C   0  0  0  0  0  0  0  0  0  0  0  0
    2.5213   -2.0620    3.9915 O   0  0  0  0  0  0  0  0  0  0  0  0
    2.8660   -2.1242    2.5773 C   0  0  1  0  0  0  0  0  0  0  0  0
    3.2574   -0.6908    2.1953 C   0  0  1  0  0  0  0  0  0  0  0  0
    4.3646   -0.2273    3.1118 C   0  0  0  0  0  0  0  0  0  0  0  0
    5.5403   -0.6180    2.6345 C   0  0  0  0  0  0  0  0  0  0  0  0
    5.3505   -1.3352    1.3265 C   0  0  1  0  0  0  0  0  0  0  0  0
    6.4007   -1.0340    0.4328 O   0  0  0  0  0  0  0  0  0  0  0  0
    5.2012   -2.7067    1.5858 O   0  0  0  0  0  0  0  0  0  0  0  0
    3.9863   -3.2322    2.2005 C   0  0  1  0  0  0  0  0  0  0  0  0
    4.0091   -0.7337    0.8629 C   0  0  1  0  0  0  0  0  0  0  0  0
    3.3990   -1.3899   -0.2282 O   0  0  0  0  0  0  0  0  0  0  0  0
    5.7088   -2.6153    6.2382 H   0  0  0  0  0  0  0  0  0  0  0  0
    6.1505   -4.2066    5.6788 H   0  0  0  0  0  0  0  0  0  0  0  0
    4.4934   -3.8831    6.2235 H   0  0  0  0  0  0  0  0  0  0  0  0
    6.3642   -4.6546    3.1053 H   0  0  0  0  0  0  0  0  0  0  0  0
    5.5242   -5.7460    4.1582 H   0  0  0  0  0  0  0  0  0  0  0  0
    6.1653   -6.5347    1.7912 H   0  0  0  0  0  0  0  0  0  0  0  0
    4.5476   -6.8696    2.3069 H   0  0  0  0  0  0  0  0  0  0  0  0
    4.0665   -5.2665   -1.7690 H   0  0  0  0  0  0  0  0  0  0  0  0
    3.0613   -3.9740    0.3475 H   0  0  0  0  0  0  0  0  0  0  0  0
    1.4568   -5.1128    1.4390 H   0  0  0  0  0  0  0  0  0  0  0  0
    2.5370   -6.4279    1.4803 H   0  0  0  0  0  0  0  0  0  0  0  0
    0.3690   -6.5459    3.5279 H   0  0  0  0  0  0  0  0  0  0  0  0
   -0.5730   -5.0823    5.2911 H   0  0  0  0  0  0  0  0  0  0  0  0
    0.7243   -1.7869    5.6380 H   0  0  0  0  0  0  0  0  0  0  0  0
    1.9503   -2.3638    2.0392 H   0  0  0  0  0  0  0  0  0  0  0  0
    2.4160    0.0059    2.1962 H   0  0  0  0  0  0  0  0  0  0  0  0
    4.1982    0.3130    4.0306 H   0  0  0  0  0  0  0  0  0  0  0  0
    6.5026   -0.4341    3.0838 H   0  0  0  0  0  0  0  0  0  0  0  0
    7.2117   -1.1955    0.8869 H   0  0  0  0  0  0  0  0  0  0  0  0
    4.1979    0.2929    0.5514 H   0  0  0  0  0  0  0  0  0  0  0  0
    2.5045   -1.0636   -0.3375 H   0  0  0  0  0  0  0  0  0  0  0  0
  1  2  1  0
  1 29  1  0
  1 30  1  0
  1 31  1  0
  3  2  1  1
  3 17  1  0
  3 26  1  0
  3  4  1  0
  4  5  1  0
  4 32  1  0
  4 33  1  0
  5  6  1  0
  5 34  1  0
  5 35  1  0
  6  7  2  3
  6  9  1  0
  7  8  1  0
  8 36  1  0
  9 26  1  0
  9 10  1  0
  9 37  1  6
 10 11  1  0
 10 38  1  0
 10 39  1  0
 11 17  2  0
 11 12  1  0
 12 13  2  0
 12 40  1  0
 13 14  1  0
 13 41  1  0
 14 15  1  0
 14 16  2  0
 15 42  1  0
 16 17  1  0
 16 18  1  0
 18 19  1  0
 19 26  1  0
 19 20  1  0
 19 43  1  6
 20 27  1  0
 20 21  1  0
 20 44  1  6
 21 22  2  0
 21 45  1  0
 22 23  1  0
 22 46  1  0
 23 24  1  6
 23 25  1  0
 23 27  1  0
 24 47  1  0
 26 25  1  6
 27 28  1  0
 27 48  1  6
 28 49  1  0
M  END
>  <i_m_ct_stereo_status>  (379) 
1

>  <s_m_source_file>  (379) 
/var/tmp/pbs.5076255.sched01/tmpt95b3wv2/135g3gtwtb2.sdf

>  <i_m_source_file_index>  (379) 
17

>  <i_lp_mmshare_version>  (379) 
48012

>  <i_f3d_flags>  (379) 
0

>  <s_epik_input>  (379) 
W0NIMl0xW0NIMl0vQyg9TlxbT0hdKVtDQEhdMltDSDJdYyhjM1tDQEBdMShbQ0BAXTI0NSlPW0NIM10pW2NIXVtjSF1jKFtPSF0pYzNPW0NASF00W0NASF02W0NIXT1bQ0hdW0NAXShPNSkoW09IXSlbQ0BIXTZbT0hd

>  <s_epik_cmdline>  (379) 
J2VwaWtfcHl0aG9uJywgJy1waHQnLCAnMi4wJywgJy1waCcsICc3LjAnLCAnLXRuJywgJzgnLCAnLW1hJywgJzIwMCcsICctaW1hZScsICc8aW5maWxlLm1hZT4nLCAnLW9tYWUnLCAnPG91dGZpbGUubWFlPic=

>  <r_lp_tautomer_probability>  (379) 
1

>  <r_epik_Ionization_Penalty>  (379) 
0.000453868

>  <r_epik_Ionization_Penalty_Charging>  (379) 
0

>  <r_epik_Ionization_Penalty_Neutral>  (379) 
0.000453868

>  <r_epik_State_Penalty>  (379) 
0.000215155

>  <r_epik_Charging_Adjusted_Penalty>  (379) 
0.000215155

>  <i_epik_Tot_Q>  (379) 
0

>  <i_epik_Tot_abs_Q>  (379) 
0

>  <s_epik_Chemistry_Notes>  (379) 
This compound has an imine and may undergo hydrolysis.

>  <s_lp_Force_Field>  (379) 
OPLS3e

>  <r_lp_Energy>  (379) 
122.257

>  <b_lp_Chiralities_Consistent>  (379) 
1

>  <s_lp_Variant>  (379) 
94:0-2

>  <s_i_glide_gridfile>  (379) 
pfpi4k_grid

>  <i_i_glide_lignum>  (379) 
17

>  <i_i_glide_rotatable_bonds>  (379) 
5

>  <r_i_docking_score>  (379) 
-3.36203

>  <r_i_glide_ligand_efficiency>  (379) 
-0.120072

>  <r_i_glide_ligand_efficiency_sa>  (379) 
-0.36461

>  <r_i_glide_ligand_efficiency_ln>  (379) 
-0.776054

>  <r_i_glide_gscore>  (379) 
-3.36203

>  <r_i_glide_lipo>  (379) 
-0.233094

>  <r_i_glide_hbond>  (379) 
0

>  <r_i_glide_metal>  (379) 
-0

>  <r_i_glide_rewards>  (379) 
-1.00447

>  <r_i_glide_evdw>  (379) 
-17.6497

>  <r_i_glide_ecoul>  (379) 
-8.88355

>  <r_i_glide_erotb>  (379) 
0.129764

>  <r_i_glide_esite>  (379) 
-0.039211

>  <r_i_glide_emodel>  (379) 
-30.7334

>  <r_i_glide_energy>  (379) 
-26.5332

>  <r_i_glide_einternal>  (379) 
2.64109

>  <r_i_glide_intrahb_reward>  (379) 
-0

>  <i_i_glide_confnum>  (379) 
2

>  <i_i_glide_posenum>  (379) 
15

>  <r_i_glide_eff_state_penalty>  (379) 
0

>  <ligand_id>  (379) 
94

>  <original_smiles>  (379) 
COC12CCC(=NO)C3Cc4ccc(O)c(c41)OC1C4C=CC(O)(OC312)C4O

>  <smiles>  (379) 
[H]ON=C1C([H])([H])C([H])([H])C2(OC([H])([H])[H])c3c4c(O[H])c([H])c([H])c3C([H])([H])C1([H])C21OC2(O[H])C([H])=C([H])C([H])(C2([H])O[H])C1([H])O4

$$$$
95:0:0
     RDKit          3D

 16 17  0  0  1  0  0  0  0  0999 V2000
    3.6906   -0.5001   -4.4379 C   0  0  0  0  0  0  0  0  0  0  0  0
    3.7055   -1.3008   -3.1886 C   0  0  0  0  0  0  0  0  0  0  0  0
    2.8124   -2.2717   -2.9795 N   0  0  0  0  0  0  0  0  0  0  0  0
    3.0180   -2.8394   -1.7217 C   0  0  0  0  0  0  0  0  0  0  0  0
    2.2436   -3.8548   -1.1111 C   0  0  0  0  0  0  0  0  0  0  0  0
    2.5486   -4.3604    0.1126 N   0  0  0  0  0  0  0  0  0  0  0  0
    3.6096   -3.8780    0.7910 C   0  0  0  0  0  0  0  0  0  0  0  0
    4.4258   -2.8498    0.2863 C   0  0  0  0  0  0  0  0  0  0  0  0
    4.1164   -2.3268   -0.9840 C   0  0  0  0  0  0  0  0  0  0  0  0
    4.9021   -1.0537   -1.9123 S   0  0  0  0  0  0  0  0  0  0  0  0
    2.8691   -0.8198   -5.0734 H   0  0  0  0  0  0  0  0  0  0  0  0
    4.6175   -0.6615   -4.9800 H   0  0  0  0  0  0  0  0  0  0  0  0
    3.5719    0.5635   -4.2077 H   0  0  0  0  0  0  0  0  0  0  0  0
    1.3868   -4.2831   -1.6130 H   0  0  0  0  0  0  0  0  0  0  0  0
    3.8033   -4.3213    1.7591 H   0  0  0  0  0  0  0  0  0  0  0  0
    5.2589   -2.4848    0.8639 H   0  0  0  0  0  0  0  0  0  0  0  0
  1  2  1  0
  1 11  1  0
  1 12  1  0
  1 13  1  0
  2 10  1  0
  2  3  2  0
  3  4  1  0
  4  9  2  0
  4  5  1  0
  5  6  2  0
  5 14  1  0
  6  7  1  0
  7  8  2  0
  7 15  1  0
  8  9  1  0
  8 16  1  0
  9 10  1  0
M  END
>  <i_m_ct_stereo_status>  (380) 
1

>  <s_m_source_file>  (380) 
/var/tmp/pbs.5076255.sched01/tmpt95b3wv2/135g3gtwtb2.sdf

>  <i_m_source_file_index>  (380) 
18

>  <i_lp_mmshare_version>  (380) 
48012

>  <i_f3d_flags>  (380) 
0

>  <s_epik_input>  (380) 
W0NIM11jKG4xKXNjKGMxMilbY0hdW2NIXW5bY0hdMg==

>  <s_epik_cmdline>  (380) 
J2VwaWtfcHl0aG9uJywgJy1waHQnLCAnMi4wJywgJy1waCcsICc3LjAnLCAnLXRuJywgJzgnLCAnLW1hJywgJzIwMCcsICctaW1hZScsICc8aW5maWxlLm1hZT4nLCAnLW9tYWUnLCAnPG91dGZpbGUubWFlPic=

>  <r_lp_tautomer_probability>  (380) 
1

>  <r_epik_Ionization_Penalty>  (380) 
0.000116981

>  <r_epik_Ionization_Penalty_Charging>  (380) 
0

>  <r_epik_Ionization_Penalty_Neutral>  (380) 
0.000116981

>  <r_epik_State_Penalty>  (380) 
-0

>  <r_epik_Charging_Adjusted_Penalty>  (380) 
0

>  <i_epik_Tot_Q>  (380) 
0

>  <i_epik_Tot_abs_Q>  (380) 
0

>  <s_lp_Force_Field>  (380) 
OPLS3e

>  <r_lp_Energy>  (380) 
9.62215

>  <b_lp_Chiralities_Consistent>  (380) 
1

>  <s_lp_Variant>  (380) 
95:0-1

>  <s_i_glide_gridfile>  (380) 
pfpi4k_grid

>  <i_i_glide_lignum>  (380) 
18

>  <i_i_glide_rotatable_bonds>  (380) 
0

>  <r_i_docking_score>  (380) 
-3.44206

>  <r_i_glide_ligand_efficiency>  (380) 
-0.344206

>  <r_i_glide_ligand_efficiency_sa>  (380) 
-0.74157

>  <r_i_glide_ligand_efficiency_ln>  (380) 
-1.04223

>  <r_i_glide_gscore>  (380) 
-3.44206

>  <r_i_glide_lipo>  (380) 
-0.334279

>  <r_i_glide_hbond>  (380) 
0

>  <r_i_glide_metal>  (380) 
-0

>  <r_i_glide_rewards>  (380) 
-2.25

>  <r_i_glide_evdw>  (380) 
-16.9129

>  <r_i_glide_ecoul>  (380) 
-0.0809276

>  <r_i_glide_erotb>  (380) 
0

>  <r_i_glide_esite>  (380) 
0

>  <r_i_glide_emodel>  (380) 
-20.699

>  <r_i_glide_energy>  (380) 
-16.9938

>  <r_i_glide_einternal>  (380) 
0

>  <r_i_glide_intrahb_reward>  (380) 
-0

>  <i_i_glide_confnum>  (380) 
2

>  <i_i_glide_posenum>  (380) 
28

>  <r_i_glide_eff_state_penalty>  (380) 
0

>  <ligand_id>  (380) 
95

>  <original_smiles>  (380) 
Cc1nc2cnccc2s1

>  <smiles>  (380) 
[H]c1nc([H])c2nc(C([H])([H])[H])sc2c1[H]

$$$$
95:0:1
     RDKit          3D

 16 17  0  0  1  0  0  0  0  0999 V2000
   -0.7127   -2.1590    5.6493 C   0  0  0  0  0  0  0  0  0  0  0  0
   -0.7939   -0.7538    5.1668 C   0  0  0  0  0  0  0  0  0  0  0  0
   -1.6260    0.1381    5.7207 N   0  0  0  0  0  0  0  0  0  0  0  0
   -1.4874    1.3688    5.0801 C   0  0  0  0  0  0  0  0  0  0  0  0
   -2.1856    2.5704    5.3721 C   0  0  0  0  0  0  0  0  0  0  0  0
   -1.9763    3.7147    4.6783 N   0  0  0  0  0  0  0  0  0  0  0  0
   -1.0772    3.7295    3.6738 C   0  0  0  0  0  0  0  0  0  0  0  0
   -0.3339    2.6025    3.3057 C   0  0  0  0  0  0  0  0  0  0  0  0
   -0.5404    1.4103    4.0147 C   0  0  0  0  0  0  0  0  0  0  0  0
    0.2090   -0.1699    3.8279 S   0  0  0  0  0  0  0  0  0  0  0  0
   -1.4094   -2.3116    6.4708 H   0  0  0  0  0  0  0  0  0  0  0  0
    0.2975   -2.3820    6.0001 H   0  0  0  0  0  0  0  0  0  0  0  0
   -0.9644   -2.8477    4.8412 H   0  0  0  0  0  0  0  0  0  0  0  0
   -2.9227    2.6134    6.1599 H   0  0  0  0  0  0  0  0  0  0  0  0
   -0.9533    4.6666    3.1518 H   0  0  0  0  0  0  0  0  0  0  0  0
    0.3707    2.6618    2.4874 H   0  0  0  0  0  0  0  0  0  0  0  0
  1  2  1  0
  1 11  1  0
  1 12  1  0
  1 13  1  0
  2 10  1  0
  2  3  2  0
  3  4  1  0
  4  9  2  0
  4  5  1  0
  5  6  2  0
  5 14  1  0
  6  7  1  0
  7  8  2  0
  7 15  1  0
  8  9  1  0
  8 16  1  0
  9 10  1  0
M  END
>  <i_m_ct_stereo_status>  (381) 
1

>  <s_m_source_file>  (381) 
/var/tmp/pbs.5076255.sched01/tmpt95b3wv2/135g3gtwtb2.sdf

>  <i_m_source_file_index>  (381) 
18

>  <i_lp_mmshare_version>  (381) 
48012

>  <i_f3d_flags>  (381) 
0

>  <s_epik_input>  (381) 
W0NIM11jKG4xKXNjKGMxMilbY0hdW2NIXW5bY0hdMg==

>  <s_epik_cmdline>  (381) 
J2VwaWtfcHl0aG9uJywgJy1waHQnLCAnMi4wJywgJy1waCcsICc3LjAnLCAnLXRuJywgJzgnLCAnLW1hJywgJzIwMCcsICctaW1hZScsICc8aW5maWxlLm1hZT4nLCAnLW9tYWUnLCAnPG91dGZpbGUubWFlPic=

>  <r_lp_tautomer_probability>  (381) 
1

>  <r_epik_Ionization_Penalty>  (381) 
0.000116981

>  <r_epik_Ionization_Penalty_Charging>  (381) 
0

>  <r_epik_Ionization_Penalty_Neutral>  (381) 
0.000116981

>  <r_epik_State_Penalty>  (381) 
-0

>  <r_epik_Charging_Adjusted_Penalty>  (381) 
0

>  <i_epik_Tot_Q>  (381) 
0

>  <i_epik_Tot_abs_Q>  (381) 
0

>  <s_lp_Force_Field>  (381) 
OPLS3e

>  <r_lp_Energy>  (381) 
9.62215

>  <b_lp_Chiralities_Consistent>  (381) 
1

>  <s_lp_Variant>  (381) 
95:0-1

>  <s_i_glide_gridfile>  (381) 
pfpi4k_grid

>  <i_i_glide_lignum>  (381) 
18

>  <i_i_glide_rotatable_bonds>  (381) 
0

>  <r_i_docking_score>  (381) 
-3.38245

>  <r_i_glide_ligand_efficiency>  (381) 
-0.338245

>  <r_i_glide_ligand_efficiency_sa>  (381) 
-0.728728

>  <r_i_glide_ligand_efficiency_ln>  (381) 
-1.02418

>  <r_i_glide_gscore>  (381) 
-3.38245

>  <r_i_glide_lipo>  (381) 
-0.0278408

>  <r_i_glide_hbond>  (381) 
-0.00299477

>  <r_i_glide_metal>  (381) 
-0

>  <r_i_glide_rewards>  (381) 
-2.25

>  <r_i_glide_evdw>  (381) 
-13.1964

>  <r_i_glide_ecoul>  (381) 
-2.94531

>  <r_i_glide_erotb>  (381) 
0

>  <r_i_glide_esite>  (381) 
0

>  <r_i_glide_emodel>  (381) 
-19.7997

>  <r_i_glide_energy>  (381) 
-16.1417

>  <r_i_glide_einternal>  (381) 
0

>  <r_i_glide_intrahb_reward>  (381) 
-0

>  <i_i_glide_confnum>  (381) 
1

>  <i_i_glide_posenum>  (381) 
1

>  <r_i_glide_eff_state_penalty>  (381) 
0

>  <ligand_id>  (381) 
95

>  <original_smiles>  (381) 
Cc1nc2cnccc2s1

>  <smiles>  (381) 
[H]c1nc([H])c2nc(C([H])([H])[H])sc2c1[H]

$$$$
95:0:2
     RDKit          3D

 16 17  0  0  1  0  0  0  0  0999 V2000
   -1.7660   -9.2897    2.4852 C   0  0  0  0  0  0  0  0  0  0  0  0
   -0.9380   -8.1314    2.9224 C   0  0  0  0  0  0  0  0  0  0  0  0
   -1.1451   -7.5301    4.0991 N   0  0  0  0  0  0  0  0  0  0  0  0
   -0.2179   -6.5135    4.2873 C   0  0  0  0  0  0  0  0  0  0  0  0
   -0.1048   -5.6634    5.4165 C   0  0  0  0  0  0  0  0  0  0  0  0
    0.8047   -4.6620    5.4686 N   0  0  0  0  0  0  0  0  0  0  0  0
    1.6562   -4.4735    4.4407 C   0  0  0  0  0  0  0  0  0  0  0  0
    1.6384   -5.2661    3.2840 C   0  0  0  0  0  0  0  0  0  0  0  0
    0.6866   -6.2959    3.2102 C   0  0  0  0  0  0  0  0  0  0  0  0
    0.3552   -7.4526    1.9216 S   0  0  0  0  0  0  0  0  0  0  0  0
   -2.4950   -9.5282    3.2577 H   0  0  0  0  0  0  0  0  0  0  0  0
   -1.1404  -10.1658    2.3078 H   0  0  0  0  0  0  0  0  0  0  0  0
   -2.3044   -9.0475    1.5715 H   0  0  0  0  0  0  0  0  0  0  0  0
   -0.7719   -5.7637    6.2598 H   0  0  0  0  0  0  0  0  0  0  0  0
    2.3692   -3.6692    4.5472 H   0  0  0  0  0  0  0  0  0  0  0  0
    2.3340   -5.0863    2.4787 H   0  0  0  0  0  0  0  0  0  0  0  0
  1  2  1  0
  1 11  1  0
  1 12  1  0
  1 13  1  0
  2 10  1  0
  2  3  2  0
  3  4  1  0
  4  9  2  0
  4  5  1  0
  5  6  2  0
  5 14  1  0
  6  7  1  0
  7  8  2  0
  7 15  1  0
  8  9  1  0
  8 16  1  0
  9 10  1  0
M  END
>  <i_m_ct_stereo_status>  (382) 
1

>  <s_m_source_file>  (382) 
/var/tmp/pbs.5076255.sched01/tmpt95b3wv2/135g3gtwtb2.sdf

>  <i_m_source_file_index>  (382) 
18

>  <i_lp_mmshare_version>  (382) 
48012

>  <i_f3d_flags>  (382) 
0

>  <s_epik_input>  (382) 
W0NIM11jKG4xKXNjKGMxMilbY0hdW2NIXW5bY0hdMg==

>  <s_epik_cmdline>  (382) 
J2VwaWtfcHl0aG9uJywgJy1waHQnLCAnMi4wJywgJy1waCcsICc3LjAnLCAnLXRuJywgJzgnLCAnLW1hJywgJzIwMCcsICctaW1hZScsICc8aW5maWxlLm1hZT4nLCAnLW9tYWUnLCAnPG91dGZpbGUubWFlPic=

>  <r_lp_tautomer_probability>  (382) 
1

>  <r_epik_Ionization_Penalty>  (382) 
0.000116981

>  <r_epik_Ionization_Penalty_Charging>  (382) 
0

>  <r_epik_Ionization_Penalty_Neutral>  (382) 
0.000116981

>  <r_epik_State_Penalty>  (382) 
-0

>  <r_epik_Charging_Adjusted_Penalty>  (382) 
0

>  <i_epik_Tot_Q>  (382) 
0

>  <i_epik_Tot_abs_Q>  (382) 
0

>  <s_lp_Force_Field>  (382) 
OPLS3e

>  <r_lp_Energy>  (382) 
9.62215

>  <b_lp_Chiralities_Consistent>  (382) 
1

>  <s_lp_Variant>  (382) 
95:0-1

>  <s_i_glide_gridfile>  (382) 
pfpi4k_grid

>  <i_i_glide_lignum>  (382) 
18

>  <i_i_glide_rotatable_bonds>  (382) 
0

>  <r_i_docking_score>  (382) 
-3.32683

>  <r_i_glide_ligand_efficiency>  (382) 
-0.332683

>  <r_i_glide_ligand_efficiency_sa>  (382) 
-0.716744

>  <r_i_glide_ligand_efficiency_ln>  (382) 
-1.00734

>  <r_i_glide_gscore>  (382) 
-3.32683

>  <r_i_glide_lipo>  (382) 
-0.261956

>  <r_i_glide_hbond>  (382) 
0

>  <r_i_glide_metal>  (382) 
-0

>  <r_i_glide_rewards>  (382) 
-2.25

>  <r_i_glide_evdw>  (382) 
-15.0286

>  <r_i_glide_ecoul>  (382) 
-0.422947

>  <r_i_glide_erotb>  (382) 
0

>  <r_i_glide_esite>  (382) 
0

>  <r_i_glide_emodel>  (382) 
-19.0376

>  <r_i_glide_energy>  (382) 
-15.4516

>  <r_i_glide_einternal>  (382) 
0

>  <r_i_glide_intrahb_reward>  (382) 
-0

>  <i_i_glide_confnum>  (382) 
2

>  <i_i_glide_posenum>  (382) 
40

>  <r_i_glide_eff_state_penalty>  (382) 
0

>  <ligand_id>  (382) 
95

>  <original_smiles>  (382) 
Cc1nc2cnccc2s1

>  <smiles>  (382) 
[H]c1nc([H])c2nc(C([H])([H])[H])sc2c1[H]

$$$$
96:0:0
     RDKit          3D

 59 63  0  0  1  0  0  0  0  0999 V2000
    4.2295    2.7203    6.0581 C   0  0  0  0  0  0  0  0  0  0  0  0
    3.4222    2.3812    4.7953 C   0  0  2  0  0  0  0  0  0  0  0  0
    2.6480    3.6108    4.2947 C   0  0  0  0  0  0  0  0  0  0  0  0
    1.9111    3.3154    2.9810 C   0  0  0  0  0  0  0  0  0  0  0  0
    0.8938    2.1596    3.1093 C   0  0  2  0  0  0  0  0  0  0  0  0
   -0.4020    2.5833    3.8736 C   0  0  1  0  0  0  0  0  0  0  0  0
   -1.6150    2.6994    2.9382 C   0  0  0  0  0  0  0  0  0  0  0  0
   -0.8062    1.7717    4.9946 O   0  0  0  0  0  0  0  0  0  0  0  0
   -0.5473    0.4430    5.1008 C   0  0  0  0  0  0  0  0  0  0  0  0
   -1.0303   -0.2734    5.9740 O   0  0  0  0  0  0  0  0  0  0  0  0
    0.4206   -0.0817    4.0447 C   0  0  2  0  0  0  0  0  0  0  0  0
    1.2310   -1.3602    4.2938 C   0  0  2  0  0  0  0  0  0  0  0  0
    0.4111   -2.6545    4.2088 C   0  0  0  0  0  0  0  0  0  0  0  0
    2.1228   -1.3011    5.5551 C   0  0  0  0  0  0  0  0  0  0  0  0
    3.0909   -0.1001    5.5440 C   0  0  0  0  0  0  0  0  0  0  0  0
    2.4401    1.1934    4.9982 C   0  0  2  0  0  0  0  0  0  0  0  0
    1.5305    0.9001    3.7393 C   0  0  2  0  0  0  0  0  0  0  0  0
    2.2105   -0.0016    2.6897 C   0  0  1  0  0  0  0  0  0  0  0  0
    3.5282    0.3823    2.4806 O   0  0  0  0  0  0  0  0  0  0  0  0
    4.2052   -0.2575    1.4984 C   0  0  0  0  0  0  0  0  0  0  0  0
    5.4233   -0.1466    1.3765 O   0  0  0  0  0  0  0  0  0  0  0  0
    3.3758   -1.0833    0.4991 C   0  0  0  0  0  0  0  0  0  0  0  0
    4.1927   -1.7686   -0.5712 C   0  0  0  0  0  0  0  0  0  0  0  0
    5.2428   -2.6316   -0.2152 C   0  0  0  0  0  0  0  0  0  0  0  0
    6.0073   -3.2573   -1.2123 C   0  0  0  0  0  0  0  0  0  0  0  0
    5.6916   -3.0583   -2.5637 C   0  0  0  0  0  0  0  0  0  0  0  0
    4.6148   -2.2221   -2.9277 C   0  0  0  0  0  0  0  0  0  0  0  0
    3.8689   -1.5764   -1.9283 C   0  0  0  0  0  0  0  0  0  0  0  0
    2.1053   -1.3220    3.1722 O   0  0  0  0  0  0  0  0  0  0  0  0
    3.5753    2.9392    6.9033 H   0  0  0  0  0  0  0  0  0  0  0  0
    4.8640    3.5909    5.8856 H   0  0  0  0  0  0  0  0  0  0  0  0
    4.8887    1.8966    6.3371 H   0  0  0  0  0  0  0  0  0  0  0  0
    4.1600    2.1263    4.0381 H   0  0  0  0  0  0  0  0  0  0  0  0
    1.9401    3.9417    5.0568 H   0  0  0  0  0  0  0  0  0  0  0  0
    3.3370    4.4414    4.1357 H   0  0  0  0  0  0  0  0  0  0  0  0
    1.4145    4.2209    2.6293 H   0  0  0  0  0  0  0  0  0  0  0  0
    2.6499    3.0713    2.2158 H   0  0  0  0  0  0  0  0  0  0  0  0
    0.5994    1.9142    2.0870 H   0  0  0  0  0  0  0  0  0  0  0  0
   -0.2207    3.5808    4.2719 H   0  0  0  0  0  0  0  0  0  0  0  0
   -1.3920    3.3508    2.0910 H   0  0  0  0  0  0  0  0  0  0  0  0
   -2.4690    3.1308    3.4573 H   0  0  0  0  0  0  0  0  0  0  0  0
   -1.9181    1.7311    2.5369 H   0  0  0  0  0  0  0  0  0  0  0  0
   -0.1820   -0.2300    3.1507 H   0  0  0  0  0  0  0  0  0  0  0  0
   -0.2768   -2.7578    5.0480 H   0  0  0  0  0  0  0  0  0  0  0  0
    1.0637   -3.5321    4.2050 H   0  0  0  0  0  0  0  0  0  0  0  0
   -0.1727   -2.6703    3.2891 H   0  0  0  0  0  0  0  0  0  0  0  0
    1.4937   -1.2696    6.4438 H   0  0  0  0  0  0  0  0  0  0  0  0
    2.7072   -2.2224    5.6284 H   0  0  0  0  0  0  0  0  0  0  0  0
    3.4480    0.0591    6.5596 H   0  0  0  0  0  0  0  0  0  0  0  0
    3.9729   -0.3548    4.9525 H   0  0  0  0  0  0  0  0  0  0  0  0
    1.7819    1.5364    5.7947 H   0  0  0  0  0  0  0  0  0  0  0  0
    1.6464    0.0690    1.7563 H   0  0  0  0  0  0  0  0  0  0  0  0
    2.8149   -1.8746    1.0004 H   0  0  0  0  0  0  0  0  0  0  0  0
    2.6531   -0.4228    0.0180 H   0  0  0  0  0  0  0  0  0  0  0  0
    5.4741   -2.8009    0.8238 H   0  0  0  0  0  0  0  0  0  0  0  0
    6.8461   -3.8727   -0.9161 H   0  0  0  0  0  0  0  0  0  0  0  0
    6.2917   -3.5313   -3.3298 H   0  0  0  0  0  0  0  0  0  0  0  0
    4.3754   -2.0524   -3.9660 H   0  0  0  0  0  0  0  0  0  0  0  0
    3.0461   -0.9336   -2.1972 H   0  0  0  0  0  0  0  0  0  0  0  0
  1  2  1  0
  1 30  1  0
  1 31  1  0
  1 32  1  0
  2 16  1  0
  2  3  1  0
  2 33  1  6
  3  4  1  0
  3 34  1  0
  3 35  1  0
  4  5  1  0
  4 36  1  0
  4 37  1  0
  5 17  1  0
  5  6  1  0
  5 38  1  6
  6  7  1  0
  6  8  1  0
  6 39  1  1
  7 40  1  0
  7 41  1  0
  7 42  1  0
  8  9  1  0
  9 10  2  0
  9 11  1  0
 11 17  1  0
 11 12  1  0
 11 43  1  6
 12 29  1  0
 12 13  1  1
 12 14  1  0
 13 44  1  0
 13 45  1  0
 13 46  1  0
 14 15  1  0
 14 47  1  0
 14 48  1  0
 15 16  1  0
 15 49  1  0
 15 50  1  0
 16 17  1  0
 16 51  1  1
 17 18  1  6
 18 19  1  0
 18 29  1  0
 18 52  1  6
 19 20  1  0
 20 21  2  0
 20 22  1  0
 22 23  1  0
 22 53  1  0
 22 54  1  0
 23 28  1  0
 23 24  2  0
 24 25  1  0
 24 55  1  0
 25 26  2  0
 25 56  1  0
 26 27  1  0
 26 57  1  0
 27 28  2  0
 27 58  1  0
 28 59  1  0
M  END
>  <i_m_ct_stereo_status>  (383) 
1

>  <s_m_source_file>  (383) 
/var/tmp/pbs.5076255.sched01/tmpt95b3wv2/135g3gtwtb2.sdf

>  <i_m_source_file_index>  (383) 
19

>  <i_lp_mmshare_version>  (383) 
48012

>  <i_f3d_flags>  (383) 
0

>  <s_epik_input>  (383) 
W0NAQF0xMjNbQ0BASF00W0NIMl1bQ0gyXVtDQEBIXShbQ0gzXSlbQ0BASF0yW0NIMl1bQ0gyXVtDQEBdKFtDSDNdKShbQ0BIXTFDKD1PKU9bQ0BASF00W0NIM10pT1tDQEBIXTNPQyg9TylbQ0gyXWM1W2NIXVtjSF1bY0hdW2NIXVtjSF01

>  <s_epik_cmdline>  (383) 
J2VwaWtfcHl0aG9uJywgJy1waHQnLCAnMi4wJywgJy1waCcsICc3LjAnLCAnLXRuJywgJzgnLCAnLW1hJywgJzIwMCcsICctaW1hZScsICc8aW5maWxlLm1hZT4nLCAnLW9tYWUnLCAnPG91dGZpbGUubWFlPic=

>  <r_lp_tautomer_probability>  (383) 
1

>  <r_epik_Ionization_Penalty>  (383) 
7.2357e-14

>  <r_epik_Ionization_Penalty_Charging>  (383) 
0

>  <r_epik_Ionization_Penalty_Neutral>  (383) 
7.2357e-14

>  <r_epik_State_Penalty>  (383) 
-0

>  <r_epik_Charging_Adjusted_Penalty>  (383) 
0

>  <i_epik_Tot_Q>  (383) 
0

>  <i_epik_Tot_abs_Q>  (383) 
0

>  <s_epik_Chemistry_Notes>  (383) 
This compound has an ester and may undergo hydrolysis at high or low pH. This compound contains an acetal/aminal-like group ( X-CH(R)-Y where X, Y are N, S, or O) that may be acid/base labile, releasing an aldehyde.

>  <s_lp_Force_Field>  (383) 
OPLS3e

>  <r_lp_Energy>  (383) 
48.0649

>  <b_lp_Chiralities_Consistent>  (383) 
1

>  <s_lp_Variant>  (383) 
96:0-1

>  <s_i_glide_gridfile>  (383) 
pfpi4k_grid

>  <i_i_glide_lignum>  (383) 
19

>  <i_i_glide_rotatable_bonds>  (383) 
4

>  <r_i_docking_score>  (383) 
-3.18351

>  <r_i_glide_ligand_efficiency>  (383) 
-0.109776

>  <r_i_glide_ligand_efficiency_sa>  (383) 
-0.337267

>  <r_i_glide_ligand_efficiency_ln>  (383) 
-0.728943

>  <r_i_glide_gscore>  (383) 
-3.18351

>  <r_i_glide_lipo>  (383) 
-0.460032

>  <r_i_glide_hbond>  (383) 
-0.244563

>  <r_i_glide_metal>  (383) 
-0

>  <r_i_glide_rewards>  (383) 
-0.82137

>  <r_i_glide_evdw>  (383) 
-27.2209

>  <r_i_glide_ecoul>  (383) 
-4.22345

>  <r_i_glide_erotb>  (383) 
0.370007

>  <r_i_glide_esite>  (383) 
-0.0329881

>  <r_i_glide_emodel>  (383) 
-34.1086

>  <r_i_glide_energy>  (383) 
-31.4443

>  <r_i_glide_einternal>  (383) 
8.21336

>  <r_i_glide_intrahb_reward>  (383) 
-0

>  <i_i_glide_confnum>  (383) 
3

>  <i_i_glide_posenum>  (383) 
30

>  <r_i_glide_eff_state_penalty>  (383) 
0

>  <ligand_id>  (383) 
96

>  <original_smiles>  (383) 
CC1CCC2C(C)OC(=O)C3C4(C)CCC1C23C(OC(=O)Cc1ccccc1)O4

>  <smiles>  (383) 
[H]c1c([H])c([H])c(C([H])([H])C(=O)OC2([H])OC3(C([H])([H])[H])C([H])([H])C([H])([H])C4([H])C([H])(C([H])([H])[H])C([H])([H])C([H])([H])C5([H])C([H])(C([H])([H])[H])OC(=O)C3([H])C254)c([H])c1[H]

$$$$
96:0:1
     RDKit          3D

 59 63  0  0  1  0  0  0  0  0999 V2000
    4.5794    1.6912    5.7512 C   0  0  0  0  0  0  0  0  0  0  0  0
    3.7931    1.2703    4.4981 C   0  0  2  0  0  0  0  0  0  0  0  0
    3.0187    2.4647    3.9165 C   0  0  0  0  0  0  0  0  0  0  0  0
    2.2963    2.0822    2.6171 C   0  0  0  0  0  0  0  0  0  0  0  0
    1.2916    0.9300    2.7914 C   0  0  2  0  0  0  0  0  0  0  0  0
   -0.0015    1.4133    3.5113 C   0  0  1  0  0  0  0  0  0  0  0  0
   -1.2087    1.4780    2.5680 C   0  0  0  0  0  0  0  0  0  0  0  0
   -0.4277    0.6775    4.6810 O   0  0  0  0  0  0  0  0  0  0  0  0
   -0.1521   -0.6574    4.8827 C   0  0  0  0  0  0  0  0  0  0  0  0
   -0.6439   -1.3383    5.7823 O   0  0  0  0  0  0  0  0  0  0  0  0
    0.8128   -1.2378    3.8676 C   0  0  2  0  0  0  0  0  0  0  0  0
    1.6283   -2.4927    4.1931 C   0  0  2  0  0  0  0  0  0  0  0  0
    0.8114   -3.7946    4.2065 C   0  0  0  0  0  0  0  0  0  0  0  0
    2.4974   -2.3549    5.4643 C   0  0  0  0  0  0  0  0  0  0  0  0
    3.4639   -1.1595    5.3905 C   0  0  0  0  0  0  0  0  0  0  0  0
    2.8146    0.0924    4.7557 C   0  0  2  0  0  0  0  0  0  0  0  0
    1.9231   -0.2843    3.5065 C   0  0  2  0  0  0  0  0  0  0  0  0
    2.6443   -1.2443    2.5280 C   0  0  1  0  0  0  0  0  0  0  0  0
    3.9620   -0.8451    2.3335 O   0  0  0  0  0  0  0  0  0  0  0  0
    4.5545   -1.4489    1.3284 C   0  0  0  0  0  0  0  0  0  0  0  0
    5.4431   -2.2817    1.5028 O   0  0  0  0  0  0  0  0  0  0  0  0
    4.1844   -0.8499   -0.0520 C   0  0  0  0  0  0  0  0  0  0  0  0
    4.4847   -1.7373   -1.2592 C   0  0  0  0  0  0  0  0  0  0  0  0
    3.4317   -2.1683   -2.0948 C   0  0  0  0  0  0  0  0  0  0  0  0
    3.6882   -3.0470   -3.1640 C   0  0  0  0  0  0  0  0  0  0  0  0
    5.0024   -3.4940   -3.4001 C   0  0  0  0  0  0  0  0  0  0  0  0
    6.0537   -3.0573   -2.5750 C   0  0  0  0  0  0  0  0  0  0  0  0
    5.8008   -2.1559   -1.5246 C   0  0  0  0  0  0  0  0  0  0  0  0
    2.5259   -2.5325    3.0787 O   0  0  0  0  0  0  0  0  0  0  0  0
    3.9170    1.9602    6.5740 H   0  0  0  0  0  0  0  0  0  0  0  0
    5.2105    2.5572    5.5516 H   0  0  0  0  0  0  0  0  0  0  0  0
    5.2426    0.8953    6.0903 H   0  0  0  0  0  0  0  0  0  0  0  0
    4.5453    0.9829    3.7668 H   0  0  0  0  0  0  0  0  0  0  0  0
    2.3032    2.8409    4.6500 H   0  0  0  0  0  0  0  0  0  0  0  0
    3.7093    3.2873    3.7100 H   0  0  0  0  0  0  0  0  0  0  0  0
    1.8014    2.9588    2.1948 H   0  0  0  0  0  0  0  0  0  0  0  0
    3.0406    1.7757    1.8895 H   0  0  0  0  0  0  0  0  0  0  0  0
    0.9986    0.6139    1.7857 H   0  0  0  0  0  0  0  0  0  0  0  0
    0.1692    2.4312    3.8682 H   0  0  0  0  0  0  0  0  0  0  0  0
   -0.9747    2.0673    1.6819 H   0  0  0  0  0  0  0  0  0  0  0  0
   -2.0712    1.9336    3.0552 H   0  0  0  0  0  0  0  0  0  0  0  0
   -1.5127    0.4897    2.2296 H   0  0  0  0  0  0  0  0  0  0  0  0
    0.2215   -1.4460    2.9842 H   0  0  0  0  0  0  0  0  0  0  0  0
    0.1145   -3.8340    5.0464 H   0  0  0  0  0  0  0  0  0  0  0  0
    1.4574   -4.6747    4.2739 H   0  0  0  0  0  0  0  0  0  0  0  0
    0.2354   -3.8937    3.2894 H   0  0  0  0  0  0  0  0  0  0  0  0
    1.8526   -2.2661    6.3420 H   0  0  0  0  0  0  0  0  0  0  0  0
    3.0812   -3.2640    5.6190 H   0  0  0  0  0  0  0  0  0  0  0  0
    3.7908   -0.9313    6.3981 H   0  0  0  0  0  0  0  0  0  0  0  0
    4.3653   -1.4457    4.8363 H   0  0  0  0  0  0  0  0  0  0  0  0
    2.1516    0.4885    5.5234 H   0  0  0  0  0  0  0  0  0  0  0  0
    2.1072   -1.2907    1.5777 H   0  0  0  0  0  0  0  0  0  0  0  0
    3.1248   -0.5961   -0.0847 H   0  0  0  0  0  0  0  0  0  0  0  0
    4.7077    0.0968   -0.1815 H   0  0  0  0  0  0  0  0  0  0  0  0
    2.4093   -1.8541   -1.9181 H   0  0  0  0  0  0  0  0  0  0  0  0
    2.8668   -3.4032   -3.7749 H   0  0  0  0  0  0  0  0  0  0  0  0
    5.2044   -4.1967   -4.2080 H   0  0  0  0  0  0  0  0  0  0  0  0
    7.0662   -3.4207   -2.7251 H   0  0  0  0  0  0  0  0  0  0  0  0
    6.6153   -1.8486   -0.8856 H   0  0  0  0  0  0  0  0  0  0  0  0
  1  2  1  0
  1 30  1  0
  1 31  1  0
  1 32  1  0
  2 16  1  0
  2  3  1  0
  2 33  1  6
  3  4  1  0
  3 34  1  0
  3 35  1  0
  4  5  1  0
  4 36  1  0
  4 37  1  0
  5 17  1  0
  5  6  1  0
  5 38  1  6
  6  7  1  0
  6  8  1  0
  6 39  1  1
  7 40  1  0
  7 41  1  0
  7 42  1  0
  8  9  1  0
  9 10  2  0
  9 11  1  0
 11 17  1  0
 11 12  1  0
 11 43  1  6
 12 29  1  0
 12 13  1  1
 12 14  1  0
 13 44  1  0
 13 45  1  0
 13 46  1  0
 14 15  1  0
 14 47  1  0
 14 48  1  0
 15 16  1  0
 15 49  1  0
 15 50  1  0
 16 17  1  0
 16 51  1  1
 17 18  1  6
 18 19  1  0
 18 29  1  0
 18 52  1  6
 19 20  1  0
 20 21  2  0
 20 22  1  0
 22 23  1  0
 22 53  1  0
 22 54  1  0
 23 28  1  0
 23 24  2  0
 24 25  1  0
 24 55  1  0
 25 26  2  0
 25 56  1  0
 26 27  1  0
 26 57  1  0
 27 28  2  0
 27 58  1  0
 28 59  1  0
M  END
>  <i_m_ct_stereo_status>  (384) 
1

>  <s_m_source_file>  (384) 
/var/tmp/pbs.5076255.sched01/tmpt95b3wv2/135g3gtwtb2.sdf

>  <i_m_source_file_index>  (384) 
19

>  <i_lp_mmshare_version>  (384) 
48012

>  <i_f3d_flags>  (384) 
0

>  <s_epik_input>  (384) 
W0NAQF0xMjNbQ0BASF00W0NIMl1bQ0gyXVtDQEBIXShbQ0gzXSlbQ0BASF0yW0NIMl1bQ0gyXVtDQEBdKFtDSDNdKShbQ0BIXTFDKD1PKU9bQ0BASF00W0NIM10pT1tDQEBIXTNPQyg9TylbQ0gyXWM1W2NIXVtjSF1bY0hdW2NIXVtjSF01

>  <s_epik_cmdline>  (384) 
J2VwaWtfcHl0aG9uJywgJy1waHQnLCAnMi4wJywgJy1waCcsICc3LjAnLCAnLXRuJywgJzgnLCAnLW1hJywgJzIwMCcsICctaW1hZScsICc8aW5maWxlLm1hZT4nLCAnLW9tYWUnLCAnPG91dGZpbGUubWFlPic=

>  <r_lp_tautomer_probability>  (384) 
1

>  <r_epik_Ionization_Penalty>  (384) 
7.2357e-14

>  <r_epik_Ionization_Penalty_Charging>  (384) 
0

>  <r_epik_Ionization_Penalty_Neutral>  (384) 
7.2357e-14

>  <r_epik_State_Penalty>  (384) 
-0

>  <r_epik_Charging_Adjusted_Penalty>  (384) 
0

>  <i_epik_Tot_Q>  (384) 
0

>  <i_epik_Tot_abs_Q>  (384) 
0

>  <s_epik_Chemistry_Notes>  (384) 
This compound has an ester and may undergo hydrolysis at high or low pH. This compound contains an acetal/aminal-like group ( X-CH(R)-Y where X, Y are N, S, or O) that may be acid/base labile, releasing an aldehyde.

>  <s_lp_Force_Field>  (384) 
OPLS3e

>  <r_lp_Energy>  (384) 
48.0649

>  <b_lp_Chiralities_Consistent>  (384) 
1

>  <s_lp_Variant>  (384) 
96:0-1

>  <s_i_glide_gridfile>  (384) 
pfpi4k_grid

>  <i_i_glide_lignum>  (384) 
19

>  <i_i_glide_rotatable_bonds>  (384) 
4

>  <r_i_docking_score>  (384) 
-3.03028

>  <r_i_glide_ligand_efficiency>  (384) 
-0.104492

>  <r_i_glide_ligand_efficiency_sa>  (384) 
-0.321034

>  <r_i_glide_ligand_efficiency_ln>  (384) 
-0.693858

>  <r_i_glide_gscore>  (384) 
-3.03028

>  <r_i_glide_lipo>  (384) 
-0.528406

>  <r_i_glide_hbond>  (384) 
0

>  <r_i_glide_metal>  (384) 
-0

>  <r_i_glide_rewards>  (384) 
-0.723676

>  <r_i_glide_evdw>  (384) 
-28.1749

>  <r_i_glide_ecoul>  (384) 
-4.74137

>  <r_i_glide_erotb>  (384) 
0.370007

>  <r_i_glide_esite>  (384) 
-0.0282576

>  <r_i_glide_emodel>  (384) 
-31.6227

>  <r_i_glide_energy>  (384) 
-32.9162

>  <r_i_glide_einternal>  (384) 
15.0504

>  <r_i_glide_intrahb_reward>  (384) 
-0

>  <i_i_glide_confnum>  (384) 
1

>  <i_i_glide_posenum>  (384) 
13

>  <r_i_glide_eff_state_penalty>  (384) 
0

>  <ligand_id>  (384) 
96

>  <original_smiles>  (384) 
CC1CCC2C(C)OC(=O)C3C4(C)CCC1C23C(OC(=O)Cc1ccccc1)O4

>  <smiles>  (384) 
[H]c1c([H])c([H])c(C([H])([H])C(=O)OC2([H])OC3(C([H])([H])[H])C([H])([H])C([H])([H])C4([H])C([H])(C([H])([H])[H])C([H])([H])C([H])([H])C5([H])C([H])(C([H])([H])[H])OC(=O)C3([H])C254)c([H])c1[H]

$$$$
96:0:2
     RDKit          3D

 59 63  0  0  1  0  0  0  0  0999 V2000
    4.4951    2.0927    5.7663 C   0  0  0  0  0  0  0  0  0  0  0  0
    3.6398    1.7022    4.5508 C   0  0  2  0  0  0  0  0  0  0  0  0
    2.7846    2.8909    4.0858 C   0  0  0  0  0  0  0  0  0  0  0  0
    1.9881    2.5501    2.8209 C   0  0  0  0  0  0  0  0  0  0  0  0
    1.0433    1.3487    3.0084 C   0  0  2  0  0  0  0  0  0  0  0  0
   -0.2265    1.7283    3.8327 C   0  0  1  0  0  0  0  0  0  0  0  0
   -1.4780    1.7715    2.9470 C   0  0  0  0  0  0  0  0  0  0  0  0
   -0.5467    0.9034    4.9681 O   0  0  0  0  0  0  0  0  0  0  0  0
   -0.2120   -0.4089    5.0909 C   0  0  0  0  0  0  0  0  0  0  0  0
   -0.6181   -1.1492    5.9745 O   0  0  0  0  0  0  0  0  0  0  0  0
    0.7277   -0.9011    3.9881 C   0  0  2  0  0  0  0  0  0  0  0  0
    1.6124   -2.1332    4.2050 C   0  0  2  0  0  0  0  0  0  0  0  0
    0.8647   -3.4720    4.1740 C   0  0  0  0  0  0  0  0  0  0  0  0
    2.5622   -2.0194    5.4178 C   0  0  0  0  0  0  0  0  0  0  0  0
    3.4739   -0.7800    5.3329 C   0  0  0  0  0  0  0  0  0  0  0  0
    2.7282    0.4748    4.8230 C   0  0  2  0  0  0  0  0  0  0  0  0
    1.7699    0.1271    3.6143 C   0  0  2  0  0  0  0  0  0  0  0  0
    2.4364   -0.7485    2.5361 C   0  0  1  0  0  0  0  0  0  0  0  0
    3.7030   -0.2802    2.2078 O   0  0  0  0  0  0  0  0  0  0  0  0
    4.3837   -0.9504    1.2652 C   0  0  0  0  0  0  0  0  0  0  0  0
    5.4679   -0.5010    0.8542 O   0  0  0  0  0  0  0  0  0  0  0  0
    3.8335   -2.2906    0.7248 C   0  0  0  0  0  0  0  0  0  0  0  0
    4.2133   -2.6340   -0.6787 C   0  0  0  0  0  0  0  0  0  0  0  0
    3.2098   -2.7776   -1.6614 C   0  0  0  0  0  0  0  0  0  0  0  0
    3.5352   -3.0655   -2.9898 C   0  0  0  0  0  0  0  0  0  0  0  0
    4.8890   -3.2327   -3.3399 C   0  0  0  0  0  0  0  0  0  0  0  0
    5.9006   -3.0941   -2.3685 C   0  0  0  0  0  0  0  0  0  0  0  0
    5.5732   -2.8220   -1.0400 C   0  0  0  0  0  0  0  0  0  0  0  0
    2.4361   -2.0619    3.0520 O   0  0  0  0  0  0  0  0  0  0  0  0
    3.8744    2.2787    6.6445 H   0  0  0  0  0  0  0  0  0  0  0  0
    5.0644    3.0006    5.5644 H   0  0  0  0  0  0  0  0  0  0  0  0
    5.2134    1.3068    6.0106 H   0  0  0  0  0  0  0  0  0  0  0  0
    4.3417    1.4689    3.7538 H   0  0  0  0  0  0  0  0  0  0  0  0
    2.1053    3.1963    4.8844 H   0  0  0  0  0  0  0  0  0  0  0  0
    3.4262    3.7478    3.8749 H   0  0  0  0  0  0  0  0  0  0  0  0
    1.4265    3.4248    2.4894 H   0  0  0  0  0  0  0  0  0  0  0  0
    2.7010    2.3240    2.0311 H   0  0  0  0  0  0  0  0  0  0  0  0
    0.7084    1.0735    2.0076 H   0  0  0  0  0  0  0  0  0  0  0  0
   -0.0711    2.7340    4.2153 H   0  0  0  0  0  0  0  0  0  0  0  0
   -1.3355    2.4277    2.0828 H   0  0  0  0  0  0  0  0  0  0  0  0
   -2.3335    2.1472    3.5060 H   0  0  0  0  0  0  0  0  0  0  0  0
   -1.7342    0.7800    2.5708 H   0  0  0  0  0  0  0  0  0  0  0  0
    0.0979   -1.0820    3.1256 H   0  0  0  0  0  0  0  0  0  0  0  0
    0.2136   -3.6131    5.0365 H   0  0  0  0  0  0  0  0  0  0  0  0
    1.5679   -4.3107    4.1497 H   0  0  0  0  0  0  0  0  0  0  0  0
    0.2540   -3.5393    3.2818 H   0  0  0  0  0  0  0  0  0  0  0  0
    1.9910   -2.0122    6.3437 H   0  0  0  0  0  0  0  0  0  0  0  0
    3.1920   -2.9144    5.4549 H   0  0  0  0  0  0  0  0  0  0  0  0
    3.8836   -0.5962    6.3246 H   0  0  0  0  0  0  0  0  0  0  0  0
    4.3287   -0.9974    4.6882 H   0  0  0  0  0  0  0  0  0  0  0  0
    2.1060    0.7972    5.6577 H   0  0  0  0  0  0  0  0  0  0  0  0
    1.8333   -0.7246    1.6174 H   0  0  0  0  0  0  0  0  0  0  0  0
    4.1383   -3.1089    1.3915 H   0  0  0  0  0  0  0  0  0  0  0  0
    2.7349   -2.3079    0.7100 H   0  0  0  0  0  0  0  0  0  0  0  0
    2.1754   -2.6574   -1.3878 H   0  0  0  0  0  0  0  0  0  0  0  0
    2.7458   -3.1748   -3.7199 H   0  0  0  0  0  0  0  0  0  0  0  0
    5.1396   -3.4755   -4.3573 H   0  0  0  0  0  0  0  0  0  0  0  0
    6.9450   -3.2024   -2.6437 H   0  0  0  0  0  0  0  0  0  0  0  0
    6.3342   -2.7446   -0.2811 H   0  0  0  0  0  0  0  0  0  0  0  0
  1  2  1  0
  1 30  1  0
  1 31  1  0
  1 32  1  0
  2 16  1  0
  2  3  1  0
  2 33  1  6
  3  4  1  0
  3 34  1  0
  3 35  1  0
  4  5  1  0
  4 36  1  0
  4 37  1  0
  5 17  1  0
  5  6  1  0
  5 38  1  6
  6  7  1  0
  6  8  1  0
  6 39  1  1
  7 40  1  0
  7 41  1  0
  7 42  1  0
  8  9  1  0
  9 10  2  0
  9 11  1  0
 11 17  1  0
 11 12  1  0
 11 43  1  6
 12 29  1  0
 12 13  1  1
 12 14  1  0
 13 44  1  0
 13 45  1  0
 13 46  1  0
 14 15  1  0
 14 47  1  0
 14 48  1  0
 15 16  1  0
 15 49  1  0
 15 50  1  0
 16 17  1  0
 16 51  1  1
 17 18  1  6
 18 19  1  0
 18 29  1  0
 18 52  1  6
 19 20  1  0
 20 21  2  0
 20 22  1  0
 22 23  1  0
 22 53  1  0
 22 54  1  0
 23 28  1  0
 23 24  2  0
 24 25  1  0
 24 55  1  0
 25 26  2  0
 25 56  1  0
 26 27  1  0
 26 57  1  0
 27 28  2  0
 27 58  1  0
 28 59  1  0
M  END
>  <i_m_ct_stereo_status>  (385) 
1

>  <s_m_source_file>  (385) 
/var/tmp/pbs.5076255.sched01/tmpt95b3wv2/135g3gtwtb2.sdf

>  <i_m_source_file_index>  (385) 
19

>  <i_lp_mmshare_version>  (385) 
48012

>  <i_f3d_flags>  (385) 
0

>  <s_epik_input>  (385) 
W0NAQF0xMjNbQ0BASF00W0NIMl1bQ0gyXVtDQEBIXShbQ0gzXSlbQ0BASF0yW0NIMl1bQ0gyXVtDQEBdKFtDSDNdKShbQ0BIXTFDKD1PKU9bQ0BASF00W0NIM10pT1tDQEBIXTNPQyg9TylbQ0gyXWM1W2NIXVtjSF1bY0hdW2NIXVtjSF01

>  <s_epik_cmdline>  (385) 
J2VwaWtfcHl0aG9uJywgJy1waHQnLCAnMi4wJywgJy1waCcsICc3LjAnLCAnLXRuJywgJzgnLCAnLW1hJywgJzIwMCcsICctaW1hZScsICc8aW5maWxlLm1hZT4nLCAnLW9tYWUnLCAnPG91dGZpbGUubWFlPic=

>  <r_lp_tautomer_probability>  (385) 
1

>  <r_epik_Ionization_Penalty>  (385) 
7.2357e-14

>  <r_epik_Ionization_Penalty_Charging>  (385) 
0

>  <r_epik_Ionization_Penalty_Neutral>  (385) 
7.2357e-14

>  <r_epik_State_Penalty>  (385) 
-0

>  <r_epik_Charging_Adjusted_Penalty>  (385) 
0

>  <i_epik_Tot_Q>  (385) 
0

>  <i_epik_Tot_abs_Q>  (385) 
0

>  <s_epik_Chemistry_Notes>  (385) 
This compound has an ester and may undergo hydrolysis at high or low pH. This compound contains an acetal/aminal-like group ( X-CH(R)-Y where X, Y are N, S, or O) that may be acid/base labile, releasing an aldehyde.

>  <s_lp_Force_Field>  (385) 
OPLS3e

>  <r_lp_Energy>  (385) 
48.0649

>  <b_lp_Chiralities_Consistent>  (385) 
1

>  <s_lp_Variant>  (385) 
96:0-1

>  <s_i_glide_gridfile>  (385) 
pfpi4k_grid

>  <i_i_glide_lignum>  (385) 
19

>  <i_i_glide_rotatable_bonds>  (385) 
4

>  <r_i_docking_score>  (385) 
-2.84399

>  <r_i_glide_ligand_efficiency>  (385) 
-0.0980686

>  <r_i_glide_ligand_efficiency_sa>  (385) 
-0.301298

>  <r_i_glide_ligand_efficiency_ln>  (385) 
-0.651202

>  <r_i_glide_gscore>  (385) 
-2.84399

>  <r_i_glide_lipo>  (385) 
-0.461372

>  <r_i_glide_hbond>  (385) 
0

>  <r_i_glide_metal>  (385) 
-0

>  <r_i_glide_rewards>  (385) 
-0.76673

>  <r_i_glide_evdw>  (385) 
-28.1533

>  <r_i_glide_ecoul>  (385) 
-3.62979

>  <r_i_glide_erotb>  (385) 
0.370007

>  <r_i_glide_esite>  (385) 
-0.0337634

>  <r_i_glide_emodel>  (385) 
-33.5985

>  <r_i_glide_energy>  (385) 
-31.783

>  <r_i_glide_einternal>  (385) 
8.09103

>  <r_i_glide_intrahb_reward>  (385) 
-0

>  <i_i_glide_confnum>  (385) 
3

>  <i_i_glide_posenum>  (385) 
17

>  <r_i_glide_eff_state_penalty>  (385) 
0

>  <ligand_id>  (385) 
96

>  <original_smiles>  (385) 
CC1CCC2C(C)OC(=O)C3C4(C)CCC1C23C(OC(=O)Cc1ccccc1)O4

>  <smiles>  (385) 
[H]c1c([H])c([H])c(C([H])([H])C(=O)OC2([H])OC3(C([H])([H])[H])C([H])([H])C([H])([H])C4([H])C([H])(C([H])([H])[H])C([H])([H])C([H])([H])C5([H])C([H])(C([H])([H])[H])OC(=O)C3([H])C254)c([H])c1[H]

$$$$
97:0:0
     RDKit          3D

 53 57  0  0  1  0  0  0  0  0999 V2000
    4.6413   -4.4758    1.4054 C   0  0  0  0  0  0  0  0  0  0  0  0
    4.8209   -2.9435    1.3137 C   0  0  2  0  0  0  0  0  0  0  0  0
    4.8851   -2.4305    2.7523 C   0  0  0  0  0  0  0  0  0  0  0  0
    4.2143   -1.3585    3.2204 C   0  0  0  0  0  0  0  0  0  0  0  0
    4.1663   -0.9916    4.6992 C   0  0  0  0  0  0  0  0  0  0  0  0
    2.7063   -0.9007    5.2394 C   0  0  2  0  0  0  0  0  0  0  0  0
    2.7719   -0.5766    6.7493 C   0  0  0  0  0  0  0  0  0  0  0  0
    1.9511   -2.2493    5.0859 C   0  0  0  0  0  0  0  0  0  0  0  0
    2.5331   -3.3093    4.8699 O   0  0  0  0  0  0  0  0  0  0  0  0
    0.4317   -2.2325    5.2798 C   0  0  0  0  0  0  0  0  0  0  0  0
   -0.2227   -1.1034    4.4743 C   0  0  1  0  0  0  0  0  0  0  0  0
   -1.5976   -1.0258    4.7983 O   0  0  0  0  0  0  0  0  0  0  0  0
    0.4293    0.2534    4.7663 C   0  0  0  0  0  0  0  0  0  0  0  0
    1.9420    0.2300    4.4671 C   0  0  2  0  0  0  0  0  0  0  0  0
    2.1998    0.2087    2.9607 C   0  0  1  0  0  0  0  0  0  0  0  0
    3.4149    0.8906    2.6352 O   0  0  0  0  0  0  0  0  0  0  0  0
    3.3991   -0.4966    2.3308 C   0  0  1  0  0  0  0  0  0  0  0  0
    3.4910   -0.7925    0.8495 C   0  0  0  0  0  0  0  0  0  0  0  0
    3.6099   -2.3064    0.5670 C   0  0  1  0  0  0  0  0  0  0  0  0
    3.5905   -2.6503   -0.9447 C   0  0  0  0  0  0  0  0  0  0  0  0
    4.9149   -2.3696   -1.6839 C   0  0  1  0  0  0  0  0  0  0  0  0
    5.0633   -0.9800   -1.8926 O   0  0  0  0  0  0  0  0  0  0  0  0
    6.1259   -2.9597   -0.9230 C   0  0  1  0  0  0  0  0  0  0  0  0
    7.3526   -2.5705   -1.5188 O   0  0  0  0  0  0  0  0  0  0  0  0
    6.1416   -2.5930    0.5784 C   0  0  0  0  0  0  0  0  0  0  0  0
    4.5733   -4.9548    0.4315 H   0  0  0  0  0  0  0  0  0  0  0  0
    3.7327   -4.7364    1.9508 H   0  0  0  0  0  0  0  0  0  0  0  0
    5.4734   -4.9449    1.9318 H   0  0  0  0  0  0  0  0  0  0  0  0
    5.4391   -3.0386    3.4550 H   0  0  0  0  0  0  0  0  0  0  0  0
    4.7367   -1.7283    5.2671 H   0  0  0  0  0  0  0  0  0  0  0  0
    4.6733   -0.0338    4.8393 H   0  0  0  0  0  0  0  0  0  0  0  0
    3.2792    0.3692    6.9329 H   0  0  0  0  0  0  0  0  0  0  0  0
    3.3177   -1.3466    7.2949 H   0  0  0  0  0  0  0  0  0  0  0  0
    1.7851   -0.5074    7.2032 H   0  0  0  0  0  0  0  0  0  0  0  0
    0.0176   -3.1986    4.9892 H   0  0  0  0  0  0  0  0  0  0  0  0
    0.2279   -2.1049    6.3405 H   0  0  0  0  0  0  0  0  0  0  0  0
   -0.1313   -1.3291    3.4099 H   0  0  0  0  0  0  0  0  0  0  0  0
   -1.9839   -0.3264    4.2863 H   0  0  0  0  0  0  0  0  0  0  0  0
   -0.0473    1.0365    4.1730 H   0  0  0  0  0  0  0  0  0  0  0  0
    0.2632    0.5223    5.8108 H   0  0  0  0  0  0  0  0  0  0  0  0
    2.3339    1.1877    4.8172 H   0  0  0  0  0  0  0  0  0  0  0  0
    1.3711    0.4928    2.3188 H   0  0  0  0  0  0  0  0  0  0  0  0
    2.6158   -0.3794    0.3505 H   0  0  0  0  0  0  0  0  0  0  0  0
    4.3502   -0.2550    0.4566 H   0  0  0  0  0  0  0  0  0  0  0  0
    2.7009   -2.7397    0.9856 H   0  0  0  0  0  0  0  0  0  0  0  0
    3.3691   -3.7112   -1.0525 H   0  0  0  0  0  0  0  0  0  0  0  0
    2.7606   -2.1404   -1.4360 H   0  0  0  0  0  0  0  0  0  0  0  0
    4.8605   -2.8252   -2.6731 H   0  0  0  0  0  0  0  0  0  0  0  0
    4.2342   -0.6362   -2.1953 H   0  0  0  0  0  0  0  0  0  0  0  0
    6.0716   -4.0454   -1.0044 H   0  0  0  0  0  0  0  0  0  0  0  0
    7.4505   -3.0249   -2.3472 H   0  0  0  0  0  0  0  0  0  0  0  0
    6.3493   -1.5279    0.6908 H   0  0  0  0  0  0  0  0  0  0  0  0
    6.9728   -3.1074    1.0658 H   0  0  0  0  0  0  0  0  0  0  0  0
  2  1  1  1
  1 26  1  0
  1 27  1  0
  1 28  1  0
  2 19  1  0
  2 25  1  0
  2  3  1  0
  3  4  2  0
  3 29  1  0
  4 17  1  0
  4  5  1  0
  5  6  1  0
  5 30  1  0
  5 31  1  0
  6 14  1  0
  6  7  1  1
  6  8  1  0
  7 32  1  0
  7 33  1  0
  7 34  1  0
  8  9  2  0
  8 10  1  0
 10 11  1  0
 10 35  1  0
 10 36  1  0
 11 12  1  0
 11 13  1  0
 11 37  1  6
 12 38  1  0
 13 14  1  0
 13 39  1  0
 13 40  1  0
 14 15  1  0
 14 41  1  1
 15 17  1  0
 15 16  1  0
 15 42  1  6
 17 16  1  6
 17 18  1  0
 18 19  1  0
 18 43  1  0
 18 44  1  0
 19 20  1  0
 19 45  1  1
 20 21  1  0
 20 46  1  0
 20 47  1  0
 21 22  1  0
 21 23  1  0
 21 48  1  6
 22 49  1  0
 23 24  1  0
 23 25  1  0
 23 50  1  1
 24 51  1  0
 25 52  1  0
 25 53  1  0
M  END
>  <i_m_ct_stereo_status>  (386) 
1

>  <s_m_source_file>  (386) 
/var/tmp/pbs.5076255.sched01/tmpt95b3wv2/135g3gtwtb2.sdf

>  <i_m_source_file_index>  (386) 
20

>  <i_lp_mmshare_version>  (386) 
48012

>  <i_f3d_flags>  (386) 
0

>  <s_epik_input>  (386) 
W09IXVtDQEBIXShbQ0gyXTEpW0NASF0oW09IXSlbQ0gyXVtDQEhdKFtDSDJdMilbQ0BdMShbQ0gzXSlbQ0hdPUMoW0NAQF0yMzQpW0NIMl1bQ0BAXTUoW0NIM10pW0NAQEhdKFtDQEhdM080KVtDSDJdW0NASF0oW09IXSlbQ0gyXUM1PU8=

>  <s_epik_cmdline>  (386) 
J2VwaWtfcHl0aG9uJywgJy1waHQnLCAnMi4wJywgJy1waCcsICc3LjAnLCAnLXRuJywgJzgnLCAnLW1hJywgJzIwMCcsICctaW1hZScsICc8aW5maWxlLm1hZT4nLCAnLW9tYWUnLCAnPG91dGZpbGUubWFlPic=

>  <r_lp_tautomer_probability>  (386) 
1

>  <r_epik_Ionization_Penalty>  (386) 
9.62098e-07

>  <r_epik_Ionization_Penalty_Charging>  (386) 
0

>  <r_epik_Ionization_Penalty_Neutral>  (386) 
9.62098e-07

>  <r_epik_State_Penalty>  (386) 
-0

>  <r_epik_Charging_Adjusted_Penalty>  (386) 
0

>  <i_epik_Tot_Q>  (386) 
0

>  <i_epik_Tot_abs_Q>  (386) 
0

>  <s_lp_Force_Field>  (386) 
OPLS3e

>  <r_lp_Energy>  (386) 
29.5248

>  <b_lp_Chiralities_Consistent>  (386) 
1

>  <s_lp_Variant>  (386) 
97:0-1

>  <s_i_glide_gridfile>  (386) 
pfpi4k_grid

>  <i_i_glide_lignum>  (386) 
20

>  <i_i_glide_rotatable_bonds>  (386) 
3

>  <r_i_docking_score>  (386) 
-3.53349

>  <r_i_glide_ligand_efficiency>  (386) 
-0.14134

>  <r_i_glide_ligand_efficiency_sa>  (386) 
-0.413279

>  <r_i_glide_ligand_efficiency_ln>  (386) 
-0.837543

>  <r_i_glide_gscore>  (386) 
-3.53349

>  <r_i_glide_lipo>  (386) 
-0.220634

>  <r_i_glide_hbond>  (386) 
0

>  <r_i_glide_metal>  (386) 
-0

>  <r_i_glide_rewards>  (386) 
-1.03341

>  <r_i_glide_evdw>  (386) 
-24.7209

>  <r_i_glide_ecoul>  (386) 
-6.95602

>  <r_i_glide_erotb>  (386) 
0

>  <r_i_glide_esite>  (386) 
0

>  <r_i_glide_emodel>  (386) 
-38.6092

>  <r_i_glide_energy>  (386) 
-31.6769

>  <r_i_glide_einternal>  (386) 
1.32522

>  <r_i_glide_intrahb_reward>  (386) 
-0

>  <i_i_glide_confnum>  (386) 
2

>  <i_i_glide_posenum>  (386) 
14

>  <r_i_glide_eff_state_penalty>  (386) 
0

>  <ligand_id>  (386) 
97

>  <original_smiles>  (386) 
CC12C=C3CC4(C)C(=O)CC(O)CC4C4OC34CC1CC(O)C(O)C2

>  <smiles>  (386) 
[H]OC1([H])C([H])([H])C(=O)C2(C([H])([H])[H])C([H])([H])C3=C([H])C4(C([H])([H])[H])C([H])([H])C([H])(O[H])C([H])(O[H])C([H])([H])C4([H])C([H])([H])C34OC4([H])C2([H])C1([H])[H]

$$$$
97:0:1
     RDKit          3D

 53 57  0  0  1  0  0  0  0  0999 V2000
    4.1967   -4.6692    0.6684 C   0  0  0  0  0  0  0  0  0  0  0  0
    4.6078   -3.1940    0.8773 C   0  0  2  0  0  0  0  0  0  0  0  0
    4.7486   -2.9918    2.3859 C   0  0  0  0  0  0  0  0  0  0  0  0
    4.2515   -1.9426    3.0708 C   0  0  0  0  0  0  0  0  0  0  0  0
    4.2606   -1.8739    4.5947 C   0  0  0  0  0  0  0  0  0  0  0  0
    2.8307   -1.6719    5.1833 C   0  0  2  0  0  0  0  0  0  0  0  0
    2.9423   -1.6636    6.7251 C   0  0  0  0  0  0  0  0  0  0  0  0
    1.8754   -2.8322    4.7911 C   0  0  0  0  0  0  0  0  0  0  0  0
    2.2856   -3.9061    4.3524 O   0  0  0  0  0  0  0  0  0  0  0  0
    0.3774   -2.6246    5.0307 C   0  0  0  0  0  0  0  0  0  0  0  0
   -0.0935   -1.2728    4.4790 C   0  0  1  0  0  0  0  0  0  0  0  0
   -1.4426   -1.0551    4.8452 O   0  0  0  0  0  0  0  0  0  0  0  0
    0.7597   -0.1145    5.0099 C   0  0  0  0  0  0  0  0  0  0  0  0
    2.2538   -0.3059    4.6708 C   0  0  2  0  0  0  0  0  0  0  0  0
    2.5178   -0.0589    3.1842 C   0  0  1  0  0  0  0  0  0  0  0  0
    3.8323    0.4742    2.9611 O   0  0  0  0  0  0  0  0  0  0  0  0
    3.5853   -0.8069    2.3896 C   0  0  1  0  0  0  0  0  0  0  0  0
    3.6188   -0.8123    0.8756 C   0  0  0  0  0  0  0  0  0  0  0  0
    3.5106   -2.2439    0.3023 C   0  0  1  0  0  0  0  0  0  0  0  0
    3.4428   -2.2783   -1.2466 C   0  0  0  0  0  0  0  0  0  0  0  0
    4.7936   -2.0552   -1.9481 C   0  0  1  0  0  0  0  0  0  0  0  0
    5.1421   -0.6860   -1.8806 O   0  0  0  0  0  0  0  0  0  0  0  0
    5.8934   -2.9626   -1.3523 C   0  0  1  0  0  0  0  0  0  0  0  0
    7.1544   -2.6390   -1.9068 O   0  0  0  0  0  0  0  0  0  0  0  0
    5.9679   -2.9087    0.1891 C   0  0  0  0  0  0  0  0  0  0  0  0
    4.0569   -4.9288   -0.3786 H   0  0  0  0  0  0  0  0  0  0  0  0
    3.2592   -4.8931    1.1795 H   0  0  0  0  0  0  0  0  0  0  0  0
    4.9487   -5.3509    1.0670 H   0  0  0  0  0  0  0  0  0  0  0  0
    5.2025   -3.8038    2.9375 H   0  0  0  0  0  0  0  0  0  0  0  0
    4.7107   -2.7842    4.9924 H   0  0  0  0  0  0  0  0  0  0  0  0
    4.9079   -1.0493    4.9030 H   0  0  0  0  0  0  0  0  0  0  0  0
    3.5872   -0.8586    7.0739 H   0  0  0  0  0  0  0  0  0  0  0  0
    3.3643   -2.5983    7.0942 H   0  0  0  0  0  0  0  0  0  0  0  0
    1.9767   -1.5387    7.2128 H   0  0  0  0  0  0  0  0  0  0  0  0
   -0.1803   -3.4393    4.5695 H   0  0  0  0  0  0  0  0  0  0  0  0
    0.1947   -2.6789    6.1017 H   0  0  0  0  0  0  0  0  0  0  0  0
   -0.0377   -1.2957    3.3896 H   0  0  0  0  0  0  0  0  0  0  0  0
   -1.7323   -0.2529    4.4328 H   0  0  0  0  0  0  0  0  0  0  0  0
    0.4086    0.8340    4.6000 H   0  0  0  0  0  0  0  0  0  0  0  0
    0.6361   -0.0375    6.0914 H   0  0  0  0  0  0  0  0  0  0  0  0
    2.7849    0.4919    5.1930 H   0  0  0  0  0  0  0  0  0  0  0  0
    1.7423    0.4609    2.6294 H   0  0  0  0  0  0  0  0  0  0  0  0
    2.8086   -0.1937    0.4932 H   0  0  0  0  0  0  0  0  0  0  0  0
    4.5499   -0.3418    0.5679 H   0  0  0  0  0  0  0  0  0  0  0  0
    2.5447   -2.6098    0.6529 H   0  0  0  0  0  0  0  0  0  0  0  0
    3.0608   -3.2516   -1.5525 H   0  0  0  0  0  0  0  0  0  0  0  0
    2.7089   -1.5610   -1.6126 H   0  0  0  0  0  0  0  0  0  0  0  0
    4.6793   -2.2929   -3.0066 H   0  0  0  0  0  0  0  0  0  0  0  0
    4.3850   -0.1723   -2.1224 H   0  0  0  0  0  0  0  0  0  0  0  0
    5.6729   -3.9864   -1.6562 H   0  0  0  0  0  0  0  0  0  0  0  0
    7.7248   -3.3887   -1.8241 H   0  0  0  0  0  0  0  0  0  0  0  0
    6.3334   -1.9285    0.4978 H   0  0  0  0  0  0  0  0  0  0  0  0
    6.7112   -3.6254    0.5435 H   0  0  0  0  0  0  0  0  0  0  0  0
  2  1  1  1
  1 26  1  0
  1 27  1  0
  1 28  1  0
  2 19  1  0
  2 25  1  0
  2  3  1  0
  3  4  2  0
  3 29  1  0
  4 17  1  0
  4  5  1  0
  5  6  1  0
  5 30  1  0
  5 31  1  0
  6 14  1  0
  6  7  1  1
  6  8  1  0
  7 32  1  0
  7 33  1  0
  7 34  1  0
  8  9  2  0
  8 10  1  0
 10 11  1  0
 10 35  1  0
 10 36  1  0
 11 12  1  0
 11 13  1  0
 11 37  1  6
 12 38  1  0
 13 14  1  0
 13 39  1  0
 13 40  1  0
 14 15  1  0
 14 41  1  1
 15 17  1  0
 15 16  1  0
 15 42  1  6
 17 16  1  1
 17 18  1  0
 18 19  1  0
 18 43  1  0
 18 44  1  0
 19 20  1  0
 19 45  1  1
 20 21  1  0
 20 46  1  0
 20 47  1  0
 21 22  1  0
 21 23  1  0
 21 48  1  6
 22 49  1  0
 23 24  1  0
 23 25  1  0
 23 50  1  1
 24 51  1  0
 25 52  1  0
 25 53  1  0
M  END
>  <i_m_ct_stereo_status>  (387) 
1

>  <s_m_source_file>  (387) 
/var/tmp/pbs.5076255.sched01/tmpt95b3wv2/135g3gtwtb2.sdf

>  <i_m_source_file_index>  (387) 
20

>  <i_lp_mmshare_version>  (387) 
48012

>  <i_f3d_flags>  (387) 
0

>  <s_epik_input>  (387) 
W09IXVtDQEBIXShbQ0gyXTEpW0NASF0oW09IXSlbQ0gyXVtDQEhdKFtDSDJdMilbQ0BdMShbQ0gzXSlbQ0hdPUMoW0NAQF0yMzQpW0NIMl1bQ0BAXTUoW0NIM10pW0NAQEhdKFtDQEhdM080KVtDSDJdW0NASF0oW09IXSlbQ0gyXUM1PU8=

>  <s_epik_cmdline>  (387) 
J2VwaWtfcHl0aG9uJywgJy1waHQnLCAnMi4wJywgJy1waCcsICc3LjAnLCAnLXRuJywgJzgnLCAnLW1hJywgJzIwMCcsICctaW1hZScsICc8aW5maWxlLm1hZT4nLCAnLW9tYWUnLCAnPG91dGZpbGUubWFlPic=

>  <r_lp_tautomer_probability>  (387) 
1

>  <r_epik_Ionization_Penalty>  (387) 
9.62098e-07

>  <r_epik_Ionization_Penalty_Charging>  (387) 
0

>  <r_epik_Ionization_Penalty_Neutral>  (387) 
9.62098e-07

>  <r_epik_State_Penalty>  (387) 
-0

>  <r_epik_Charging_Adjusted_Penalty>  (387) 
0

>  <i_epik_Tot_Q>  (387) 
0

>  <i_epik_Tot_abs_Q>  (387) 
0

>  <s_lp_Force_Field>  (387) 
OPLS3e

>  <r_lp_Energy>  (387) 
29.5248

>  <b_lp_Chiralities_Consistent>  (387) 
1

>  <s_lp_Variant>  (387) 
97:0-1

>  <s_i_glide_gridfile>  (387) 
pfpi4k_grid

>  <i_i_glide_lignum>  (387) 
20

>  <i_i_glide_rotatable_bonds>  (387) 
3

>  <r_i_docking_score>  (387) 
-3.25108

>  <r_i_glide_ligand_efficiency>  (387) 
-0.130043

>  <r_i_glide_ligand_efficiency_sa>  (387) 
-0.380249

>  <r_i_glide_ligand_efficiency_ln>  (387) 
-0.770603

>  <r_i_glide_gscore>  (387) 
-3.25108

>  <r_i_glide_lipo>  (387) 
-0.206902

>  <r_i_glide_hbond>  (387) 
0

>  <r_i_glide_metal>  (387) 
-0

>  <r_i_glide_rewards>  (387) 
-1.03573

>  <r_i_glide_evdw>  (387) 
-24.1362

>  <r_i_glide_ecoul>  (387) 
-5.34425

>  <r_i_glide_erotb>  (387) 
0

>  <r_i_glide_esite>  (387) 
0

>  <r_i_glide_emodel>  (387) 
-35.7039

>  <r_i_glide_energy>  (387) 
-29.4804

>  <r_i_glide_einternal>  (387) 
1.37386

>  <r_i_glide_intrahb_reward>  (387) 
-0

>  <i_i_glide_confnum>  (387) 
1

>  <i_i_glide_posenum>  (387) 
1

>  <r_i_glide_eff_state_penalty>  (387) 
0

>  <ligand_id>  (387) 
97

>  <original_smiles>  (387) 
CC12C=C3CC4(C)C(=O)CC(O)CC4C4OC34CC1CC(O)C(O)C2

>  <smiles>  (387) 
[H]OC1([H])C([H])([H])C(=O)C2(C([H])([H])[H])C([H])([H])C3=C([H])C4(C([H])([H])[H])C([H])([H])C([H])(O[H])C([H])(O[H])C([H])([H])C4([H])C([H])([H])C34OC4([H])C2([H])C1([H])[H]

$$$$
97:0:2
     RDKit          3D

 53 57  0  0  1  0  0  0  0  0999 V2000
    4.4027   -5.6308    0.6600 C   0  0  0  0  0  0  0  0  0  0  0  0
    4.4397   -4.0991    0.8627 C   0  0  2  0  0  0  0  0  0  0  0  0
    4.9588   -3.8643    2.2797 C   0  0  0  0  0  0  0  0  0  0  0  0
    4.4162   -3.0059    3.1646 C   0  0  0  0  0  0  0  0  0  0  0  0
    4.8550   -2.9308    4.6241 C   0  0  0  0  0  0  0  0  0  0  0  0
    3.6675   -3.1460    5.6106 C   0  0  2  0  0  0  0  0  0  0  0  0
    4.2252   -3.1061    7.0501 C   0  0  0  0  0  0  0  0  0  0  0  0
    2.9984   -4.5325    5.4080 C   0  0  0  0  0  0  0  0  0  0  0  0
    3.5411   -5.4391    4.7817 O   0  0  0  0  0  0  0  0  0  0  0  0
    1.6380   -4.7660    6.0739 C   0  0  0  0  0  0  0  0  0  0  0  0
    0.6675   -3.6095    5.7875 C   0  0  1  0  0  0  0  0  0  0  0  0
   -0.5273   -3.7949    6.5212 O   0  0  0  0  0  0  0  0  0  0  0  0
    1.2899   -2.2540    6.1609 C   0  0  0  0  0  0  0  0  0  0  0  0
    2.6133   -2.0040    5.4007 C   0  0  2  0  0  0  0  0  0  0  0  0
    2.3528   -1.6917    3.9256 C   0  0  1  0  0  0  0  0  0  0  0  0
    3.3491   -0.8117    3.3828 O   0  0  0  0  0  0  0  0  0  0  0  0
    3.2950   -2.1078    2.8022 C   0  0  1  0  0  0  0  0  0  0  0  0
    2.8808   -2.1046    1.3474 C   0  0  0  0  0  0  0  0  0  0  0  0
    3.0074   -3.5035    0.7079 C   0  0  1  0  0  0  0  0  0  0  0  0
    2.4974   -3.5538   -0.7525 C   0  0  0  0  0  0  0  0  0  0  0  0
    3.4579   -2.9546   -1.7906 C   0  0  1  0  0  0  0  0  0  0  0  0
    3.4198   -1.5397   -1.6978 O   0  0  0  0  0  0  0  0  0  0  0  0
    4.8869   -3.5175   -1.6149 C   0  0  1  0  0  0  0  0  0  0  0  0
    5.7774   -2.8408   -2.4740 O   0  0  0  0  0  0  0  0  0  0  0  0
    5.3992   -3.4363   -0.1592 C   0  0  0  0  0  0  0  0  0  0  0  0
    4.0349   -5.9213   -0.3209 H   0  0  0  0  0  0  0  0  0  0  0  0
    3.7576   -6.1116    1.3979 H   0  0  0  0  0  0  0  0  0  0  0  0
    5.3945   -6.0711    0.7701 H   0  0  0  0  0  0  0  0  0  0  0  0
    5.7629   -4.5118    2.6103 H   0  0  0  0  0  0  0  0  0  0  0  0
    5.6324   -3.6781    4.7961 H   0  0  0  0  0  0  0  0  0  0  0  0
    5.3116   -1.9533    4.8033 H   0  0  0  0  0  0  0  0  0  0  0  0
    4.6998   -2.1516    7.2686 H   0  0  0  0  0  0  0  0  0  0  0  0
    4.9742   -3.8825    7.2013 H   0  0  0  0  0  0  0  0  0  0  0  0
    3.4521   -3.2632    7.8001 H   0  0  0  0  0  0  0  0  0  0  0  0
    1.2205   -5.7114    5.7262 H   0  0  0  0  0  0  0  0  0  0  0  0
    1.8053   -4.8713    7.1447 H   0  0  0  0  0  0  0  0  0  0  0  0
    0.4094   -3.6109    4.7268 H   0  0  0  0  0  0  0  0  0  0  0  0
   -0.2990   -4.0226    7.4106 H   0  0  0  0  0  0  0  0  0  0  0  0
    0.5856   -1.4488    5.9475 H   0  0  0  0  0  0  0  0  0  0  0  0
    1.4753   -2.2161    7.2369 H   0  0  0  0  0  0  0  0  0  0  0  0
    3.0331   -1.0860    5.8174 H   0  0  0  0  0  0  0  0  0  0  0  0
    1.3365   -1.4166    3.6602 H   0  0  0  0  0  0  0  0  0  0  0  0
    1.8573   -1.7378    1.2700 H   0  0  0  0  0  0  0  0  0  0  0  0
    3.5138   -1.3864    0.8336 H   0  0  0  0  0  0  0  0  0  0  0  0
    2.3310   -4.1342    1.2845 H   0  0  0  0  0  0  0  0  0  0  0  0
    2.3221   -4.5954   -1.0178 H   0  0  0  0  0  0  0  0  0  0  0  0
    1.5253   -3.0732   -0.8359 H   0  0  0  0  0  0  0  0  0  0  0  0
    3.0983   -3.2139   -2.7869 H   0  0  0  0  0  0  0  0  0  0  0  0
    2.5149   -1.2803   -1.5403 H   0  0  0  0  0  0  0  0  0  0  0  0
    4.8867   -4.5645   -1.9225 H   0  0  0  0  0  0  0  0  0  0  0  0
    5.5855   -1.9193   -2.3733 H   0  0  0  0  0  0  0  0  0  0  0  0
    5.5564   -2.3921    0.1176 H   0  0  0  0  0  0  0  0  0  0  0  0
    6.3805   -3.9127   -0.0951 H   0  0  0  0  0  0  0  0  0  0  0  0
  2  1  1  6
  1 26  1  0
  1 27  1  0
  1 28  1  0
  2 19  1  0
  2 25  1  0
  2  3  1  0
  3  4  2  0
  3 29  1  0
  4 17  1  0
  4  5  1  0
  5  6  1  0
  5 30  1  0
  5 31  1  0
  6 14  1  0
  6  7  1  1
  6  8  1  0
  7 32  1  0
  7 33  1  0
  7 34  1  0
  8  9  2  0
  8 10  1  0
 10 11  1  0
 10 35  1  0
 10 36  1  0
 11 12  1  0
 11 13  1  0
 11 37  1  6
 12 38  1  0
 13 14  1  0
 13 39  1  0
 13 40  1  0
 14 15  1  0
 14 41  1  1
 15 17  1  0
 15 16  1  0
 15 42  1  6
 17 16  1  6
 17 18  1  0
 18 19  1  0
 18 43  1  0
 18 44  1  0
 19 20  1  0
 19 45  1  1
 20 21  1  0
 20 46  1  0
 20 47  1  0
 21 22  1  0
 21 23  1  0
 21 48  1  6
 22 49  1  0
 23 24  1  0
 23 25  1  0
 23 50  1  6
 24 51  1  0
 25 52  1  0
 25 53  1  0
M  END
>  <i_m_ct_stereo_status>  (388) 
1

>  <s_m_source_file>  (388) 
/var/tmp/pbs.5076255.sched01/tmpt95b3wv2/135g3gtwtb2.sdf

>  <i_m_source_file_index>  (388) 
20

>  <i_lp_mmshare_version>  (388) 
48012

>  <i_f3d_flags>  (388) 
0

>  <s_epik_input>  (388) 
W09IXVtDQEBIXShbQ0gyXTEpW0NASF0oW09IXSlbQ0gyXVtDQEhdKFtDSDJdMilbQ0BdMShbQ0gzXSlbQ0hdPUMoW0NAQF0yMzQpW0NIMl1bQ0BAXTUoW0NIM10pW0NAQEhdKFtDQEhdM080KVtDSDJdW0NASF0oW09IXSlbQ0gyXUM1PU8=

>  <s_epik_cmdline>  (388) 
J2VwaWtfcHl0aG9uJywgJy1waHQnLCAnMi4wJywgJy1waCcsICc3LjAnLCAnLXRuJywgJzgnLCAnLW1hJywgJzIwMCcsICctaW1hZScsICc8aW5maWxlLm1hZT4nLCAnLW9tYWUnLCAnPG91dGZpbGUubWFlPic=

>  <r_lp_tautomer_probability>  (388) 
1

>  <r_epik_Ionization_Penalty>  (388) 
9.62098e-07

>  <r_epik_Ionization_Penalty_Charging>  (388) 
0

>  <r_epik_Ionization_Penalty_Neutral>  (388) 
9.62098e-07

>  <r_epik_State_Penalty>  (388) 
-0

>  <r_epik_Charging_Adjusted_Penalty>  (388) 
0

>  <i_epik_Tot_Q>  (388) 
0

>  <i_epik_Tot_abs_Q>  (388) 
0

>  <s_lp_Force_Field>  (388) 
OPLS3e

>  <r_lp_Energy>  (388) 
29.5248

>  <b_lp_Chiralities_Consistent>  (388) 
1

>  <s_lp_Variant>  (388) 
97:0-1

>  <s_i_glide_gridfile>  (388) 
pfpi4k_grid

>  <i_i_glide_lignum>  (388) 
20

>  <i_i_glide_rotatable_bonds>  (388) 
3

>  <r_i_docking_score>  (388) 
-2.97751

>  <r_i_glide_ligand_efficiency>  (388) 
-0.1191

>  <r_i_glide_ligand_efficiency_sa>  (388) 
-0.348251

>  <r_i_glide_ligand_efficiency_ln>  (388) 
-0.705758

>  <r_i_glide_gscore>  (388) 
-2.97751

>  <r_i_glide_lipo>  (388) 
-0.255895

>  <r_i_glide_hbond>  (388) 
0

>  <r_i_glide_metal>  (388) 
-0

>  <r_i_glide_rewards>  (388) 
-1.03341

>  <r_i_glide_evdw>  (388) 
-21.2137

>  <r_i_glide_ecoul>  (388) 
-4.18344

>  <r_i_glide_erotb>  (388) 
0

>  <r_i_glide_esite>  (388) 
0

>  <r_i_glide_emodel>  (388) 
-31.0574

>  <r_i_glide_energy>  (388) 
-25.3971

>  <r_i_glide_einternal>  (388) 
1.04612

>  <r_i_glide_intrahb_reward>  (388) 
-0

>  <i_i_glide_confnum>  (388) 
2

>  <i_i_glide_posenum>  (388) 
5

>  <r_i_glide_eff_state_penalty>  (388) 
0

>  <ligand_id>  (388) 
97

>  <original_smiles>  (388) 
CC12C=C3CC4(C)C(=O)CC(O)CC4C4OC34CC1CC(O)C(O)C2

>  <smiles>  (388) 
[H]OC1([H])C([H])([H])C(=O)C2(C([H])([H])[H])C([H])([H])C3=C([H])C4(C([H])([H])[H])C([H])([H])C([H])(O[H])C([H])(O[H])C([H])([H])C4([H])C([H])([H])C34OC4([H])C2([H])C1([H])[H]

$$$$
98:0:0
     RDKit          3D

 35 38  0  0  1  0  0  0  0  0999 V2000
    3.7698   -2.2182   -4.7197 O   0  0  0  0  0  0  0  0  0  0  0  0
    3.8130   -1.5472   -3.7056 C   0  0  0  0  0  0  0  0  0  0  0  0
    3.1708   -0.2080   -3.6674 C   0  0  0  0  0  0  0  0  0  0  0  0
    2.4949    0.3197   -4.9272 C   0  0  0  0  0  0  0  0  0  0  0  0
    3.8083    0.8743   -4.5153 C   0  0  0  0  0  0  0  0  0  0  0  0
    4.5294   -1.9560   -2.6446 N   0  0  0  0  0  0  0  0  0  0  0  0
    4.1632   -1.6144   -1.2638 C   0  0  0  0  0  0  0  0  0  0  0  0
    5.4172   -1.4656   -0.3667 C   0  0  0  0  0  0  0  0  0  0  0  0
    6.3169   -2.7123   -0.4937 C   0  0  0  0  0  0  0  0  0  0  0  0
    6.6969   -2.9651   -1.9485 C   0  0  0  0  0  0  0  0  0  0  0  0
    5.4327   -3.1126   -2.8048 C   0  0  0  0  0  0  0  0  0  0  0  0
    7.5272   -2.5339    0.2100 O   0  0  0  0  0  0  0  0  0  0  0  0
    7.9500   -3.8156    0.7543 C   0  0  0  0  0  0  0  0  0  0  0  0
    6.6699   -4.5425    0.8897 C   0  0  0  0  0  0  0  0  0  0  0  0
    6.0474   -5.6220    1.4627 C   0  0  0  0  0  0  0  0  0  0  0  0
    4.7139   -5.4755    0.9321 C   0  0  0  0  0  0  0  0  0  0  0  0
    4.5631   -4.4323    0.1196 N   0  0  0  0  0  0  0  0  0  0  0  0
    5.7895   -3.8844    0.1550 N   0  0  0  0  0  0  0  0  0  0  0  0
    2.6877    0.1145   -2.7511 H   0  0  0  0  0  0  0  0  0  0  0  0
    2.5172   -0.2407   -5.8619 H   0  0  0  0  0  0  0  0  0  0  0  0
    1.6150    0.9535   -4.7656 H   0  0  0  0  0  0  0  0  0  0  0  0
    3.8203    1.8996   -4.1378 H   0  0  0  0  0  0  0  0  0  0  0  0
    4.6244    0.6177   -5.1755 H   0  0  0  0  0  0  0  0  0  0  0  0
    3.5300   -0.7350   -1.1306 H   0  0  0  0  0  0  0  0  0  0  0  0
    3.5107   -2.4153   -0.9224 H   0  0  0  0  0  0  0  0  0  0  0  0
    5.9847   -0.5850   -0.6698 H   0  0  0  0  0  0  0  0  0  0  0  0
    5.1429   -1.3262    0.6815 H   0  0  0  0  0  0  0  0  0  0  0  0
    7.3191   -2.1386   -2.2874 H   0  0  0  0  0  0  0  0  0  0  0  0
    7.3236   -3.8514   -2.0271 H   0  0  0  0  0  0  0  0  0  0  0  0
    4.9025   -4.0344   -2.5630 H   0  0  0  0  0  0  0  0  0  0  0  0
    5.7881   -3.2519   -3.8293 H   0  0  0  0  0  0  0  0  0  0  0  0
    8.5922   -4.3121    0.0245 H   0  0  0  0  0  0  0  0  0  0  0  0
    8.5043   -3.7292    1.6830 H   0  0  0  0  0  0  0  0  0  0  0  0
    6.4477   -6.3723    2.1231 H   0  0  0  0  0  0  0  0  0  0  0  0
    3.8282   -6.0749    1.1048 H   0  0  0  0  0  0  0  0  0  0  0  0
  1  2  2  0
  2  3  1  0
  2  6  1  0
  3  5  1  0
  3  4  1  0
  3 19  1  0
  4  5  1  0
  4 20  1  0
  4 21  1  0
  5 22  1  0
  5 23  1  0
  6 11  1  0
  6  7  1  0
  7  8  1  0
  7 24  1  0
  7 25  1  0
  8  9  1  0
  8 26  1  0
  8 27  1  0
  9 18  1  0
  9 10  1  0
  9 12  1  0
 10 11  1  0
 10 28  1  0
 10 29  1  0
 11 30  1  0
 11 31  1  0
 12 13  1  0
 13 14  1  0
 13 32  1  0
 13 33  1  0
 14 18  1  0
 14 15  2  0
 15 16  1  0
 15 34  1  0
 16 17  2  0
 16 35  1  0
 17 18  1  0
M  END
>  <i_m_ct_stereo_status>  (389) 
1

>  <s_m_source_file>  (389) 
/var/tmp/pbs.5076255.sched01/tmpt95b3wv2/135g3gtwtb2.sdf

>  <i_m_source_file_index>  (389) 
21

>  <i_lp_mmshare_version>  (389) 
48012

>  <i_f3d_flags>  (389) 
0

>  <s_epik_input>  (389) 
W0NIMl0xW0NIMl1bQ0hdMUMoPU8pTihbQ0gyXVtDSDJdMilbQ0gyXVtDSDJdQzIzbjRjKFtDSDJdTzMpW2NIXVtjSF1uNA==

>  <s_epik_cmdline>  (389) 
J2VwaWtfcHl0aG9uJywgJy1waHQnLCAnMi4wJywgJy1waCcsICc3LjAnLCAnLXRuJywgJzgnLCAnLW1hJywgJzIwMCcsICctaW1hZScsICc8aW5maWxlLm1hZT4nLCAnLW9tYWUnLCAnPG91dGZpbGUubWFlPic=

>  <r_lp_tautomer_probability>  (389) 
1

>  <r_epik_Ionization_Penalty>  (389) 
4.57399e-05

>  <r_epik_Ionization_Penalty_Charging>  (389) 
0

>  <r_epik_Ionization_Penalty_Neutral>  (389) 
4.57399e-05

>  <r_epik_State_Penalty>  (389) 
-0

>  <r_epik_Charging_Adjusted_Penalty>  (389) 
0

>  <i_epik_Tot_Q>  (389) 
0

>  <i_epik_Tot_abs_Q>  (389) 
0

>  <s_lp_Force_Field>  (389) 
OPLS3e

>  <r_lp_Energy>  (389) 
37.3239

>  <b_lp_Chiralities_Consistent>  (389) 
1

>  <s_lp_Variant>  (389) 
98:0-1

>  <s_i_glide_gridfile>  (389) 
pfpi4k_grid

>  <i_i_glide_lignum>  (389) 
21

>  <i_i_glide_rotatable_bonds>  (389) 
2

>  <r_i_docking_score>  (389) 
-4.32899

>  <r_i_glide_ligand_efficiency>  (389) 
-0.240499

>  <r_i_glide_ligand_efficiency_sa>  (389) 
-0.630287

>  <r_i_glide_ligand_efficiency_ln>  (389) 
-1.11274

>  <r_i_glide_gscore>  (389) 
-4.32899

>  <r_i_glide_lipo>  (389) 
-0.805422

>  <r_i_glide_hbond>  (389) 
-0.29062

>  <r_i_glide_metal>  (389) 
-0

>  <r_i_glide_rewards>  (389) 
-2.12146

>  <r_i_glide_evdw>  (389) 
-21.1313

>  <r_i_glide_ecoul>  (389) 
-4.14506

>  <r_i_glide_erotb>  (389) 
0.570543

>  <r_i_glide_esite>  (389) 
-0.00370244

>  <r_i_glide_emodel>  (389) 
-31.3135

>  <r_i_glide_energy>  (389) 
-25.2764

>  <r_i_glide_einternal>  (389) 
1.96622

>  <r_i_glide_intrahb_reward>  (389) 
-0

>  <i_i_glide_confnum>  (389) 
4

>  <i_i_glide_posenum>  (389) 
23

>  <r_i_glide_eff_state_penalty>  (389) 
0

>  <ligand_id>  (389) 
98

>  <original_smiles>  (389) 
O=C(C1CC1)N1CCC2(CC1)OCc1ccnn12

>  <smiles>  (389) 
[H]c1nn2c(c1[H])C([H])([H])OC21C([H])([H])C([H])([H])N(C(=O)C2([H])C([H])([H])C2([H])[H])C([H])([H])C1([H])[H]

$$$$
98:0:1
     RDKit          3D

 35 38  0  0  1  0  0  0  0  0999 V2000
    5.6700   -3.4020   -1.8753 O   0  0  0  0  0  0  0  0  0  0  0  0
    4.5360   -3.1572   -1.4801 C   0  0  0  0  0  0  0  0  0  0  0  0
    3.6191   -2.2952   -2.3050 C   0  0  0  0  0  0  0  0  0  0  0  0
    3.8430   -2.1930   -3.7812 C   0  0  0  0  0  0  0  0  0  0  0  0
    4.2240   -1.0310   -2.9060 C   0  0  0  0  0  0  0  0  0  0  0  0
    3.9990   -3.7820   -0.3902 N   0  0  0  0  0  0  0  0  0  0  0  0
    2.7655   -3.3145    0.2495 C   0  0  0  0  0  0  0  0  0  0  0  0
    2.8088   -3.4723    1.7896 C   0  0  0  0  0  0  0  0  0  0  0  0
    3.2240   -4.8952    2.1978 C   0  0  0  0  0  0  0  0  0  0  0  0
    4.5879   -5.2326    1.5792 C   0  0  0  0  0  0  0  0  0  0  0  0
    4.5379   -5.0780    0.0547 C   0  0  0  0  0  0  0  0  0  0  0  0
    3.3680   -4.9889    3.5961 O   0  0  0  0  0  0  0  0  0  0  0  0
    2.9420   -6.2908    4.0679 C   0  0  0  0  0  0  0  0  0  0  0  0
    1.9973   -6.7015    3.0022 C   0  0  0  0  0  0  0  0  0  0  0  0
    1.0051   -7.5756    2.6677 C   0  0  0  0  0  0  0  0  0  0  0  0
    0.6847   -7.1316    1.3332 C   0  0  0  0  0  0  0  0  0  0  0  0
    1.4152   -6.1145    0.9051 N   0  0  0  0  0  0  0  0  0  0  0  0
    2.2025   -5.8866    1.9774 N   0  0  0  0  0  0  0  0  0  0  0  0
    2.5634   -2.2433   -2.0423 H   0  0  0  0  0  0  0  0  0  0  0  0
    4.6214   -2.8145   -4.2004 H   0  0  0  0  0  0  0  0  0  0  0  0
    2.9351   -2.1135   -4.3691 H   0  0  0  0  0  0  0  0  0  0  0  0
    3.5901   -0.1373   -2.9060 H   0  0  0  0  0  0  0  0  0  0  0  0
    5.2891   -0.8411   -2.7258 H   0  0  0  0  0  0  0  0  0  0  0  0
    2.5601   -2.2570    0.0730 H   0  0  0  0  0  0  0  0  0  0  0  0
    1.9261   -3.8341   -0.2140 H   0  0  0  0  0  0  0  0  0  0  0  0
    3.5407   -2.7778    2.2056 H   0  0  0  0  0  0  0  0  0  0  0  0
    1.8536   -3.2320    2.2595 H   0  0  0  0  0  0  0  0  0  0  0  0
    5.3426   -4.5638    2.0132 H   0  0  0  0  0  0  0  0  0  0  0  0
    4.8709   -6.2510    1.8517 H   0  0  0  0  0  0  0  0  0  0  0  0
    3.9011   -5.8553   -0.3457 H   0  0  0  0  0  0  0  0  0  0  0  0
    5.5316   -5.3144   -0.3243 H   0  0  0  0  0  0  0  0  0  0  0  0
    3.7798   -6.9737    4.0641 H   0  0  0  0  0  0  0  0  0  0  0  0
    2.4929   -6.2575    5.0500 H   0  0  0  0  0  0  0  0  0  0  0  0
    0.6110   -8.3837    3.2598 H   0  0  0  0  0  0  0  0  0  0  0  0
   -0.0558   -7.5224    0.6469 H   0  0  0  0  0  0  0  0  0  0  0  0
  1  2  2  0
  2  3  1  0
  2  6  1  0
  3  5  1  0
  3  4  1  0
  3 19  1  0
  4  5  1  0
  4 20  1  0
  4 21  1  0
  5 22  1  0
  5 23  1  0
  6 11  1  0
  6  7  1  0
  7  8  1  0
  7 24  1  0
  7 25  1  0
  8  9  1  0
  8 26  1  0
  8 27  1  0
  9 18  1  0
  9 10  1  0
  9 12  1  0
 10 11  1  0
 10 28  1  0
 10 29  1  0
 11 30  1  0
 11 31  1  0
 12 13  1  0
 13 14  1  0
 13 32  1  0
 13 33  1  0
 14 18  1  0
 14 15  2  0
 15 16  1  0
 15 34  1  0
 16 17  2  0
 16 35  1  0
 17 18  1  0
M  END
>  <i_m_ct_stereo_status>  (390) 
1

>  <s_m_source_file>  (390) 
/var/tmp/pbs.5076255.sched01/tmpt95b3wv2/135g3gtwtb2.sdf

>  <i_m_source_file_index>  (390) 
21

>  <i_lp_mmshare_version>  (390) 
48012

>  <i_f3d_flags>  (390) 
0

>  <s_epik_input>  (390) 
W0NIMl0xW0NIMl1bQ0hdMUMoPU8pTihbQ0gyXVtDSDJdMilbQ0gyXVtDSDJdQzIzbjRjKFtDSDJdTzMpW2NIXVtjSF1uNA==

>  <s_epik_cmdline>  (390) 
J2VwaWtfcHl0aG9uJywgJy1waHQnLCAnMi4wJywgJy1waCcsICc3LjAnLCAnLXRuJywgJzgnLCAnLW1hJywgJzIwMCcsICctaW1hZScsICc8aW5maWxlLm1hZT4nLCAnLW9tYWUnLCAnPG91dGZpbGUubWFlPic=

>  <r_lp_tautomer_probability>  (390) 
1

>  <r_epik_Ionization_Penalty>  (390) 
4.57399e-05

>  <r_epik_Ionization_Penalty_Charging>  (390) 
0

>  <r_epik_Ionization_Penalty_Neutral>  (390) 
4.57399e-05

>  <r_epik_State_Penalty>  (390) 
-0

>  <r_epik_Charging_Adjusted_Penalty>  (390) 
0

>  <i_epik_Tot_Q>  (390) 
0

>  <i_epik_Tot_abs_Q>  (390) 
0

>  <s_lp_Force_Field>  (390) 
OPLS3e

>  <r_lp_Energy>  (390) 
37.3239

>  <b_lp_Chiralities_Consistent>  (390) 
1

>  <s_lp_Variant>  (390) 
98:0-1

>  <s_i_glide_gridfile>  (390) 
pfpi4k_grid

>  <i_i_glide_lignum>  (390) 
21

>  <i_i_glide_rotatable_bonds>  (390) 
2

>  <r_i_docking_score>  (390) 
-3.24207

>  <r_i_glide_ligand_efficiency>  (390) 
-0.180115

>  <r_i_glide_ligand_efficiency_sa>  (390) 
-0.472034

>  <r_i_glide_ligand_efficiency_ln>  (390) 
-0.833356

>  <r_i_glide_gscore>  (390) 
-3.24207

>  <r_i_glide_lipo>  (390) 
-0.200117

>  <r_i_glide_hbond>  (390) 
-0.134205

>  <r_i_glide_metal>  (390) 
-0

>  <r_i_glide_rewards>  (390) 
-1.724

>  <r_i_glide_evdw>  (390) 
-24.0092

>  <r_i_glide_ecoul>  (390) 
-3.52579

>  <r_i_glide_erotb>  (390) 
0.570543

>  <r_i_glide_esite>  (390) 
-0.0249634

>  <r_i_glide_emodel>  (390) 
-31.8734

>  <r_i_glide_energy>  (390) 
-27.535

>  <r_i_glide_einternal>  (390) 
2.32975

>  <r_i_glide_intrahb_reward>  (390) 
-0

>  <i_i_glide_confnum>  (390) 
1

>  <i_i_glide_posenum>  (390) 
28

>  <r_i_glide_eff_state_penalty>  (390) 
0

>  <ligand_id>  (390) 
98

>  <original_smiles>  (390) 
O=C(C1CC1)N1CCC2(CC1)OCc1ccnn12

>  <smiles>  (390) 
[H]c1nn2c(c1[H])C([H])([H])OC21C([H])([H])C([H])([H])N(C(=O)C2([H])C([H])([H])C2([H])[H])C([H])([H])C1([H])[H]

$$$$
98:0:2
     RDKit          3D

 35 38  0  0  1  0  0  0  0  0999 V2000
    5.7150   -2.7338   -2.6273 O   0  0  0  0  0  0  0  0  0  0  0  0
    4.6649   -2.7912   -1.9805 C   0  0  0  0  0  0  0  0  0  0  0  0
    3.4243   -2.1151   -2.4893 C   0  0  0  0  0  0  0  0  0  0  0  0
    3.0159   -2.3805   -3.9193 C   0  0  0  0  0  0  0  0  0  0  0  0
    3.6039   -1.0434   -3.5473 C   0  0  0  0  0  0  0  0  0  0  0  0
    4.6004   -3.4443   -0.7967 N   0  0  0  0  0  0  0  0  0  0  0  0
    3.3449   -3.9765   -0.2240 C   0  0  0  0  0  0  0  0  0  0  0  0
    3.3343   -3.8866    1.3228 C   0  0  0  0  0  0  0  0  0  0  0  0
    4.5899   -4.5602    1.9119 C   0  0  0  0  0  0  0  0  0  0  0  0
    5.8561   -3.9260    1.3212 C   0  0  0  0  0  0  0  0  0  0  0  0
    5.8321   -4.0124   -0.2119 C   0  0  0  0  0  0  0  0  0  0  0  0
    4.6416   -4.3984    3.3153 O   0  0  0  0  0  0  0  0  0  0  0  0
    5.2301   -5.5743    3.9247 C   0  0  0  0  0  0  0  0  0  0  0  0
    4.9241   -6.6226    2.9254 C   0  0  0  0  0  0  0  0  0  0  0  0
    4.8570   -7.9720    2.6941 C   0  0  0  0  0  0  0  0  0  0  0  0
    4.4312   -8.0093    1.3265 C   0  0  0  0  0  0  0  0  0  0  0  0
    4.2845   -6.8089    0.7744 N   0  0  0  0  0  0  0  0  0  0  0  0
    4.5791   -5.9965    1.8031 N   0  0  0  0  0  0  0  0  0  0  0  0
    2.6405   -1.8887   -1.7736 H   0  0  0  0  0  0  0  0  0  0  0  0
    3.6299   -3.0583   -4.5018 H   0  0  0  0  0  0  0  0  0  0  0  0
    1.9480   -2.4232   -4.1209 H   0  0  0  0  0  0  0  0  0  0  0  0
    2.9283   -0.1892   -3.4681 H   0  0  0  0  0  0  0  0  0  0  0  0
    4.6158   -0.8173   -3.8892 H   0  0  0  0  0  0  0  0  0  0  0  0
    2.4280   -3.5280   -0.5971 H   0  0  0  0  0  0  0  0  0  0  0  0
    3.2530   -5.0067   -0.5562 H   0  0  0  0  0  0  0  0  0  0  0  0
    3.3141   -2.8453    1.6454 H   0  0  0  0  0  0  0  0  0  0  0  0
    2.4481   -4.3603    1.7435 H   0  0  0  0  0  0  0  0  0  0  0  0
    5.9075   -2.8857    1.6518 H   0  0  0  0  0  0  0  0  0  0  0  0
    6.7373   -4.4259    1.7279 H   0  0  0  0  0  0  0  0  0  0  0  0
    5.9333   -5.0506   -0.5191 H   0  0  0  0  0  0  0  0  0  0  0  0
    6.7410   -3.5108   -0.5536 H   0  0  0  0  0  0  0  0  0  0  0  0
    6.3072   -5.4384    3.9944 H   0  0  0  0  0  0  0  0  0  0  0  0
    4.8255   -5.7788    4.9095 H   0  0  0  0  0  0  0  0  0  0  0  0
    5.0763   -8.7815    3.3777 H   0  0  0  0  0  0  0  0  0  0  0  0
    4.2202   -8.8715    0.7075 H   0  0  0  0  0  0  0  0  0  0  0  0
  1  2  2  0
  2  3  1  0
  2  6  1  0
  3  5  1  0
  3  4  1  0
  3 19  1  0
  4  5  1  0
  4 20  1  0
  4 21  1  0
  5 22  1  0
  5 23  1  0
  6 11  1  0
  6  7  1  0
  7  8  1  0
  7 24  1  0
  7 25  1  0
  8  9  1  0
  8 26  1  0
  8 27  1  0
  9 18  1  0
  9 10  1  0
  9 12  1  0
 10 11  1  0
 10 28  1  0
 10 29  1  0
 11 30  1  0
 11 31  1  0
 12 13  1  0
 13 14  1  0
 13 32  1  0
 13 33  1  0
 14 18  1  0
 14 15  2  0
 15 16  1  0
 15 34  1  0
 16 17  2  0
 16 35  1  0
 17 18  1  0
M  END
>  <i_m_ct_stereo_status>  (391) 
1

>  <s_m_source_file>  (391) 
/var/tmp/pbs.5076255.sched01/tmpt95b3wv2/135g3gtwtb2.sdf

>  <i_m_source_file_index>  (391) 
21

>  <i_lp_mmshare_version>  (391) 
48012

>  <i_f3d_flags>  (391) 
0

>  <s_epik_input>  (391) 
W0NIMl0xW0NIMl1bQ0hdMUMoPU8pTihbQ0gyXVtDSDJdMilbQ0gyXVtDSDJdQzIzbjRjKFtDSDJdTzMpW2NIXVtjSF1uNA==

>  <s_epik_cmdline>  (391) 
J2VwaWtfcHl0aG9uJywgJy1waHQnLCAnMi4wJywgJy1waCcsICc3LjAnLCAnLXRuJywgJzgnLCAnLW1hJywgJzIwMCcsICctaW1hZScsICc8aW5maWxlLm1hZT4nLCAnLW9tYWUnLCAnPG91dGZpbGUubWFlPic=

>  <r_lp_tautomer_probability>  (391) 
1

>  <r_epik_Ionization_Penalty>  (391) 
4.57399e-05

>  <r_epik_Ionization_Penalty_Charging>  (391) 
0

>  <r_epik_Ionization_Penalty_Neutral>  (391) 
4.57399e-05

>  <r_epik_State_Penalty>  (391) 
-0

>  <r_epik_Charging_Adjusted_Penalty>  (391) 
0

>  <i_epik_Tot_Q>  (391) 
0

>  <i_epik_Tot_abs_Q>  (391) 
0

>  <s_lp_Force_Field>  (391) 
OPLS3e

>  <r_lp_Energy>  (391) 
37.3239

>  <b_lp_Chiralities_Consistent>  (391) 
1

>  <s_lp_Variant>  (391) 
98:0-1

>  <s_i_glide_gridfile>  (391) 
pfpi4k_grid

>  <i_i_glide_lignum>  (391) 
21

>  <i_i_glide_rotatable_bonds>  (391) 
2

>  <r_i_docking_score>  (391) 
-3.18841

>  <r_i_glide_ligand_efficiency>  (391) 
-0.177134

>  <r_i_glide_ligand_efficiency_sa>  (391) 
-0.464222

>  <r_i_glide_ligand_efficiency_ln>  (391) 
-0.819564

>  <r_i_glide_gscore>  (391) 
-3.18841

>  <r_i_glide_lipo>  (391) 
-0.482711

>  <r_i_glide_hbond>  (391) 
0

>  <r_i_glide_metal>  (391) 
-0

>  <r_i_glide_rewards>  (391) 
-1.8671

>  <r_i_glide_evdw>  (391) 
-24.299

>  <r_i_glide_ecoul>  (391) 
-1.29459

>  <r_i_glide_erotb>  (391) 
0.570543

>  <r_i_glide_esite>  (391) 
0

>  <r_i_glide_emodel>  (391) 
-30.7621

>  <r_i_glide_energy>  (391) 
-25.5936

>  <r_i_glide_einternal>  (391) 
0.248216

>  <r_i_glide_intrahb_reward>  (391) 
-0

>  <i_i_glide_confnum>  (391) 
4

>  <i_i_glide_posenum>  (391) 
1

>  <r_i_glide_eff_state_penalty>  (391) 
0

>  <ligand_id>  (391) 
98

>  <original_smiles>  (391) 
O=C(C1CC1)N1CCC2(CC1)OCc1ccnn12

>  <smiles>  (391) 
[H]c1nn2c(c1[H])C([H])([H])OC21C([H])([H])C([H])([H])N(C(=O)C2([H])C([H])([H])C2([H])[H])C([H])([H])C1([H])[H]

$$$$
99:1:0
     RDKit          3D

 92 97  0  0  1  0  0  0  0  0999 V2000
    4.3767    2.9871    6.0663 C   0  0  0  0  0  0  0  0  0  0  0  0
    3.7374    1.7405    5.7522 O   0  0  0  0  0  0  0  0  0  0  0  0
    2.5363    1.8406    5.0913 C   0  0  0  0  0  0  0  0  0  0  0  0
    1.3596    2.0360    5.8404 C   0  0  0  0  0  0  0  0  0  0  0  0
   -0.1259    2.5296    5.3808 C   0  0  2  0  0  0  0  0  0  0  0  0
   -1.5554    2.1346    6.0958 C   0  0  0  0  0  0  0  0  0  0  0  0
   -1.8916    1.6775    7.5538 C   0  0  0  0  0  0  0  0  0  0  0  0
   -2.5574    3.3280    5.9572 C   0  0  0  0  0  0  0  0  0  0  0  0
   -2.1250    0.9842    5.4933 O   0  0  0  0  0  0  0  0  0  0  0  0
   -1.2294    0.0345    5.1188 C   0  0  0  0  0  0  0  0  0  0  0  0
   -0.3779    0.1171    4.1100 C   0  0  0  0  0  0  0  0  0  0  0  0
   -0.0853    1.2145    3.3332 O   0  0  0  0  0  0  0  0  0  0  0  0
   -0.3731    2.5125    3.8032 C   0  0  1  0  0  0  0  0  0  0  0  0
   -1.7574    2.8395    3.1758 C   0  0  0  0  0  0  0  0  0  0  0  0
    0.4629    3.5282    3.2768 O   0  0  0  0  0  0  0  0  0  0  0  0
    0.4766   -1.0993    4.1216 C   0  0  1  0  0  0  0  0  0  0  0  0
    1.5951   -1.2757    3.0490 C   0  0  0  0  0  0  0  0  0  0  0  0
    3.0589   -1.0367    3.3834 C   0  0  2  0  0  0  0  0  0  0  0  0
    3.7758    0.2880    3.5160 C   0  0  2  0  0  0  0  0  0  0  0  0
    3.0364    1.6392    3.6138 C   0  0  1  0  0  0  0  0  0  0  0  0
    2.2313    1.8231    2.4959 O   0  0  0  0  0  0  0  0  0  0  0  0
    4.0609   -0.6124    2.3169 C   0  0  0  0  0  0  0  0  0  0  0  0
    5.4026   -1.3287    2.2854 C   0  0  0  0  0  0  0  0  0  0  0  0
    3.6656   -0.2795    0.8848 C   0  0  0  0  0  0  0  0  0  0  0  0
    0.4258   -1.5164    5.6473 C   0  0  1  0  0  0  0  0  0  0  0  0
   -0.8802   -0.9575    5.9999 O   0  0  0  0  0  0  0  0  0  0  0  0
    0.1423   -3.0265    5.8467 C   0  0  1  0  0  0  0  0  0  0  0  0
    0.9995   -3.8237    5.0379 O   0  0  0  0  0  0  0  0  0  0  0  0
    0.7371   -5.2184    5.0352 C   0  0  0  0  0  0  0  0  0  0  0  0
    0.1715   -3.3562    7.3456 C   0  0  0  0  0  0  0  0  0  0  0  0
    1.5367   -3.1400    8.0080 C   0  0  0  0  0  0  0  0  0  0  0  0
    2.4042   -1.9958    7.4125 C   0  0  0  0  0  0  0  0  0  0  0  0
    3.2357   -1.4265    8.5957 C   0  0  0  0  0  0  0  0  0  0  0  0
    3.5024   -2.5836    6.4945 C   0  0  0  0  0  0  0  0  0  0  0  0
    1.5397   -0.9083    6.6325 C   0  0  2  0  0  0  0  0  0  0  0  0
    1.0071    0.2240    7.5957 C   0  0  0  0  0  0  0  0  0  0  0  0
    0.3846   -0.1264    8.5976 O   0  0  0  0  0  0  0  0  0  0  0  0
    1.4555    1.7182    7.3881 C   0  0  1  0  0  0  0  0  0  0  0  0
    2.7442    1.6545    7.9590 O   0  0  0  0  0  0  0  0  0  0  0  0
    0.9446    2.9205    8.2929 C   0  0  0  0  0  0  0  0  0  0  0  0
    1.6700    4.2659    8.0558 C   0  0  0  0  0  0  0  0  0  0  0  0
    0.9031    2.6533    9.8215 C   0  0  0  0  0  0  0  0  0  0  0  0
    5.1516    2.8114    6.8155 H   0  0  0  0  0  0  0  0  0  0  0  0
    3.6849    3.7045    6.4902 H   0  0  0  0  0  0  0  0  0  0  0  0
    4.8371    3.4789    5.2134 H   0  0  0  0  0  0  0  0  0  0  0  0
   -0.0334    3.5863    5.6216 H   0  0  0  0  0  0  0  0  0  0  0  0
   -1.7042    2.3488    8.3878 H   0  0  0  0  0  0  0  0  0  0  0  0
   -1.5530    0.6882    7.7796 H   0  0  0  0  0  0  0  0  0  0  0  0
   -2.9733    1.5387    7.6105 H   0  0  0  0  0  0  0  0  0  0  0  0
   -2.1103    4.2078    5.4963 H   0  0  0  0  0  0  0  0  0  0  0  0
   -2.9527    3.6880    6.9103 H   0  0  0  0  0  0  0  0  0  0  0  0
   -3.4297    3.0470    5.3644 H   0  0  0  0  0  0  0  0  0  0  0  0
   -1.6727    2.7667    2.0943 H   0  0  0  0  0  0  0  0  0  0  0  0
   -2.0645    3.8577    3.3833 H   0  0  0  0  0  0  0  0  0  0  0  0
   -2.5457    2.1451    3.4584 H   0  0  0  0  0  0  0  0  0  0  0  0
    0.2099    3.7137    2.3625 H   0  0  0  0  0  0  0  0  0  0  0  0
   -0.2495   -1.7836    3.6841 H   0  0  0  0  0  0  0  0  0  0  0  0
    1.5555   -2.3063    2.6954 H   0  0  0  0  0  0  0  0  0  0  0  0
    1.3113   -0.6982    2.1709 H   0  0  0  0  0  0  0  0  0  0  0  0
    3.4413   -1.8418    3.9929 H   0  0  0  0  0  0  0  0  0  0  0  0
    4.6149    0.2703    4.2055 H   0  0  0  0  0  0  0  0  0  0  0  0
    3.8008    2.4023    3.4792 H   0  0  0  0  0  0  0  0  0  0  0  0
    1.8662    2.7047    2.5260 H   0  0  0  0  0  0  0  0  0  0  0  0
    6.1696   -0.6904    1.8492 H   0  0  0  0  0  0  0  0  0  0  0  0
    5.3287   -2.2442    1.7025 H   0  0  0  0  0  0  0  0  0  0  0  0
    5.7177   -1.5988    3.2944 H   0  0  0  0  0  0  0  0  0  0  0  0
    4.3731    0.4342    0.4673 H   0  0  0  0  0  0  0  0  0  0  0  0
    2.6726    0.1506    0.8151 H   0  0  0  0  0  0  0  0  0  0  0  0
    3.6580   -1.1842    0.2792 H   0  0  0  0  0  0  0  0  0  0  0  0
   -0.8713   -3.2197    5.4901 H   0  0  0  0  0  0  0  0  0  0  0  0
    1.4170   -5.7034    4.3344 H   0  0  0  0  0  0  0  0  0  0  0  0
   -0.2849   -5.4321    4.7189 H   0  0  0  0  0  0  0  0  0  0  0  0
    0.9072   -5.6659    6.0156 H   0  0  0  0  0  0  0  0  0  0  0  0
   -0.5313   -2.6841    7.8335 H   0  0  0  0  0  0  0  0  0  0  0  0
   -0.1957   -4.3621    7.5510 H   0  0  0  0  0  0  0  0  0  0  0  0
    1.3701   -2.9843    9.0785 H   0  0  0  0  0  0  0  0  0  0  0  0
    2.0884   -4.0763    7.9383 H   0  0  0  0  0  0  0  0  0  0  0  0
    3.9242   -0.6427    8.2781 H   0  0  0  0  0  0  0  0  0  0  0  0
    3.8385   -2.2108    9.0570 H   0  0  0  0  0  0  0  0  0  0  0  0
    2.6104   -1.0338    9.3986 H   0  0  0  0  0  0  0  0  0  0  0  0
    4.1401   -1.7953    6.0957 H   0  0  0  0  0  0  0  0  0  0  0  0
    3.1193   -3.1509    5.6551 H   0  0  0  0  0  0  0  0  0  0  0  0
    4.1597   -3.2671    7.0325 H   0  0  0  0  0  0  0  0  0  0  0  0
    2.2554   -0.4293    5.9768 H   0  0  0  0  0  0  0  0  0  0  0  0
    3.2961    1.1425    7.3759 H   0  0  0  0  0  0  0  0  0  0  0  0
   -0.0278    3.2348    7.9694 H   0  0  0  0  0  0  0  0  0  0  0  0
    2.7064    4.2565    8.3981 H   0  0  0  0  0  0  0  0  0  0  0  0
    1.1682    5.0670    8.6009 H   0  0  0  0  0  0  0  0  0  0  0  0
    1.6368    4.5555    7.0041 H   0  0  0  0  0  0  0  0  0  0  0  0
    1.8826    2.3924   10.2293 H   0  0  0  0  0  0  0  0  0  0  0  0
    0.2080    1.8586   10.0876 H   0  0  0  0  0  0  0  0  0  0  0  0
    0.5800    3.5463   10.3581 H   0  0  0  0  0  0  0  0  0  0  0  0
  1  2  1  0
  1 43  1  0
  1 44  1  0
  1 45  1  0
  2  3  1  0
  3 20  1  0
  3  4  2  3
  4 38  1  0
  4  5  1  0
  5 13  1  0
  5  6  1  0
  5 46  1  1
  6  7  1  0
  6  8  1  0
  6  9  1  0
  7 47  1  0
  7 48  1  0
  7 49  1  0
  8 50  1  0
  8 51  1  0
  8 52  1  0
  9 10  1  0
 10 26  1  0
 10 11  2  0
 11 12  1  0
 11 16  1  0
 12 13  1  0
 13 14  1  0
 13 15  1  6
 14 53  1  0
 14 54  1  0
 14 55  1  0
 15 56  1  0
 16 17  1  0
 16 25  1  0
 16 57  1  6
 17 18  1  0
 17 58  1  0
 17 59  1  0
 18 22  1  0
 18 19  1  0
 18 60  1  1
 19 20  1  0
 19 22  1  0
 19 61  1  1
 20 21  1  0
 20 62  1  6
 21 63  1  0
 22 23  1  0
 22 24  1  0
 23 64  1  0
 23 65  1  0
 23 66  1  0
 24 67  1  0
 24 68  1  0
 24 69  1  0
 25 35  1  0
 25 26  1  1
 25 27  1  0
 27 28  1  0
 27 30  1  0
 27 70  1  6
 28 29  1  0
 29 71  1  0
 29 72  1  0
 29 73  1  0
 30 31  1  0
 30 74  1  0
 30 75  1  0
 31 32  1  0
 31 76  1  0
 31 77  1  0
 32 33  1  0
 32 34  1  0
 32 35  1  0
 33 78  1  0
 33 79  1  0
 33 80  1  0
 34 81  1  0
 34 82  1  0
 34 83  1  0
 35 36  1  0
 35 84  1  6
 36 37  2  0
 36 38  1  0
 38 39  1  1
 38 40  1  0
 39 85  1  0
 40 41  1  0
 40 42  1  0
 40 86  1  0
 41 87  1  0
 41 88  1  0
 41 89  1  0
 42 90  1  0
 42 91  1  0
 42 92  1  0
M  END
>  <i_m_ct_stereo_status>  (392) 
1

>  <s_m_source_file>  (392) 
/var/tmp/pbs.5076255.sched01/tmpt95b3wv2/135g3gtwtb2.sdf

>  <i_m_source_file_index>  (392) 
23

>  <i_lp_mmshare_version>  (392) 
48012

>  <i_f3d_flags>  (392) 
0

>  <s_epik_input>  (392) 
W0NAXTEyM1tDQEhdNEM1PUMoTzEpT0MoW0NIM10pKFtDSDNdKVtDQEhdKFtDQEBdKE81KShbQ0gzXSlbT0hdKS9DKD1DKFxPW0NIM10pW0NASF0oW09IXSlbQ0BIXTZbQ0BASF0oW0NIMl00KUM2KFtDSDNdKVtDSDNdKVtDQEBdKFtPSF0pKFtDSF0oW0NIM10pW0NIM10pQyg9TylbQ0BIXTNDKFtDSDNdKShbQ0gzXSlbQ0gyXVtDSDJdW0NAQEhdMk9bQ0gzXQ==

>  <s_epik_cmdline>  (392) 
J2VwaWtfcHl0aG9uJywgJy1waHQnLCAnMi4wJywgJy1waCcsICc3LjAnLCAnLXRuJywgJzgnLCAnLW1hJywgJzIwMCcsICctaW1hZScsICc8aW5maWxlLm1hZT4nLCAnLW9tYWUnLCAnPG91dGZpbGUubWFlPic=

>  <r_lp_tautomer_probability>  (392) 
1

>  <r_epik_Ionization_Penalty>  (392) 
0.000195889

>  <r_epik_Ionization_Penalty_Charging>  (392) 
0

>  <r_epik_Ionization_Penalty_Neutral>  (392) 
0.000195889

>  <r_epik_State_Penalty>  (392) 
-0

>  <r_epik_Charging_Adjusted_Penalty>  (392) 
0

>  <i_epik_Tot_Q>  (392) 
0

>  <i_epik_Tot_abs_Q>  (392) 
0

>  <s_lp_Force_Field>  (392) 
OPLS3e

>  <r_lp_Energy>  (392) 
213.745

>  <b_lp_Chiralities_Consistent>  (392) 
1

>  <s_lp_Variant>  (392) 
99:0-2

>  <s_i_glide_gridfile>  (392) 
pfpi4k_grid

>  <i_i_glide_lignum>  (392) 
23

>  <i_i_glide_rotatable_bonds>  (392) 
6

>  <r_i_docking_score>  (392) 
-2.87562

>  <r_i_glide_ligand_efficiency>  (392) 
-0.068467

>  <r_i_glide_ligand_efficiency_sa>  (392) 
-0.237993

>  <r_i_glide_ligand_efficiency_ln>  (392) 
-0.606968

>  <r_i_glide_gscore>  (392) 
-2.87562

>  <r_i_glide_lipo>  (392) 
-0.21129

>  <r_i_glide_hbond>  (392) 
0

>  <r_i_glide_metal>  (392) 
-0

>  <r_i_glide_rewards>  (392) 
-0.5

>  <r_i_glide_evdw>  (392) 
-25.402

>  <r_i_glide_ecoul>  (392) 
-5.64501

>  <r_i_glide_erotb>  (392) 
0

>  <r_i_glide_esite>  (392) 
-0.047475

>  <r_i_glide_emodel>  (392) 
-40.524

>  <r_i_glide_energy>  (392) 
-31.047

>  <r_i_glide_einternal>  (392) 
2.24879

>  <r_i_glide_intrahb_reward>  (392) 
-0.5

>  <i_i_glide_confnum>  (392) 
2

>  <i_i_glide_posenum>  (392) 
23

>  <r_i_glide_eff_state_penalty>  (392) 
0

>  <ligand_id>  (392) 
99

>  <original_smiles>  (392) 
COC1=C2C3C(C)(C)OC4=C(OC3(C)O)C(CC3C(C1O)C3(C)C)C1(O4)C(OC)CCC(C)(C)C1C(=O)C2(O)C(C)C

>  <smiles>  (392) 
[H]OC1([H])C(OC([H])([H])[H])=C2C(O[H])(C([H])(C([H])([H])[H])C([H])([H])[H])C(=O)C3([H])C4(OC5=C(OC(O[H])(C([H])([H])[H])C2([H])C(C([H])([H])[H])(C([H])([H])[H])O5)C4([H])C([H])([H])C2([H])C1([H])C2(C([H])([H])[H])C([H])([H])[H])C([H])(OC([H])([H])[H])C([H])([H])C([H])([H])C3(C([H])([H])[H])C([H])([H])[H]

$$$$
99:1:1
     RDKit          3D

 92 97  0  0  1  0  0  0  0  0999 V2000
    2.5361    3.7897    2.4285 C   0  0  0  0  0  0  0  0  0  0  0  0
    2.9318    2.6080    3.1236 O   0  0  0  0  0  0  0  0  0  0  0  0
    1.9036    1.7519    3.4825 C   0  0  0  0  0  0  0  0  0  0  0  0
    1.2133    2.0057    4.6739 C   0  0  0  0  0  0  0  0  0  0  0  0
   -0.2227    1.4364    5.2118 C   0  0  2  0  0  0  0  0  0  0  0  0
   -0.6742    1.2186    6.7802 C   0  0  0  0  0  0  0  0  0  0  0  0
   -0.1813    1.8955    8.0980 C   0  0  0  0  0  0  0  0  0  0  0  0
   -2.2100    1.4920    6.8981 C   0  0  0  0  0  0  0  0  0  0  0  0
   -0.4062   -0.1065    7.2020 O   0  0  0  0  0  0  0  0  0  0  0  0
    0.7693   -0.6136    6.7251 C   0  0  0  0  0  0  0  0  0  0  0  0
    1.0043   -1.0046    5.4856 C   0  0  0  0  0  0  0  0  0  0  0  0
    0.2145   -0.8040    4.3790 O   0  0  0  0  0  0  0  0  0  0  0  0
   -0.7712    0.2000    4.4026 C   0  0  1  0  0  0  0  0  0  0  0  0
   -2.0426   -0.5765    4.8128 C   0  0  0  0  0  0  0  0  0  0  0  0
   -1.1338    0.7151    3.1442 O   0  0  0  0  0  0  0  0  0  0  0  0
    2.4320   -1.4025    5.3796 C   0  0  1  0  0  0  0  0  0  0  0  0
    2.9958   -1.8852    4.0103 C   0  0  0  0  0  0  0  0  0  0  0  0
    3.8588   -0.9874    3.1376 C   0  0  2  0  0  0  0  0  0  0  0  0
    3.3980    0.1237    2.2280 C   0  0  2  0  0  0  0  0  0  0  0  0
    1.9921    0.7422    2.2755 C   0  0  1  0  0  0  0  0  0  0  0  0
    1.0012   -0.2049    2.0297 O   0  0  0  0  0  0  0  0  0  0  0  0
    3.9190   -1.1814    1.6345 C   0  0  0  0  0  0  0  0  0  0  0  0
    5.2898   -1.1544    0.9809 C   0  0  0  0  0  0  0  0  0  0  0  0
    3.0581   -2.1766    0.8699 C   0  0  0  0  0  0  0  0  0  0  0  0
    3.0879   -0.5418    6.5291 C   0  0  1  0  0  0  0  0  0  0  0  0
    1.9294   -0.4272    7.4215 O   0  0  0  0  0  0  0  0  0  0  0  0
    4.0417   -1.3714    7.4266 C   0  0  1  0  0  0  0  0  0  0  0  0
    4.9602   -2.1275    6.6405 O   0  0  0  0  0  0  0  0  0  0  0  0
    5.7869   -3.0432    7.3475 C   0  0  0  0  0  0  0  0  0  0  0  0
    4.6847   -0.4632    8.4814 C   0  0  0  0  0  0  0  0  0  0  0  0
    5.5896    0.6194    7.8903 C   0  0  0  0  0  0  0  0  0  0  0  0
    5.1745    1.1634    6.4891 C   0  0  0  0  0  0  0  0  0  0  0  0
    5.6133    2.6539    6.4677 C   0  0  0  0  0  0  0  0  0  0  0  0
    6.0717    0.5332    5.3947 C   0  0  0  0  0  0  0  0  0  0  0  0
    3.6294    0.9269    6.1698 C   0  0  2  0  0  0  0  0  0  0  0  0
    2.7334    2.1131    6.7013 C   0  0  0  0  0  0  0  0  0  0  0  0
    2.8567    2.4418    7.8920 O   0  0  0  0  0  0  0  0  0  0  0  0
    1.9004    2.9864    5.7033 C   0  0  1  0  0  0  0  0  0  0  0  0
    2.9321    3.8193    5.2061 O   0  0  0  0  0  0  0  0  0  0  0  0
    0.9406    4.1663    6.1590 C   0  0  0  0  0  0  0  0  0  0  0  0
    0.3855    5.0427    5.0094 C   0  0  0  0  0  0  0  0  0  0  0  0
    1.5117    5.1153    7.2432 C   0  0  0  0  0  0  0  0  0  0  0  0
    3.3620    4.5015    2.4305 H   0  0  0  0  0  0  0  0  0  0  0  0
    1.6909    4.2757    2.8925 H   0  0  0  0  0  0  0  0  0  0  0  0
    2.2105    3.6134    1.4038 H   0  0  0  0  0  0  0  0  0  0  0  0
   -0.8489    2.2696    4.8934 H   0  0  0  0  0  0  0  0  0  0  0  0
   -0.3259    2.9642    8.2244 H   0  0  0  0  0  0  0  0  0  0  0  0
    0.8026    1.5984    8.4021 H   0  0  0  0  0  0  0  0  0  0  0  0
   -0.7680    1.4743    8.9149 H   0  0  0  0  0  0  0  0  0  0  0  0
   -2.6392    1.8753    5.9740 H   0  0  0  0  0  0  0  0  0  0  0  0
   -2.4713    2.2440    7.6459 H   0  0  0  0  0  0  0  0  0  0  0  0
   -2.7639    0.5984    7.1752 H   0  0  0  0  0  0  0  0  0  0  0  0
   -2.1635   -1.3722    4.0876 H   0  0  0  0  0  0  0  0  0  0  0  0
   -2.9232    0.0464    4.7506 H   0  0  0  0  0  0  0  0  0  0  0  0
   -1.9922   -1.0556    5.7870 H   0  0  0  0  0  0  0  0  0  0  0  0
   -0.3382    1.0096    2.7074 H   0  0  0  0  0  0  0  0  0  0  0  0
    2.3233   -2.3769    5.8454 H   0  0  0  0  0  0  0  0  0  0  0  0
    3.6122   -2.7599    4.2105 H   0  0  0  0  0  0  0  0  0  0  0  0
    2.1621   -2.2928    3.4328 H   0  0  0  0  0  0  0  0  0  0  0  0
    4.8290   -0.8654    3.5824 H   0  0  0  0  0  0  0  0  0  0  0  0
    4.1315    0.9095    2.1136 H   0  0  0  0  0  0  0  0  0  0  0  0
    1.9202    1.3623    1.3811 H   0  0  0  0  0  0  0  0  0  0  0  0
    1.0475   -0.4592    1.0946 H   0  0  0  0  0  0  0  0  0  0  0  0
    5.2089   -0.8319   -0.0585 H   0  0  0  0  0  0  0  0  0  0  0  0
    5.7417   -2.1449    1.0110 H   0  0  0  0  0  0  0  0  0  0  0  0
    5.9539   -0.4614    1.5062 H   0  0  0  0  0  0  0  0  0  0  0  0
    2.9191   -1.8260   -0.1541 H   0  0  0  0  0  0  0  0  0  0  0  0
    2.0767   -2.3154    1.3228 H   0  0  0  0  0  0  0  0  0  0  0  0
    3.5567   -3.1470    0.8433 H   0  0  0  0  0  0  0  0  0  0  0  0
    3.4360   -2.1144    7.9496 H   0  0  0  0  0  0  0  0  0  0  0  0
    6.3914   -3.6084    6.6419 H   0  0  0  0  0  0  0  0  0  0  0  0
    5.1919   -3.7519    7.9211 H   0  0  0  0  0  0  0  0  0  0  0  0
    6.4744   -2.5367    8.0234 H   0  0  0  0  0  0  0  0  0  0  0  0
    3.8713    0.0214    9.0163 H   0  0  0  0  0  0  0  0  0  0  0  0
    5.2385   -1.0360    9.2243 H   0  0  0  0  0  0  0  0  0  0  0  0
    5.6617    1.4342    8.6142 H   0  0  0  0  0  0  0  0  0  0  0  0
    6.5970    0.2067    7.8193 H   0  0  0  0  0  0  0  0  0  0  0  0
    5.3743    3.1241    5.5152 H   0  0  0  0  0  0  0  0  0  0  0  0
    6.6916    2.7360    6.6136 H   0  0  0  0  0  0  0  0  0  0  0  0
    5.1469    3.2358    7.2677 H   0  0  0  0  0  0  0  0  0  0  0  0
    5.8169    0.9317    4.4151 H   0  0  0  0  0  0  0  0  0  0  0  0
    6.0132   -0.5468    5.3347 H   0  0  0  0  0  0  0  0  0  0  0  0
    7.1257    0.7594    5.5490 H   0  0  0  0  0  0  0  0  0  0  0  0
    3.5880    0.9749    5.0868 H   0  0  0  0  0  0  0  0  0  0  0  0
    3.3982    3.3303    4.5407 H   0  0  0  0  0  0  0  0  0  0  0  0
    0.0064    3.7592    6.5031 H   0  0  0  0  0  0  0  0  0  0  0  0
    1.1499    5.6631    4.5351 H   0  0  0  0  0  0  0  0  0  0  0  0
   -0.3780    5.7161    5.3983 H   0  0  0  0  0  0  0  0  0  0  0  0
   -0.1039    4.4376    4.2460 H   0  0  0  0  0  0  0  0  0  0  0  0
    2.4384    5.6036    6.9317 H   0  0  0  0  0  0  0  0  0  0  0  0
    1.7064    4.6017    8.1818 H   0  0  0  0  0  0  0  0  0  0  0  0
    0.8038    5.9148    7.4597 H   0  0  0  0  0  0  0  0  0  0  0  0
  1  2  1  0
  1 43  1  0
  1 44  1  0
  1 45  1  0
  2  3  1  0
  3 20  1  0
  3  4  2  3
  4 38  1  0
  4  5  1  0
  5 13  1  0
  5  6  1  0
  5 46  1  6
  6  7  1  0
  6  8  1  0
  6  9  1  0
  7 47  1  0
  7 48  1  0
  7 49  1  0
  8 50  1  0
  8 51  1  0
  8 52  1  0
  9 10  1  0
 10 26  1  0
 10 11  2  0
 11 12  1  0
 11 16  1  0
 12 13  1  0
 13 14  1  0
 13 15  1  6
 14 53  1  0
 14 54  1  0
 14 55  1  0
 15 56  1  0
 16 17  1  0
 16 25  1  0
 16 57  1  1
 17 18  1  0
 17 58  1  0
 17 59  1  0
 18 22  1  0
 18 19  1  0
 18 60  1  1
 19 20  1  0
 19 22  1  0
 19 61  1  6
 20 21  1  0
 20 62  1  6
 21 63  1  0
 22 23  1  0
 22 24  1  0
 23 64  1  0
 23 65  1  0
 23 66  1  0
 24 67  1  0
 24 68  1  0
 24 69  1  0
 25 35  1  0
 25 26  1  1
 25 27  1  0
 27 28  1  0
 27 30  1  0
 27 70  1  1
 28 29  1  0
 29 71  1  0
 29 72  1  0
 29 73  1  0
 30 31  1  0
 30 74  1  0
 30 75  1  0
 31 32  1  0
 31 76  1  0
 31 77  1  0
 32 33  1  0
 32 34  1  0
 32 35  1  0
 33 78  1  0
 33 79  1  0
 33 80  1  0
 34 81  1  0
 34 82  1  0
 34 83  1  0
 35 36  1  0
 35 84  1  6
 36 37  2  0
 36 38  1  0
 38 39  1  6
 38 40  1  0
 39 85  1  0
 40 41  1  0
 40 42  1  0
 40 86  1  0
 41 87  1  0
 41 88  1  0
 41 89  1  0
 42 90  1  0
 42 91  1  0
 42 92  1  0
M  END
>  <i_m_ct_stereo_status>  (393) 
1

>  <s_m_source_file>  (393) 
/var/tmp/pbs.5076255.sched01/tmpt95b3wv2/135g3gtwtb2.sdf

>  <i_m_source_file_index>  (393) 
23

>  <i_lp_mmshare_version>  (393) 
48012

>  <i_f3d_flags>  (393) 
0

>  <s_epik_input>  (393) 
W0NAXTEyM1tDQEhdNEM1PUMoTzEpT0MoW0NIM10pKFtDSDNdKVtDQEhdKFtDQEBdKE81KShbQ0gzXSlbT0hdKS9DKD1DKFxPW0NIM10pW0NASF0oW09IXSlbQ0BIXTZbQ0BASF0oW0NIMl00KUM2KFtDSDNdKVtDSDNdKVtDQEBdKFtPSF0pKFtDSF0oW0NIM10pW0NIM10pQyg9TylbQ0BIXTNDKFtDSDNdKShbQ0gzXSlbQ0gyXVtDSDJdW0NAQEhdMk9bQ0gzXQ==

>  <s_epik_cmdline>  (393) 
J2VwaWtfcHl0aG9uJywgJy1waHQnLCAnMi4wJywgJy1waCcsICc3LjAnLCAnLXRuJywgJzgnLCAnLW1hJywgJzIwMCcsICctaW1hZScsICc8aW5maWxlLm1hZT4nLCAnLW9tYWUnLCAnPG91dGZpbGUubWFlPic=

>  <r_lp_tautomer_probability>  (393) 
1

>  <r_epik_Ionization_Penalty>  (393) 
0.000195889

>  <r_epik_Ionization_Penalty_Charging>  (393) 
0

>  <r_epik_Ionization_Penalty_Neutral>  (393) 
0.000195889

>  <r_epik_State_Penalty>  (393) 
-0

>  <r_epik_Charging_Adjusted_Penalty>  (393) 
0

>  <i_epik_Tot_Q>  (393) 
0

>  <i_epik_Tot_abs_Q>  (393) 
0

>  <s_lp_Force_Field>  (393) 
OPLS3e

>  <r_lp_Energy>  (393) 
213.745

>  <b_lp_Chiralities_Consistent>  (393) 
1

>  <s_lp_Variant>  (393) 
99:0-2

>  <s_i_glide_gridfile>  (393) 
pfpi4k_grid

>  <i_i_glide_lignum>  (393) 
23

>  <i_i_glide_rotatable_bonds>  (393) 
6

>  <r_i_docking_score>  (393) 
-2.64847

>  <r_i_glide_ligand_efficiency>  (393) 
-0.0630588

>  <r_i_glide_ligand_efficiency_sa>  (393) 
-0.219194

>  <r_i_glide_ligand_efficiency_ln>  (393) 
-0.559024

>  <r_i_glide_gscore>  (393) 
-2.64847

>  <r_i_glide_lipo>  (393) 
-0.31704

>  <r_i_glide_hbond>  (393) 
-0.0226196

>  <r_i_glide_metal>  (393) 
-0

>  <r_i_glide_rewards>  (393) 
-1

>  <r_i_glide_evdw>  (393) 
-22.0168

>  <r_i_glide_ecoul>  (393) 
-1.24154

>  <r_i_glide_erotb>  (393) 
0

>  <r_i_glide_esite>  (393) 
-0.0217422

>  <r_i_glide_emodel>  (393) 
-36.9709

>  <r_i_glide_energy>  (393) 
-23.2583

>  <r_i_glide_einternal>  (393) 
2.51014

>  <r_i_glide_intrahb_reward>  (393) 
-1

>  <i_i_glide_confnum>  (393) 
2

>  <i_i_glide_posenum>  (393) 
6

>  <r_i_glide_eff_state_penalty>  (393) 
0

>  <ligand_id>  (393) 
99

>  <original_smiles>  (393) 
COC1=C2C3C(C)(C)OC4=C(OC3(C)O)C(CC3C(C1O)C3(C)C)C1(O4)C(OC)CCC(C)(C)C1C(=O)C2(O)C(C)C

>  <smiles>  (393) 
[H]OC1([H])C(OC([H])([H])[H])=C2C(O[H])(C([H])(C([H])([H])[H])C([H])([H])[H])C(=O)C3([H])C4(OC5=C(OC(O[H])(C([H])([H])[H])C2([H])C(C([H])([H])[H])(C([H])([H])[H])O5)C4([H])C([H])([H])C2([H])C1([H])C2(C([H])([H])[H])C([H])([H])[H])C([H])(OC([H])([H])[H])C([H])([H])C([H])([H])C3(C([H])([H])[H])C([H])([H])[H]

$$$$
99:1:2
     RDKit          3D

 92 97  0  0  1  0  0  0  0  0999 V2000
    4.5356    2.4409    6.0266 C   0  0  0  0  0  0  0  0  0  0  0  0
    3.8815    1.2054    5.7223 O   0  0  0  0  0  0  0  0  0  0  0  0
    2.7009    1.3022    5.0148 C   0  0  0  0  0  0  0  0  0  0  0  0
    1.5176    1.6156    5.7013 C   0  0  0  0  0  0  0  0  0  0  0  0
    0.0795    2.1524    5.1338 C   0  0  2  0  0  0  0  0  0  0  0  0
   -1.3961    1.8842    5.8265 C   0  0  0  0  0  0  0  0  0  0  0  0
   -1.8063    1.5548    7.3007 C   0  0  0  0  0  0  0  0  0  0  0  0
   -2.3253    3.1190    5.5667 C   0  0  0  0  0  0  0  0  0  0  0  0
   -2.0011    0.7127    5.3005 O   0  0  0  0  0  0  0  0  0  0  0  0
   -1.1359   -0.3031    5.0426 C   0  0  0  0  0  0  0  0  0  0  0  0
   -0.2517   -0.3395    4.0578 C   0  0  0  0  0  0  0  0  0  0  0  0
    0.1109    0.6693    3.1964 O   0  0  0  0  0  0  0  0  0  0  0  0
   -0.1105    2.0190    3.5577 C   0  0  1  0  0  0  0  0  0  0  0  0
   -1.4531    2.3549    2.8680 C   0  0  0  0  0  0  0  0  0  0  0  0
    0.7809    2.9402    2.9582 O   0  0  0  0  0  0  0  0  0  0  0  0
    0.5264   -1.6029    4.1901 C   0  0  1  0  0  0  0  0  0  0  0  0
    1.6741   -1.9084    3.1805 C   0  0  0  0  0  0  0  0  0  0  0  0
    3.1382   -1.7250    3.5507 C   0  0  2  0  0  0  0  0  0  0  0  0
    3.9162   -0.4290    3.6097 C   0  0  2  0  0  0  0  0  0  0  0  0
    3.2449    0.9571    3.5827 C   0  0  1  0  0  0  0  0  0  0  0  0
    2.4934    1.1117    2.4157 O   0  0  0  0  0  0  0  0  0  0  0  0
    4.1875   -1.4324    2.4891 C   0  0  0  0  0  0  0  0  0  0  0  0
    5.4880   -2.2134    2.5611 C   0  0  0  0  0  0  0  0  0  0  0  0
    3.8605   -1.1909    1.0197 C   0  0  0  0  0  0  0  0  0  0  0  0
    0.4052   -1.8896    5.7404 C   0  0  1  0  0  0  0  0  0  0  0  0
   -0.8824   -1.2466    5.9962 O   0  0  0  0  0  0  0  0  0  0  0  0
    0.0400   -3.3618    6.0524 C   0  0  1  0  0  0  0  0  0  0  0  0
    0.8752   -4.2620    5.3311 O   0  0  0  0  0  0  0  0  0  0  0  0
    0.5228   -5.6367    5.4064 C   0  0  0  0  0  0  0  0  0  0  0  0
    0.0018   -3.5758    7.5710 C   0  0  0  0  0  0  0  0  0  0  0  0
    1.3518   -3.3812    8.2606 C   0  0  0  0  0  0  0  0  0  0  0  0
    2.2967   -2.3244    7.6157 C   0  0  0  0  0  0  0  0  0  0  0  0
    3.1164   -1.7055    8.7794 C   0  0  0  0  0  0  0  0  0  0  0  0
    3.3896   -3.0386    6.7845 C   0  0  0  0  0  0  0  0  0  0  0  0
    1.5137   -1.2589    6.7212 C   0  0  2  0  0  0  0  0  0  0  0  0
    1.0083   -0.0348    7.5777 C   0  0  0  0  0  0  0  0  0  0  0  0
    0.3239   -0.2792    8.5796 O   0  0  0  0  0  0  0  0  0  0  0  0
    1.5343    1.4174    7.2711 C   0  0  1  0  0  0  0  0  0  0  0  0
    2.7966    1.3174    7.8983 O   0  0  0  0  0  0  0  0  0  0  0  0
    1.0565    2.7106    8.0616 C   0  0  0  0  0  0  0  0  0  0  0  0
    1.8529    4.0033    7.7627 C   0  0  0  0  0  0  0  0  0  0  0  0
    0.9477    2.5673    9.6019 C   0  0  0  0  0  0  0  0  0  0  0  0
    5.2899    2.2675    6.7997 H   0  0  0  0  0  0  0  0  0  0  0  0
    3.8525    3.1893    6.3947 H   0  0  0  0  0  0  0  0  0  0  0  0
    5.0166    2.8969    5.1744 H   0  0  0  0  0  0  0  0  0  0  0  0
    0.2241    3.2191    5.2974 H   0  0  0  0  0  0  0  0  0  0  0  0
   -1.6106    2.2785    8.0886 H   0  0  0  0  0  0  0  0  0  0  0  0
   -1.5330    0.5703    7.6184 H   0  0  0  0  0  0  0  0  0  0  0  0
   -2.8944    1.4695    7.3311 H   0  0  0  0  0  0  0  0  0  0  0  0
   -1.8202    3.9474    5.0722 H   0  0  0  0  0  0  0  0  0  0  0  0
   -2.7387    3.5591    6.4769 H   0  0  0  0  0  0  0  0  0  0  0  0
   -3.1882    2.8500    4.9590 H   0  0  0  0  0  0  0  0  0  0  0  0
   -1.3402    2.1470    1.8051 H   0  0  0  0  0  0  0  0  0  0  0  0
   -1.7023    3.4109    2.9645 H   0  0  0  0  0  0  0  0  0  0  0  0
   -2.2851    1.7412    3.1999 H   0  0  0  0  0  0  0  0  0  0  0  0
    0.3935    3.2872    2.1515 H   0  0  0  0  0  0  0  0  0  0  0  0
   -0.2204   -2.2710    3.7676 H   0  0  0  0  0  0  0  0  0  0  0  0
    1.5903   -2.9601    2.9060 H   0  0  0  0  0  0  0  0  0  0  0  0
    1.4450   -1.3887    2.2516 H   0  0  0  0  0  0  0  0  0  0  0  0
    3.4485   -2.4907    4.2408 H   0  0  0  0  0  0  0  0  0  0  0  0
    4.7233   -0.4372    4.3331 H   0  0  0  0  0  0  0  0  0  0  0  0
    4.0494    1.6703    3.4268 H   0  0  0  0  0  0  0  0  0  0  0  0
    2.0675    1.9676    2.4279 H   0  0  0  0  0  0  0  0  0  0  0  0
    6.2988   -1.6449    2.1020 H   0  0  0  0  0  0  0  0  0  0  0  0
    5.3853   -3.1674    2.0439 H   0  0  0  0  0  0  0  0  0  0  0  0
    5.7547   -2.4175    3.5999 H   0  0  0  0  0  0  0  0  0  0  0  0
    4.6248   -0.5540    0.5694 H   0  0  0  0  0  0  0  0  0  0  0  0
    2.8950   -0.7159    0.8677 H   0  0  0  0  0  0  0  0  0  0  0  0
    3.8353   -2.1440    0.4896 H   0  0  0  0  0  0  0  0  0  0  0  0
   -0.9678   -3.5312    5.6733 H   0  0  0  0  0  0  0  0  0  0  0  0
    1.1989   -6.2132    4.7763 H   0  0  0  0  0  0  0  0  0  0  0  0
   -0.4932   -5.8068    5.0523 H   0  0  0  0  0  0  0  0  0  0  0  0
    0.6148   -6.0271    6.4193 H   0  0  0  0  0  0  0  0  0  0  0  0
   -0.6818   -2.8367    7.9766 H   0  0  0  0  0  0  0  0  0  0  0  0
   -0.4183   -4.5462    7.8308 H   0  0  0  0  0  0  0  0  0  0  0  0
    1.1579   -3.1324    9.3087 H   0  0  0  0  0  0  0  0  0  0  0  0
    1.8583   -4.3444    8.2821 H   0  0  0  0  0  0  0  0  0  0  0  0
    3.8487   -0.9824    8.4152 H   0  0  0  0  0  0  0  0  0  0  0  0
    3.6642   -2.4822    9.3148 H   0  0  0  0  0  0  0  0  0  0  0  0
    2.4836   -1.2183    9.5236 H   0  0  0  0  0  0  0  0  0  0  0  0
    4.0814   -2.3147    6.3556 H   0  0  0  0  0  0  0  0  0  0  0  0
    3.0048   -3.6498    5.9774 H   0  0  0  0  0  0  0  0  0  0  0  0
    3.9930   -3.7070    7.3981 H   0  0  0  0  0  0  0  0  0  0  0  0
    2.2800   -0.8671    6.0614 H   0  0  0  0  0  0  0  0  0  0  0  0
    3.2544    2.1377    7.7781 H   0  0  0  0  0  0  0  0  0  0  0  0
    0.1101    3.0394    7.6752 H   0  0  0  0  0  0  0  0  0  0  0  0
    2.8668    3.9901    8.1667 H   0  0  0  0  0  0  0  0  0  0  0  0
    1.3502    4.8645    8.2066 H   0  0  0  0  0  0  0  0  0  0  0  0
    1.8962    4.2087    6.6940 H   0  0  0  0  0  0  0  0  0  0  0  0
    1.8954    2.2861   10.0680 H   0  0  0  0  0  0  0  0  0  0  0  0
    0.2041    1.8301    9.8990 H   0  0  0  0  0  0  0  0  0  0  0  0
    0.6556    3.5136   10.0590 H   0  0  0  0  0  0  0  0  0  0  0  0
  1  2  1  0
  1 43  1  0
  1 44  1  0
  1 45  1  0
  2  3  1  0
  3 20  1  0
  3  4  2  3
  4 38  1  0
  4  5  1  0
  5 13  1  0
  5  6  1  0
  5 46  1  6
  6  7  1  0
  6  8  1  0
  6  9  1  0
  7 47  1  0
  7 48  1  0
  7 49  1  0
  8 50  1  0
  8 51  1  0
  8 52  1  0
  9 10  1  0
 10 26  1  0
 10 11  2  0
 11 12  1  0
 11 16  1  0
 12 13  1  0
 13 14  1  0
 13 15  1  6
 14 53  1  0
 14 54  1  0
 14 55  1  0
 15 56  1  0
 16 17  1  0
 16 25  1  0
 16 57  1  6
 17 18  1  0
 17 58  1  0
 17 59  1  0
 18 22  1  0
 18 19  1  0
 18 60  1  1
 19 20  1  0
 19 22  1  0
 19 61  1  1
 20 21  1  0
 20 62  1  6
 21 63  1  0
 22 23  1  0
 22 24  1  0
 23 64  1  0
 23 65  1  0
 23 66  1  0
 24 67  1  0
 24 68  1  0
 24 69  1  0
 25 35  1  0
 25 26  1  1
 25 27  1  0
 27 28  1  0
 27 30  1  0
 27 70  1  6
 28 29  1  0
 29 71  1  0
 29 72  1  0
 29 73  1  0
 30 31  1  0
 30 74  1  0
 30 75  1  0
 31 32  1  0
 31 76  1  0
 31 77  1  0
 32 33  1  0
 32 34  1  0
 32 35  1  0
 33 78  1  0
 33 79  1  0
 33 80  1  0
 34 81  1  0
 34 82  1  0
 34 83  1  0
 35 36  1  0
 35 84  1  6
 36 37  2  0
 36 38  1  0
 38 39  1  1
 38 40  1  0
 39 85  1  0
 40 41  1  0
 40 42  1  0
 40 86  1  0
 41 87  1  0
 41 88  1  0
 41 89  1  0
 42 90  1  0
 42 91  1  0
 42 92  1  0
M  END
>  <i_m_ct_stereo_status>  (394) 
1

>  <s_m_source_file>  (394) 
/var/tmp/pbs.5076255.sched01/tmpt95b3wv2/135g3gtwtb2.sdf

>  <i_m_source_file_index>  (394) 
23

>  <i_lp_mmshare_version>  (394) 
48012

>  <i_f3d_flags>  (394) 
0

>  <s_epik_input>  (394) 
W0NAXTEyM1tDQEhdNEM1PUMoTzEpT0MoW0NIM10pKFtDSDNdKVtDQEhdKFtDQEBdKE81KShbQ0gzXSlbT0hdKS9DKD1DKFxPW0NIM10pW0NASF0oW09IXSlbQ0BIXTZbQ0BASF0oW0NIMl00KUM2KFtDSDNdKVtDSDNdKVtDQEBdKFtPSF0pKFtDSF0oW0NIM10pW0NIM10pQyg9TylbQ0BIXTNDKFtDSDNdKShbQ0gzXSlbQ0gyXVtDSDJdW0NAQEhdMk9bQ0gzXQ==

>  <s_epik_cmdline>  (394) 
J2VwaWtfcHl0aG9uJywgJy1waHQnLCAnMi4wJywgJy1waCcsICc3LjAnLCAnLXRuJywgJzgnLCAnLW1hJywgJzIwMCcsICctaW1hZScsICc8aW5maWxlLm1hZT4nLCAnLW9tYWUnLCAnPG91dGZpbGUubWFlPic=

>  <r_lp_tautomer_probability>  (394) 
1

>  <r_epik_Ionization_Penalty>  (394) 
0.000195889

>  <r_epik_Ionization_Penalty_Charging>  (394) 
0

>  <r_epik_Ionization_Penalty_Neutral>  (394) 
0.000195889

>  <r_epik_State_Penalty>  (394) 
-0

>  <r_epik_Charging_Adjusted_Penalty>  (394) 
0

>  <i_epik_Tot_Q>  (394) 
0

>  <i_epik_Tot_abs_Q>  (394) 
0

>  <s_lp_Force_Field>  (394) 
OPLS3e

>  <r_lp_Energy>  (394) 
213.745

>  <b_lp_Chiralities_Consistent>  (394) 
1

>  <s_lp_Variant>  (394) 
99:0-2

>  <s_i_glide_gridfile>  (394) 
pfpi4k_grid

>  <i_i_glide_lignum>  (394) 
23

>  <i_i_glide_rotatable_bonds>  (394) 
6

>  <r_i_docking_score>  (394) 
-2.44261

>  <r_i_glide_ligand_efficiency>  (394) 
-0.0581574

>  <r_i_glide_ligand_efficiency_sa>  (394) 
-0.202156

>  <r_i_glide_ligand_efficiency_ln>  (394) 
-0.515572

>  <r_i_glide_gscore>  (394) 
-2.44261

>  <r_i_glide_lipo>  (394) 
-0.0839089

>  <r_i_glide_hbond>  (394) 
0

>  <r_i_glide_metal>  (394) 
-0

>  <r_i_glide_rewards>  (394) 
-0.5

>  <r_i_glide_evdw>  (394) 
-23.1112

>  <r_i_glide_ecoul>  (394) 
-4.37548

>  <r_i_glide_erotb>  (394) 
0

>  <r_i_glide_esite>  (394) 
-0.0468206

>  <r_i_glide_emodel>  (394) 
-36.0554

>  <r_i_glide_energy>  (394) 
-27.4866

>  <r_i_glide_einternal>  (394) 
1.21497

>  <r_i_glide_intrahb_reward>  (394) 
-0.5

>  <i_i_glide_confnum>  (394) 
1

>  <i_i_glide_posenum>  (394) 
36

>  <r_i_glide_eff_state_penalty>  (394) 
0

>  <ligand_id>  (394) 
99

>  <original_smiles>  (394) 
COC1=C2C3C(C)(C)OC4=C(OC3(C)O)C(CC3C(C1O)C3(C)C)C1(O4)C(OC)CCC(C)(C)C1C(=O)C2(O)C(C)C

>  <smiles>  (394) 
[H]OC1([H])C(OC([H])([H])[H])=C2C(O[H])(C([H])(C([H])([H])[H])C([H])([H])[H])C(=O)C3([H])C4(OC5=C(OC(O[H])(C([H])([H])[H])C2([H])C(C([H])([H])[H])(C([H])([H])[H])O5)C4([H])C([H])([H])C2([H])C1([H])C2(C([H])([H])[H])C([H])([H])[H])C([H])(OC([H])([H])[H])C([H])([H])C([H])([H])C3(C([H])([H])[H])C([H])([H])[H]

$$$$
100:0:0
     RDKit          3D

 44 45  0  0  1  0  0  0  0  0999 V2000
    5.4397   -4.2238   -1.9235 C   0  0  0  0  0  0  0  0  0  0  0  0
    4.4989   -3.2057   -2.5461 C   0  0  2  0  0  0  0  0  0  0  0  0
    5.0349   -1.7585   -2.4200 C   0  0  0  0  0  0  0  0  0  0  0  0
    4.0364   -0.8757   -1.8314 N   0  0  1  0  0  0  0  0  0  0  0  0
    2.8469   -0.8820   -2.7085 C   0  0  0  0  0  0  0  0  0  0  0  0
    2.2337   -2.3104   -2.7864 C   0  0  0  0  0  0  0  0  0  0  0  0
    3.0812   -3.2786   -1.9530 C   0  0  2  0  0  0  0  0  0  0  0  0
    3.1280   -2.7658   -0.4934 C   0  0  0  0  0  0  0  0  0  0  0  0
    3.6707   -1.3087   -0.4574 C   0  0  1  0  0  0  0  0  0  0  0  0
    4.8469   -1.1245    0.5470 C   0  0  0  0  0  0  0  0  0  0  0  0
    4.4404   -1.3422    1.9337 N   0  0  0  0  0  0  0  0  0  0  0  0
    3.7012   -0.5273    2.6798 C   0  0  0  0  0  0  0  0  0  0  0  0
    3.1718    0.4909    2.2057 O   0  0  0  0  0  0  0  0  0  0  0  0
    3.5507   -0.8426    4.1880 C   0  0  0  0  0  0  0  0  0  0  0  0
    2.0612   -1.0237    4.5372 C   0  0  0  0  0  0  0  0  0  0  0  0
    4.0954    0.3480    4.9996 C   0  0  0  0  0  0  0  0  0  0  0  0
    4.3180   -2.1247    4.5879 C   0  0  0  0  0  0  0  0  0  0  0  0
    5.6985   -3.9825   -0.8924 H   0  0  0  0  0  0  0  0  0  0  0  0
    6.3483   -4.1816   -2.5159 H   0  0  0  0  0  0  0  0  0  0  0  0
    5.0173   -5.2218   -1.9495 H   0  0  0  0  0  0  0  0  0  0  0  0
    4.4163   -3.4232   -3.6195 H   0  0  0  0  0  0  0  0  0  0  0  0
    5.9761   -1.6908   -1.8651 H   0  0  0  0  0  0  0  0  0  0  0  0
    5.2518   -1.3741   -3.4260 H   0  0  0  0  0  0  0  0  0  0  0  0
    2.1360   -0.1760   -2.3332 H   0  0  0  0  0  0  0  0  0  0  0  0
    3.0995   -0.5017   -3.7014 H   0  0  0  0  0  0  0  0  0  0  0  0
    1.2549   -2.3667   -2.3366 H   0  0  0  0  0  0  0  0  0  0  0  0
    2.1054   -2.6173   -3.8343 H   0  0  0  0  0  0  0  0  0  0  0  0
    2.6421   -4.2521   -1.9746 H   0  0  0  0  0  0  0  0  0  0  0  0
    2.1381   -2.8167   -0.0306 H   0  0  0  0  0  0  0  0  0  0  0  0
    3.7502   -3.4392    0.1060 H   0  0  0  0  0  0  0  0  0  0  0  0
    2.8555   -0.6534   -0.1565 H   0  0  0  0  0  0  0  0  0  0  0  0
    5.6202   -1.8697    0.3684 H   0  0  0  0  0  0  0  0  0  0  0  0
    5.3269   -0.1531    0.4436 H   0  0  0  0  0  0  0  0  0  0  0  0
    4.8524   -2.1431    2.4028 H   0  0  0  0  0  0  0  0  0  0  0  0
    1.9480   -1.2348    5.6026 H   0  0  0  0  0  0  0  0  0  0  0  0
    1.6090   -1.8544    3.9923 H   0  0  0  0  0  0  0  0  0  0  0  0
    1.4756   -0.1248    4.3298 H   0  0  0  0  0  0  0  0  0  0  0  0
    3.5509    1.2693    4.7828 H   0  0  0  0  0  0  0  0  0  0  0  0
    5.1491    0.5339    4.7879 H   0  0  0  0  0  0  0  0  0  0  0  0
    3.9991    0.1712    6.0714 H   0  0  0  0  0  0  0  0  0  0  0  0
    4.2176   -2.3369    5.6519 H   0  0  0  0  0  0  0  0  0  0  0  0
    5.3835   -2.0317    4.3775 H   0  0  0  0  0  0  0  0  0  0  0  0
    3.9342   -2.9924    4.0515 H   0  0  0  0  0  0  0  0  0  0  0  0
    4.3591    0.0600   -1.7769 H   0  0  0  0  0  0  0  0  0  0  0  0
  1  2  1  0
  1 18  1  0
  1 19  1  0
  1 20  1  0
  2  7  1  0
  2  3  1  0
  2 21  1  6
  3  4  1  0
  3 22  1  0
  3 23  1  0
  4  9  1  0
  4  5  1  0
  4 44  1  1
  5  6  1  0
  5 24  1  0
  5 25  1  0
  6  7  1  0
  6 26  1  0
  6 27  1  0
  7  8  1  0
  7 28  1  1
  8  9  1  0
  8 29  1  0
  8 30  1  0
  9 10  1  0
  9 31  1  1
 10 11  1  0
 10 32  1  0
 10 33  1  0
 11 12  1  0
 11 34  1  0
 12 13  2  0
 12 14  1  0
 14 15  1  0
 14 16  1  0
 14 17  1  0
 15 35  1  0
 15 36  1  0
 15 37  1  0
 16 38  1  0
 16 39  1  0
 16 40  1  0
 17 41  1  0
 17 42  1  0
 17 43  1  0
M  CHG  1   4   1
M  END
>  <i_m_ct_stereo_status>  (395) 
1

>  <s_m_source_file>  (395) 
/var/tmp/pbs.5076255.sched01/tmpt95b3wv2/135g3gtwtb2.sdf

>  <i_m_source_file_index>  (395) 
24

>  <i_lp_mmshare_version>  (395) 
48012

>  <i_f3d_flags>  (395) 
0

>  <s_epik_input>  (395) 
TjEyW0NIMl1bQ0BASF0oW0NIM10pW0NASF0oW0NIMl1bQ0gyXTEpW0NIMl1bQ0BIXTJbQ0gyXVtOSF1DKD1PKUMoW0NIM10pKFtDSDNdKVtDSDNd

>  <s_epik_cmdline>  (395) 
J2VwaWtfcHl0aG9uJywgJy1waHQnLCAnMi4wJywgJy1waCcsICc3LjAnLCAnLXRuJywgJzgnLCAnLW1hJywgJzIwMCcsICctaW1hZScsICc8aW5maWxlLm1hZT4nLCAnLW9tYWUnLCAnPG91dGZpbGUubWFlPic=

>  <r_epik_Ionization_Penalty>  (395) 
0.000368488

>  <r_epik_Ionization_Penalty_Charging>  (395) 
0.000368475

>  <r_epik_Ionization_Penalty_Neutral>  (395) 
1.30246e-08

>  <r_epik_State_Penalty>  (395) 
0.000224591

>  <r_epik_Charging_Adjusted_Penalty>  (395) 
0.000593065

>  <i_epik_Tot_Q>  (395) 
1

>  <i_epik_Tot_abs_Q>  (395) 
1

>  <s_lp_Force_Field>  (395) 
OPLS3e

>  <r_lp_Energy>  (395) 
36.0873

>  <b_lp_Chiralities_Consistent>  (395) 
1

>  <s_lp_Variant>  (395) 
100:0-1

>  <s_i_glide_gridfile>  (395) 
pfpi4k_grid

>  <i_i_glide_lignum>  (395) 
24

>  <i_i_glide_rotatable_bonds>  (395) 
4

>  <r_i_docking_score>  (395) 
-1.80469

>  <r_i_glide_ligand_efficiency>  (395) 
-0.106158

>  <r_i_glide_ligand_efficiency_sa>  (395) 
-0.272963

>  <r_i_glide_ligand_efficiency_ln>  (395) 
-0.470804

>  <r_i_glide_gscore>  (395) 
-1.80469

>  <r_i_glide_lipo>  (395) 
-0.120578

>  <r_i_glide_hbond>  (395) 
0

>  <r_i_glide_metal>  (395) 
-0

>  <r_i_glide_rewards>  (395) 
-1.80261

>  <r_i_glide_evdw>  (395) 
-8.4268

>  <r_i_glide_ecoul>  (395) 
-2.22311

>  <r_i_glide_erotb>  (395) 
0.904737

>  <r_i_glide_esite>  (395) 
-0.031433

>  <r_i_glide_emodel>  (395) 
-10.6583

>  <r_i_glide_energy>  (395) 
-10.6499

>  <r_i_glide_einternal>  (395) 
0.8879

>  <r_i_glide_intrahb_reward>  (395) 
-0

>  <i_i_glide_confnum>  (395) 
4

>  <i_i_glide_posenum>  (395) 
32

>  <r_i_glide_eff_state_penalty>  (395) 
0

>  <ligand_id>  (395) 
100

>  <original_smiles>  (395) 
CC1CN2CCC1CC2CNC(=O)C(C)(C)C

>  <smiles>  (395) 
[H]N(C(=O)C(C([H])([H])[H])(C([H])([H])[H])C([H])([H])[H])C([H])([H])C1([H])C([H])([H])C2([H])C([H])([H])C([H])([H])[N+]1([H])C([H])([H])C2([H])C([H])([H])[H]

$$$$
101:0:0
     RDKit          3D

 75 81  0  0  1  0  0  0  0  0999 V2000
    1.0594   -7.9297    6.3700 C   0  0  0  0  0  0  0  0  0  0  0  0
    1.9539   -8.1194    5.1344 C   0  0  1  0  0  0  0  0  0  0  0  0
    1.6989   -9.3334    4.4226 C   0  0  0  0  0  0  0  0  0  0  0  0
    2.8683   -9.2454    3.3095 C   0  0  1  0  0  0  0  0  0  0  0  0
    1.9357   -9.0442    2.1202 C   0  0  0  0  0  0  0  0  0  0  0  0
    1.2416   -7.6668    2.4821 C   0  0  0  0  0  0  0  0  0  0  0  0
    1.5960   -7.0894    3.9502 C   0  0  2  0  0  0  0  0  0  0  0  0
    2.6728   -6.0273    3.8702 C   0  0  2  0  0  0  0  0  0  0  0  0
    2.1652   -4.6185    3.5317 C   0  0  0  0  0  0  0  0  0  0  0  0
    1.0379   -4.2344    3.8399 O   0  0  0  0  0  0  0  0  0  0  0  0
    3.1192   -3.6946    2.8038 C   0  0  0  0  0  0  0  0  0  0  0  0
    3.5689   -4.3922    1.5216 C   0  0  1  0  0  0  0  0  0  0  0  0
    4.1288   -3.3453    0.4883 C   0  0  2  0  0  0  0  0  0  0  0  0
    3.5428   -3.4348   -0.9401 C   0  0  0  0  0  0  0  0  0  0  0  0
    4.7331   -3.3701   -1.8988 C   0  0  1  0  0  0  0  0  0  0  0  0
    4.4027   -2.7682   -3.1353 O   0  0  0  0  0  0  0  0  0  0  0  0
    5.8525   -2.6656   -1.1104 C   0  0  1  0  0  0  0  0  0  0  0  0
    5.7044   -1.2560   -1.1900 O   0  0  0  0  0  0  0  0  0  0  0  0
    5.6716   -3.1844    0.3482 C   0  0  1  0  0  0  0  0  0  0  0  0
    6.2109   -2.1815    1.4020 C   0  0  0  0  0  0  0  0  0  0  0  0
    6.3732   -4.5646    0.4892 C   0  0  1  0  0  0  0  0  0  0  0  0
    7.7813   -4.4252    0.5285 O   0  0  0  0  0  0  0  0  0  0  0  0
    5.9204   -5.3410    1.7343 C   0  0  0  0  0  0  0  0  0  0  0  0
    4.3998   -5.7117    1.7800 C   0  0  2  0  0  0  0  0  0  0  0  0
    4.1568   -6.5699    0.5021 C   0  0  0  0  0  0  0  0  0  0  0  0
    4.0181   -6.4946    3.1903 C   0  0  1  0  0  0  0  0  0  0  0  0
    4.9988   -5.9989    4.3264 C   0  0  0  0  0  0  0  0  0  0  0  0
    4.1079   -8.1294    3.0746 C   0  0  1  0  0  0  0  0  0  0  0  0
    5.5220   -8.6619    3.5043 C   0  0  0  0  0  0  0  0  0  0  0  0
    5.5096   -9.1877    4.9464 C   0  0  0  0  0  0  0  0  0  0  0  0
    4.0931   -9.6829    5.2477 C   0  0  2  0  0  0  0  0  0  0  0  0
    3.5740  -10.4435    3.9322 C   0  0  0  0  0  0  0  0  0  0  0  0
    3.3239   -8.4363    5.6240 O   0  0  0  0  0  0  0  0  0  0  0  0
    0.0032   -7.8814    6.1038 H   0  0  0  0  0  0  0  0  0  0  0  0
    1.3152   -7.0078    6.8888 H   0  0  0  0  0  0  0  0  0  0  0  0
    1.1769   -8.7500    7.0798 H   0  0  0  0  0  0  0  0  0  0  0  0
    1.6685  -10.1523    5.1521 H   0  0  0  0  0  0  0  0  0  0  0  0
    0.6625   -9.4030    4.0736 H   0  0  0  0  0  0  0  0  0  0  0  0
    2.4434   -9.0219    1.1566 H   0  0  0  0  0  0  0  0  0  0  0  0
    1.2008   -9.8477    2.0334 H   0  0  0  0  0  0  0  0  0  0  0  0
    1.4313   -6.9114    1.7224 H   0  0  0  0  0  0  0  0  0  0  0  0
    0.1619   -7.8251    2.4321 H   0  0  0  0  0  0  0  0  0  0  0  0
    0.6692   -6.6120    4.2683 H   0  0  0  0  0  0  0  0  0  0  0  0
    2.8576   -5.8698    4.9321 H   0  0  0  0  0  0  0  0  0  0  0  0
    2.5784   -2.7766    2.5739 H   0  0  0  0  0  0  0  0  0  0  0  0
    3.9596   -3.4128    3.4348 H   0  0  0  0  0  0  0  0  0  0  0  0
    2.6279   -4.7213    1.0749 H   0  0  0  0  0  0  0  0  0  0  0  0
    3.7663   -2.3710    0.8176 H   0  0  0  0  0  0  0  0  0  0  0  0
    2.9412   -4.3222   -1.1208 H   0  0  0  0  0  0  0  0  0  0  0  0
    2.8732   -2.5875   -1.1078 H   0  0  0  0  0  0  0  0  0  0  0  0
    5.0462   -4.3900   -2.1225 H   0  0  0  0  0  0  0  0  0  0  0  0
    3.6768   -3.2515   -3.5030 H   0  0  0  0  0  0  0  0  0  0  0  0
    6.8353   -2.9045   -1.5222 H   0  0  0  0  0  0  0  0  0  0  0  0
    4.8197   -1.0310   -0.9360 H   0  0  0  0  0  0  0  0  0  0  0  0
    7.2715   -1.9824    1.2583 H   0  0  0  0  0  0  0  0  0  0  0  0
    6.0771   -2.5509    2.4170 H   0  0  0  0  0  0  0  0  0  0  0  0
    5.6990   -1.2207    1.3621 H   0  0  0  0  0  0  0  0  0  0  0  0
    6.1828   -5.1801   -0.3840 H   0  0  0  0  0  0  0  0  0  0  0  0
    8.1655   -5.2846    0.6348 H   0  0  0  0  0  0  0  0  0  0  0  0
    6.5109   -6.2563    1.8072 H   0  0  0  0  0  0  0  0  0  0  0  0
    6.2106   -4.7249    2.5815 H   0  0  0  0  0  0  0  0  0  0  0  0
    4.9098   -7.3468    0.3630 H   0  0  0  0  0  0  0  0  0  0  0  0
    4.1947   -5.9932   -0.4145 H   0  0  0  0  0  0  0  0  0  0  0  0
    3.1780   -7.0318    0.4982 H   0  0  0  0  0  0  0  0  0  0  0  0
    6.0582   -6.1718    4.1674 H   0  0  0  0  0  0  0  0  0  0  0  0
    4.7831   -6.4631    5.2871 H   0  0  0  0  0  0  0  0  0  0  0  0
    4.9210   -4.9293    4.5014 H   0  0  0  0  0  0  0  0  0  0  0  0
    4.2621   -8.3312    2.0318 H   0  0  0  0  0  0  0  0  0  0  0  0
    5.8040   -9.4814    2.8406 H   0  0  0  0  0  0  0  0  0  0  0  0
    6.3458   -7.9804    3.3191 H   0  0  0  0  0  0  0  0  0  0  0  0
    6.2380   -9.9926    5.0428 H   0  0  0  0  0  0  0  0  0  0  0  0
    5.8013   -8.4148    5.6583 H   0  0  0  0  0  0  0  0  0  0  0  0
    4.1163  -10.3590    6.1035 H   0  0  0  0  0  0  0  0  0  0  0  0
    2.9488  -11.3166    4.1356 H   0  0  0  0  0  0  0  0  0  0  0  0
    4.3492  -10.8821    3.3071 H   0  0  0  0  0  0  0  0  0  0  0  0
  2  1  1  1
  1 34  1  0
  1 35  1  0
  1 36  1  0
  2  7  1  0
  2 33  1  0
  2  3  1  0
  3  4  1  0
  3 37  1  0
  3 38  1  0
  4 28  1  0
  4 32  1  6
  4  5  1  0
  5  6  1  0
  5 39  1  0
  5 40  1  0
  6  7  1  0
  6 41  1  0
  6 42  1  0
  7  8  1  0
  7 43  1  1
  8 26  1  0
  8  9  1  0
  8 44  1  1
  9 10  2  0
  9 11  1  0
 11 12  1  0
 11 45  1  0
 11 46  1  0
 12 24  1  0
 12 13  1  0
 12 47  1  6
 13 19  1  0
 13 14  1  0
 13 48  1  1
 14 15  1  0
 14 49  1  0
 14 50  1  0
 15 16  1  0
 15 17  1  0
 15 51  1  6
 16 52  1  0
 17 18  1  0
 17 19  1  0
 17 53  1  6
 18 54  1  0
 19 20  1  1
 19 21  1  0
 20 55  1  0
 20 56  1  0
 20 57  1  0
 21 22  1  0
 21 23  1  0
 21 58  1  6
 22 59  1  0
 23 24  1  0
 23 60  1  0
 23 61  1  0
 24 25  1  6
 24 26  1  0
 25 62  1  0
 25 63  1  0
 25 64  1  0
 26 27  1  1
 26 28  1  0
 27 65  1  0
 27 66  1  0
 27 67  1  0
 28 29  1  0
 28 68  1  6
 29 30  1  0
 29 69  1  0
 29 70  1  0
 30 31  1  0
 30 71  1  0
 30 72  1  0
 31 32  1  0
 31 33  1  0
 31 73  1  1
 32 74  1  0
 32 75  1  0
M  END
>  <i_m_ct_stereo_status>  (396) 
1

>  <s_m_source_file>  (396) 
/var/tmp/pbs.5076255.sched01/tmpt95b3wv2/135g3gtwtb2.sdf

>  <i_m_source_file_index>  (396) 
25

>  <i_lp_mmshare_version>  (396) 
48012

>  <i_f3d_flags>  (396) 
0

>  <s_epik_input>  (396) 
W0NIMl0xW0NIMl1bQ0BIXShbQ0gyXTIpT1tDQF0oW0NIM10pKFtDSDJdMylbQ0BIXShbQ0gyXVtDSDJdNClbQ0BASF0oW0NAQF01KFtDSDNdKVtDQEBIXTFbQ0BAXTIzNClDKD1PKVtDSDJdW0NASF02W0NASF03W0NAXShbQ0gzXSkoW0NASF0oW09IXSlbQ0BASF0oW0NIMl03KVtPSF0pW0NAQEhdKFtPSF0pW0NIMl1bQ0BAXTU2W0NIM10=

>  <s_epik_cmdline>  (396) 
J2VwaWtfcHl0aG9uJywgJy1waHQnLCAnMi4wJywgJy1waCcsICc3LjAnLCAnLXRuJywgJzgnLCAnLW1hJywgJzIwMCcsICctaW1hZScsICc8aW5maWxlLm1hZT4nLCAnLW9tYWUnLCAnPG91dGZpbGUubWFlPic=

>  <r_lp_tautomer_probability>  (396) 
1

>  <r_epik_Ionization_Penalty>  (396) 
1.15914e-06

>  <r_epik_Ionization_Penalty_Charging>  (396) 
0

>  <r_epik_Ionization_Penalty_Neutral>  (396) 
1.15914e-06

>  <r_epik_State_Penalty>  (396) 
-0

>  <r_epik_Charging_Adjusted_Penalty>  (396) 
0

>  <i_epik_Tot_Q>  (396) 
0

>  <i_epik_Tot_abs_Q>  (396) 
0

>  <s_lp_Force_Field>  (396) 
OPLS3e

>  <r_lp_Energy>  (396) 
257.607

>  <b_lp_Chiralities_Consistent>  (396) 
1

>  <s_lp_Variant>  (396) 
101:0-1

>  <s_i_glide_gridfile>  (396) 
pfpi4k_grid

>  <i_i_glide_lignum>  (396) 
25

>  <i_i_glide_rotatable_bonds>  (396) 
3

>  <r_i_docking_score>  (396) 
-3.02341

>  <r_i_glide_ligand_efficiency>  (396) 
-0.0916186

>  <r_i_glide_ligand_efficiency_sa>  (396) 
-0.29387

>  <r_i_glide_ligand_efficiency_ln>  (396) 
-0.672391

>  <r_i_glide_gscore>  (396) 
-3.02341

>  <r_i_glide_lipo>  (396) 
-0.670832

>  <r_i_glide_hbond>  (396) 
0

>  <r_i_glide_metal>  (396) 
-0

>  <r_i_glide_rewards>  (396) 
-0.282068

>  <r_i_glide_evdw>  (396) 
-31.2283

>  <r_i_glide_ecoul>  (396) 
-3.394

>  <r_i_glide_erotb>  (396) 
0

>  <r_i_glide_esite>  (396) 
0

>  <r_i_glide_emodel>  (396) 
-41.589

>  <r_i_glide_energy>  (396) 
-34.6223

>  <r_i_glide_einternal>  (396) 
0.785369

>  <r_i_glide_intrahb_reward>  (396) 
-0

>  <i_i_glide_confnum>  (396) 
2

>  <i_i_glide_posenum>  (396) 
32

>  <r_i_glide_eff_state_penalty>  (396) 
0

>  <ligand_id>  (396) 
101

>  <original_smiles>  (396) 
CC12CC34CCC1C1C(=O)CC5C6CC(O)C(O)C6(C)C(O)CC5(C)C1(C)C3CCC(C4)O2

>  <smiles>  (396) 
[H]OC1([H])C([H])([H])C2([H])C3([H])C([H])([H])C(=O)C4([H])C5([H])C([H])([H])C([H])([H])C67C([H])([H])C([H])(OC5(C([H])([H])[H])C6([H])[H])C([H])([H])C([H])([H])C7([H])C4(C([H])([H])[H])C3(C([H])([H])[H])C([H])([H])C([H])(O[H])C2(C([H])([H])[H])C1([H])O[H]

$$$$
101:0:1
     RDKit          3D

 75 81  0  0  1  0  0  0  0  0999 V2000
    6.4518   -1.7159    0.7506 C   0  0  0  0  0  0  0  0  0  0  0  0
    5.2434   -1.8355    1.6980 C   0  0  1  0  0  0  0  0  0  0  0  0
    4.3408   -0.7315    1.6270 C   0  0  0  0  0  0  0  0  0  0  0  0
    3.3201   -1.1407    2.8110 C   0  0  1  0  0  0  0  0  0  0  0  0
    2.1355   -1.4141    1.9008 C   0  0  0  0  0  0  0  0  0  0  0  0
    2.6774   -2.6154    1.0184 C   0  0  0  0  0  0  0  0  0  0  0  0
    4.2223   -2.9923    1.2506 C   0  0  2  0  0  0  0  0  0  0  0  0
    4.3575   -4.1799    2.1797 C   0  0  2  0  0  0  0  0  0  0  0  0
    4.2130   -5.5504    1.5005 C   0  0  0  0  0  0  0  0  0  0  0  0
    4.5406   -5.7417    0.3350 O   0  0  0  0  0  0  0  0  0  0  0  0
    3.6787   -6.6893    2.3463 C   0  0  0  0  0  0  0  0  0  0  0  0
    2.3267   -6.2619    2.9181 C   0  0  1  0  0  0  0  0  0  0  0  0
    1.4920   -7.5219    3.3656 C   0  0  2  0  0  0  0  0  0  0  0  0
    0.0376   -7.5844    2.8407 C   0  0  0  0  0  0  0  0  0  0  0  0
   -0.8351   -7.9457    4.0453 C   0  0  1  0  0  0  0  0  0  0  0  0
   -2.0003   -8.6581    3.6824 O   0  0  0  0  0  0  0  0  0  0  0  0
    0.1026   -8.6581    5.0300 C   0  0  1  0  0  0  0  0  0  0  0  0
    0.2227  -10.0292    4.6590 O   0  0  0  0  0  0  0  0  0  0  0  0
    1.4546   -7.8943    4.8779 C   0  0  1  0  0  0  0  0  0  0  0  0
    2.6819   -8.7729    5.2560 C   0  0  0  0  0  0  0  0  0  0  0  0
    1.4082   -6.6083    5.7470 C   0  0  1  0  0  0  0  0  0  0  0  0
    1.5145   -6.9157    7.1249 O   0  0  0  0  0  0  0  0  0  0  0  0
    2.5032   -5.5928    5.3676 C   0  0  0  0  0  0  0  0  0  0  0  0
    2.4260   -5.0322    3.9074 C   0  0  2  0  0  0  0  0  0  0  0  0
    1.0253   -4.3606    3.8110 C   0  0  0  0  0  0  0  0  0  0  0  0
    3.6791   -3.9954    3.5908 C   0  0  1  0  0  0  0  0  0  0  0  0
    4.9236   -4.4194    4.4649 C   0  0  0  0  0  0  0  0  0  0  0  0
    3.3281   -2.4236    3.8965 C   0  0  1  0  0  0  0  0  0  0  0  0
    3.7253   -2.0087    5.3521 C   0  0  0  0  0  0  0  0  0  0  0  0
    5.0626   -1.2652    5.3685 C   0  0  0  0  0  0  0  0  0  0  0  0
    5.2182   -0.5527    4.0221 C   0  0  2  0  0  0  0  0  0  0  0  0
    3.7798    0.0473    3.6475 C   0  0  0  0  0  0  0  0  0  0  0  0
    5.7449   -1.6129    3.0790 O   0  0  0  0  0  0  0  0  0  0  0  0
    6.1475   -1.6820   -0.2959 H   0  0  0  0  0  0  0  0  0  0  0  0
    7.1163   -2.5714    0.8734 H   0  0  0  0  0  0  0  0  0  0  0  0
    7.0342   -0.8173    0.9526 H   0  0  0  0  0  0  0  0  0  0  0  0
    4.9345    0.1826    1.6886 H   0  0  0  0  0  0  0  0  0  0  0  0
    3.9297   -0.5910    0.6216 H   0  0  0  0  0  0  0  0  0  0  0  0
    1.2137   -1.6551    2.4250 H   0  0  0  0  0  0  0  0  0  0  0  0
    1.8913   -0.5447    1.2862 H   0  0  0  0  0  0  0  0  0  0  0  0
    2.0605   -3.5021    1.1305 H   0  0  0  0  0  0  0  0  0  0  0  0
    2.5559   -2.3335   -0.0293 H   0  0  0  0  0  0  0  0  0  0  0  0
    4.5578   -3.2930    0.2578 H   0  0  0  0  0  0  0  0  0  0  0  0
    5.4375   -4.1878    2.3106 H   0  0  0  0  0  0  0  0  0  0  0  0
    3.5688   -7.5564    1.6952 H   0  0  0  0  0  0  0  0  0  0  0  0
    4.3896   -6.9680    3.1177 H   0  0  0  0  0  0  0  0  0  0  0  0
    1.7974   -5.8931    2.0376 H   0  0  0  0  0  0  0  0  0  0  0  0
    1.9491   -8.3794    2.8706 H   0  0  0  0  0  0  0  0  0  0  0  0
   -0.3049   -6.6622    2.3735 H   0  0  0  0  0  0  0  0  0  0  0  0
   -0.0254   -8.3561    2.0691 H   0  0  0  0  0  0  0  0  0  0  0  0
   -1.1832   -7.0241    4.5043 H   0  0  0  0  0  0  0  0  0  0  0  0
   -2.0063   -9.5113    4.1128 H   0  0  0  0  0  0  0  0  0  0  0  0
   -0.2830   -8.6335    6.0505 H   0  0  0  0  0  0  0  0  0  0  0  0
   -0.6128  -10.4658    4.8761 H   0  0  0  0  0  0  0  0  0  0  0  0
    2.6265   -9.1327    6.2818 H   0  0  0  0  0  0  0  0  0  0  0  0
    3.6214   -8.2351    5.1378 H   0  0  0  0  0  0  0  0  0  0  0  0
    2.7595   -9.6542    4.6211 H   0  0  0  0  0  0  0  0  0  0  0  0
    0.4402   -6.1243    5.6649 H   0  0  0  0  0  0  0  0  0  0  0  0
    2.2701   -7.4649    7.2554 H   0  0  0  0  0  0  0  0  0  0  0  0
    2.4630   -4.7630    6.0718 H   0  0  0  0  0  0  0  0  0  0  0  0
    3.4472   -6.1006    5.5495 H   0  0  0  0  0  0  0  0  0  0  0  0
    0.8059   -3.7200    4.6654 H   0  0  0  0  0  0  0  0  0  0  0  0
    0.2165   -5.0832    3.7974 H   0  0  0  0  0  0  0  0  0  0  0  0
    0.9032   -3.7811    2.9044 H   0  0  0  0  0  0  0  0  0  0  0  0
    4.7872   -4.4099    5.5397 H   0  0  0  0  0  0  0  0  0  0  0  0
    5.7894   -3.7864    4.2809 H   0  0  0  0  0  0  0  0  0  0  0  0
    5.2538   -5.4309    4.2407 H   0  0  0  0  0  0  0  0  0  0  0  0
    2.2805   -2.4149    4.1038 H   0  0  0  0  0  0  0  0  0  0  0  0
    2.9600   -1.3471    5.7627 H   0  0  0  0  0  0  0  0  0  0  0  0
    3.6954   -2.8095    6.0815 H   0  0  0  0  0  0  0  0  0  0  0  0
    5.0762   -0.5574    6.1956 H   0  0  0  0  0  0  0  0  0  0  0  0
    5.8896   -1.9470    5.5418 H   0  0  0  0  0  0  0  0  0  0  0  0
    5.9630    0.2372    4.1137 H   0  0  0  0  0  0  0  0  0  0  0  0
    3.8148    1.0086    3.1295 H   0  0  0  0  0  0  0  0  0  0  0  0
    3.1378    0.2784    4.4941 H   0  0  0  0  0  0  0  0  0  0  0  0
  2  1  1  6
  1 34  1  0
  1 35  1  0
  1 36  1  0
  2  7  1  0
  2 33  1  0
  2  3  1  0
  3  4  1  0
  3 37  1  0
  3 38  1  0
  4 28  1  0
  4 32  1  1
  4  5  1  0
  5  6  1  0
  5 39  1  0
  5 40  1  0
  6  7  1  0
  6 41  1  0
  6 42  1  0
  7  8  1  0
  7 43  1  6
  8 26  1  0
  8  9  1  0
  8 44  1  1
  9 10  2  0
  9 11  1  0
 11 12  1  0
 11 45  1  0
 11 46  1  0
 12 24  1  0
 12 13  1  0
 12 47  1  6
 13 19  1  0
 13 14  1  0
 13 48  1  6
 14 15  1  0
 14 49  1  0
 14 50  1  0
 15 16  1  0
 15 17  1  0
 15 51  1  1
 16 52  1  0
 17 18  1  0
 17 19  1  0
 17 53  1  1
 18 54  1  0
 19 20  1  1
 19 21  1  0
 20 55  1  0
 20 56  1  0
 20 57  1  0
 21 22  1  0
 21 23  1  0
 21 58  1  1
 22 59  1  0
 23 24  1  0
 23 60  1  0
 23 61  1  0
 24 25  1  1
 24 26  1  0
 25 62  1  0
 25 63  1  0
 25 64  1  0
 26 27  1  1
 26 28  1  0
 27 65  1  0
 27 66  1  0
 27 67  1  0
 28 29  1  0
 28 68  1  1
 29 30  1  0
 29 69  1  0
 29 70  1  0
 30 31  1  0
 30 71  1  0
 30 72  1  0
 31 32  1  0
 31 33  1  0
 31 73  1  1
 32 74  1  0
 32 75  1  0
M  END
>  <i_m_ct_stereo_status>  (397) 
1

>  <s_m_source_file>  (397) 
/var/tmp/pbs.5076255.sched01/tmpt95b3wv2/135g3gtwtb2.sdf

>  <i_m_source_file_index>  (397) 
25

>  <i_lp_mmshare_version>  (397) 
48012

>  <i_f3d_flags>  (397) 
0

>  <s_epik_input>  (397) 
W0NIMl0xW0NIMl1bQ0BIXShbQ0gyXTIpT1tDQF0oW0NIM10pKFtDSDJdMylbQ0BIXShbQ0gyXVtDSDJdNClbQ0BASF0oW0NAQF01KFtDSDNdKVtDQEBIXTFbQ0BAXTIzNClDKD1PKVtDSDJdW0NASF02W0NASF03W0NAXShbQ0gzXSkoW0NASF0oW09IXSlbQ0BASF0oW0NIMl03KVtPSF0pW0NAQEhdKFtPSF0pW0NIMl1bQ0BAXTU2W0NIM10=

>  <s_epik_cmdline>  (397) 
J2VwaWtfcHl0aG9uJywgJy1waHQnLCAnMi4wJywgJy1waCcsICc3LjAnLCAnLXRuJywgJzgnLCAnLW1hJywgJzIwMCcsICctaW1hZScsICc8aW5maWxlLm1hZT4nLCAnLW9tYWUnLCAnPG91dGZpbGUubWFlPic=

>  <r_lp_tautomer_probability>  (397) 
1

>  <r_epik_Ionization_Penalty>  (397) 
1.15914e-06

>  <r_epik_Ionization_Penalty_Charging>  (397) 
0

>  <r_epik_Ionization_Penalty_Neutral>  (397) 
1.15914e-06

>  <r_epik_State_Penalty>  (397) 
-0

>  <r_epik_Charging_Adjusted_Penalty>  (397) 
0

>  <i_epik_Tot_Q>  (397) 
0

>  <i_epik_Tot_abs_Q>  (397) 
0

>  <s_lp_Force_Field>  (397) 
OPLS3e

>  <r_lp_Energy>  (397) 
257.607

>  <b_lp_Chiralities_Consistent>  (397) 
1

>  <s_lp_Variant>  (397) 
101:0-1

>  <s_i_glide_gridfile>  (397) 
pfpi4k_grid

>  <i_i_glide_lignum>  (397) 
25

>  <i_i_glide_rotatable_bonds>  (397) 
3

>  <r_i_docking_score>  (397) 
-2.99199

>  <r_i_glide_ligand_efficiency>  (397) 
-0.0906662

>  <r_i_glide_ligand_efficiency_sa>  (397) 
-0.290815

>  <r_i_glide_ligand_efficiency_ln>  (397) 
-0.665402

>  <r_i_glide_gscore>  (397) 
-2.99199

>  <r_i_glide_lipo>  (397) 
-0.37154

>  <r_i_glide_hbond>  (397) 
0

>  <r_i_glide_metal>  (397) 
-0

>  <r_i_glide_rewards>  (397) 
-0.324461

>  <r_i_glide_evdw>  (397) 
-27.0054

>  <r_i_glide_ecoul>  (397) 
-6.30475

>  <r_i_glide_erotb>  (397) 
0

>  <r_i_glide_esite>  (397) 
0

>  <r_i_glide_emodel>  (397) 
-39.456

>  <r_i_glide_energy>  (397) 
-33.3102

>  <r_i_glide_einternal>  (397) 
1.85593

>  <r_i_glide_intrahb_reward>  (397) 
-0

>  <i_i_glide_confnum>  (397) 
2

>  <i_i_glide_posenum>  (397) 
35

>  <r_i_glide_eff_state_penalty>  (397) 
0

>  <ligand_id>  (397) 
101

>  <original_smiles>  (397) 
CC12CC34CCC1C1C(=O)CC5C6CC(O)C(O)C6(C)C(O)CC5(C)C1(C)C3CCC(C4)O2

>  <smiles>  (397) 
[H]OC1([H])C([H])([H])C2([H])C3([H])C([H])([H])C(=O)C4([H])C5([H])C([H])([H])C([H])([H])C67C([H])([H])C([H])(OC5(C([H])([H])[H])C6([H])[H])C([H])([H])C([H])([H])C7([H])C4(C([H])([H])[H])C3(C([H])([H])[H])C([H])([H])C([H])(O[H])C2(C([H])([H])[H])C1([H])O[H]

$$$$
101:0:2
     RDKit          3D

 75 81  0  0  1  0  0  0  0  0999 V2000
    2.3853   -7.6712    5.9962 C   0  0  0  0  0  0  0  0  0  0  0  0
    3.2199   -7.6714    4.7062 C   0  0  1  0  0  0  0  0  0  0  0  0
    3.3115   -8.9558    4.0842 C   0  0  0  0  0  0  0  0  0  0  0  0
    4.3270   -8.6020    2.8802 C   0  0  1  0  0  0  0  0  0  0  0  0
    3.3142   -8.7873    1.7566 C   0  0  0  0  0  0  0  0  0  0  0  0
    2.2502   -7.6645    2.0965 C   0  0  0  0  0  0  0  0  0  0  0  0
    2.4924   -6.8960    3.4996 C   0  0  2  0  0  0  0  0  0  0  0  0
    3.1812   -5.5655    3.2814 C   0  0  2  0  0  0  0  0  0  0  0  0
    2.2447   -4.4085    2.9113 C   0  0  0  0  0  0  0  0  0  0  0  0
    1.0771   -4.3667    3.2905 O   0  0  0  0  0  0  0  0  0  0  0  0
    2.8193   -3.2934    2.0595 C   0  0  0  0  0  0  0  0  0  0  0  0
    3.3858   -3.9148    0.7840 C   0  0  1  0  0  0  0  0  0  0  0  0
    3.5270   -2.8308   -0.3491 C   0  0  2  0  0  0  0  0  0  0  0  0
    2.9187   -3.2150   -1.7212 C   0  0  0  0  0  0  0  0  0  0  0  0
    3.9728   -2.8810   -2.7793 C   0  0  1  0  0  0  0  0  0  0  0  0
    3.4399   -2.5061   -4.0369 O   0  0  0  0  0  0  0  0  0  0  0  0
    4.8453   -1.8065   -2.1232 C   0  0  1  0  0  0  0  0  0  0  0  0
    4.2374   -0.5427   -2.3165 O   0  0  0  0  0  0  0  0  0  0  0  0
    4.9301   -2.2206   -0.6244 C   0  0  1  0  0  0  0  0  0  0  0  0
    5.2072   -1.0252    0.3303 C   0  0  0  0  0  0  0  0  0  0  0  0
    6.0371   -3.3025   -0.4690 C   0  0  1  0  0  0  0  0  0  0  0  0
    7.3263   -2.7230   -0.5618 O   0  0  0  0  0  0  0  0  0  0  0  0
    5.9286   -4.0828    0.8552 C   0  0  0  0  0  0  0  0  0  0  0  0
    4.6012   -4.8894    1.0544 C   0  0  2  0  0  0  0  0  0  0  0  0
    4.5638   -5.8723   -0.1393 C   0  0  0  0  0  0  0  0  0  0  0  0
    4.5600   -5.6508    2.5233 C   0  0  1  0  0  0  0  0  0  0  0  0
    5.4031   -4.8003    3.5481 C   0  0  0  0  0  0  0  0  0  0  0  0
    5.1456   -7.1851    2.4882 C   0  0  1  0  0  0  0  0  0  0  0  0
    6.6783   -7.2297    2.8308 C   0  0  0  0  0  0  0  0  0  0  0  0
    6.9141   -7.6230    4.2950 C   0  0  0  0  0  0  0  0  0  0  0  0
    5.7384   -8.4993    4.7359 C   0  0  2  0  0  0  0  0  0  0  0  0
    5.4031   -9.4783    3.5074 C   0  0  0  0  0  0  0  0  0  0  0  0
    4.6461   -7.5194    5.1034 O   0  0  0  0  0  0  0  0  0  0  0  0
    1.3530   -7.9668    5.8108 H   0  0  0  0  0  0  0  0  0  0  0  0
    2.3729   -6.6792    6.4429 H   0  0  0  0  0  0  0  0  0  0  0  0
    2.7912   -8.3610    6.7367 H   0  0  0  0  0  0  0  0  0  0  0  0
    3.5765   -9.6866    4.8588 H   0  0  0  0  0  0  0  0  0  0  0  0
    2.3279   -9.3635    3.8232 H   0  0  0  0  0  0  0  0  0  0  0  0
    3.7354   -8.6836    0.7584 H   0  0  0  0  0  0  0  0  0  0  0  0
    2.8602   -9.7820    1.7707 H   0  0  0  0  0  0  0  0  0  0  0  0
    2.1503   -6.9441    1.2857 H   0  0  0  0  0  0  0  0  0  0  0  0
    1.2710   -8.1450    2.1445 H   0  0  0  0  0  0  0  0  0  0  0  0
    1.4833   -6.7009    3.8652 H   0  0  0  0  0  0  0  0  0  0  0  0
    3.3684   -5.2809    4.3159 H   0  0  0  0  0  0  0  0  0  0  0  0
    2.0069   -2.6056    1.8207 H   0  0  0  0  0  0  0  0  0  0  0  0
    3.5706   -2.7217    2.6007 H   0  0  0  0  0  0  0  0  0  0  0  0
    2.5696   -4.5487    0.4310 H   0  0  0  0  0  0  0  0  0  0  0  0
    2.9063   -1.9873   -0.0436 H   0  0  0  0  0  0  0  0  0  0  0  0
    2.6185   -4.2567   -1.7741 H   0  0  0  0  0  0  0  0  0  0  0  0
    2.0058   -2.6459   -1.8944 H   0  0  0  0  0  0  0  0  0  0  0  0
    4.5815   -3.7661   -2.9591 H   0  0  0  0  0  0  0  0  0  0  0  0
    2.7632   -1.8600   -3.8941 H   0  0  0  0  0  0  0  0  0  0  0  0
    5.8228   -1.7730   -2.5930 H   0  0  0  0  0  0  0  0  0  0  0  0
    3.3705   -0.5531   -1.9371 H   0  0  0  0  0  0  0  0  0  0  0  0
    6.1481   -0.5246    0.1013 H   0  0  0  0  0  0  0  0  0  0  0  0
    5.2528   -1.3359    1.3737 H   0  0  0  0  0  0  0  0  0  0  0  0
    4.4263   -0.2679    0.2723 H   0  0  0  0  0  0  0  0  0  0  0  0
    6.0031   -4.0040   -1.2982 H   0  0  0  0  0  0  0  0  0  0  0  0
    7.9738   -3.4182   -0.5567 H   0  0  0  0  0  0  0  0  0  0  0  0
    6.7744   -4.7707    0.9301 H   0  0  0  0  0  0  0  0  0  0  0  0
    6.0694   -3.3468    1.6436 H   0  0  0  0  0  0  0  0  0  0  0  0
    5.5117   -6.3796   -0.2867 H   0  0  0  0  0  0  0  0  0  0  0  0
    4.3880   -5.3761   -1.0834 H   0  0  0  0  0  0  0  0  0  0  0  0
    3.7745   -6.6099   -0.0539 H   0  0  0  0  0  0  0  0  0  0  0  0
    6.4487   -4.6625    3.3046 H   0  0  0  0  0  0  0  0  0  0  0  0
    5.3955   -5.2343    4.5471 H   0  0  0  0  0  0  0  0  0  0  0  0
    5.0170   -3.7909    3.6633 H   0  0  0  0  0  0  0  0  0  0  0  0
    5.2923   -7.4119    1.4482 H   0  0  0  0  0  0  0  0  0  0  0  0
    7.1574   -7.9702    2.1873 H   0  0  0  0  0  0  0  0  0  0  0  0
    7.2446   -6.3474    2.5457 H   0  0  0  0  0  0  0  0  0  0  0  0
    7.8598   -8.1600    4.3767 H   0  0  0  0  0  0  0  0  0  0  0  0
    6.9902   -6.7442    4.9393 H   0  0  0  0  0  0  0  0  0  0  0  0
    6.0188   -9.0631    5.6258 H   0  0  0  0  0  0  0  0  0  0  0  0
    5.0871  -10.4826    3.7997 H   0  0  0  0  0  0  0  0  0  0  0  0
    6.2374   -9.7059    2.8472 H   0  0  0  0  0  0  0  0  0  0  0  0
  2  1  1  1
  1 34  1  0
  1 35  1  0
  1 36  1  0
  2  7  1  0
  2 33  1  0
  2  3  1  0
  3  4  1  0
  3 37  1  0
  3 38  1  0
  4 28  1  0
  4 32  1  6
  4  5  1  0
  5  6  1  0
  5 39  1  0
  5 40  1  0
  6  7  1  0
  6 41  1  0
  6 42  1  0
  7  8  1  0
  7 43  1  1
  8 26  1  0
  8  9  1  0
  8 44  1  1
  9 10  2  0
  9 11  1  0
 11 12  1  0
 11 45  1  0
 11 46  1  0
 12 24  1  0
 12 13  1  0
 12 47  1  6
 13 19  1  0
 13 14  1  0
 13 48  1  1
 14 15  1  0
 14 49  1  0
 14 50  1  0
 15 16  1  0
 15 17  1  0
 15 51  1  6
 16 52  1  0
 17 18  1  0
 17 19  1  0
 17 53  1  6
 18 54  1  0
 19 20  1  1
 19 21  1  0
 20 55  1  0
 20 56  1  0
 20 57  1  0
 21 22  1  0
 21 23  1  0
 21 58  1  6
 22 59  1  0
 23 24  1  0
 23 60  1  0
 23 61  1  0
 24 25  1  6
 24 26  1  0
 25 62  1  0
 25 63  1  0
 25 64  1  0
 26 27  1  1
 26 28  1  0
 27 65  1  0
 27 66  1  0
 27 67  1  0
 28 29  1  0
 28 68  1  6
 29 30  1  0
 29 69  1  0
 29 70  1  0
 30 31  1  0
 30 71  1  0
 30 72  1  0
 31 32  1  0
 31 33  1  0
 31 73  1  1
 32 74  1  0
 32 75  1  0
M  END
>  <i_m_ct_stereo_status>  (398) 
1

>  <s_m_source_file>  (398) 
/var/tmp/pbs.5076255.sched01/tmpt95b3wv2/135g3gtwtb2.sdf

>  <i_m_source_file_index>  (398) 
25

>  <i_lp_mmshare_version>  (398) 
48012

>  <i_f3d_flags>  (398) 
0

>  <s_epik_input>  (398) 
W0NIMl0xW0NIMl1bQ0BIXShbQ0gyXTIpT1tDQF0oW0NIM10pKFtDSDJdMylbQ0BIXShbQ0gyXVtDSDJdNClbQ0BASF0oW0NAQF01KFtDSDNdKVtDQEBIXTFbQ0BAXTIzNClDKD1PKVtDSDJdW0NASF02W0NASF03W0NAXShbQ0gzXSkoW0NASF0oW09IXSlbQ0BASF0oW0NIMl03KVtPSF0pW0NAQEhdKFtPSF0pW0NIMl1bQ0BAXTU2W0NIM10=

>  <s_epik_cmdline>  (398) 
J2VwaWtfcHl0aG9uJywgJy1waHQnLCAnMi4wJywgJy1waCcsICc3LjAnLCAnLXRuJywgJzgnLCAnLW1hJywgJzIwMCcsICctaW1hZScsICc8aW5maWxlLm1hZT4nLCAnLW9tYWUnLCAnPG91dGZpbGUubWFlPic=

>  <r_lp_tautomer_probability>  (398) 
1

>  <r_epik_Ionization_Penalty>  (398) 
1.15914e-06

>  <r_epik_Ionization_Penalty_Charging>  (398) 
0

>  <r_epik_Ionization_Penalty_Neutral>  (398) 
1.15914e-06

>  <r_epik_State_Penalty>  (398) 
-0

>  <r_epik_Charging_Adjusted_Penalty>  (398) 
0

>  <i_epik_Tot_Q>  (398) 
0

>  <i_epik_Tot_abs_Q>  (398) 
0

>  <s_lp_Force_Field>  (398) 
OPLS3e

>  <r_lp_Energy>  (398) 
257.607

>  <b_lp_Chiralities_Consistent>  (398) 
1

>  <s_lp_Variant>  (398) 
101:0-1

>  <s_i_glide_gridfile>  (398) 
pfpi4k_grid

>  <i_i_glide_lignum>  (398) 
25

>  <i_i_glide_rotatable_bonds>  (398) 
3

>  <r_i_docking_score>  (398) 
-2.76257

>  <r_i_glide_ligand_efficiency>  (398) 
-0.0837144

>  <r_i_glide_ligand_efficiency_sa>  (398) 
-0.268517

>  <r_i_glide_ligand_efficiency_ln>  (398) 
-0.614382

>  <r_i_glide_gscore>  (398) 
-2.76257

>  <r_i_glide_lipo>  (398) 
-0.38654

>  <r_i_glide_hbond>  (398) 
-0.00247365

>  <r_i_glide_metal>  (398) 
-0

>  <r_i_glide_rewards>  (398) 
-0.282068

>  <r_i_glide_evdw>  (398) 
-30.9337

>  <r_i_glide_ecoul>  (398) 
-3.60011

>  <r_i_glide_erotb>  (398) 
0

>  <r_i_glide_esite>  (398) 
-0.00479219

>  <r_i_glide_emodel>  (398) 
-40.9258

>  <r_i_glide_energy>  (398) 
-34.5338

>  <r_i_glide_einternal>  (398) 
0.478465

>  <r_i_glide_intrahb_reward>  (398) 
-0

>  <i_i_glide_confnum>  (398) 
1

>  <i_i_glide_posenum>  (398) 
9

>  <r_i_glide_eff_state_penalty>  (398) 
0

>  <ligand_id>  (398) 
101

>  <original_smiles>  (398) 
CC12CC34CCC1C1C(=O)CC5C6CC(O)C(O)C6(C)C(O)CC5(C)C1(C)C3CCC(C4)O2

>  <smiles>  (398) 
[H]OC1([H])C([H])([H])C2([H])C3([H])C([H])([H])C(=O)C4([H])C5([H])C([H])([H])C([H])([H])C67C([H])([H])C([H])(OC5(C([H])([H])[H])C6([H])[H])C([H])([H])C([H])([H])C7([H])C4(C([H])([H])[H])C3(C([H])([H])[H])C([H])([H])C([H])(O[H])C2(C([H])([H])[H])C1([H])O[H]

$$$$
102:0:0
     RDKit          3D

 47 51  0  0  1  0  0  0  0  0999 V2000
    5.1642   -6.4359    0.7100 C   0  0  0  0  0  0  0  0  0  0  0  0
    4.0775   -5.9256    1.6007 C   0  0  0  0  0  0  0  0  0  0  0  0
    3.6874   -6.4998    2.6646 N   0  0  0  0  0  0  0  0  0  0  0  0
    2.6490   -5.8498    3.1817 N   0  0  0  0  0  0  0  0  0  0  0  0
    1.7208   -6.6083    3.8799 C   0  0  0  0  0  0  0  0  0  0  0  0
    1.8488   -6.9616    5.2460 C   0  0  0  0  0  0  0  0  0  0  0  0
    0.9276   -7.6916    5.9071 N   0  0  0  0  0  0  0  0  0  0  0  0
   -0.1621   -8.1200    5.2289 C   0  0  0  0  0  0  0  0  0  0  0  0
   -0.3895   -7.8010    3.8730 C   0  0  0  0  0  0  0  0  0  0  0  0
   -1.8132   -8.2975    3.0337 Cl  0  0  0  0  0  0  0  0  0  0  0  0
    0.5656   -7.0350    3.1982 C   0  0  0  0  0  0  0  0  0  0  0  0
    2.2479   -4.7371    2.3885 N   0  0  0  0  0  0  0  0  0  0  0  0
    1.9467   -3.5481    3.2048 C   0  0  0  0  0  0  0  0  0  0  0  0
    2.8153   -3.0510    4.3741 C   0  0  0  0  0  0  0  0  0  0  0  0
    1.5410   -2.5640    5.0637 C   0  0  0  0  0  0  0  0  0  0  0  0
    0.7215   -3.4570    4.1353 C   0  0  0  0  0  0  0  0  0  0  0  0
    3.3062   -4.6909    1.3882 C   0  0  2  0  0  0  0  0  0  0  0  0
    2.5697   -4.6650    0.0406 C   0  0  0  0  0  0  0  0  0  0  0  0
    1.6637   -5.4539   -0.2398 O   0  0  0  0  0  0  0  0  0  0  0  0
    2.9847   -3.6329   -0.7319 N   0  0  0  0  0  0  0  0  0  0  0  0
    2.4846   -3.2778   -2.0599 C   0  0  0  0  0  0  0  0  0  0  0  0
    3.9455   -2.8791   -0.0381 C   0  0  0  0  0  0  0  0  0  0  0  0
    4.6425   -1.7262   -0.4549 C   0  0  0  0  0  0  0  0  0  0  0  0
    5.5987   -1.1883    0.4337 C   0  0  0  0  0  0  0  0  0  0  0  0
    5.8309   -1.7865    1.6973 C   0  0  0  0  0  0  0  0  0  0  0  0
    5.1249   -2.9430    2.0920 C   0  0  0  0  0  0  0  0  0  0  0  0
    4.1535   -3.4483    1.2177 C   0  0  0  0  0  0  0  0  0  0  0  0
    5.1095   -5.9519   -0.2685 H   0  0  0  0  0  0  0  0  0  0  0  0
    5.0556   -7.5157    0.5476 H   0  0  0  0  0  0  0  0  0  0  0  0
    6.1511   -6.2230    1.1346 H   0  0  0  0  0  0  0  0  0  0  0  0
    2.6974   -6.6487    5.8351 H   0  0  0  0  0  0  0  0  0  0  0  0
   -0.8711   -8.7200    5.7699 H   0  0  0  0  0  0  0  0  0  0  0  0
    0.4209   -6.7691    2.1598 H   0  0  0  0  0  0  0  0  0  0  0  0
    1.8268   -2.7314    2.4822 H   0  0  0  0  0  0  0  0  0  0  0  0
    3.3319   -3.8450    4.9260 H   0  0  0  0  0  0  0  0  0  0  0  0
    3.4853   -2.2245    4.1320 H   0  0  0  0  0  0  0  0  0  0  0  0
    1.4728   -2.8551    6.1050 H   0  0  0  0  0  0  0  0  0  0  0  0
    1.3392   -1.5013    4.9178 H   0  0  0  0  0  0  0  0  0  0  0  0
   -0.1420   -2.9727    3.6701 H   0  0  0  0  0  0  0  0  0  0  0  0
    0.4421   -4.4020    4.6064 H   0  0  0  0  0  0  0  0  0  0  0  0
    2.1454   -2.2471   -2.0835 H   0  0  0  0  0  0  0  0  0  0  0  0
    1.6533   -3.9047   -2.3634 H   0  0  0  0  0  0  0  0  0  0  0  0
    3.2838   -3.3862   -2.7855 H   0  0  0  0  0  0  0  0  0  0  0  0
    4.4597   -1.2970   -1.4337 H   0  0  0  0  0  0  0  0  0  0  0  0
    6.1659   -0.3206    0.1580 H   0  0  0  0  0  0  0  0  0  0  0  0
    6.5620   -1.3582    2.3641 H   0  0  0  0  0  0  0  0  0  0  0  0
    5.3104   -3.4249    3.0500 H   0  0  0  0  0  0  0  0  0  0  0  0
  1  2  1  0
  1 28  1  0
  1 29  1  0
  1 30  1  0
  2 17  1  0
  2  3  2  0
  3  4  1  0
  4  5  1  0
  4 12  1  0
  5 11  1  0
  5  6  2  0
  6  7  1  0
  6 31  1  0
  7  8  2  0
  8  9  1  0
  8 32  1  0
  9 10  1  0
  9 11  2  0
 11 33  1  0
 12 13  1  0
 17 12  1  1
 13 16  1  0
 13 14  1  0
 13 34  1  0
 14 15  1  0
 14 35  1  0
 14 36  1  0
 15 16  1  0
 15 37  1  0
 15 38  1  0
 16 39  1  0
 16 40  1  0
 17 27  1  0
 17 18  1  0
 18 19  2  0
 18 20  1  0
 20 21  1  0
 20 22  1  0
 21 41  1  0
 21 42  1  0
 21 43  1  0
 22 27  2  0
 22 23  1  0
 23 24  2  0
 23 44  1  0
 24 25  1  0
 24 45  1  0
 25 26  2  0
 25 46  1  0
 26 27  1  0
 26 47  1  0
M  END
>  <i_m_ct_stereo_status>  (399) 
1

>  <s_m_source_file>  (399) 
/var/tmp/pbs.5076255.sched01/tmpt95b3wv2/135g3gtwtb2.sdf

>  <i_m_source_file_index>  (399) 
26

>  <i_lp_mmshare_version>  (399) 
48012

>  <i_f3d_flags>  (399) 
0

>  <s_epik_input>  (399) 
W2NIXTFbY0hdW2NIXVtjSF1jKE4oQzI9TylbQ0gzXSljMVtDQF0yM0MoW0NIM10pPU5OKE4zW0NIXTRbQ0gyXVtDSDJdW0NIMl00KWM1W2NIXW5bY0hdYyhDbClbY0hdNQ==

>  <s_epik_cmdline>  (399) 
J2VwaWtfcHl0aG9uJywgJy1waHQnLCAnMi4wJywgJy1waCcsICc3LjAnLCAnLXRuJywgJzgnLCAnLW1hJywgJzIwMCcsICctaW1hZScsICc8aW5maWxlLm1hZT4nLCAnLW9tYWUnLCAnPG91dGZpbGUubWFlPic=

>  <r_lp_tautomer_probability>  (399) 
1

>  <r_epik_Ionization_Penalty>  (399) 
0.000101848

>  <r_epik_Ionization_Penalty_Charging>  (399) 
0

>  <r_epik_Ionization_Penalty_Neutral>  (399) 
0.000101848

>  <r_epik_State_Penalty>  (399) 
-0

>  <r_epik_Charging_Adjusted_Penalty>  (399) 
0

>  <i_epik_Tot_Q>  (399) 
0

>  <i_epik_Tot_abs_Q>  (399) 
0

>  <s_epik_Chemistry_Notes>  (399) 
This compound has an imine and may undergo hydrolysis.

>  <s_lp_Force_Field>  (399) 
OPLS3e

>  <r_lp_Energy>  (399) 
54.3281

>  <b_lp_Chiralities_Consistent>  (399) 
1

>  <s_lp_Variant>  (399) 
102:0-1

>  <s_i_glide_gridfile>  (399) 
pfpi4k_grid

>  <i_i_glide_lignum>  (399) 
26

>  <i_i_glide_rotatable_bonds>  (399) 
2

>  <r_i_docking_score>  (399) 
-3.179

>  <r_i_glide_ligand_efficiency>  (399) 
-0.117741

>  <r_i_glide_ligand_efficiency_sa>  (399) 
-0.353222

>  <r_i_glide_ligand_efficiency_ln>  (399) 
-0.740018

>  <r_i_glide_gscore>  (399) 
-3.179

>  <r_i_glide_lipo>  (399) 
-0.56966

>  <r_i_glide_hbond>  (399) 
-0.0917621

>  <r_i_glide_metal>  (399) 
-0

>  <r_i_glide_rewards>  (399) 
-0.856536

>  <r_i_glide_evdw>  (399) 
-27.4165

>  <r_i_glide_ecoul>  (399) 
-3.33865

>  <r_i_glide_erotb>  (399) 
0.266302

>  <r_i_glide_esite>  (399) 
-0.0557199

>  <r_i_glide_emodel>  (399) 
-33.9308

>  <r_i_glide_energy>  (399) 
-30.7551

>  <r_i_glide_einternal>  (399) 
4.10128

>  <r_i_glide_intrahb_reward>  (399) 
-0

>  <i_i_glide_confnum>  (399) 
3

>  <i_i_glide_posenum>  (399) 
17

>  <r_i_glide_eff_state_penalty>  (399) 
0

>  <ligand_id>  (399) 
102

>  <original_smiles>  (399) 
CC1=NN(c2cncc(Cl)c2)N(C2CCC2)C12C(=O)N(C)c1ccccc12

>  <smiles>  (399) 
[H]c1nc([H])c(N2N=C(C([H])([H])[H])C3(C(=O)N(C([H])([H])[H])c4c([H])c([H])c([H])c([H])c43)N2C2([H])C([H])([H])C([H])([H])C2([H])[H])c([H])c1Cl

$$$$
102:0:1
     RDKit          3D

 47 51  0  0  1  0  0  0  0  0999 V2000
    5.3866   -6.1016    0.7009 C   0  0  0  0  0  0  0  0  0  0  0  0
    4.2792   -5.6009    1.5947 C   0  0  0  0  0  0  0  0  0  0  0  0
    3.9282   -6.1482    2.7031 N   0  0  0  0  0  0  0  0  0  0  0  0
    2.8138   -5.5560    3.1746 N   0  0  0  0  0  0  0  0  0  0  0  0
    1.9158   -6.3828    3.8985 C   0  0  0  0  0  0  0  0  0  0  0  0
    0.5399   -6.0964    3.9770 C   0  0  0  0  0  0  0  0  0  0  0  0
   -0.3563   -6.8214    4.6528 N   0  0  0  0  0  0  0  0  0  0  0  0
    0.0733   -7.9335    5.2618 C   0  0  0  0  0  0  0  0  0  0  0  0
    1.4121   -8.3567    5.2006 C   0  0  0  0  0  0  0  0  0  0  0  0
    1.8622   -9.8823    5.8536 Cl  0  0  0  0  0  0  0  0  0  0  0  0
    2.3664   -7.5446    4.5505 C   0  0  0  0  0  0  0  0  0  0  0  0
    2.3689   -4.4344    2.3524 N   0  0  0  0  0  0  0  0  0  0  0  0
    2.0897   -3.2239    3.1426 C   0  0  0  0  0  0  0  0  0  0  0  0
    2.9896   -2.7154    4.2810 C   0  0  0  0  0  0  0  0  0  0  0  0
    1.7216   -2.2105    4.9964 C   0  0  0  0  0  0  0  0  0  0  0  0
    0.9266   -3.1407    4.1276 C   0  0  0  0  0  0  0  0  0  0  0  0
    3.4421   -4.4007    1.3488 C   0  0  2  0  0  0  0  0  0  0  0  0
    2.7057   -4.4111    0.0028 C   0  0  0  0  0  0  0  0  0  0  0  0
    1.8171   -5.2373   -0.2583 O   0  0  0  0  0  0  0  0  0  0  0  0
    3.1094   -3.3783   -0.7499 N   0  0  0  0  0  0  0  0  0  0  0  0
    2.6105   -3.0734   -2.0776 C   0  0  0  0  0  0  0  0  0  0  0  0
    4.0590   -2.6017   -0.0619 C   0  0  0  0  0  0  0  0  0  0  0  0
    4.7437   -1.4611   -0.5043 C   0  0  0  0  0  0  0  0  0  0  0  0
    5.6834   -0.8803    0.3786 C   0  0  0  0  0  0  0  0  0  0  0  0
    5.9310   -1.4409    1.6549 C   0  0  0  0  0  0  0  0  0  0  0  0
    5.2472   -2.6002    2.0717 C   0  0  0  0  0  0  0  0  0  0  0  0
    4.3028   -3.1606    1.1851 C   0  0  0  0  0  0  0  0  0  0  0  0
    5.3231   -5.6237   -0.2721 H   0  0  0  0  0  0  0  0  0  0  0  0
    5.3091   -7.1775    0.5533 H   0  0  0  0  0  0  0  0  0  0  0  0
    6.3509   -5.8651    1.1369 H   0  0  0  0  0  0  0  0  0  0  0  0
    0.0999   -5.2854    3.4045 H   0  0  0  0  0  0  0  0  0  0  0  0
   -0.7039   -8.5191    5.7534 H   0  0  0  0  0  0  0  0  0  0  0  0
    3.3937   -7.8908    4.4879 H   0  0  0  0  0  0  0  0  0  0  0  0
    1.9615   -2.4205    2.3785 H   0  0  0  0  0  0  0  0  0  0  0  0
    3.4744   -3.5572    4.7842 H   0  0  0  0  0  0  0  0  0  0  0  0
    3.6778   -1.9010    4.0343 H   0  0  0  0  0  0  0  0  0  0  0  0
    1.6588   -2.5336    6.0501 H   0  0  0  0  0  0  0  0  0  0  0  0
    1.4486   -1.1356    4.8432 H   0  0  0  0  0  0  0  0  0  0  0  0
   -0.0254   -2.7880    3.7167 H   0  0  0  0  0  0  0  0  0  0  0  0
    0.8010   -3.9619    4.7854 H   0  0  0  0  0  0  0  0  0  0  0  0
    2.2298   -2.0592   -2.1220 H   0  0  0  0  0  0  0  0  0  0  0  0
    1.8073   -3.7556   -2.3864 H   0  0  0  0  0  0  0  0  0  0  0  0
    3.4193   -3.1690   -2.8036 H   0  0  0  0  0  0  0  0  0  0  0  0
    4.5616   -1.0351   -1.4757 H   0  0  0  0  0  0  0  0  0  0  0  0
    6.2215    0.0120    0.0854 H   0  0  0  0  0  0  0  0  0  0  0  0
    6.6498   -0.9748    2.3097 H   0  0  0  0  0  0  0  0  0  0  0  0
    5.4418   -3.0323    3.0378 H   0  0  0  0  0  0  0  0  0  0  0  0
  1  2  1  0
  1 28  1  0
  1 29  1  0
  1 30  1  0
  2 17  1  0
  2  3  2  0
  3  4  1  0
  4  5  1  0
  4 12  1  0
  5 11  1  0
  5  6  2  0
  6  7  1  0
  6 31  1  0
  7  8  2  0
  8  9  1  0
  8 32  1  0
  9 10  1  0
  9 11  2  0
 11 33  1  0
 12 13  1  0
 17 12  1  1
 13 16  1  0
 13 14  1  0
 13 34  1  0
 14 15  1  0
 14 35  1  0
 14 36  1  0
 15 16  1  0
 15 37  1  0
 15 38  1  0
 16 39  1  0
 16 40  1  0
 17 27  1  0
 17 18  1  0
 18 19  2  0
 18 20  1  0
 20 21  1  0
 20 22  1  0
 21 41  1  0
 21 42  1  0
 21 43  1  0
 22 27  2  0
 22 23  1  0
 23 24  2  0
 23 44  1  0
 24 25  1  0
 24 45  1  0
 25 26  2  0
 25 46  1  0
 26 27  1  0
 26 47  1  0
M  END
>  <i_m_ct_stereo_status>  (400) 
1

>  <s_m_source_file>  (400) 
/var/tmp/pbs.5076255.sched01/tmpt95b3wv2/135g3gtwtb2.sdf

>  <i_m_source_file_index>  (400) 
26

>  <i_lp_mmshare_version>  (400) 
48012

>  <i_f3d_flags>  (400) 
0

>  <s_epik_input>  (400) 
W2NIXTFbY0hdW2NIXVtjSF1jKE4oQzI9TylbQ0gzXSljMVtDQF0yM0MoW0NIM10pPU5OKE4zW0NIXTRbQ0gyXVtDSDJdW0NIMl00KWM1W2NIXW5bY0hdYyhDbClbY0hdNQ==

>  <s_epik_cmdline>  (400) 
J2VwaWtfcHl0aG9uJywgJy1waHQnLCAnMi4wJywgJy1waCcsICc3LjAnLCAnLXRuJywgJzgnLCAnLW1hJywgJzIwMCcsICctaW1hZScsICc8aW5maWxlLm1hZT4nLCAnLW9tYWUnLCAnPG91dGZpbGUubWFlPic=

>  <r_lp_tautomer_probability>  (400) 
1

>  <r_epik_Ionization_Penalty>  (400) 
0.000101848

>  <r_epik_Ionization_Penalty_Charging>  (400) 
0

>  <r_epik_Ionization_Penalty_Neutral>  (400) 
0.000101848

>  <r_epik_State_Penalty>  (400) 
-0

>  <r_epik_Charging_Adjusted_Penalty>  (400) 
0

>  <i_epik_Tot_Q>  (400) 
0

>  <i_epik_Tot_abs_Q>  (400) 
0

>  <s_epik_Chemistry_Notes>  (400) 
This compound has an imine and may undergo hydrolysis.

>  <s_lp_Force_Field>  (400) 
OPLS3e

>  <r_lp_Energy>  (400) 
54.3281

>  <b_lp_Chiralities_Consistent>  (400) 
1

>  <s_lp_Variant>  (400) 
102:0-1

>  <s_i_glide_gridfile>  (400) 
pfpi4k_grid

>  <i_i_glide_lignum>  (400) 
26

>  <i_i_glide_rotatable_bonds>  (400) 
2

>  <r_i_docking_score>  (400) 
-2.93979

>  <r_i_glide_ligand_efficiency>  (400) 
-0.108881

>  <r_i_glide_ligand_efficiency_sa>  (400) 
-0.326644

>  <r_i_glide_ligand_efficiency_ln>  (400) 
-0.684335

>  <r_i_glide_gscore>  (400) 
-2.93979

>  <r_i_glide_lipo>  (400) 
-0.520065

>  <r_i_glide_hbond>  (400) 
-0.0480898

>  <r_i_glide_metal>  (400) 
-0

>  <r_i_glide_rewards>  (400) 
-0.958418

>  <r_i_glide_evdw>  (400) 
-24.4552

>  <r_i_glide_ecoul>  (400) 
-2.75058

>  <r_i_glide_erotb>  (400) 
0.266302

>  <r_i_glide_esite>  (400) 
-0.0441742

>  <r_i_glide_emodel>  (400) 
-29.2231

>  <r_i_glide_energy>  (400) 
-27.2058

>  <r_i_glide_einternal>  (400) 
3.36624

>  <r_i_glide_intrahb_reward>  (400) 
-0

>  <i_i_glide_confnum>  (400) 
3

>  <i_i_glide_posenum>  (400) 
26

>  <r_i_glide_eff_state_penalty>  (400) 
0

>  <ligand_id>  (400) 
102

>  <original_smiles>  (400) 
CC1=NN(c2cncc(Cl)c2)N(C2CCC2)C12C(=O)N(C)c1ccccc12

>  <smiles>  (400) 
[H]c1nc([H])c(N2N=C(C([H])([H])[H])C3(C(=O)N(C([H])([H])[H])c4c([H])c([H])c([H])c([H])c43)N2C2([H])C([H])([H])C([H])([H])C2([H])[H])c([H])c1Cl

$$$$
102:0:2
     RDKit          3D

 47 51  0  0  1  0  0  0  0  0999 V2000
    5.3926   -0.3212    3.1934 C   0  0  0  0  0  0  0  0  0  0  0  0
    4.8076   -1.3847    2.3299 C   0  0  0  0  0  0  0  0  0  0  0  0
    5.3545   -1.8146    1.2376 N   0  0  0  0  0  0  0  0  0  0  0  0
    4.5455   -2.6848    0.6439 N   0  0  0  0  0  0  0  0  0  0  0  0
    4.5854   -2.6858   -0.7566 C   0  0  0  0  0  0  0  0  0  0  0  0
    5.0871   -3.7688   -1.5132 C   0  0  0  0  0  0  0  0  0  0  0  0
    5.0662   -3.7940   -2.8668 N   0  0  0  0  0  0  0  0  0  0  0  0
    4.5164   -2.7489   -3.5052 C   0  0  0  0  0  0  0  0  0  0  0  0
    4.0335   -1.6024   -2.8599 C   0  0  0  0  0  0  0  0  0  0  0  0
    3.4252   -0.2698   -3.7669 Cl  0  0  0  0  0  0  0  0  0  0  0  0
    4.0511   -1.5807   -1.4461 C   0  0  0  0  0  0  0  0  0  0  0  0
    3.3148   -2.8740    1.3395 N   0  0  0  0  0  0  0  0  0  0  0  0
    2.9396   -4.3026    1.4295 C   0  0  0  0  0  0  0  0  0  0  0  0
    3.9163   -5.4367    1.8122 C   0  0  0  0  0  0  0  0  0  0  0  0
    3.1349   -6.3672    0.8792 C   0  0  0  0  0  0  0  0  0  0  0  0
    2.4787   -5.1495    0.2214 C   0  0  0  0  0  0  0  0  0  0  0  0
    3.5504   -2.1084    2.5646 C   0  0  2  0  0  0  0  0  0  0  0  0
    2.3325   -1.1691    2.7336 C   0  0  0  0  0  0  0  0  0  0  0  0
    1.9615   -0.3809    1.8661 O   0  0  0  0  0  0  0  0  0  0  0  0
    1.7536   -1.3284    3.9409 N   0  0  0  0  0  0  0  0  0  0  0  0
    0.5648   -0.6346    4.4238 C   0  0  0  0  0  0  0  0  0  0  0  0
    2.4553   -2.2952    4.6888 C   0  0  0  0  0  0  0  0  0  0  0  0
    2.2271   -2.7223    6.0093 C   0  0  0  0  0  0  0  0  0  0  0  0
    3.1201   -3.6722    6.5493 C   0  0  0  0  0  0  0  0  0  0  0  0
    4.2079   -4.1652    5.7801 C   0  0  0  0  0  0  0  0  0  0  0  0
    4.4299   -3.7040    4.4656 C   0  0  0  0  0  0  0  0  0  0  0  0
    3.5070   -2.7930    3.9248 C   0  0  0  0  0  0  0  0  0  0  0  0
    4.6410    0.0578    3.8889 H   0  0  0  0  0  0  0  0  0  0  0  0
    5.7529    0.5175    2.6001 H   0  0  0  0  0  0  0  0  0  0  0  0
    6.2116   -0.7074    3.7899 H   0  0  0  0  0  0  0  0  0  0  0  0
    5.4863   -4.6642   -1.0551 H   0  0  0  0  0  0  0  0  0  0  0  0
    4.4875   -2.8124   -4.5819 H   0  0  0  0  0  0  0  0  0  0  0  0
    3.6538   -0.7521   -0.8834 H   0  0  0  0  0  0  0  0  0  0  0  0
    2.1091   -4.3162    2.1404 H   0  0  0  0  0  0  0  0  0  0  0  0
    4.9587   -5.2728    1.5073 H   0  0  0  0  0  0  0  0  0  0  0  0
    3.8547   -5.7789    2.8501 H   0  0  0  0  0  0  0  0  0  0  0  0
    3.7835   -6.9248    0.2094 H   0  0  0  0  0  0  0  0  0  0  0  0
    2.4242   -7.0141    1.3978 H   0  0  0  0  0  0  0  0  0  0  0  0
    1.3945   -5.2120    0.1076 H   0  0  0  0  0  0  0  0  0  0  0  0
    2.9463   -4.8851   -0.7249 H   0  0  0  0  0  0  0  0  0  0  0  0
   -0.1963   -1.3428    4.7529 H   0  0  0  0  0  0  0  0  0  0  0  0
    0.1176   -0.0069    3.6557 H   0  0  0  0  0  0  0  0  0  0  0  0
    0.8381    0.0081    5.2570 H   0  0  0  0  0  0  0  0  0  0  0  0
    1.4100   -2.3062    6.5905 H   0  0  0  0  0  0  0  0  0  0  0  0
    2.9841   -4.0195    7.5541 H   0  0  0  0  0  0  0  0  0  0  0  0
    4.8689   -4.8978    6.2042 H   0  0  0  0  0  0  0  0  0  0  0  0
    5.2730   -4.0547    3.8789 H   0  0  0  0  0  0  0  0  0  0  0  0
  1  2  1  0
  1 28  1  0
  1 29  1  0
  1 30  1  0
  2 17  1  0
  2  3  2  0
  3  4  1  0
  4  5  1  0
  4 12  1  0
  5 11  1  0
  5  6  2  0
  6  7  1  0
  6 31  1  0
  7  8  2  0
  8  9  1  0
  8 32  1  0
  9 10  1  0
  9 11  2  0
 11 33  1  0
 12 13  1  0
 17 12  1  6
 13 16  1  0
 13 14  1  0
 13 34  1  0
 14 15  1  0
 14 35  1  0
 14 36  1  0
 15 16  1  0
 15 37  1  0
 15 38  1  0
 16 39  1  0
 16 40  1  0
 17 27  1  0
 17 18  1  0
 18 19  2  0
 18 20  1  0
 20 21  1  0
 20 22  1  0
 21 41  1  0
 21 42  1  0
 21 43  1  0
 22 27  2  0
 22 23  1  0
 23 24  2  0
 23 44  1  0
 24 25  1  0
 24 45  1  0
 25 26  2  0
 25 46  1  0
 26 27  1  0
 26 47  1  0
M  END
>  <i_m_ct_stereo_status>  (401) 
1

>  <s_m_source_file>  (401) 
/var/tmp/pbs.5076255.sched01/tmpt95b3wv2/135g3gtwtb2.sdf

>  <i_m_source_file_index>  (401) 
26

>  <i_lp_mmshare_version>  (401) 
48012

>  <i_f3d_flags>  (401) 
0

>  <s_epik_input>  (401) 
W2NIXTFbY0hdW2NIXVtjSF1jKE4oQzI9TylbQ0gzXSljMVtDQF0yM0MoW0NIM10pPU5OKE4zW0NIXTRbQ0gyXVtDSDJdW0NIMl00KWM1W2NIXW5bY0hdYyhDbClbY0hdNQ==

>  <s_epik_cmdline>  (401) 
J2VwaWtfcHl0aG9uJywgJy1waHQnLCAnMi4wJywgJy1waCcsICc3LjAnLCAnLXRuJywgJzgnLCAnLW1hJywgJzIwMCcsICctaW1hZScsICc8aW5maWxlLm1hZT4nLCAnLW9tYWUnLCAnPG91dGZpbGUubWFlPic=

>  <r_lp_tautomer_probability>  (401) 
1

>  <r_epik_Ionization_Penalty>  (401) 
0.000101848

>  <r_epik_Ionization_Penalty_Charging>  (401) 
0

>  <r_epik_Ionization_Penalty_Neutral>  (401) 
0.000101848

>  <r_epik_State_Penalty>  (401) 
-0

>  <r_epik_Charging_Adjusted_Penalty>  (401) 
0

>  <i_epik_Tot_Q>  (401) 
0

>  <i_epik_Tot_abs_Q>  (401) 
0

>  <s_epik_Chemistry_Notes>  (401) 
This compound has an imine and may undergo hydrolysis.

>  <s_lp_Force_Field>  (401) 
OPLS3e

>  <r_lp_Energy>  (401) 
54.3281

>  <b_lp_Chiralities_Consistent>  (401) 
1

>  <s_lp_Variant>  (401) 
102:0-1

>  <s_i_glide_gridfile>  (401) 
pfpi4k_grid

>  <i_i_glide_lignum>  (401) 
26

>  <i_i_glide_rotatable_bonds>  (401) 
2

>  <r_i_docking_score>  (401) 
-2.2452

>  <r_i_glide_ligand_efficiency>  (401) 
-0.0831557

>  <r_i_glide_ligand_efficiency_sa>  (401) 
-0.249467

>  <r_i_glide_ligand_efficiency_ln>  (401) 
-0.522646

>  <r_i_glide_gscore>  (401) 
-2.2452

>  <r_i_glide_lipo>  (401) 
-0.541859

>  <r_i_glide_hbond>  (401) 
0

>  <r_i_glide_metal>  (401) 
-0

>  <r_i_glide_rewards>  (401) 
-0.911509

>  <r_i_glide_evdw>  (401) 
-29.4153

>  <r_i_glide_ecoul>  (401) 
2.84609

>  <r_i_glide_erotb>  (401) 
0.266302

>  <r_i_glide_esite>  (401) 
-0.0142869

>  <r_i_glide_emodel>  (401) 
-27.8093

>  <r_i_glide_energy>  (401) 
-26.5692

>  <r_i_glide_einternal>  (401) 
4.36904

>  <r_i_glide_intrahb_reward>  (401) 
-0

>  <i_i_glide_confnum>  (401) 
6

>  <i_i_glide_posenum>  (401) 
13

>  <r_i_glide_eff_state_penalty>  (401) 
0

>  <ligand_id>  (401) 
102

>  <original_smiles>  (401) 
CC1=NN(c2cncc(Cl)c2)N(C2CCC2)C12C(=O)N(C)c1ccccc12

>  <smiles>  (401) 
[H]c1nc([H])c(N2N=C(C([H])([H])[H])C3(C(=O)N(C([H])([H])[H])c4c([H])c([H])c([H])c([H])c43)N2C2([H])C([H])([H])C([H])([H])C2([H])[H])c([H])c1Cl

$$$$
103:0:0
     RDKit          3D

 80 87  0  0  1  0  0  0  0  0999 V2000
    1.6976   -6.2386    5.1730 C   0  0  0  0  0  0  0  0  0  0  0  0
    1.7346   -4.6957    5.2605 C   0  0  2  0  0  0  0  0  0  0  0  0
    0.6419   -4.1113    4.2629 C   0  0  0  0  0  0  0  0  0  0  0  0
    0.1676   -2.5964    4.2742 C   0  0  1  0  0  0  0  0  0  0  0  0
   -0.0777   -2.3955    5.6734 O   0  0  0  0  0  0  0  0  0  0  0  0
    0.9559   -2.0651    6.4966 C   0  0  0  0  0  0  0  0  0  0  0  0
    0.8656   -2.0543    7.7250 O   0  0  0  0  0  0  0  0  0  0  0  0
    2.2320   -1.6204    5.7442 C   0  0  2  0  0  0  0  0  0  0  0  0
    2.4431   -0.0987    5.9434 C   0  0  0  0  0  0  0  0  0  0  0  0
    1.3890    0.7810    5.1724 C   0  0  0  0  0  0  0  0  0  0  0  0
    0.4077    0.0305    4.2054 C   0  0  1  0  0  0  0  0  0  0  0  0
   -0.1549    0.8894    3.0498 C   0  0  1  0  0  0  0  0  0  0  0  0
   -0.9854    2.0970    3.5253 C   0  0  0  0  0  0  0  0  0  0  0  0
    0.8887    1.2248    1.9578 C   0  0  1  0  0  0  0  0  0  0  0  0
    1.4145    2.5438    2.0837 O   0  0  0  0  0  0  0  0  0  0  0  0
    2.0813    0.2505    1.9416 C   0  0  0  0  0  0  0  0  0  0  0  0
    1.7588   -1.2308    2.2527 C   0  0  2  0  0  0  0  0  0  0  0  0
    0.9652   -1.3384    3.6852 C   0  0  2  0  0  0  0  0  0  0  0  0
    2.0650   -1.5857    4.3943 O   0  0  0  0  0  0  0  0  0  0  0  0
    3.1280   -2.0832    2.1239 C   0  0  2  0  0  0  0  0  0  0  0  0
    2.4650   -3.2494    2.3218 O   0  0  0  0  0  0  0  0  0  0  0  0
    4.2700   -1.7574    3.1720 C   0  0  0  0  0  0  0  0  0  0  0  0
    4.4553   -2.0201    4.5036 C   0  0  0  0  0  0  0  0  0  0  0  0
    3.4713   -2.6211    5.5380 C   0  0  1  0  0  0  0  0  0  0  0  0
    4.1258   -2.6132    6.7940 O   0  0  0  0  0  0  0  0  0  0  0  0
    3.2207   -4.1730    5.2026 C   0  0  2  0  0  0  0  0  0  0  0  0
    3.6673   -4.6837    3.9313 O   0  0  0  0  0  0  0  0  0  0  0  0
    4.9673   -4.9291    3.4274 C   0  0  1  0  0  0  0  0  0  0  0  0
    5.5321   -6.1069    3.9586 O   0  0  0  0  0  0  0  0  0  0  0  0
    4.7483   -5.0279    1.8545 C   0  0  2  0  0  0  0  0  0  0  0  0
    3.4729   -5.9426    1.6658 C   0  0  0  0  0  0  0  0  0  0  0  0
    5.7248   -5.8329    0.9928 C   0  0  0  0  0  0  0  0  0  0  0  0
    5.2338   -5.4519   -0.3211 O   0  0  0  0  0  0  0  0  0  0  0  0
    4.9175   -4.0437   -0.3816 C   0  0  1  0  0  0  0  0  0  0  0  0
    3.4705   -3.4269   -0.4083 C   0  0  1  0  0  0  0  0  0  0  0  0
    2.3294   -4.2613   -0.3561 O   0  0  0  0  0  0  0  0  0  0  0  0
    3.9011   -2.5009    0.7916 C   0  0  1  0  0  0  0  0  0  0  0  0
    4.4888   -1.1933    0.1772 C   0  0  0  0  0  0  0  0  0  0  0  0
    4.9501   -3.6579    1.0732 C   0  0  1  0  0  0  0  0  0  0  0  0
    6.2132   -3.1303    1.4429 O   0  0  0  0  0  0  0  0  0  0  0  0
    1.9602   -6.5990    4.1779 H   0  0  0  0  0  0  0  0  0  0  0  0
    0.7013   -6.6255    5.4035 H   0  0  0  0  0  0  0  0  0  0  0  0
    2.3851   -6.6958    5.8861 H   0  0  0  0  0  0  0  0  0  0  0  0
    1.3908   -4.5447    6.2807 H   0  0  0  0  0  0  0  0  0  0  0  0
    0.7660   -4.4967    3.2558 H   0  0  0  0  0  0  0  0  0  0  0  0
   -0.2568   -4.6450    4.5648 H   0  0  0  0  0  0  0  0  0  0  0  0
   -0.8090   -2.5617    3.7991 H   0  0  0  0  0  0  0  0  0  0  0  0
    2.4375    0.1541    7.0099 H   0  0  0  0  0  0  0  0  0  0  0  0
    3.4327    0.1817    5.5910 H   0  0  0  0  0  0  0  0  0  0  0  0
    0.7926    1.3228    5.9082 H   0  0  0  0  0  0  0  0  0  0  0  0
    1.9213    1.5563    4.6198 H   0  0  0  0  0  0  0  0  0  0  0  0
   -0.4726   -0.1849    4.8114 H   0  0  0  0  0  0  0  0  0  0  0  0
   -0.8755    0.2408    2.5507 H   0  0  0  0  0  0  0  0  0  0  0  0
   -0.3763    2.8136    4.0803 H   0  0  0  0  0  0  0  0  0  0  0  0
   -1.8018    1.7775    4.1756 H   0  0  0  0  0  0  0  0  0  0  0  0
   -1.4289    2.6220    2.6778 H   0  0  0  0  0  0  0  0  0  0  0  0
    0.3903    1.1739    0.9896 H   0  0  0  0  0  0  0  0  0  0  0  0
    0.8552    3.1717    1.6163 H   0  0  0  0  0  0  0  0  0  0  0  0
    2.5316    0.3388    0.9574 H   0  0  0  0  0  0  0  0  0  0  0  0
    2.8324    0.5926    2.6544 H   0  0  0  0  0  0  0  0  0  0  0  0
    1.0641   -1.5612    1.4791 H   0  0  0  0  0  0  0  0  0  0  0  0
    3.0987   -3.9416    2.4694 H   0  0  0  0  0  0  0  0  0  0  0  0
    5.1233   -1.2446    2.7530 H   0  0  0  0  0  0  0  0  0  0  0  0
    5.3810   -1.6623    4.9293 H   0  0  0  0  0  0  0  0  0  0  0  0
    4.8801   -3.1835    6.7432 H   0  0  0  0  0  0  0  0  0  0  0  0
    3.7714   -4.7655    5.9390 H   0  0  0  0  0  0  0  0  0  0  0  0
    5.6440   -4.1265    3.7022 H   0  0  0  0  0  0  0  0  0  0  0  0
    5.0291   -6.8486    3.6493 H   0  0  0  0  0  0  0  0  0  0  0  0
    3.2944   -6.2700    0.6404 H   0  0  0  0  0  0  0  0  0  0  0  0
    2.5220   -5.5470    2.0060 H   0  0  0  0  0  0  0  0  0  0  0  0
    3.5977   -6.8790    2.2157 H   0  0  0  0  0  0  0  0  0  0  0  0
    6.7624   -5.5449    1.1277 H   0  0  0  0  0  0  0  0  0  0  0  0
    5.6738   -6.9112    1.1533 H   0  0  0  0  0  0  0  0  0  0  0  0
    5.6317   -3.4944   -0.9961 H   0  0  0  0  0  0  0  0  0  0  0  0
    3.3729   -2.8303   -1.3153 H   0  0  0  0  0  0  0  0  0  0  0  0
    2.3356   -4.7581   -1.1656 H   0  0  0  0  0  0  0  0  0  0  0  0
    5.3610   -1.3863   -0.4490 H   0  0  0  0  0  0  0  0  0  0  0  0
    4.8106   -0.4439    0.8974 H   0  0  0  0  0  0  0  0  0  0  0  0
    3.7617   -0.7138   -0.4778 H   0  0  0  0  0  0  0  0  0  0  0  0
    6.8408   -3.8170    1.2970 H   0  0  0  0  0  0  0  0  0  0  0  0
  1  2  1  0
  1 41  1  0
  1 42  1  0
  1 43  1  0
  2 26  1  0
  2  3  1  0
  2 44  1  1
  3  4  1  0
  3 45  1  0
  3 46  1  0
  4 18  1  0
  4  5  1  0
  4 47  1  6
  5  6  1  0
  6  7  2  0
  6  8  1  0
  8 19  1  0
  8 24  1  0
  8  9  1  1
  9 10  1  0
  9 48  1  0
  9 49  1  0
 10 11  1  0
 10 50  1  0
 10 51  1  0
 11 18  1  0
 11 12  1  0
 11 52  1  1
 12 13  1  0
 12 14  1  0
 12 53  1  6
 13 54  1  0
 13 55  1  0
 13 56  1  0
 14 15  1  0
 14 16  1  0
 14 57  1  6
 15 58  1  0
 16 17  1  0
 16 59  1  0
 16 60  1  0
 17 18  1  0
 17 20  1  0
 17 61  1  6
 18 19  1  1
 20 37  1  0
 20 21  1  1
 20 22  1  0
 21 62  1  0
 22 23  2  3
 22 63  1  0
 23 24  1  0
 23 64  1  0
 24 25  1  1
 24 26  1  0
 25 65  1  0
 26 27  1  0
 26 66  1  1
 27 28  1  0
 28 29  1  0
 28 30  1  0
 28 67  1  6
 29 68  1  0
 30 39  1  0
 30 31  1  1
 30 32  1  0
 31 69  1  0
 31 70  1  0
 31 71  1  0
 32 33  1  0
 32 72  1  0
 32 73  1  0
 33 34  1  0
 34 39  1  0
 34 35  1  0
 34 74  1  6
 35 36  1  0
 35 37  1  0
 35 75  1  6
 36 76  1  0
 37 38  1  6
 37 39  1  0
 38 77  1  0
 38 78  1  0
 38 79  1  0
 39 40  1  1
 40 80  1  0
M  END
>  <i_m_ct_stereo_status>  (402) 
1

>  <s_m_source_file>  (402) 
/var/tmp/pbs.5076255.sched01/tmpt95b3wv2/135g3gtwtb2.sdf

>  <i_m_source_file_index>  (402) 
27

>  <i_lp_mmshare_version>  (402) 
48012

>  <i_f3d_flags>  (402) 
0

>  <s_epik_input>  (402) 
W0NAXTEyM1tDQEBdNChbT0hdKVtDQEhdNVtDQEhdKFtDSDNdKVtDSDJdW0NAQEhdKE9DMT1PKVtDQF02KE8zKVtDQEBIXShbQ0gyXVtDSDJdMilbQ0BASF0oW0NIM10pW0NAQEhdKFtPSF0pW0NIMl1bQ0BIXTZDKFtPSF0pKC9bQ0hdPVtDSF1cNClbQ0BAXTcoW0NIM10pW0NAQF04KFtPSF0pW0NAXShbQ0gzXSkoW0NAQEhdKE81KVtPSF0pW0NIMl1PW0NASF04W0NASF03W09IXQ==

>  <s_epik_cmdline>  (402) 
J2VwaWtfcHl0aG9uJywgJy1waHQnLCAnMi4wJywgJy1waCcsICc3LjAnLCAnLXRuJywgJzgnLCAnLW1hJywgJzIwMCcsICctaW1hZScsICc8aW5maWxlLm1hZT4nLCAnLW9tYWUnLCAnPG91dGZpbGUubWFlPic=

>  <r_lp_tautomer_probability>  (402) 
1

>  <r_epik_Ionization_Penalty>  (402) 
3.11922e-06

>  <r_epik_Ionization_Penalty_Charging>  (402) 
0

>  <r_epik_Ionization_Penalty_Neutral>  (402) 
3.11922e-06

>  <r_epik_State_Penalty>  (402) 
-0

>  <r_epik_Charging_Adjusted_Penalty>  (402) 
0

>  <i_epik_Tot_Q>  (402) 
0

>  <i_epik_Tot_abs_Q>  (402) 
0

>  <s_epik_Chemistry_Notes>  (402) 
This compound has an ester and may undergo hydrolysis at high or low pH. This compound contains an acetal/aminal-like group ( X-CH(R)-Y where X, Y are N, S, or O) that may be acid/base labile, releasing an aldehyde.

>  <s_lp_Force_Field>  (402) 
OPLS3e

>  <r_lp_Energy>  (402) 
233.388

>  <b_lp_Chiralities_Consistent>  (402) 
1

>  <s_lp_Variant>  (402) 
103:0-1

>  <s_i_glide_gridfile>  (402) 
pfpi4k_grid

>  <i_i_glide_lignum>  (402) 
27

>  <i_i_glide_rotatable_bonds>  (402) 
6

>  <r_i_docking_score>  (402) 
-3.48063

>  <r_i_glide_ligand_efficiency>  (402) 
-0.0870159

>  <r_i_glide_ligand_efficiency_sa>  (402) 
-0.29759

>  <r_i_glide_ligand_efficiency_ln>  (402) 
-0.742317

>  <r_i_glide_gscore>  (402) 
-3.48063

>  <r_i_glide_lipo>  (402) 
-0.344498

>  <r_i_glide_hbond>  (402) 
-0.15259

>  <r_i_glide_metal>  (402) 
-0

>  <r_i_glide_rewards>  (402) 
-0.50586

>  <r_i_glide_evdw>  (402) 
-23.9378

>  <r_i_glide_ecoul>  (402) 
-8.50242

>  <r_i_glide_erotb>  (402) 
0

>  <r_i_glide_esite>  (402) 
-0.00543452

>  <r_i_glide_emodel>  (402) 
-43.497

>  <r_i_glide_energy>  (402) 
-32.4402

>  <r_i_glide_einternal>  (402) 
3.04988

>  <r_i_glide_intrahb_reward>  (402) 
-0.5

>  <i_i_glide_confnum>  (402) 
1

>  <i_i_glide_posenum>  (402) 
16

>  <r_i_glide_eff_state_penalty>  (402) 
0

>  <ligand_id>  (402) 
103

>  <original_smiles>  (402) 
CC1CC2OC(=O)C34CCC5C(C)C(O)CC(C25O3)C2(O)C=CC4(O)C1OC(O)C1(C)COC3C(O)C2(C)C31O

>  <smiles>  (402) 
[H]OC1([H])OC2([H])C3(O[H])C([H])=C([H])C(O[H])(C4([H])C([H])([H])C([H])(O[H])C([H])(C([H])([H])[H])C5([H])C([H])([H])C([H])([H])C36OC45C([H])(OC6=O)C([H])([H])C2([H])C([H])([H])[H])C2(C([H])([H])[H])C([H])(O[H])C3([H])OC([H])([H])C1(C([H])([H])[H])C32O[H]

$$$$
103:0:1
     RDKit          3D

 80 87  0  0  1  0  0  0  0  0999 V2000
    1.6976   -6.2383    5.1744 C   0  0  0  0  0  0  0  0  0  0  0  0
    1.7340   -4.6955    5.2620 C   0  0  2  0  0  0  0  0  0  0  0  0
    0.6427   -4.1107    4.2642 C   0  0  0  0  0  0  0  0  0  0  0  0
    0.1669   -2.5964    4.2759 C   0  0  1  0  0  0  0  0  0  0  0  0
   -0.0783   -2.3946    5.6746 O   0  0  0  0  0  0  0  0  0  0  0  0
    0.9584   -2.0644    6.4957 C   0  0  0  0  0  0  0  0  0  0  0  0
    0.8675   -2.0540    7.7268 O   0  0  0  0  0  0  0  0  0  0  0  0
    2.2345   -1.6195    5.7448 C   0  0  2  0  0  0  0  0  0  0  0  0
    2.4440   -0.0990    5.9436 C   0  0  0  0  0  0  0  0  0  0  0  0
    1.3901    0.7819    5.1731 C   0  0  0  0  0  0  0  0  0  0  0  0
    0.4072    0.0305    4.2079 C   0  0  1  0  0  0  0  0  0  0  0  0
   -0.1541    0.8901    3.0487 C   0  0  1  0  0  0  0  0  0  0  0  0
   -0.9854    2.0970    3.5258 C   0  0  0  0  0  0  0  0  0  0  0  0
    0.8878    1.2231    1.9552 C   0  0  1  0  0  0  0  0  0  0  0  0
    1.4175    2.5307    2.0846 O   0  0  0  0  0  0  0  0  0  0  0  0
    2.0811    0.2493    1.9418 C   0  0  0  0  0  0  0  0  0  0  0  0
    1.7593   -1.2332    2.2537 C   0  0  2  0  0  0  0  0  0  0  0  0
    0.9659   -1.3384    3.6878 C   0  0  2  0  0  0  0  0  0  0  0  0
    2.0653   -1.5842    4.3961 O   0  0  0  0  0  0  0  0  0  0  0  0
    3.1296   -2.0831    2.1241 C   0  0  2  0  0  0  0  0  0  0  0  0
    2.4638   -3.2474    2.3247 O   0  0  0  0  0  0  0  0  0  0  0  0
    4.2710   -1.7553    3.1753 C   0  0  0  0  0  0  0  0  0  0  0  0
    4.4548   -2.0196    4.5010 C   0  0  0  0  0  0  0  0  0  0  0  0
    3.4724   -2.6214    5.5387 C   0  0  1  0  0  0  0  0  0  0  0  0
    4.1283   -2.6111    6.7933 O   0  0  0  0  0  0  0  0  0  0  0  0
    3.2204   -4.1735    5.2045 C   0  0  2  0  0  0  0  0  0  0  0  0
    3.6684   -4.6833    3.9334 O   0  0  0  0  0  0  0  0  0  0  0  0
    4.9665   -4.9330    3.4315 C   0  0  1  0  0  0  0  0  0  0  0  0
    5.5258   -6.1132    3.9644 O   0  0  0  0  0  0  0  0  0  0  0  0
    4.7493   -5.0259    1.8571 C   0  0  2  0  0  0  0  0  0  0  0  0
    3.4726   -5.9406    1.6680 C   0  0  0  0  0  0  0  0  0  0  0  0
    5.7261   -5.8282    0.9941 C   0  0  0  0  0  0  0  0  0  0  0  0
    5.2210   -5.4550   -0.3181 O   0  0  0  0  0  0  0  0  0  0  0  0
    4.9082   -4.0472   -0.3836 C   0  0  1  0  0  0  0  0  0  0  0  0
    3.4671   -3.4241   -0.4035 C   0  0  1  0  0  0  0  0  0  0  0  0
    2.3272   -4.2579   -0.3509 O   0  0  0  0  0  0  0  0  0  0  0  0
    3.9030   -2.4984    0.7948 C   0  0  1  0  0  0  0  0  0  0  0  0
    4.4873   -1.1911    0.1782 C   0  0  0  0  0  0  0  0  0  0  0  0
    4.9541   -3.6582    1.0693 C   0  0  1  0  0  0  0  0  0  0  0  0
    6.2294   -3.1369    1.4054 O   0  0  0  0  0  0  0  0  0  0  0  0
    1.9602   -6.5989    4.1797 H   0  0  0  0  0  0  0  0  0  0  0  0
    0.7017   -6.6251    5.4053 H   0  0  0  0  0  0  0  0  0  0  0  0
    2.3853   -6.6954    5.8875 H   0  0  0  0  0  0  0  0  0  0  0  0
    1.3907   -4.5442    6.2824 H   0  0  0  0  0  0  0  0  0  0  0  0
    0.7650   -4.4963    3.2578 H   0  0  0  0  0  0  0  0  0  0  0  0
   -0.2569   -4.6444    4.5662 H   0  0  0  0  0  0  0  0  0  0  0  0
   -0.8093   -2.5613    3.8016 H   0  0  0  0  0  0  0  0  0  0  0  0
    2.4390    0.1549    7.0102 H   0  0  0  0  0  0  0  0  0  0  0  0
    3.4326    0.1827    5.5907 H   0  0  0  0  0  0  0  0  0  0  0  0
    0.7934    1.3244    5.9085 H   0  0  0  0  0  0  0  0  0  0  0  0
    1.9217    1.5567    4.6203 H   0  0  0  0  0  0  0  0  0  0  0  0
   -0.4742   -0.1843    4.8132 H   0  0  0  0  0  0  0  0  0  0  0  0
   -0.8779    0.2400    2.5514 H   0  0  0  0  0  0  0  0  0  0  0  0
   -0.3762    2.8147    4.0808 H   0  0  0  0  0  0  0  0  0  0  0  0
   -1.8015    1.7788    4.1763 H   0  0  0  0  0  0  0  0  0  0  0  0
   -1.4293    2.6228    2.6787 H   0  0  0  0  0  0  0  0  0  0  0  0
    0.3874    1.1721    0.9864 H   0  0  0  0  0  0  0  0  0  0  0  0
    0.8591    3.1616    1.6204 H   0  0  0  0  0  0  0  0  0  0  0  0
    2.5302    0.3384    0.9582 H   0  0  0  0  0  0  0  0  0  0  0  0
    2.8310    0.5928    2.6533 H   0  0  0  0  0  0  0  0  0  0  0  0
    1.0625   -1.5596    1.4809 H   0  0  0  0  0  0  0  0  0  0  0  0
    3.0914   -3.9466    2.4559 H   0  0  0  0  0  0  0  0  0  0  0  0
    5.1131   -1.2225    2.7542 H   0  0  0  0  0  0  0  0  0  0  0  0
    5.3793   -1.6566    4.9326 H   0  0  0  0  0  0  0  0  0  0  0  0
    4.8773   -3.1890    6.7487 H   0  0  0  0  0  0  0  0  0  0  0  0
    3.7719   -4.7658    5.9415 H   0  0  0  0  0  0  0  0  0  0  0  0
    5.6447   -4.1352    3.7146 H   0  0  0  0  0  0  0  0  0  0  0  0
    5.0298   -6.8554    3.6458 H   0  0  0  0  0  0  0  0  0  0  0  0
    3.2931   -6.2682    0.6437 H   0  0  0  0  0  0  0  0  0  0  0  0
    2.5218   -5.5467    2.0073 H   0  0  0  0  0  0  0  0  0  0  0  0
    3.5979   -6.8762    2.2153 H   0  0  0  0  0  0  0  0  0  0  0  0
    6.7635   -5.5334    1.1234 H   0  0  0  0  0  0  0  0  0  0  0  0
    5.6779   -6.9055    1.1545 H   0  0  0  0  0  0  0  0  0  0  0  0
    5.6304   -3.4977   -0.9893 H   0  0  0  0  0  0  0  0  0  0  0  0
    3.3753   -2.8328   -1.3121 H   0  0  0  0  0  0  0  0  0  0  0  0
    2.3328   -4.7521   -1.1610 H   0  0  0  0  0  0  0  0  0  0  0  0
    5.3577   -1.3866   -0.4487 H   0  0  0  0  0  0  0  0  0  0  0  0
    4.8110   -0.4379    0.8944 H   0  0  0  0  0  0  0  0  0  0  0  0
    3.7610   -0.7122   -0.4790 H   0  0  0  0  0  0  0  0  0  0  0  0
    6.2001   -2.9336    2.3232 H   0  0  0  0  0  0  0  0  0  0  0  0
  1  2  1  0
  1 41  1  0
  1 42  1  0
  1 43  1  0
  2 26  1  0
  2  3  1  0
  2 44  1  1
  3  4  1  0
  3 45  1  0
  3 46  1  0
  4 18  1  0
  4  5  1  0
  4 47  1  6
  5  6  1  0
  6  7  2  0
  6  8  1  0
  8 19  1  0
  8 24  1  0
  8  9  1  1
  9 10  1  0
  9 48  1  0
  9 49  1  0
 10 11  1  0
 10 50  1  0
 10 51  1  0
 11 18  1  0
 11 12  1  0
 11 52  1  1
 12 13  1  0
 12 14  1  0
 12 53  1  6
 13 54  1  0
 13 55  1  0
 13 56  1  0
 14 15  1  0
 14 16  1  0
 14 57  1  6
 15 58  1  0
 16 17  1  0
 16 59  1  0
 16 60  1  0
 17 18  1  0
 17 20  1  0
 17 61  1  6
 18 19  1  1
 20 37  1  0
 20 21  1  1
 20 22  1  0
 21 62  1  0
 22 23  2  3
 22 63  1  0
 23 24  1  0
 23 64  1  0
 24 25  1  1
 24 26  1  0
 25 65  1  0
 26 27  1  0
 26 66  1  1
 27 28  1  0
 28 29  1  0
 28 30  1  0
 28 67  1  6
 29 68  1  0
 30 39  1  0
 30 31  1  1
 30 32  1  0
 31 69  1  0
 31 70  1  0
 31 71  1  0
 32 33  1  0
 32 72  1  0
 32 73  1  0
 33 34  1  0
 34 39  1  0
 34 35  1  0
 34 74  1  6
 35 36  1  0
 35 37  1  0
 35 75  1  6
 36 76  1  0
 37 38  1  6
 37 39  1  0
 38 77  1  0
 38 78  1  0
 38 79  1  0
 39 40  1  1
 40 80  1  0
M  END
>  <i_m_ct_stereo_status>  (403) 
1

>  <s_m_source_file>  (403) 
/var/tmp/pbs.5076255.sched01/tmpt95b3wv2/135g3gtwtb2.sdf

>  <i_m_source_file_index>  (403) 
27

>  <i_lp_mmshare_version>  (403) 
48012

>  <i_f3d_flags>  (403) 
0

>  <s_epik_input>  (403) 
W0NAXTEyM1tDQEBdNChbT0hdKVtDQEhdNVtDQEhdKFtDSDNdKVtDSDJdW0NAQEhdKE9DMT1PKVtDQF02KE8zKVtDQEBIXShbQ0gyXVtDSDJdMilbQ0BASF0oW0NIM10pW0NAQEhdKFtPSF0pW0NIMl1bQ0BIXTZDKFtPSF0pKC9bQ0hdPVtDSF1cNClbQ0BAXTcoW0NIM10pW0NAQF04KFtPSF0pW0NAXShbQ0gzXSkoW0NAQEhdKE81KVtPSF0pW0NIMl1PW0NASF04W0NASF03W09IXQ==

>  <s_epik_cmdline>  (403) 
J2VwaWtfcHl0aG9uJywgJy1waHQnLCAnMi4wJywgJy1waCcsICc3LjAnLCAnLXRuJywgJzgnLCAnLW1hJywgJzIwMCcsICctaW1hZScsICc8aW5maWxlLm1hZT4nLCAnLW9tYWUnLCAnPG91dGZpbGUubWFlPic=

>  <r_lp_tautomer_probability>  (403) 
1

>  <r_epik_Ionization_Penalty>  (403) 
3.11922e-06

>  <r_epik_Ionization_Penalty_Charging>  (403) 
0

>  <r_epik_Ionization_Penalty_Neutral>  (403) 
3.11922e-06

>  <r_epik_State_Penalty>  (403) 
-0

>  <r_epik_Charging_Adjusted_Penalty>  (403) 
0

>  <i_epik_Tot_Q>  (403) 
0

>  <i_epik_Tot_abs_Q>  (403) 
0

>  <s_epik_Chemistry_Notes>  (403) 
This compound has an ester and may undergo hydrolysis at high or low pH. This compound contains an acetal/aminal-like group ( X-CH(R)-Y where X, Y are N, S, or O) that may be acid/base labile, releasing an aldehyde.

>  <s_lp_Force_Field>  (403) 
OPLS3e

>  <r_lp_Energy>  (403) 
233.388

>  <b_lp_Chiralities_Consistent>  (403) 
1

>  <s_lp_Variant>  (403) 
103:0-1

>  <s_i_glide_gridfile>  (403) 
pfpi4k_grid

>  <i_i_glide_lignum>  (403) 
27

>  <i_i_glide_rotatable_bonds>  (403) 
6

>  <r_i_docking_score>  (403) 
-3.47275

>  <r_i_glide_ligand_efficiency>  (403) 
-0.0868188

>  <r_i_glide_ligand_efficiency_sa>  (403) 
-0.296916

>  <r_i_glide_ligand_efficiency_ln>  (403) 
-0.740636

>  <r_i_glide_gscore>  (403) 
-3.47275

>  <r_i_glide_lipo>  (403) 
-0.343886

>  <r_i_glide_hbond>  (403) 
-0.15275

>  <r_i_glide_metal>  (403) 
-0

>  <r_i_glide_rewards>  (403) 
-0.505778

>  <r_i_glide_evdw>  (403) 
-24.0263

>  <r_i_glide_ecoul>  (403) 
-8.4244

>  <r_i_glide_erotb>  (403) 
0

>  <r_i_glide_esite>  (403) 
-0.00536675

>  <r_i_glide_emodel>  (403) 
-43.5047

>  <r_i_glide_energy>  (403) 
-32.4507

>  <r_i_glide_einternal>  (403) 
2.97357

>  <r_i_glide_intrahb_reward>  (403) 
-0.5

>  <i_i_glide_confnum>  (403) 
1

>  <i_i_glide_posenum>  (403) 
1

>  <r_i_glide_eff_state_penalty>  (403) 
0

>  <ligand_id>  (403) 
103

>  <original_smiles>  (403) 
CC1CC2OC(=O)C34CCC5C(C)C(O)CC(C25O3)C2(O)C=CC4(O)C1OC(O)C1(C)COC3C(O)C2(C)C31O

>  <smiles>  (403) 
[H]OC1([H])OC2([H])C3(O[H])C([H])=C([H])C(O[H])(C4([H])C([H])([H])C([H])(O[H])C([H])(C([H])([H])[H])C5([H])C([H])([H])C([H])([H])C36OC45C([H])(OC6=O)C([H])([H])C2([H])C([H])([H])[H])C2(C([H])([H])[H])C([H])(O[H])C3([H])OC([H])([H])C1(C([H])([H])[H])C32O[H]

$$$$
103:0:2
     RDKit          3D

 80 87  0  0  1  0  0  0  0  0999 V2000
    1.7036   -6.2274    5.2059 C   0  0  0  0  0  0  0  0  0  0  0  0
    1.7442   -4.6838    5.2868 C   0  0  2  0  0  0  0  0  0  0  0  0
    0.6434   -4.1014    4.2961 C   0  0  0  0  0  0  0  0  0  0  0  0
    0.1711   -2.5864    4.3057 C   0  0  1  0  0  0  0  0  0  0  0  0
   -0.0621   -2.3800    5.7059 O   0  0  0  0  0  0  0  0  0  0  0  0
    0.9821   -2.0479    6.5164 C   0  0  0  0  0  0  0  0  0  0  0  0
    0.9049   -2.0305    7.7488 O   0  0  0  0  0  0  0  0  0  0  0  0
    2.2525   -1.6079    5.7525 C   0  0  2  0  0  0  0  0  0  0  0  0
    2.4698   -0.0860    5.9445 C   0  0  0  0  0  0  0  0  0  0  0  0
    1.4102    0.7933    5.1813 C   0  0  0  0  0  0  0  0  0  0  0  0
    0.4191    0.0417    4.2238 C   0  0  1  0  0  0  0  0  0  0  0  0
   -0.1494    0.8980    3.0674 C   0  0  1  0  0  0  0  0  0  0  0  0
   -0.9738    2.1077    3.5478 C   0  0  0  0  0  0  0  0  0  0  0  0
    0.8863    1.2247    1.9667 C   0  0  1  0  0  0  0  0  0  0  0  0
    1.4214    2.5374    2.0807 O   0  0  0  0  0  0  0  0  0  0  0  0
    2.0742    0.2474    1.9452 C   0  0  0  0  0  0  0  0  0  0  0  0
    1.7502   -1.2324    2.2644 C   0  0  2  0  0  0  0  0  0  0  0  0
    0.9669   -1.3310    3.7051 C   0  0  2  0  0  0  0  0  0  0  0  0
    2.0736   -1.5747    4.4042 O   0  0  0  0  0  0  0  0  0  0  0  0
    3.1158   -2.0886    2.1271 C   0  0  2  0  0  0  0  0  0  0  0  0
    2.4526   -3.2521    2.3385 O   0  0  0  0  0  0  0  0  0  0  0  0
    4.2687   -1.7603    3.1640 C   0  0  0  0  0  0  0  0  0  0  0  0
    4.4660   -2.0200    4.4921 C   0  0  0  0  0  0  0  0  0  0  0  0
    3.4887   -2.6120    5.5399 C   0  0  1  0  0  0  0  0  0  0  0  0
    4.1624   -2.6013    6.7827 O   0  0  0  0  0  0  0  0  0  0  0  0
    3.2322   -4.1648    5.2157 C   0  0  2  0  0  0  0  0  0  0  0  0
    3.6647   -4.6841    3.9415 O   0  0  0  0  0  0  0  0  0  0  0  0
    4.9593   -4.9385    3.4304 C   0  0  1  0  0  0  0  0  0  0  0  0
    5.5210   -6.1203    3.9590 O   0  0  0  0  0  0  0  0  0  0  0  0
    4.7296   -5.0368    1.8584 C   0  0  2  0  0  0  0  0  0  0  0  0
    3.4478   -5.9483    1.6824 C   0  0  0  0  0  0  0  0  0  0  0  0
    5.6956   -5.8444    0.9894 C   0  0  0  0  0  0  0  0  0  0  0  0
    5.1820   -5.4759   -0.3197 O   0  0  0  0  0  0  0  0  0  0  0  0
    4.8720   -4.0680   -0.3864 C   0  0  1  0  0  0  0  0  0  0  0  0
    3.4334   -3.4395   -0.4005 C   0  0  1  0  0  0  0  0  0  0  0  0
    2.2892   -4.2670   -0.3392 O   0  0  0  0  0  0  0  0  0  0  0  0
    3.8791   -2.5127    0.7922 C   0  0  1  0  0  0  0  0  0  0  0  0
    4.4618   -1.2079    0.1666 C   0  0  0  0  0  0  0  0  0  0  0  0
    4.9301   -3.6719    1.0635 C   0  0  1  0  0  0  0  0  0  0  0  0
    6.2102   -3.1526    1.3899 O   0  0  0  0  0  0  0  0  0  0  0  0
    1.9565   -6.5939    4.2102 H   0  0  0  0  0  0  0  0  0  0  0  0
    0.7086   -6.6119    5.4468 H   0  0  0  0  0  0  0  0  0  0  0  0
    2.3965   -6.6843    5.9151 H   0  0  0  0  0  0  0  0  0  0  0  0
    1.4099   -4.5293    6.3097 H   0  0  0  0  0  0  0  0  0  0  0  0
    0.7555   -4.4920    3.2892 H   0  0  0  0  0  0  0  0  0  0  0  0
   -0.2541   -4.6323    4.6075 H   0  0  0  0  0  0  0  0  0  0  0  0
   -0.8106   -2.5538    3.8400 H   0  0  0  0  0  0  0  0  0  0  0  0
    2.4718    0.1722    7.0094 H   0  0  0  0  0  0  0  0  0  0  0  0
    3.4550    0.1929    5.5810 H   0  0  0  0  0  0  0  0  0  0  0  0
    0.8208    1.3417    5.9193 H   0  0  0  0  0  0  0  0  0  0  0  0
    1.9415    1.5623    4.6202 H   0  0  0  0  0  0  0  0  0  0  0  0
   -0.4565   -0.1701    4.8383 H   0  0  0  0  0  0  0  0  0  0  0  0
   -0.8757    0.2475    2.5785 H   0  0  0  0  0  0  0  0  0  0  0  0
   -0.3583    2.8251    4.0952 H   0  0  0  0  0  0  0  0  0  0  0  0
   -1.7853    1.7920    4.2071 H   0  0  0  0  0  0  0  0  0  0  0  0
   -1.4237    2.6302    2.7025 H   0  0  0  0  0  0  0  0  0  0  0  0
    0.3795    1.1750    1.0046 H   0  0  0  0  0  0  0  0  0  0  0  0
    0.8599    3.1692    1.6181 H   0  0  0  0  0  0  0  0  0  0  0  0
    2.5157    0.3307    0.9575 H   0  0  0  0  0  0  0  0  0  0  0  0
    2.8340    0.5907    2.6486 H   0  0  0  0  0  0  0  0  0  0  0  0
    1.0450   -1.5620    1.4986 H   0  0  0  0  0  0  0  0  0  0  0  0
    3.0804   -3.9466    2.5004 H   0  0  0  0  0  0  0  0  0  0  0  0
    5.1119   -1.2368    2.7351 H   0  0  0  0  0  0  0  0  0  0  0  0
    5.3997   -1.6687    4.9088 H   0  0  0  0  0  0  0  0  0  0  0  0
    4.3722   -1.7064    7.0022 H   0  0  0  0  0  0  0  0  0  0  0  0
    3.7909   -4.7505    5.9519 H   0  0  0  0  0  0  0  0  0  0  0  0
    5.6422   -4.1417    3.7072 H   0  0  0  0  0  0  0  0  0  0  0  0
    5.0229   -6.8602    3.6426 H   0  0  0  0  0  0  0  0  0  0  0  0
    3.2580   -6.2811    0.6618 H   0  0  0  0  0  0  0  0  0  0  0  0
    2.5004   -5.5522    2.0292 H   0  0  0  0  0  0  0  0  0  0  0  0
    3.5755   -6.8824    2.2334 H   0  0  0  0  0  0  0  0  0  0  0  0
    6.7348   -5.5533    1.1080 H   0  0  0  0  0  0  0  0  0  0  0  0
    5.6473   -6.9211    1.1544 H   0  0  0  0  0  0  0  0  0  0  0  0
    5.5904   -3.5248   -1.0028 H   0  0  0  0  0  0  0  0  0  0  0  0
    3.3335   -2.8520   -1.3114 H   0  0  0  0  0  0  0  0  0  0  0  0
    2.3088   -4.7886   -1.1324 H   0  0  0  0  0  0  0  0  0  0  0  0
    5.3270   -1.4081   -0.4672 H   0  0  0  0  0  0  0  0  0  0  0  0
    4.7931   -0.4529    0.8774 H   0  0  0  0  0  0  0  0  0  0  0  0
    3.7307   -0.7301   -0.4863 H   0  0  0  0  0  0  0  0  0  0  0  0
    6.2019   -2.9765    2.3135 H   0  0  0  0  0  0  0  0  0  0  0  0
  1  2  1  0
  1 41  1  0
  1 42  1  0
  1 43  1  0
  2 26  1  0
  2  3  1  0
  2 44  1  1
  3  4  1  0
  3 45  1  0
  3 46  1  0
  4 18  1  0
  4  5  1  0
  4 47  1  6
  5  6  1  0
  6  7  2  0
  6  8  1  0
  8 19  1  0
  8 24  1  0
  8  9  1  1
  9 10  1  0
  9 48  1  0
  9 49  1  0
 10 11  1  0
 10 50  1  0
 10 51  1  0
 11 18  1  0
 11 12  1  0
 11 52  1  1
 12 13  1  0
 12 14  1  0
 12 53  1  6
 13 54  1  0
 13 55  1  0
 13 56  1  0
 14 15  1  0
 14 16  1  0
 14 57  1  6
 15 58  1  0
 16 17  1  0
 16 59  1  0
 16 60  1  0
 17 18  1  0
 17 20  1  0
 17 61  1  6
 18 19  1  1
 20 37  1  0
 20 21  1  1
 20 22  1  0
 21 62  1  0
 22 23  2  3
 22 63  1  0
 23 24  1  0
 23 64  1  0
 24 25  1  1
 24 26  1  0
 25 65  1  0
 26 27  1  0
 26 66  1  1
 27 28  1  0
 28 29  1  0
 28 30  1  0
 28 67  1  6
 29 68  1  0
 30 39  1  0
 30 31  1  1
 30 32  1  0
 31 69  1  0
 31 70  1  0
 31 71  1  0
 32 33  1  0
 32 72  1  0
 32 73  1  0
 33 34  1  0
 34 39  1  0
 34 35  1  0
 34 74  1  6
 35 36  1  0
 35 37  1  0
 35 75  1  6
 36 76  1  0
 37 38  1  6
 37 39  1  0
 38 77  1  0
 38 78  1  0
 38 79  1  0
 39 40  1  1
 40 80  1  0
M  END
>  <i_m_ct_stereo_status>  (404) 
1

>  <s_m_source_file>  (404) 
/var/tmp/pbs.5076255.sched01/tmpt95b3wv2/135g3gtwtb2.sdf

>  <i_m_source_file_index>  (404) 
27

>  <i_lp_mmshare_version>  (404) 
48012

>  <i_f3d_flags>  (404) 
0

>  <s_epik_input>  (404) 
W0NAXTEyM1tDQEBdNChbT0hdKVtDQEhdNVtDQEhdKFtDSDNdKVtDSDJdW0NAQEhdKE9DMT1PKVtDQF02KE8zKVtDQEBIXShbQ0gyXVtDSDJdMilbQ0BASF0oW0NIM10pW0NAQEhdKFtPSF0pW0NIMl1bQ0BIXTZDKFtPSF0pKC9bQ0hdPVtDSF1cNClbQ0BAXTcoW0NIM10pW0NAQF04KFtPSF0pW0NAXShbQ0gzXSkoW0NAQEhdKE81KVtPSF0pW0NIMl1PW0NASF04W0NASF03W09IXQ==

>  <s_epik_cmdline>  (404) 
J2VwaWtfcHl0aG9uJywgJy1waHQnLCAnMi4wJywgJy1waCcsICc3LjAnLCAnLXRuJywgJzgnLCAnLW1hJywgJzIwMCcsICctaW1hZScsICc8aW5maWxlLm1hZT4nLCAnLW9tYWUnLCAnPG91dGZpbGUubWFlPic=

>  <r_lp_tautomer_probability>  (404) 
1

>  <r_epik_Ionization_Penalty>  (404) 
3.11922e-06

>  <r_epik_Ionization_Penalty_Charging>  (404) 
0

>  <r_epik_Ionization_Penalty_Neutral>  (404) 
3.11922e-06

>  <r_epik_State_Penalty>  (404) 
-0

>  <r_epik_Charging_Adjusted_Penalty>  (404) 
0

>  <i_epik_Tot_Q>  (404) 
0

>  <i_epik_Tot_abs_Q>  (404) 
0

>  <s_epik_Chemistry_Notes>  (404) 
This compound has an ester and may undergo hydrolysis at high or low pH. This compound contains an acetal/aminal-like group ( X-CH(R)-Y where X, Y are N, S, or O) that may be acid/base labile, releasing an aldehyde.

>  <s_lp_Force_Field>  (404) 
OPLS3e

>  <r_lp_Energy>  (404) 
233.388

>  <b_lp_Chiralities_Consistent>  (404) 
1

>  <s_lp_Variant>  (404) 
103:0-1

>  <s_i_glide_gridfile>  (404) 
pfpi4k_grid

>  <i_i_glide_lignum>  (404) 
27

>  <i_i_glide_rotatable_bonds>  (404) 
6

>  <r_i_docking_score>  (404) 
-3.45558

>  <r_i_glide_ligand_efficiency>  (404) 
-0.0863895

>  <r_i_glide_ligand_efficiency_sa>  (404) 
-0.295448

>  <r_i_glide_ligand_efficiency_ln>  (404) 
-0.736974

>  <r_i_glide_gscore>  (404) 
-3.45558

>  <r_i_glide_lipo>  (404) 
-0.339674

>  <r_i_glide_hbond>  (404) 
-0.152814

>  <r_i_glide_metal>  (404) 
-0

>  <r_i_glide_rewards>  (404) 
-0.505661

>  <r_i_glide_evdw>  (404) 
-24.0352

>  <r_i_glide_ecoul>  (404) 
-8.3379

>  <r_i_glide_erotb>  (404) 
0

>  <r_i_glide_esite>  (404) 
-0.00498833

>  <r_i_glide_emodel>  (404) 
-43.384

>  <r_i_glide_energy>  (404) 
-32.3731

>  <r_i_glide_einternal>  (404) 
3.01492

>  <r_i_glide_intrahb_reward>  (404) 
-0.5

>  <i_i_glide_confnum>  (404) 
1

>  <i_i_glide_posenum>  (404) 
36

>  <r_i_glide_eff_state_penalty>  (404) 
0

>  <ligand_id>  (404) 
103

>  <original_smiles>  (404) 
CC1CC2OC(=O)C34CCC5C(C)C(O)CC(C25O3)C2(O)C=CC4(O)C1OC(O)C1(C)COC3C(O)C2(C)C31O

>  <smiles>  (404) 
[H]OC1([H])OC2([H])C3(O[H])C([H])=C([H])C(O[H])(C4([H])C([H])([H])C([H])(O[H])C([H])(C([H])([H])[H])C5([H])C([H])([H])C([H])([H])C36OC45C([H])(OC6=O)C([H])([H])C2([H])C([H])([H])[H])C2(C([H])([H])[H])C([H])(O[H])C3([H])OC([H])([H])C1(C([H])([H])[H])C32O[H]

$$$$
103:1:0
     RDKit          3D

 80 87  0  0  1  0  0  0  0  0999 V2000
   -2.6172    2.8648    5.9913 C   0  0  0  0  0  0  0  0  0  0  0  0
   -1.4949    1.8540    5.6528 C   0  0  2  0  0  0  0  0  0  0  0  0
   -0.7380    1.4642    7.0022 C   0  0  0  0  0  0  0  0  0  0  0  0
    0.1290    0.1489    7.1749 C   0  0  1  0  0  0  0  0  0  0  0  0
   -0.6282   -0.8462    6.5055 O   0  0  0  0  0  0  0  0  0  0  0  0
   -0.5753   -0.8811    5.1673 C   0  0  0  0  0  0  0  0  0  0  0  0
   -1.4087   -1.4502    4.4766 O   0  0  0  0  0  0  0  0  0  0  0  0
    0.6536   -0.1862    4.5602 C   0  0  2  0  0  0  0  0  0  0  0  0
    1.5537   -1.4025    4.1648 C   0  0  0  0  0  0  0  0  0  0  0  0
    1.9159   -2.2591    5.4858 C   0  0  0  0  0  0  0  0  0  0  0  0
    2.3670   -1.3522    6.7427 C   0  0  1  0  0  0  0  0  0  0  0  0
    3.9303   -1.3253    6.8798 C   0  0  1  0  0  0  0  0  0  0  0  0
    4.6973   -1.2876    5.5314 C   0  0  0  0  0  0  0  0  0  0  0  0
    4.4677   -0.3387    7.9650 C   0  0  1  0  0  0  0  0  0  0  0  0
    5.7474    0.1738    7.6589 O   0  0  0  0  0  0  0  0  0  0  0  0
    3.5458    0.8334    8.3500 C   0  0  0  0  0  0  0  0  0  0  0  0
    2.6011    1.3528    7.2546 C   0  0  2  0  0  0  0  0  0  0  0  0
    1.6713    0.0874    6.7825 C   0  0  2  0  0  0  0  0  0  0  0  0
    1.7046    0.0894    5.4374 O   0  0  0  0  0  0  0  0  0  0  0  0
    3.2225    2.4058    6.1389 C   0  0  1  0  0  0  0  0  0  0  0  0
    4.3955    1.8221    5.6066 O   0  0  0  0  0  0  0  0  0  0  0  0
    2.1374    2.4553    5.1430 C   0  0  0  0  0  0  0  0  0  0  0  0
    1.9005    1.9260    3.9224 C   0  0  0  0  0  0  0  0  0  0  0  0
    0.5022    1.2831    3.8491 C   0  0  1  0  0  0  0  0  0  0  0  0
    0.1803    1.0495    2.4919 O   0  0  0  0  0  0  0  0  0  0  0  0
   -0.6234    2.3389    4.4288 C   0  0  2  0  0  0  0  0  0  0  0  0
   -0.2815    3.6584    4.9839 O   0  0  0  0  0  0  0  0  0  0  0  0
    0.4739    4.7155    4.4206 C   0  0  1  0  0  0  0  0  0  0  0  0
   -0.3117    5.4942    3.5460 O   0  0  0  0  0  0  0  0  0  0  0  0
    1.0627    5.5654    5.6498 C   0  0  2  0  0  0  0  0  0  0  0  0
   -0.1258    6.2697    6.3646 C   0  0  0  0  0  0  0  0  0  0  0  0
    2.0238    6.6928    5.2154 C   0  0  0  0  0  0  0  0  0  0  0  0
    2.9762    6.8772    6.2954 O   0  0  0  0  0  0  0  0  0  0  0  0
    2.8656    5.8607    7.3097 C   0  0  2  0  0  0  0  0  0  0  0  0
    3.9489    4.7675    7.4934 C   0  0  1  0  0  0  0  0  0  0  0  0
    3.9906    4.1325    8.7534 O   0  0  0  0  0  0  0  0  0  0  0  0
    3.3296    4.0079    6.2984 C   0  0  1  0  0  0  0  0  0  0  0  0
    4.1098    4.4759    5.0239 C   0  0  0  0  0  0  0  0  0  0  0  0
    1.9848    4.8233    6.6684 C   0  0  2  0  0  0  0  0  0  0  0  0
    1.1490    4.2447    7.6429 O   0  0  0  0  0  0  0  0  0  0  0  0
   -2.2396    3.7587    6.4876 H   0  0  0  0  0  0  0  0  0  0  0  0
   -3.3538    2.4231    6.6672 H   0  0  0  0  0  0  0  0  0  0  0  0
   -3.1552    3.1767    5.0942 H   0  0  0  0  0  0  0  0  0  0  0  0
   -2.1168    1.0336    5.3032 H   0  0  0  0  0  0  0  0  0  0  0  0
   -0.2046    2.3160    7.3915 H   0  0  0  0  0  0  0  0  0  0  0  0
   -1.5376    1.3381    7.7353 H   0  0  0  0  0  0  0  0  0  0  0  0
    0.0897   -0.1056    8.2354 H   0  0  0  0  0  0  0  0  0  0  0  0
    1.0578   -2.0473    3.4310 H   0  0  0  0  0  0  0  0  0  0  0  0
    2.4639   -1.0676    3.6659 H   0  0  0  0  0  0  0  0  0  0  0  0
    1.0482   -2.8497    5.7846 H   0  0  0  0  0  0  0  0  0  0  0  0
    2.6545   -3.0202    5.2498 H   0  0  0  0  0  0  0  0  0  0  0  0
    2.0273   -1.8705    7.6380 H   0  0  0  0  0  0  0  0  0  0  0  0
    4.1951   -2.3063    7.2730 H   0  0  0  0  0  0  0  0  0  0  0  0
    4.3304   -0.5099    4.8686 H   0  0  0  0  0  0  0  0  0  0  0  0
    4.6082   -2.2300    4.9951 H   0  0  0  0  0  0  0  0  0  0  0  0
    5.7723   -1.1558    5.6502 H   0  0  0  0  0  0  0  0  0  0  0  0
    4.6156   -0.9082    8.8840 H   0  0  0  0  0  0  0  0  0  0  0  0
    5.6541    0.6836    6.8610 H   0  0  0  0  0  0  0  0  0  0  0  0
    2.8960    0.4560    9.1427 H   0  0  0  0  0  0  0  0  0  0  0  0
    4.1112    1.6388    8.8177 H   0  0  0  0  0  0  0  0  0  0  0  0
    1.9248    1.9592    7.8431 H   0  0  0  0  0  0  0  0  0  0  0  0
    4.3932    1.9869    4.6738 H   0  0  0  0  0  0  0  0  0  0  0  0
    1.3030    2.5333    5.7846 H   0  0  0  0  0  0  0  0  0  0  0  0
    2.6885    1.5264    3.3065 H   0  0  0  0  0  0  0  0  0  0  0  0
    0.1489    1.8774    2.0302 H   0  0  0  0  0  0  0  0  0  0  0  0
   -1.3142    2.5478    3.6069 H   0  0  0  0  0  0  0  0  0  0  0  0
    1.2892    4.3556    3.7971 H   0  0  0  0  0  0  0  0  0  0  0  0
   -0.1899    5.1526    2.6626 H   0  0  0  0  0  0  0  0  0  0  0  0
    0.2147    6.8549    7.2192 H   0  0  0  0  0  0  0  0  0  0  0  0
   -0.8730    5.5684    6.7309 H   0  0  0  0  0  0  0  0  0  0  0  0
   -0.6117    6.9680    5.6907 H   0  0  0  0  0  0  0  0  0  0  0  0
    2.5384    6.4357    4.2897 H   0  0  0  0  0  0  0  0  0  0  0  0
    1.5034    7.6286    5.0017 H   0  0  0  0  0  0  0  0  0  0  0  0
    2.4706    6.2492    8.2481 H   0  0  0  0  0  0  0  0  0  0  0  0
    4.9425    5.1598    7.2785 H   0  0  0  0  0  0  0  0  0  0  0  0
    4.2109    4.7951    9.3909 H   0  0  0  0  0  0  0  0  0  0  0  0
    4.4130    5.5190    5.0559 H   0  0  0  0  0  0  0  0  0  0  0  0
    3.5740    4.3271    4.0872 H   0  0  0  0  0  0  0  0  0  0  0  0
    5.0692    3.9880    4.9457 H   0  0  0  0  0  0  0  0  0  0  0  0
    0.6647    3.5682    7.1996 H   0  0  0  0  0  0  0  0  0  0  0  0
  1  2  1  0
  1 41  1  0
  1 42  1  0
  1 43  1  0
  2 26  1  0
  2  3  1  0
  2 44  1  6
  3  4  1  0
  3 45  1  0
  3 46  1  0
  4 18  1  0
  4  5  1  0
  4 47  1  1
  5  6  1  0
  6  7  2  0
  6  8  1  0
  8 19  1  0
  8 24  1  0
  8  9  1  6
  9 10  1  0
  9 48  1  0
  9 49  1  0
 10 11  1  0
 10 50  1  0
 10 51  1  0
 11 18  1  0
 11 12  1  0
 11 52  1  1
 12 13  1  0
 12 14  1  0
 12 53  1  1
 13 54  1  0
 13 55  1  0
 13 56  1  0
 14 15  1  0
 14 16  1  0
 14 57  1  1
 15 58  1  0
 16 17  1  0
 16 59  1  0
 16 60  1  0
 17 18  1  0
 17 20  1  0
 17 61  1  1
 18 19  1  6
 20 37  1  0
 20 21  1  6
 20 22  1  0
 21 62  1  0
 22 23  2  3
 22 63  1  0
 23 24  1  0
 23 64  1  0
 24 25  1  6
 24 26  1  0
 25 65  1  0
 26 27  1  0
 26 66  1  6
 27 28  1  0
 28 29  1  0
 28 30  1  0
 28 67  1  6
 29 68  1  0
 30 39  1  0
 30 31  1  1
 30 32  1  0
 31 69  1  0
 31 70  1  0
 31 71  1  0
 32 33  1  0
 32 72  1  0
 32 73  1  0
 33 34  1  0
 34 39  1  0
 34 35  1  0
 34 74  1  1
 35 36  1  0
 35 37  1  0
 35 75  1  6
 36 76  1  0
 37 38  1  6
 37 39  1  0
 38 77  1  0
 38 78  1  0
 38 79  1  0
 39 40  1  1
 40 80  1  0
M  END
>  <i_m_ct_stereo_status>  (405) 
1

>  <s_m_source_file>  (405) 
/var/tmp/pbs.5076255.sched01/tmpt95b3wv2/135g3gtwtb2.sdf

>  <i_m_source_file_index>  (405) 
28

>  <i_lp_mmshare_version>  (405) 
48012

>  <i_f3d_flags>  (405) 
2

>  <s_epik_input>  (405) 
W0NAXTEyM1tDQEBdNChbT0hdKVtDQEhdNVtDQEhdKFtDSDNdKVtDSDJdW0NAQEhdKE9DMT1PKVtDQF02KE8zKVtDQEBIXShbQ0gyXVtDSDJdMilbQ0BASF0oW0NIM10pW0NAQEhdKFtPSF0pW0NIMl1bQ0BIXTZDKFtPSF0pKC9bQ0hdPVtDSF1cNClbQ0BAXTcoW0NIM10pW0NAQF04KFtPSF0pW0NAXShbQ0gzXSkoW0NAQEhdKE81KVtPSF0pW0NIMl1PW0NASF04W0NASF03W09IXQ==

>  <s_epik_cmdline>  (405) 
J2VwaWtfcHl0aG9uJywgJy1waHQnLCAnMi4wJywgJy1waCcsICc3LjAnLCAnLXRuJywgJzgnLCAnLW1hJywgJzIwMCcsICctaW1hZScsICc8aW5maWxlLm1hZT4nLCAnLW9tYWUnLCAnPG91dGZpbGUubWFlPic=

>  <r_lp_tautomer_probability>  (405) 
1

>  <r_epik_Ionization_Penalty>  (405) 
3.11922e-06

>  <r_epik_Ionization_Penalty_Charging>  (405) 
0

>  <r_epik_Ionization_Penalty_Neutral>  (405) 
3.11922e-06

>  <r_epik_State_Penalty>  (405) 
-0

>  <r_epik_Charging_Adjusted_Penalty>  (405) 
0

>  <i_epik_Tot_Q>  (405) 
0

>  <i_epik_Tot_abs_Q>  (405) 
0

>  <s_epik_Chemistry_Notes>  (405) 
This compound has an ester and may undergo hydrolysis at high or low pH. This compound contains an acetal/aminal-like group ( X-CH(R)-Y where X, Y are N, S, or O) that may be acid/base labile, releasing an aldehyde.

>  <s_lp_Force_Field>  (405) 
OPLS3e

>  <r_lp_Energy>  (405) 
268.046

>  <b_lp_Chiralities_Consistent>  (405) 
0

>  <s_lp_Variant>  (405) 
103:0-2

>  <s_i_glide_gridfile>  (405) 
pfpi4k_grid

>  <i_i_glide_lignum>  (405) 
28

>  <i_i_glide_rotatable_bonds>  (405) 
6

>  <r_i_docking_score>  (405) 
-2.88413

>  <r_i_glide_ligand_efficiency>  (405) 
-0.0721032

>  <r_i_glide_ligand_efficiency_sa>  (405) 
-0.246589

>  <r_i_glide_ligand_efficiency_ln>  (405) 
-0.6151

>  <r_i_glide_gscore>  (405) 
-2.88413

>  <r_i_glide_lipo>  (405) 
-0.108279

>  <r_i_glide_hbond>  (405) 
-0.0156811

>  <r_i_glide_metal>  (405) 
-0

>  <r_i_glide_rewards>  (405) 
-1

>  <r_i_glide_evdw>  (405) 
-19.1266

>  <r_i_glide_ecoul>  (405) 
-4.90138

>  <r_i_glide_erotb>  (405) 
0

>  <r_i_glide_esite>  (405) 
-0.0686286

>  <r_i_glide_emodel>  (405) 
-37.8706

>  <r_i_glide_energy>  (405) 
-24.028

>  <r_i_glide_einternal>  (405) 
3.06132

>  <r_i_glide_intrahb_reward>  (405) 
-1

>  <i_i_glide_confnum>  (405) 
1

>  <i_i_glide_posenum>  (405) 
34

>  <r_i_glide_eff_state_penalty>  (405) 
0

>  <ligand_id>  (405) 
103

>  <original_smiles>  (405) 
CC1CC2OC(=O)C34CCC5C(C)C(O)CC(C25O3)C2(O)C=CC4(O)C1OC(O)C1(C)COC3C(O)C2(C)C31O

>  <smiles>  (405) 
[H]OC1([H])OC2([H])C3(O[H])C([H])=C([H])C(O[H])(C4([H])C([H])([H])C([H])(O[H])C([H])(C([H])([H])[H])C5([H])C([H])([H])C([H])([H])C36OC45C([H])(OC6=O)C([H])([H])C2([H])C([H])([H])[H])C2(C([H])([H])[H])C([H])(O[H])C3([H])OC([H])([H])C1(C([H])([H])[H])C32O[H]

$$$$
103:1:1
     RDKit          3D

 80 87  0  0  1  0  0  0  0  0999 V2000
   -1.6667    2.1108    8.8655 C   0  0  0  0  0  0  0  0  0  0  0  0
   -0.6119    1.0338    8.5241 C   0  0  2  0  0  0  0  0  0  0  0  0
    0.8081    1.5158    9.0473 C   0  0  0  0  0  0  0  0  0  0  0  0
    2.0131    0.5295    9.3341 C   0  0  1  0  0  0  0  0  0  0  0  0
    1.3996   -0.5935    9.9352 O   0  0  0  0  0  0  0  0  0  0  0  0
    0.7595   -1.4706    9.1811 C   0  0  0  0  0  0  0  0  0  0  0  0
   -0.1080   -2.2819    9.5547 O   0  0  0  0  0  0  0  0  0  0  0  0
    1.1825   -1.4285    7.6826 C   0  0  2  0  0  0  0  0  0  0  0  0
    2.1136   -2.6805    7.5548 C   0  0  0  0  0  0  0  0  0  0  0  0
    3.3649   -2.5243    8.5633 C   0  0  0  0  0  0  0  0  0  0  0  0
    4.0620   -1.0740    8.5077 C   0  0  1  0  0  0  0  0  0  0  0  0
    5.3515   -1.0979    7.6112 C   0  0  1  0  0  0  0  0  0  0  0  0
    5.2364   -1.9872    6.3486 C   0  0  0  0  0  0  0  0  0  0  0  0
    5.9985    0.3026    7.3720 C   0  0  1  0  0  0  0  0  0  0  0  0
    6.6581    0.3940    6.1171 O   0  0  0  0  0  0  0  0  0  0  0  0
    5.0756    1.5278    7.5237 C   0  0  0  0  0  0  0  0  0  0  0  0
    3.5863    1.3076    7.2080 C   0  0  2  0  0  0  0  0  0  0  0  0
    3.0452    0.1106    8.1971 C   0  0  2  0  0  0  0  0  0  0  0  0
    2.3705   -0.7360    7.3973 O   0  0  0  0  0  0  0  0  0  0  0  0
    3.1450    1.3565    5.6034 C   0  0  1  0  0  0  0  0  0  0  0  0
    3.9964    0.4891    4.8850 O   0  0  0  0  0  0  0  0  0  0  0  0
    1.7594    0.8664    5.6795 C   0  0  0  0  0  0  0  0  0  0  0  0
    1.1358   -0.2951    5.4125 C   0  0  0  0  0  0  0  0  0  0  0  0
    0.2119   -0.7195    6.5635 C   0  0  1  0  0  0  0  0  0  0  0  0
   -0.6727   -1.7222    6.0982 O   0  0  0  0  0  0  0  0  0  0  0  0
   -0.7275    0.5584    7.0203 C   0  0  2  0  0  0  0  0  0  0  0  0
   -0.6366    1.8955    6.4172 O   0  0  0  0  0  0  0  0  0  0  0  0
   -0.6704    2.2919    5.0581 C   0  0  1  0  0  0  0  0  0  0  0  0
   -2.0177    2.4328    4.5782 O   0  0  0  0  0  0  0  0  0  0  0  0
    0.1304    3.6682    4.9569 C   0  0  2  0  0  0  0  0  0  0  0  0
   -0.6855    4.7564    5.7047 C   0  0  0  0  0  0  0  0  0  0  0  0
    0.2716    4.1767    3.5140 C   0  0  0  0  0  0  0  0  0  0  0  0
    1.5143    4.9180    3.4435 O   0  0  0  0  0  0  0  0  0  0  0  0
    2.2930    4.7944    4.6365 C   0  0  2  0  0  0  0  0  0  0  0  0
    3.6030    3.9763    4.6706 C   0  0  1  0  0  0  0  0  0  0  0  0
    4.5193    4.2890    5.6967 O   0  0  0  0  0  0  0  0  0  0  0  0
    2.7684    2.6802    4.7686 C   0  0  1  0  0  0  0  0  0  0  0  0
    2.5636    2.1558    3.2984 C   0  0  0  0  0  0  0  0  0  0  0  0
    1.6239    3.6633    5.3636 C   0  0  2  0  0  0  0  0  0  0  0  0
    1.6554    3.8875    6.7619 O   0  0  0  0  0  0  0  0  0  0  0  0
   -1.4244    3.0849    8.4408 H   0  0  0  0  0  0  0  0  0  0  0  0
   -1.7453    2.2521    9.9493 H   0  0  0  0  0  0  0  0  0  0  0  0
   -2.6595    1.8315    8.5125 H   0  0  0  0  0  0  0  0  0  0  0  0
   -0.9811    0.2430    9.1663 H   0  0  0  0  0  0  0  0  0  0  0  0
    1.1493    2.3695    8.4877 H   0  0  0  0  0  0  0  0  0  0  0  0
    0.6041    1.9531   10.0275 H   0  0  0  0  0  0  0  0  0  0  0  0
    2.6168    1.0094   10.1072 H   0  0  0  0  0  0  0  0  0  0  0  0
    1.5658   -3.6017    7.7952 H   0  0  0  0  0  0  0  0  0  0  0  0
    2.4537   -2.8123    6.5330 H   0  0  0  0  0  0  0  0  0  0  0  0
    3.0468   -2.7172    9.5832 H   0  0  0  0  0  0  0  0  0  0  0  0
    4.0886   -3.3298    8.3840 H   0  0  0  0  0  0  0  0  0  0  0  0
    4.4410   -0.8759    9.5183 H   0  0  0  0  0  0  0  0  0  0  0  0
    6.0965   -1.6245    8.2036 H   0  0  0  0  0  0  0  0  0  0  0  0
    4.3417   -1.7756    5.7707 H   0  0  0  0  0  0  0  0  0  0  0  0
    5.2100   -3.0455    6.6039 H   0  0  0  0  0  0  0  0  0  0  0  0
    6.0959   -1.9047    5.6834 H   0  0  0  0  0  0  0  0  0  0  0  0
    6.7898    0.4324    8.1092 H   0  0  0  0  0  0  0  0  0  0  0  0
    5.9878    0.3579    5.4606 H   0  0  0  0  0  0  0  0  0  0  0  0
    5.1109    1.7931    8.5842 H   0  0  0  0  0  0  0  0  0  0  0  0
    5.4870    2.3920    7.0094 H   0  0  0  0  0  0  0  0  0  0  0  0
    3.1585    2.2093    7.6249 H   0  0  0  0  0  0  0  0  0  0  0  0
    3.6182    0.3632    4.0423 H   0  0  0  0  0  0  0  0  0  0  0  0
    1.4107    1.3994    6.5146 H   0  0  0  0  0  0  0  0  0  0  0  0
    1.5732   -1.0569    4.7829 H   0  0  0  0  0  0  0  0  0  0  0  0
   -0.1675   -2.3598    5.6352 H   0  0  0  0  0  0  0  0  0  0  0  0
   -1.7639    0.2569    6.8543 H   0  0  0  0  0  0  0  0  0  0  0  0
   -0.2380    1.5504    4.3925 H   0  0  0  0  0  0  0  0  0  0  0  0
   -2.2658    1.6324    4.1682 H   0  0  0  0  0  0  0  0  0  0  0  0
   -0.1842    5.7276    5.6643 H   0  0  0  0  0  0  0  0  0  0  0  0
   -0.8470    4.5189    6.7541 H   0  0  0  0  0  0  0  0  0  0  0  0
   -1.6618    4.8838    5.2428 H   0  0  0  0  0  0  0  0  0  0  0  0
    0.2863    3.3305    2.8261 H   0  0  0  0  0  0  0  0  0  0  0  0
   -0.5660    4.7956    3.1859 H   0  0  0  0  0  0  0  0  0  0  0  0
    2.3385    5.7204    5.2108 H   0  0  0  0  0  0  0  0  0  0  0  0
    4.1095    4.0501    3.7139 H   0  0  0  0  0  0  0  0  0  0  0  0
    4.9047    5.1064    5.4646 H   0  0  0  0  0  0  0  0  0  0  0  0
    2.4588    2.9630    2.5626 H   0  0  0  0  0  0  0  0  0  0  0  0
    1.6953    1.5128    3.1641 H   0  0  0  0  0  0  0  0  0  0  0  0
    3.4229    1.6354    2.8924 H   0  0  0  0  0  0  0  0  0  0  0  0
    1.0734    3.2631    7.1325 H   0  0  0  0  0  0  0  0  0  0  0  0
  1  2  1  0
  1 41  1  0
  1 42  1  0
  1 43  1  0
  2 26  1  0
  2  3  1  0
  2 44  1  1
  3  4  1  0
  3 45  1  0
  3 46  1  0
  4 18  1  0
  4  5  1  0
  4 47  1  1
  5  6  1  0
  6  7  2  0
  6  8  1  0
  8 19  1  0
  8 24  1  0
  8  9  1  6
  9 10  1  0
  9 48  1  0
  9 49  1  0
 10 11  1  0
 10 50  1  0
 10 51  1  0
 11 18  1  0
 11 12  1  0
 11 52  1  1
 12 13  1  0
 12 14  1  0
 12 53  1  1
 13 54  1  0
 13 55  1  0
 13 56  1  0
 14 15  1  0
 14 16  1  0
 14 57  1  1
 15 58  1  0
 16 17  1  0
 16 59  1  0
 16 60  1  0
 17 18  1  0
 17 20  1  0
 17 61  1  1
 18 19  1  6
 20 37  1  0
 20 21  1  6
 20 22  1  0
 21 62  1  0
 22 23  2  3
 22 63  1  0
 23 24  1  0
 23 64  1  0
 24 25  1  6
 24 26  1  0
 25 65  1  0
 26 27  1  0
 26 66  1  1
 27 28  1  0
 28 29  1  0
 28 30  1  0
 28 67  1  6
 29 68  1  0
 30 39  1  0
 30 31  1  1
 30 32  1  0
 31 69  1  0
 31 70  1  0
 31 71  1  0
 32 33  1  0
 32 72  1  0
 32 73  1  0
 33 34  1  0
 34 39  1  0
 34 35  1  0
 34 74  1  1
 35 36  1  0
 35 37  1  0
 35 75  1  6
 36 76  1  0
 37 38  1  6
 37 39  1  0
 38 77  1  0
 38 78  1  0
 38 79  1  0
 39 40  1  1
 40 80  1  0
M  END
>  <i_m_ct_stereo_status>  (406) 
1

>  <s_m_source_file>  (406) 
/var/tmp/pbs.5076255.sched01/tmpt95b3wv2/135g3gtwtb2.sdf

>  <i_m_source_file_index>  (406) 
28

>  <i_lp_mmshare_version>  (406) 
48012

>  <i_f3d_flags>  (406) 
2

>  <s_epik_input>  (406) 
W0NAXTEyM1tDQEBdNChbT0hdKVtDQEhdNVtDQEhdKFtDSDNdKVtDSDJdW0NAQEhdKE9DMT1PKVtDQF02KE8zKVtDQEBIXShbQ0gyXVtDSDJdMilbQ0BASF0oW0NIM10pW0NAQEhdKFtPSF0pW0NIMl1bQ0BIXTZDKFtPSF0pKC9bQ0hdPVtDSF1cNClbQ0BAXTcoW0NIM10pW0NAQF04KFtPSF0pW0NAXShbQ0gzXSkoW0NAQEhdKE81KVtPSF0pW0NIMl1PW0NASF04W0NASF03W09IXQ==

>  <s_epik_cmdline>  (406) 
J2VwaWtfcHl0aG9uJywgJy1waHQnLCAnMi4wJywgJy1waCcsICc3LjAnLCAnLXRuJywgJzgnLCAnLW1hJywgJzIwMCcsICctaW1hZScsICc8aW5maWxlLm1hZT4nLCAnLW9tYWUnLCAnPG91dGZpbGUubWFlPic=

>  <r_lp_tautomer_probability>  (406) 
1

>  <r_epik_Ionization_Penalty>  (406) 
3.11922e-06

>  <r_epik_Ionization_Penalty_Charging>  (406) 
0

>  <r_epik_Ionization_Penalty_Neutral>  (406) 
3.11922e-06

>  <r_epik_State_Penalty>  (406) 
-0

>  <r_epik_Charging_Adjusted_Penalty>  (406) 
0

>  <i_epik_Tot_Q>  (406) 
0

>  <i_epik_Tot_abs_Q>  (406) 
0

>  <s_epik_Chemistry_Notes>  (406) 
This compound has an ester and may undergo hydrolysis at high or low pH. This compound contains an acetal/aminal-like group ( X-CH(R)-Y where X, Y are N, S, or O) that may be acid/base labile, releasing an aldehyde.

>  <s_lp_Force_Field>  (406) 
OPLS3e

>  <r_lp_Energy>  (406) 
268.046

>  <b_lp_Chiralities_Consistent>  (406) 
0

>  <s_lp_Variant>  (406) 
103:0-2

>  <s_i_glide_gridfile>  (406) 
pfpi4k_grid

>  <i_i_glide_lignum>  (406) 
28

>  <i_i_glide_rotatable_bonds>  (406) 
6

>  <r_i_docking_score>  (406) 
-2.7676

>  <r_i_glide_ligand_efficiency>  (406) 
-0.06919

>  <r_i_glide_ligand_efficiency_sa>  (406) 
-0.236627

>  <r_i_glide_ligand_efficiency_ln>  (406) 
-0.590248

>  <r_i_glide_gscore>  (406) 
-2.7676

>  <r_i_glide_lipo>  (406) 
-0.00861825

>  <r_i_glide_hbond>  (406) 
-0.16

>  <r_i_glide_metal>  (406) 
-0

>  <r_i_glide_rewards>  (406) 
-1

>  <r_i_glide_evdw>  (406) 
-18.0097

>  <r_i_glide_ecoul>  (406) 
-4.37243

>  <r_i_glide_erotb>  (406) 
0

>  <r_i_glide_esite>  (406) 
-0.0426328

>  <r_i_glide_emodel>  (406) 
-35.9959

>  <r_i_glide_energy>  (406) 
-22.3822

>  <r_i_glide_einternal>  (406) 
3.06551

>  <r_i_glide_intrahb_reward>  (406) 
-1

>  <i_i_glide_confnum>  (406) 
1

>  <i_i_glide_posenum>  (406) 
31

>  <r_i_glide_eff_state_penalty>  (406) 
0

>  <ligand_id>  (406) 
103

>  <original_smiles>  (406) 
CC1CC2OC(=O)C34CCC5C(C)C(O)CC(C25O3)C2(O)C=CC4(O)C1OC(O)C1(C)COC3C(O)C2(C)C31O

>  <smiles>  (406) 
[H]OC1([H])OC2([H])C3(O[H])C([H])=C([H])C(O[H])(C4([H])C([H])([H])C([H])(O[H])C([H])(C([H])([H])[H])C5([H])C([H])([H])C([H])([H])C36OC45C([H])(OC6=O)C([H])([H])C2([H])C([H])([H])[H])C2(C([H])([H])[H])C([H])(O[H])C3([H])OC([H])([H])C1(C([H])([H])[H])C32O[H]

$$$$
103:1:2
     RDKit          3D

 80 87  0  0  1  0  0  0  0  0999 V2000
   -2.5418    3.2145    5.7508 C   0  0  0  0  0  0  0  0  0  0  0  0
   -1.4128    2.1894    5.5059 C   0  0  2  0  0  0  0  0  0  0  0  0
   -0.7053    1.8715    6.8958 C   0  0  0  0  0  0  0  0  0  0  0  0
    0.1423    0.5628    7.1650 C   0  0  1  0  0  0  0  0  0  0  0  0
   -0.6036   -0.4630    6.5225 O   0  0  0  0  0  0  0  0  0  0  0  0
   -0.5090   -0.5747    5.1838 C   0  0  0  0  0  0  0  0  0  0  0  0
   -1.3343   -1.1840    4.4945 O   0  0  0  0  0  0  0  0  0  0  0  0
    0.7545    0.0849    4.5931 C   0  0  2  0  0  0  0  0  0  0  0  0
    1.6756   -1.1466    4.3036 C   0  0  0  0  0  0  0  0  0  0  0  0
    1.9873   -1.9292    5.6815 C   0  0  0  0  0  0  0  0  0  0  0  0
    2.3951   -0.9575    6.9026 C   0  0  1  0  0  0  0  0  0  0  0  0
    3.9549   -0.9213    7.0955 C   0  0  1  0  0  0  0  0  0  0  0  0
    4.7708   -0.9552    5.7781 C   0  0  0  0  0  0  0  0  0  0  0  0
    4.4553    0.1182    8.1505 C   0  0  1  0  0  0  0  0  0  0  0  0
    5.7668    0.5914    7.9045 O   0  0  0  0  0  0  0  0  0  0  0  0
    3.5229    1.3127    8.4339 C   0  0  0  0  0  0  0  0  0  0  0  0
    2.6166    1.7683    7.2750 C   0  0  2  0  0  0  0  0  0  0  0  0
    1.6981    0.4797    6.8378 C   0  0  2  0  0  0  0  0  0  0  0  0
    1.7729    0.4148    5.4954 O   0  0  0  0  0  0  0  0  0  0  0  0
    3.2769    2.7633    6.1284 C   0  0  1  0  0  0  0  0  0  0  0  0
    4.4632    2.1592    5.6654 O   0  0  0  0  0  0  0  0  0  0  0  0
    2.2307    2.7607    5.0938 C   0  0  0  0  0  0  0  0  0  0  0  0
    2.0393    2.1669    3.8999 C   0  0  0  0  0  0  0  0  0  0  0  0
    0.6430    1.5213    3.8047 C   0  0  1  0  0  0  0  0  0  0  0  0
    0.3761    1.2172    2.4508 O   0  0  0  0  0  0  0  0  0  0  0  0
   -0.4986    2.6080    4.2876 C   0  0  2  0  0  0  0  0  0  0  0  0
   -0.1783    3.9594    4.7782 O   0  0  0  0  0  0  0  0  0  0  0  0
    0.6093    4.9842    4.1997 C   0  0  1  0  0  0  0  0  0  0  0  0
   -0.1431    5.7301    3.2773 O   0  0  0  0  0  0  0  0  0  0  0  0
    1.1608    5.8934    5.4005 C   0  0  2  0  0  0  0  0  0  0  0  0
   -0.0522    6.6377    6.0315 C   0  0  0  0  0  0  0  0  0  0  0  0
    2.1389    6.9948    4.9346 C   0  0  0  0  0  0  0  0  0  0  0  0
    3.0553    7.2380    6.0330 O   0  0  0  0  0  0  0  0  0  0  0  0
    2.9026    6.2810    7.0992 C   0  0  2  0  0  0  0  0  0  0  0  0
    3.9753    5.1973    7.3757 C   0  0  1  0  0  0  0  0  0  0  0  0
    3.9701    4.6436    8.6728 O   0  0  0  0  0  0  0  0  0  0  0  0
    3.3966    4.3686    6.2052 C   0  0  1  0  0  0  0  0  0  0  0  0
    4.2331    4.7660    4.9384 C   0  0  0  0  0  0  0  0  0  0  0  0
    2.0405    5.2040    6.4881 C   0  0  2  0  0  0  0  0  0  0  0  0
    1.1588    4.6718    7.4545 O   0  0  0  0  0  0  0  0  0  0  0  0
   -2.1761    4.1335    6.2093 H   0  0  0  0  0  0  0  0  0  0  0  0
   -3.3059    2.8113    6.4198 H   0  0  0  0  0  0  0  0  0  0  0  0
   -3.0356    3.4720    4.8140 H   0  0  0  0  0  0  0  0  0  0  0  0
   -2.0251    1.3527    5.1828 H   0  0  0  0  0  0  0  0  0  0  0  0
   -0.1754    2.7408    7.2481 H   0  0  0  0  0  0  0  0  0  0  0  0
   -1.5245    1.7956    7.6124 H   0  0  0  0  0  0  0  0  0  0  0  0
    0.0625    0.3646    8.2355 H   0  0  0  0  0  0  0  0  0  0  0  0
    1.2077   -1.8317    3.5899 H   0  0  0  0  0  0  0  0  0  0  0  0
    2.6043   -0.8370    3.8223 H   0  0  0  0  0  0  0  0  0  0  0  0
    1.1078   -2.5006    5.9823 H   0  0  0  0  0  0  0  0  0  0  0  0
    2.7330   -2.7031    5.5162 H   0  0  0  0  0  0  0  0  0  0  0  0
    2.0256   -1.4265    7.8140 H   0  0  0  0  0  0  0  0  0  0  0  0
    4.2056   -1.8803    7.5471 H   0  0  0  0  0  0  0  0  0  0  0  0
    4.4311   -0.2136    5.0613 H   0  0  0  0  0  0  0  0  0  0  0  0
    4.7015   -1.9251    5.2887 H   0  0  0  0  0  0  0  0  0  0  0  0
    5.8399   -0.8101    5.9324 H   0  0  0  0  0  0  0  0  0  0  0  0
    4.5555   -0.4112    9.1008 H   0  0  0  0  0  0  0  0  0  0  0  0
    6.0488    1.1059    8.6463 H   0  0  0  0  0  0  0  0  0  0  0  0
    2.8465    0.9783    9.2228 H   0  0  0  0  0  0  0  0  0  0  0  0
    4.0770    2.1366    8.8791 H   0  0  0  0  0  0  0  0  0  0  0  0
    1.9137    2.4017    7.8024 H   0  0  0  0  0  0  0  0  0  0  0  0
    4.6046    2.4368    4.7715 H   0  0  0  0  0  0  0  0  0  0  0  0
    1.3738    2.8855    5.7012 H   0  0  0  0  0  0  0  0  0  0  0  0
    2.8502    1.7305    3.3367 H   0  0  0  0  0  0  0  0  0  0  0  0
    0.3328    2.0238    1.9532 H   0  0  0  0  0  0  0  0  0  0  0  0
   -1.1596    2.7714    3.4318 H   0  0  0  0  0  0  0  0  0  0  0  0
    1.4403    4.5878    3.6183 H   0  0  0  0  0  0  0  0  0  0  0  0
   -0.0544    5.3190    2.4168 H   0  0  0  0  0  0  0  0  0  0  0  0
    0.2581    7.2752    6.8600 H   0  0  0  0  0  0  0  0  0  0  0  0
   -0.8033    5.9514    6.4144 H   0  0  0  0  0  0  0  0  0  0  0  0
   -0.5341    7.2894    5.3071 H   0  0  0  0  0  0  0  0  0  0  0  0
    2.6842    6.6853    4.0426 H   0  0  0  0  0  0  0  0  0  0  0  0
    1.6269    7.9173    4.6494 H   0  0  0  0  0  0  0  0  0  0  0  0
    2.4839    6.7288    8.0005 H   0  0  0  0  0  0  0  0  0  0  0  0
    4.9785    5.5800    7.1796 H   0  0  0  0  0  0  0  0  0  0  0  0
    3.5067    3.8192    8.6220 H   0  0  0  0  0  0  0  0  0  0  0  0
    4.5286    5.8115    4.9211 H   0  0  0  0  0  0  0  0  0  0  0  0
    3.7321    4.5623    3.9924 H   0  0  0  0  0  0  0  0  0  0  0  0
    5.2050    4.2828    4.9125 H   0  0  0  0  0  0  0  0  0  0  0  0
    1.6624    4.5660    8.2498 H   0  0  0  0  0  0  0  0  0  0  0  0
  1  2  1  0
  1 41  1  0
  1 42  1  0
  1 43  1  0
  2 26  1  0
  2  3  1  0
  2 44  1  6
  3  4  1  0
  3 45  1  0
  3 46  1  0
  4 18  1  0
  4  5  1  0
  4 47  1  1
  5  6  1  0
  6  7  2  0
  6  8  1  0
  8 19  1  0
  8 24  1  0
  8  9  1  6
  9 10  1  0
  9 48  1  0
  9 49  1  0
 10 11  1  0
 10 50  1  0
 10 51  1  0
 11 18  1  0
 11 12  1  0
 11 52  1  1
 12 13  1  0
 12 14  1  0
 12 53  1  1
 13 54  1  0
 13 55  1  0
 13 56  1  0
 14 15  1  0
 14 16  1  0
 14 57  1  1
 15 58  1  0
 16 17  1  0
 16 59  1  0
 16 60  1  0
 17 18  1  0
 17 20  1  0
 17 61  1  1
 18 19  1  6
 20 37  1  0
 20 21  1  6
 20 22  1  0
 21 62  1  0
 22 23  2  3
 22 63  1  0
 23 24  1  0
 23 64  1  0
 24 25  1  6
 24 26  1  0
 25 65  1  0
 26 27  1  0
 26 66  1  6
 27 28  1  0
 28 29  1  0
 28 30  1  0
 28 67  1  6
 29 68  1  0
 30 39  1  0
 30 31  1  1
 30 32  1  0
 31 69  1  0
 31 70  1  0
 31 71  1  0
 32 33  1  0
 32 72  1  0
 32 73  1  0
 33 34  1  0
 34 39  1  0
 34 35  1  0
 34 74  1  1
 35 36  1  0
 35 37  1  0
 35 75  1  6
 36 76  1  0
 37 38  1  6
 37 39  1  0
 38 77  1  0
 38 78  1  0
 38 79  1  0
 39 40  1  1
 40 80  1  0
M  END
>  <i_m_ct_stereo_status>  (407) 
1

>  <s_m_source_file>  (407) 
/var/tmp/pbs.5076255.sched01/tmpt95b3wv2/135g3gtwtb2.sdf

>  <i_m_source_file_index>  (407) 
28

>  <i_lp_mmshare_version>  (407) 
48012

>  <i_f3d_flags>  (407) 
2

>  <s_epik_input>  (407) 
W0NAXTEyM1tDQEBdNChbT0hdKVtDQEhdNVtDQEhdKFtDSDNdKVtDSDJdW0NAQEhdKE9DMT1PKVtDQF02KE8zKVtDQEBIXShbQ0gyXVtDSDJdMilbQ0BASF0oW0NIM10pW0NAQEhdKFtPSF0pW0NIMl1bQ0BIXTZDKFtPSF0pKC9bQ0hdPVtDSF1cNClbQ0BAXTcoW0NIM10pW0NAQF04KFtPSF0pW0NAXShbQ0gzXSkoW0NAQEhdKE81KVtPSF0pW0NIMl1PW0NASF04W0NASF03W09IXQ==

>  <s_epik_cmdline>  (407) 
J2VwaWtfcHl0aG9uJywgJy1waHQnLCAnMi4wJywgJy1waCcsICc3LjAnLCAnLXRuJywgJzgnLCAnLW1hJywgJzIwMCcsICctaW1hZScsICc8aW5maWxlLm1hZT4nLCAnLW9tYWUnLCAnPG91dGZpbGUubWFlPic=

>  <r_lp_tautomer_probability>  (407) 
1

>  <r_epik_Ionization_Penalty>  (407) 
3.11922e-06

>  <r_epik_Ionization_Penalty_Charging>  (407) 
0

>  <r_epik_Ionization_Penalty_Neutral>  (407) 
3.11922e-06

>  <r_epik_State_Penalty>  (407) 
-0

>  <r_epik_Charging_Adjusted_Penalty>  (407) 
0

>  <i_epik_Tot_Q>  (407) 
0

>  <i_epik_Tot_abs_Q>  (407) 
0

>  <s_epik_Chemistry_Notes>  (407) 
This compound has an ester and may undergo hydrolysis at high or low pH. This compound contains an acetal/aminal-like group ( X-CH(R)-Y where X, Y are N, S, or O) that may be acid/base labile, releasing an aldehyde.

>  <s_lp_Force_Field>  (407) 
OPLS3e

>  <r_lp_Energy>  (407) 
268.046

>  <b_lp_Chiralities_Consistent>  (407) 
0

>  <s_lp_Variant>  (407) 
103:0-2

>  <s_i_glide_gridfile>  (407) 
pfpi4k_grid

>  <i_i_glide_lignum>  (407) 
28

>  <i_i_glide_rotatable_bonds>  (407) 
6

>  <r_i_docking_score>  (407) 
-1.87885

>  <r_i_glide_ligand_efficiency>  (407) 
-0.0469713

>  <r_i_glide_ligand_efficiency_sa>  (407) 
-0.16064

>  <r_i_glide_ligand_efficiency_ln>  (407) 
-0.400704

>  <r_i_glide_gscore>  (407) 
-1.87885

>  <r_i_glide_lipo>  (407) 
-0.0372589

>  <r_i_glide_hbond>  (407) 
-0.014886

>  <r_i_glide_metal>  (407) 
-0

>  <r_i_glide_rewards>  (407) 
0

>  <r_i_glide_evdw>  (407) 
-20.3982

>  <r_i_glide_ecoul>  (407) 
-4.83932

>  <r_i_glide_erotb>  (407) 
0

>  <r_i_glide_esite>  (407) 
-0.0809

>  <r_i_glide_emodel>  (407) 
-27.2615

>  <r_i_glide_energy>  (407) 
-25.2375

>  <r_i_glide_einternal>  (407) 
2.09296

>  <r_i_glide_intrahb_reward>  (407) 
-0

>  <i_i_glide_confnum>  (407) 
1

>  <i_i_glide_posenum>  (407) 
33

>  <r_i_glide_eff_state_penalty>  (407) 
0

>  <ligand_id>  (407) 
103

>  <original_smiles>  (407) 
CC1CC2OC(=O)C34CCC5C(C)C(O)CC(C25O3)C2(O)C=CC4(O)C1OC(O)C1(C)COC3C(O)C2(C)C31O

>  <smiles>  (407) 
[H]OC1([H])OC2([H])C3(O[H])C([H])=C([H])C(O[H])(C4([H])C([H])([H])C([H])(O[H])C([H])(C([H])([H])[H])C5([H])C([H])([H])C([H])([H])C36OC45C([H])(OC6=O)C([H])([H])C2([H])C([H])([H])[H])C2(C([H])([H])[H])C([H])(O[H])C3([H])OC([H])([H])C1(C([H])([H])[H])C32O[H]

$$$$
103:2:0
     RDKit          3D

 80 87  0  0  1  0  0  0  0  0999 V2000
    1.8473    0.0566    9.4059 C   0  0  0  0  0  0  0  0  0  0  0  0
    1.8347   -0.8626    8.1636 C   0  0  2  0  0  0  0  0  0  0  0  0
    3.1640   -0.6264    7.3251 C   0  0  0  0  0  0  0  0  0  0  0  0
    3.6294   -1.6370    6.2113 C   0  0  1  0  0  0  0  0  0  0  0  0
    3.4920   -2.9389    6.8086 O   0  0  0  0  0  0  0  0  0  0  0  0
    2.2617   -3.5329    6.8563 C   0  0  0  0  0  0  0  0  0  0  0  0
    1.9733   -4.4992    7.5608 O   0  0  0  0  0  0  0  0  0  0  0  0
    1.2541   -2.9268    5.8548 C   0  0  2  0  0  0  0  0  0  0  0  0
    1.1211   -3.8571    4.6257 C   0  0  0  0  0  0  0  0  0  0  0  0
    2.5134   -4.0608    3.9699 C   0  0  0  0  0  0  0  0  0  0  0  0
    3.3355   -2.7355    3.7890 C   0  0  1  0  0  0  0  0  0  0  0  0
    3.7160   -2.3199    2.3159 C   0  0  1  0  0  0  0  0  0  0  0  0
    2.8859   -2.9861    1.1889 C   0  0  0  0  0  0  0  0  0  0  0  0
    4.0322   -0.8017    2.0935 C   0  0  1  0  0  0  0  0  0  0  0  0
    3.5351   -0.2853    0.8741 O   0  0  0  0  0  0  0  0  0  0  0  0
    3.6529    0.1768    3.2228 C   0  0  0  0  0  0  0  0  0  0  0  0
    2.4864   -0.2305    4.1545 C   0  0  2  0  0  0  0  0  0  0  0  0
    2.9272   -1.5945    4.7990 C   0  0  2  0  0  0  0  0  0  0  0  0
    1.7218   -1.7575    5.3308 O   0  0  0  0  0  0  0  0  0  0  0  0
    0.9701   -0.0107    3.5686 C   0  0  1  0  0  0  0  0  0  0  0  0
    1.1022   -0.6423    2.3129 O   0  0  0  0  0  0  0  0  0  0  0  0
   -0.3198   -0.7192    4.1297 C   0  0  0  0  0  0  0  0  0  0  0  0
   -0.7138   -1.4915    5.1824 C   0  0  0  0  0  0  0  0  0  0  0  0
    0.0435   -2.0841    6.3873 C   0  0  1  0  0  0  0  0  0  0  0  0
   -0.8134   -3.0586    6.9779 O   0  0  0  0  0  0  0  0  0  0  0  0
    0.3824   -0.9594    7.5044 C   0  0  2  0  0  0  0  0  0  0  0  0
   -0.3264    0.3118    7.6756 O   0  0  0  0  0  0  0  0  0  0  0  0
   -1.1512    1.0702    6.7964 C   0  0  1  0  0  0  0  0  0  0  0  0
   -2.1760    1.6634    7.5587 O   0  0  0  0  0  0  0  0  0  0  0  0
   -0.3215    2.1789    6.0022 C   0  0  2  0  0  0  0  0  0  0  0  0
    1.0718    2.2221    6.6450 C   0  0  0  0  0  0  0  0  0  0  0  0
   -0.7604    3.6430    6.2034 C   0  0  0  0  0  0  0  0  0  0  0  0
    0.0238    4.3159    5.2032 O   0  0  0  0  0  0  0  0  0  0  0  0
    0.0098    3.5345    4.0012 C   0  0  1  0  0  0  0  0  0  0  0  0
    1.2844    2.8390    3.4456 C   0  0  1  0  0  0  0  0  0  0  0  0
    2.4954    2.9198    4.1657 O   0  0  0  0  0  0  0  0  0  0  0  0
    0.4617    1.5083    3.3291 C   0  0  1  0  0  0  0  0  0  0  0  0
   -0.2243    1.5346    1.9146 C   0  0  0  0  0  0  0  0  0  0  0  0
   -0.4701    2.1574    4.4427 C   0  0  1  0  0  0  0  0  0  0  0  0
   -1.8503    1.9571    4.1901 O   0  0  0  0  0  0  0  0  0  0  0  0
    1.9286    1.1112    9.1540 H   0  0  0  0  0  0  0  0  0  0  0  0
    2.7012   -0.1708   10.0471 H   0  0  0  0  0  0  0  0  0  0  0  0
    0.9540   -0.0717   10.0204 H   0  0  0  0  0  0  0  0  0  0  0  0
    1.9676   -1.8183    8.6655 H   0  0  0  0  0  0  0  0  0  0  0  0
    3.2866    0.3944    6.9847 H   0  0  0  0  0  0  0  0  0  0  0  0
    3.9565   -0.6914    8.0704 H   0  0  0  0  0  0  0  0  0  0  0  0
    4.6961   -1.4729    6.0475 H   0  0  0  0  0  0  0  0  0  0  0  0
    0.7027   -4.8255    4.9177 H   0  0  0  0  0  0  0  0  0  0  0  0
    0.4412   -3.4461    3.8815 H   0  0  0  0  0  0  0  0  0  0  0  0
    3.0952   -4.7460    4.5908 H   0  0  0  0  0  0  0  0  0  0  0  0
    2.3806   -4.6272    3.0517 H   0  0  0  0  0  0  0  0  0  0  0  0
    4.3165   -3.0219    4.1706 H   0  0  0  0  0  0  0  0  0  0  0  0
    4.6925   -2.7836    2.1534 H   0  0  0  0  0  0  0  0  0  0  0  0
    1.8143   -2.8636    1.3402 H   0  0  0  0  0  0  0  0  0  0  0  0
    3.0958   -4.0522    1.1287 H   0  0  0  0  0  0  0  0  0  0  0  0
    3.1321   -2.6064    0.1986 H   0  0  0  0  0  0  0  0  0  0  0  0
    5.1117   -0.7076    1.9731 H   0  0  0  0  0  0  0  0  0  0  0  0
    2.6114   -0.4976    0.8151 H   0  0  0  0  0  0  0  0  0  0  0  0
    4.5337    0.2731    3.8581 H   0  0  0  0  0  0  0  0  0  0  0  0
    3.5032    1.1638    2.7953 H   0  0  0  0  0  0  0  0  0  0  0  0
    2.5627    0.4890    4.9462 H   0  0  0  0  0  0  0  0  0  0  0  0
    0.9524    0.0016    1.6328 H   0  0  0  0  0  0  0  0  0  0  0  0
   -1.1612   -0.5233    3.4829 H   0  0  0  0  0  0  0  0  0  0  0  0
   -1.7551   -1.7738    5.1731 H   0  0  0  0  0  0  0  0  0  0  0  0
   -0.2768   -3.7637    7.3177 H   0  0  0  0  0  0  0  0  0  0  0  0
   -0.1183   -1.4046    8.3645 H   0  0  0  0  0  0  0  0  0  0  0  0
   -1.7178    0.4344    6.1354 H   0  0  0  0  0  0  0  0  0  0  0  0
   -1.7863    2.3235    8.1125 H   0  0  0  0  0  0  0  0  0  0  0  0
    1.7075    3.0552    6.3605 H   0  0  0  0  0  0  0  0  0  0  0  0
    1.5698    1.2975    6.4561 H   0  0  0  0  0  0  0  0  0  0  0  0
    0.9758    2.3478    7.7223 H   0  0  0  0  0  0  0  0  0  0  0  0
   -1.8189    3.7983    6.0034 H   0  0  0  0  0  0  0  0  0  0  0  0
   -0.5564    4.0313    7.2018 H   0  0  0  0  0  0  0  0  0  0  0  0
   -0.6053    4.0028    3.2315 H   0  0  0  0  0  0  0  0  0  0  0  0
    1.4951    3.2488    2.4575 H   0  0  0  0  0  0  0  0  0  0  0  0
    3.1929    2.9163    3.5270 H   0  0  0  0  0  0  0  0  0  0  0  0
   -0.7173    2.4804    1.7068 H   0  0  0  0  0  0  0  0  0  0  0  0
   -0.9964    0.7780    1.7799 H   0  0  0  0  0  0  0  0  0  0  0  0
    0.4960    1.4343    1.1001 H   0  0  0  0  0  0  0  0  0  0  0  0
   -1.9644    1.9842    3.2501 H   0  0  0  0  0  0  0  0  0  0  0  0
  1  2  1  0
  1 41  1  0
  1 42  1  0
  1 43  1  0
  2 26  1  0
  2  3  1  0
  2 44  1  1
  3  4  1  0
  3 45  1  0
  3 46  1  0
  4 18  1  0
  4  5  1  0
  4 47  1  6
  5  6  1  0
  6  7  2  0
  6  8  1  0
  8 19  1  0
  8 24  1  0
  8  9  1  6
  9 10  1  0
  9 48  1  0
  9 49  1  0
 10 11  1  0
 10 50  1  0
 10 51  1  0
 11 18  1  0
 11 12  1  0
 11 52  1  1
 12 13  1  0
 12 14  1  0
 12 53  1  6
 13 54  1  0
 13 55  1  0
 13 56  1  0
 14 15  1  0
 14 16  1  0
 14 57  1  6
 15 58  1  0
 16 17  1  0
 16 59  1  0
 16 60  1  0
 17 18  1  0
 17 20  1  0
 17 61  1  1
 18 19  1  1
 20 37  1  0
 20 21  1  6
 20 22  1  0
 21 62  1  0
 22 23  2  3
 22 63  1  0
 23 24  1  0
 23 64  1  0
 24 25  1  1
 24 26  1  0
 25 65  1  0
 26 27  1  0
 26 66  1  1
 27 28  1  0
 28 29  1  0
 28 30  1  0
 28 67  1  6
 29 68  1  0
 30 39  1  0
 30 31  1  6
 30 32  1  0
 31 69  1  0
 31 70  1  0
 31 71  1  0
 32 33  1  0
 32 72  1  0
 32 73  1  0
 33 34  1  0
 34 39  1  0
 34 35  1  0
 34 74  1  6
 35 36  1  0
 35 37  1  0
 35 75  1  6
 36 76  1  0
 37 38  1  6
 37 39  1  0
 38 77  1  0
 38 78  1  0
 38 79  1  0
 39 40  1  1
 40 80  1  0
M  END
>  <i_m_ct_stereo_status>  (408) 
1

>  <s_m_source_file>  (408) 
/var/tmp/pbs.5076255.sched01/tmpt95b3wv2/135g3gtwtb2.sdf

>  <i_m_source_file_index>  (408) 
29

>  <i_lp_mmshare_version>  (408) 
48012

>  <i_f3d_flags>  (408) 
0

>  <s_epik_input>  (408) 
W0NAXTEyM1tDQEBdNChbT0hdKVtDQEhdNVtDQEhdKFtDSDNdKVtDSDJdW0NAQEhdKE9DMT1PKVtDQF02KE8zKVtDQEBIXShbQ0gyXVtDSDJdMilbQ0BASF0oW0NIM10pW0NAQEhdKFtPSF0pW0NIMl1bQ0BIXTZDKFtPSF0pKC9bQ0hdPVtDSF1cNClbQ0BAXTcoW0NIM10pW0NAQF04KFtPSF0pW0NAXShbQ0gzXSkoW0NAQEhdKE81KVtPSF0pW0NIMl1PW0NASF04W0NASF03W09IXQ==

>  <s_epik_cmdline>  (408) 
J2VwaWtfcHl0aG9uJywgJy1waHQnLCAnMi4wJywgJy1waCcsICc3LjAnLCAnLXRuJywgJzgnLCAnLW1hJywgJzIwMCcsICctaW1hZScsICc8aW5maWxlLm1hZT4nLCAnLW9tYWUnLCAnPG91dGZpbGUubWFlPic=

>  <r_lp_tautomer_probability>  (408) 
1

>  <r_epik_Ionization_Penalty>  (408) 
3.11922e-06

>  <r_epik_Ionization_Penalty_Charging>  (408) 
0

>  <r_epik_Ionization_Penalty_Neutral>  (408) 
3.11922e-06

>  <r_epik_State_Penalty>  (408) 
-0

>  <r_epik_Charging_Adjusted_Penalty>  (408) 
0

>  <i_epik_Tot_Q>  (408) 
0

>  <i_epik_Tot_abs_Q>  (408) 
0

>  <s_epik_Chemistry_Notes>  (408) 
This compound has an ester and may undergo hydrolysis at high or low pH. This compound contains an acetal/aminal-like group ( X-CH(R)-Y where X, Y are N, S, or O) that may be acid/base labile, releasing an aldehyde.

>  <s_lp_Force_Field>  (408) 
OPLS3e

>  <r_lp_Energy>  (408) 
234.384

>  <b_lp_Chiralities_Consistent>  (408) 
1

>  <s_lp_Variant>  (408) 
103:0-3

>  <s_i_glide_gridfile>  (408) 
pfpi4k_grid

>  <i_i_glide_lignum>  (408) 
29

>  <i_i_glide_rotatable_bonds>  (408) 
6

>  <r_i_docking_score>  (408) 
-2.28917

>  <r_i_glide_ligand_efficiency>  (408) 
-0.0572292

>  <r_i_glide_ligand_efficiency_sa>  (408) 
-0.195721

>  <r_i_glide_ligand_efficiency_ln>  (408) 
-0.488212

>  <r_i_glide_gscore>  (408) 
-2.28917

>  <r_i_glide_lipo>  (408) 
-0.0436218

>  <r_i_glide_hbond>  (408) 
-0.000548104

>  <r_i_glide_metal>  (408) 
-0

>  <r_i_glide_rewards>  (408) 
0

>  <r_i_glide_evdw>  (408) 
-23.7254

>  <r_i_glide_ecoul>  (408) 
-6.71749

>  <r_i_glide_erotb>  (408) 
0

>  <r_i_glide_esite>  (408) 
-0.0511059

>  <r_i_glide_emodel>  (408) 
-34.1152

>  <r_i_glide_energy>  (408) 
-30.4429

>  <r_i_glide_einternal>  (408) 
2.69604

>  <r_i_glide_intrahb_reward>  (408) 
-0

>  <i_i_glide_confnum>  (408) 
1

>  <i_i_glide_posenum>  (408) 
20

>  <r_i_glide_eff_state_penalty>  (408) 
0

>  <ligand_id>  (408) 
103

>  <original_smiles>  (408) 
CC1CC2OC(=O)C34CCC5C(C)C(O)CC(C25O3)C2(O)C=CC4(O)C1OC(O)C1(C)COC3C(O)C2(C)C31O

>  <smiles>  (408) 
[H]OC1([H])OC2([H])C3(O[H])C([H])=C([H])C(O[H])(C4([H])C([H])([H])C([H])(O[H])C([H])(C([H])([H])[H])C5([H])C([H])([H])C([H])([H])C36OC45C([H])(OC6=O)C([H])([H])C2([H])C([H])([H])[H])C2(C([H])([H])[H])C([H])(O[H])C3([H])OC([H])([H])C1(C([H])([H])[H])C32O[H]

$$$$
103:2:1
     RDKit          3D

 80 87  0  0  1  0  0  0  0  0999 V2000
    0.7553    3.6927    9.5995 C   0  0  0  0  0  0  0  0  0  0  0  0
    1.4780    2.4050    9.1430 C   0  0  2  0  0  0  0  0  0  0  0  0
    2.7676    2.8003    8.3062 C   0  0  0  0  0  0  0  0  0  0  0  0
    3.8979    1.7551    7.9905 C   0  0  1  0  0  0  0  0  0  0  0  0
    4.1486    1.0888    9.2334 O   0  0  0  0  0  0  0  0  0  0  0  0
    3.3058    0.0985    9.6592 C   0  0  0  0  0  0  0  0  0  0  0  0
    3.2575   -0.3651   10.7914 O   0  0  0  0  0  0  0  0  0  0  0  0
    2.4660   -0.5050    8.5103 C   0  0  2  0  0  0  0  0  0  0  0  0
    3.0878   -1.8539    8.0653 C   0  0  0  0  0  0  0  0  0  0  0  0
    4.5688   -1.6283    7.6454 C   0  0  0  0  0  0  0  0  0  0  0  0
    4.7679   -0.4037    6.6905 C   0  0  1  0  0  0  0  0  0  0  0  0
    5.3573   -0.6912    5.2609 C   0  0  1  0  0  0  0  0  0  0  0  0
    5.2305   -2.1488    4.7560 C   0  0  0  0  0  0  0  0  0  0  0  0
    5.0863    0.3976    4.1781 C   0  0  1  0  0  0  0  0  0  0  0  0
    4.9017   -0.0972    2.8599 O   0  0  0  0  0  0  0  0  0  0  0  0
    4.0223    1.4720    4.5016 C   0  0  0  0  0  0  0  0  0  0  0  0
    2.9158    1.1042    5.5272 C   0  0  2  0  0  0  0  0  0  0  0  0
    3.6683    0.7070    6.8422 C   0  0  2  0  0  0  0  0  0  0  0  0
    2.5368    0.2740    7.3905 O   0  0  0  0  0  0  0  0  0  0  0  0
    1.6717    0.2091    4.9534 C   0  0  1  0  0  0  0  0  0  0  0  0
    2.4082   -0.7933    4.3210 O   0  0  0  0  0  0  0  0  0  0  0  0
    0.6891   -0.6496    5.8280 C   0  0  0  0  0  0  0  0  0  0  0  0
    0.3683   -0.8441    7.1454 C   0  0  0  0  0  0  0  0  0  0  0  0
    0.9162   -0.2471    8.4477 C   0  0  1  0  0  0  0  0  0  0  0  0
    0.3643   -1.0313    9.4985 O   0  0  0  0  0  0  0  0  0  0  0  0
    0.4399    1.2806    8.6900 C   0  0  2  0  0  0  0  0  0  0  0  0
   -0.7143    1.9230    8.0719 O   0  0  0  0  0  0  0  0  0  0  0  0
   -1.5003    1.5686    6.9410 C   0  0  1  0  0  0  0  0  0  0  0  0
   -2.8420    1.8813    7.2402 O   0  0  0  0  0  0  0  0  0  0  0  0
   -1.0240    2.3441    5.6320 C   0  0  2  0  0  0  0  0  0  0  0  0
   -0.0241    3.3960    6.1065 C   0  0  0  0  0  0  0  0  0  0  0  0
   -2.0577    3.2345    4.9329 C   0  0  0  0  0  0  0  0  0  0  0  0
   -1.3610    3.5792    3.7266 O   0  0  0  0  0  0  0  0  0  0  0  0
   -0.7235    2.4041    3.2182 C   0  0  1  0  0  0  0  0  0  0  0  0
    0.8260    2.2864    3.1454 C   0  0  1  0  0  0  0  0  0  0  0  0
    1.6336    3.3227    3.6688 O   0  0  0  0  0  0  0  0  0  0  0  0
    0.7004    0.8952    3.8591 C   0  0  1  0  0  0  0  0  0  0  0  0
    0.5141   -0.1604    2.7075 C   0  0  0  0  0  0  0  0  0  0  0  0
   -0.6947    1.4414    4.3949 C   0  0  1  0  0  0  0  0  0  0  0  0
   -1.7025    0.4577    4.3373 O   0  0  0  0  0  0  0  0  0  0  0  0
    0.4616    4.3352    8.7749 H   0  0  0  0  0  0  0  0  0  0  0  0
    1.4058    4.2954   10.2424 H   0  0  0  0  0  0  0  0  0  0  0  0
   -0.1426    3.4712   10.1854 H   0  0  0  0  0  0  0  0  0  0  0  0
    1.8369    2.0657   10.1122 H   0  0  0  0  0  0  0  0  0  0  0  0
    2.5477    3.3974    7.4309 H   0  0  0  0  0  0  0  0  0  0  0  0
    3.2698    3.5303    8.9388 H   0  0  0  0  0  0  0  0  0  0  0  0
    4.8005    2.3145    7.7363 H   0  0  0  0  0  0  0  0  0  0  0  0
    3.0378   -2.5906    8.8738 H   0  0  0  0  0  0  0  0  0  0  0  0
    2.5567   -2.2859    7.2188 H   0  0  0  0  0  0  0  0  0  0  0  0
    5.1862   -1.5021    8.5348 H   0  0  0  0  0  0  0  0  0  0  0  0
    4.9281   -2.5715    7.2300 H   0  0  0  0  0  0  0  0  0  0  0  0
    5.6239    0.0914    7.1568 H   0  0  0  0  0  0  0  0  0  0  0  0
    6.4303   -0.5955    5.4200 H   0  0  0  0  0  0  0  0  0  0  0  0
    4.2139   -2.5229    4.8132 H   0  0  0  0  0  0  0  0  0  0  0  0
    5.8647   -2.8156    5.3333 H   0  0  0  0  0  0  0  0  0  0  0  0
    5.5797   -2.2709    3.7293 H   0  0  0  0  0  0  0  0  0  0  0  0
    6.0192    0.9362    4.0659 H   0  0  0  0  0  0  0  0  0  0  0  0
    4.1214   -0.6244    2.8096 H   0  0  0  0  0  0  0  0  0  0  0  0
    4.5559    2.3023    4.9629 H   0  0  0  0  0  0  0  0  0  0  0  0
    3.6158    1.8778    3.5811 H   0  0  0  0  0  0  0  0  0  0  0  0
    2.4619    2.0522    5.7334 H   0  0  0  0  0  0  0  0  0  0  0  0
    2.7015   -0.3990    3.5229 H   0  0  0  0  0  0  0  0  0  0  0  0
    0.0905   -1.2958    5.1983 H   0  0  0  0  0  0  0  0  0  0  0  0
   -0.3859   -1.5966    7.3053 H   0  0  0  0  0  0  0  0  0  0  0  0
    0.7782   -0.7730   10.3122 H   0  0  0  0  0  0  0  0  0  0  0  0
   -0.0672    1.1727    9.6504 H   0  0  0  0  0  0  0  0  0  0  0  0
   -1.5486    0.5070    6.7960 H   0  0  0  0  0  0  0  0  0  0  0  0
   -2.9077    2.8133    7.3683 H   0  0  0  0  0  0  0  0  0  0  0  0
    0.2710    4.1506    5.3831 H   0  0  0  0  0  0  0  0  0  0  0  0
    0.8413    2.8992    6.4921 H   0  0  0  0  0  0  0  0  0  0  0  0
   -0.4697    3.9861    6.9072 H   0  0  0  0  0  0  0  0  0  0  0  0
   -2.9675    2.7059    4.6804 H   0  0  0  0  0  0  0  0  0  0  0  0
   -2.3335    4.1098    5.5215 H   0  0  0  0  0  0  0  0  0  0  0  0
   -1.2258    2.0259    2.3237 H   0  0  0  0  0  0  0  0  0  0  0  0
    1.1320    2.1527    2.1070 H   0  0  0  0  0  0  0  0  0  0  0  0
    1.6157    3.9989    3.0056 H   0  0  0  0  0  0  0  0  0  0  0  0
   -0.2463    0.1376    1.9797 H   0  0  0  0  0  0  0  0  0  0  0  0
    0.2107   -1.1432    3.0698 H   0  0  0  0  0  0  0  0  0  0  0  0
    1.4204   -0.2921    2.1112 H   0  0  0  0  0  0  0  0  0  0  0  0
   -2.3195    0.7250    3.6587 H   0  0  0  0  0  0  0  0  0  0  0  0
  1  2  1  0
  1 41  1  0
  1 42  1  0
  1 43  1  0
  2 26  1  0
  2  3  1  0
  2 44  1  1
  3  4  1  0
  3 45  1  0
  3 46  1  0
  4 18  1  0
  4  5  1  0
  4 47  1  6
  5  6  1  0
  6  7  2  0
  6  8  1  0
  8 19  1  0
  8 24  1  0
  8  9  1  6
  9 10  1  0
  9 48  1  0
  9 49  1  0
 10 11  1  0
 10 50  1  0
 10 51  1  0
 11 18  1  0
 11 12  1  0
 11 52  1  1
 12 13  1  0
 12 14  1  0
 12 53  1  1
 13 54  1  0
 13 55  1  0
 13 56  1  0
 14 15  1  0
 14 16  1  0
 14 57  1  6
 15 58  1  0
 16 17  1  0
 16 59  1  0
 16 60  1  0
 17 18  1  0
 17 20  1  0
 17 61  1  1
 18 19  1  1
 20 37  1  0
 20 21  1  6
 20 22  1  0
 21 62  1  0
 22 23  2  3
 22 63  1  0
 23 24  1  0
 23 64  1  0
 24 25  1  1
 24 26  1  0
 25 65  1  0
 26 27  1  0
 26 66  1  1
 27 28  1  0
 28 29  1  0
 28 30  1  0
 28 67  1  6
 29 68  1  0
 30 39  1  0
 30 31  1  1
 30 32  1  0
 31 69  1  0
 31 70  1  0
 31 71  1  0
 32 33  1  0
 32 72  1  0
 32 73  1  0
 33 34  1  0
 34 39  1  0
 34 35  1  0
 34 74  1  6
 35 36  1  0
 35 37  1  0
 35 75  1  6
 36 76  1  0
 37 38  1  6
 37 39  1  0
 38 77  1  0
 38 78  1  0
 38 79  1  0
 39 40  1  6
 40 80  1  0
M  END
>  <i_m_ct_stereo_status>  (409) 
1

>  <s_m_source_file>  (409) 
/var/tmp/pbs.5076255.sched01/tmpt95b3wv2/135g3gtwtb2.sdf

>  <i_m_source_file_index>  (409) 
29

>  <i_lp_mmshare_version>  (409) 
48012

>  <i_f3d_flags>  (409) 
0

>  <s_epik_input>  (409) 
W0NAXTEyM1tDQEBdNChbT0hdKVtDQEhdNVtDQEhdKFtDSDNdKVtDSDJdW0NAQEhdKE9DMT1PKVtDQF02KE8zKVtDQEBIXShbQ0gyXVtDSDJdMilbQ0BASF0oW0NIM10pW0NAQEhdKFtPSF0pW0NIMl1bQ0BIXTZDKFtPSF0pKC9bQ0hdPVtDSF1cNClbQ0BAXTcoW0NIM10pW0NAQF04KFtPSF0pW0NAXShbQ0gzXSkoW0NAQEhdKE81KVtPSF0pW0NIMl1PW0NASF04W0NASF03W09IXQ==

>  <s_epik_cmdline>  (409) 
J2VwaWtfcHl0aG9uJywgJy1waHQnLCAnMi4wJywgJy1waCcsICc3LjAnLCAnLXRuJywgJzgnLCAnLW1hJywgJzIwMCcsICctaW1hZScsICc8aW5maWxlLm1hZT4nLCAnLW9tYWUnLCAnPG91dGZpbGUubWFlPic=

>  <r_lp_tautomer_probability>  (409) 
1

>  <r_epik_Ionization_Penalty>  (409) 
3.11922e-06

>  <r_epik_Ionization_Penalty_Charging>  (409) 
0

>  <r_epik_Ionization_Penalty_Neutral>  (409) 
3.11922e-06

>  <r_epik_State_Penalty>  (409) 
-0

>  <r_epik_Charging_Adjusted_Penalty>  (409) 
0

>  <i_epik_Tot_Q>  (409) 
0

>  <i_epik_Tot_abs_Q>  (409) 
0

>  <s_epik_Chemistry_Notes>  (409) 
This compound has an ester and may undergo hydrolysis at high or low pH. This compound contains an acetal/aminal-like group ( X-CH(R)-Y where X, Y are N, S, or O) that may be acid/base labile, releasing an aldehyde.

>  <s_lp_Force_Field>  (409) 
OPLS3e

>  <r_lp_Energy>  (409) 
234.384

>  <b_lp_Chiralities_Consistent>  (409) 
1

>  <s_lp_Variant>  (409) 
103:0-3

>  <s_i_glide_gridfile>  (409) 
pfpi4k_grid

>  <i_i_glide_lignum>  (409) 
29

>  <i_i_glide_rotatable_bonds>  (409) 
6

>  <r_i_docking_score>  (409) 
-2.20227

>  <r_i_glide_ligand_efficiency>  (409) 
-0.0550568

>  <r_i_glide_ligand_efficiency_sa>  (409) 
-0.188292

>  <r_i_glide_ligand_efficiency_ln>  (409) 
-0.46968

>  <r_i_glide_gscore>  (409) 
-2.20227

>  <r_i_glide_lipo>  (409) 
-0.156903

>  <r_i_glide_hbond>  (409) 
0

>  <r_i_glide_metal>  (409) 
-0

>  <r_i_glide_rewards>  (409) 
0

>  <r_i_glide_evdw>  (409) 
-19.8035

>  <r_i_glide_ecoul>  (409) 
-6.79267

>  <r_i_glide_erotb>  (409) 
0

>  <r_i_glide_esite>  (409) 
-0.0362952

>  <r_i_glide_emodel>  (409) 
-30.2459

>  <r_i_glide_energy>  (409) 
-26.5962

>  <r_i_glide_einternal>  (409) 
2.54704

>  <r_i_glide_intrahb_reward>  (409) 
-0

>  <i_i_glide_confnum>  (409) 
2

>  <i_i_glide_posenum>  (409) 
27

>  <r_i_glide_eff_state_penalty>  (409) 
0

>  <ligand_id>  (409) 
103

>  <original_smiles>  (409) 
CC1CC2OC(=O)C34CCC5C(C)C(O)CC(C25O3)C2(O)C=CC4(O)C1OC(O)C1(C)COC3C(O)C2(C)C31O

>  <smiles>  (409) 
[H]OC1([H])OC2([H])C3(O[H])C([H])=C([H])C(O[H])(C4([H])C([H])([H])C([H])(O[H])C([H])(C([H])([H])[H])C5([H])C([H])([H])C([H])([H])C36OC45C([H])(OC6=O)C([H])([H])C2([H])C([H])([H])[H])C2(C([H])([H])[H])C([H])(O[H])C3([H])OC([H])([H])C1(C([H])([H])[H])C32O[H]

$$$$
104:0:0
     RDKit          3D

 45 48  0  0  1  0  0  0  0  0999 V2000
    2.1452    1.0860    7.4749 C   0  0  0  0  0  0  0  0  0  0  0  0
    1.4909    1.1158    6.1701 N   0  0  0  0  0  0  0  0  0  0  0  0
    0.3426    1.8937    5.9593 C   0  0  0  0  0  0  0  0  0  0  0  0
    0.1451    2.5370    4.6556 C   0  0  0  0  0  0  0  0  0  0  0  0
   -1.0450    3.1158    4.3799 C   0  0  0  0  0  0  0  0  0  0  0  0
   -1.3624    3.7276    3.2305 O   0  0  0  0  0  0  0  0  0  0  0  0
   -2.2206    3.1759    5.3324 C   0  0  0  0  0  0  0  0  0  0  0  0
   -1.8302    2.9101    6.7932 C   0  0  0  0  0  0  0  0  0  0  0  0
   -0.5684    2.0781    6.9358 C   0  0  0  0  0  0  0  0  0  0  0  0
    1.2855    2.4830    3.6389 C   0  0  1  0  0  0  0  0  0  0  0  0
    2.1963    3.6726    3.7826 C   0  0  0  0  0  0  0  0  0  0  0  0
    2.5386    4.6223    2.8582 C   0  0  0  0  0  0  0  0  0  0  0  0
    3.4062    5.6134    3.3525 N   0  0  0  0  0  0  0  0  0  0  0  0
    3.7512    5.4417    4.5941 N   0  0  0  0  0  0  0  0  0  0  0  0
    3.0398    4.0719    5.2407 S   0  0  0  0  0  0  0  0  0  0  0  0
    2.0457    1.1677    3.8402 C   0  0  0  0  0  0  0  0  0  0  0  0
    2.1308    0.5695    5.0535 C   0  0  0  0  0  0  0  0  0  0  0  0
    2.9290   -0.7224    5.2841 C   0  0  0  0  0  0  0  0  0  0  0  0
    4.0648   -0.9006    4.2578 C   0  0  0  0  0  0  0  0  0  0  0  0
    5.1663    0.1589    4.5222 C   0  0  0  0  0  0  0  0  0  0  0  0
    4.6744   -2.3086    4.3924 C   0  0  0  0  0  0  0  0  0  0  0  0
    3.4603   -0.7639    2.8459 C   0  0  0  0  0  0  0  0  0  0  0  0
    2.6606    0.5274    2.6520 C   0  0  0  0  0  0  0  0  0  0  0  0
    2.5265    0.9566    1.5118 O   0  0  0  0  0  0  0  0  0  0  0  0
    1.8421    1.9305    8.0913 H   0  0  0  0  0  0  0  0  0  0  0  0
    3.2249    1.1677    7.3447 H   0  0  0  0  0  0  0  0  0  0  0  0
    1.9270    0.1583    8.0036 H   0  0  0  0  0  0  0  0  0  0  0  0
   -2.7069    4.1438    5.2574 H   0  0  0  0  0  0  0  0  0  0  0  0
   -2.9518    2.4421    5.0001 H   0  0  0  0  0  0  0  0  0  0  0  0
   -1.6630    3.8505    7.3170 H   0  0  0  0  0  0  0  0  0  0  0  0
   -2.6472    2.4059    7.3068 H   0  0  0  0  0  0  0  0  0  0  0  0
   -0.4249    1.6352    7.9111 H   0  0  0  0  0  0  0  0  0  0  0  0
    0.8465    2.4866    2.6371 H   0  0  0  0  0  0  0  0  0  0  0  0
    2.2152    4.6765    1.8268 H   0  0  0  0  0  0  0  0  0  0  0  0
    3.3317   -0.7973    6.2928 H   0  0  0  0  0  0  0  0  0  0  0  0
    2.2315   -1.5555    5.1865 H   0  0  0  0  0  0  0  0  0  0  0  0
    5.9763    0.0941    3.7945 H   0  0  0  0  0  0  0  0  0  0  0  0
    5.5959    0.0346    5.5172 H   0  0  0  0  0  0  0  0  0  0  0  0
    4.7747    1.1772    4.4812 H   0  0  0  0  0  0  0  0  0  0  0  0
    5.4824   -2.4665    3.6781 H   0  0  0  0  0  0  0  0  0  0  0  0
    3.9253   -3.0795    4.2049 H   0  0  0  0  0  0  0  0  0  0  0  0
    5.0727   -2.4813    5.3916 H   0  0  0  0  0  0  0  0  0  0  0  0
    4.2451   -0.8047    2.0927 H   0  0  0  0  0  0  0  0  0  0  0  0
    2.7896   -1.6012    2.6391 H   0  0  0  0  0  0  0  0  0  0  0  0
   -0.6245    3.6732    2.6351 H   0  0  0  0  0  0  0  0  0  0  0  0
  1  2  1  0
  1 25  1  0
  1 26  1  0
  1 27  1  0
  2 17  1  0
  2  3  1  0
  3  9  2  0
  3  4  1  0
  4  5  2  0
  4 10  1  0
  5  6  1  0
  5  7  1  0
  6 45  1  0
  7  8  1  0
  7 28  1  0
  7 29  1  0
  8  9  1  0
  8 30  1  0
  8 31  1  0
  9 32  1  0
 10 11  1  0
 10 16  1  0
 10 33  1  6
 11 15  1  0
 11 12  2  0
 12 13  1  0
 12 34  1  0
 13 14  2  0
 14 15  1  0
 16 23  1  0
 16 17  2  0
 17 18  1  0
 18 19  1  0
 18 35  1  0
 18 36  1  0
 19 20  1  0
 19 21  1  0
 19 22  1  0
 20 37  1  0
 20 38  1  0
 20 39  1  0
 21 40  1  0
 21 41  1  0
 21 42  1  0
 22 23  1  0
 22 43  1  0
 22 44  1  0
 23 24  2  0
M  END
>  <i_m_ct_stereo_status>  (410) 
1

>  <s_m_source_file>  (410) 
/var/tmp/pbs.5076255.sched01/tmpt95b3wv2/135g3gtwtb2.sdf

>  <i_m_source_file_index>  (410) 
30

>  <i_lp_mmshare_version>  (410) 
48012

>  <i_f3d_flags>  (410) 
0

>  <s_epik_input>  (410) 
Tz1DMVtDSDJdQyhbQ0gzXSkoW0NIM10pW0NIMl1DKE4yW0NIM10pPUMxW0NASF0oYzNbY0hdbm5zMylDKD1DMjQpQyg9TylbQ0gyXVtDSDJdW0NIMl00

>  <s_epik_cmdline>  (410) 
J2VwaWtfcHl0aG9uJywgJy1waHQnLCAnMi4wJywgJy1waCcsICc3LjAnLCAnLXRuJywgJzgnLCAnLW1hJywgJzIwMCcsICctaW1hZScsICc8aW5maWxlLm1hZT4nLCAnLW9tYWUnLCAnPG91dGZpbGUubWFlPic=

>  <r_lp_tautomer_probability>  (410) 
1

>  <r_epik_Ionization_Penalty>  (410) 
0.38711

>  <r_epik_Ionization_Penalty_Charging>  (410) 
0

>  <r_epik_Ionization_Penalty_Neutral>  (410) 
0.38711

>  <r_epik_State_Penalty>  (410) 
0.385564

>  <r_epik_Charging_Adjusted_Penalty>  (410) 
0.385564

>  <i_epik_Tot_Q>  (410) 
0

>  <i_epik_Tot_abs_Q>  (410) 
0

>  <s_epik_Chemistry_Notes>  (410) 
This compound has an imine and may undergo hydrolysis.

>  <s_lp_Force_Field>  (410) 
OPLS3e

>  <r_lp_Energy>  (410) 
23.5928

>  <b_lp_Chiralities_Consistent>  (410) 
1

>  <s_lp_Variant>  (410) 
104:0-1

>  <s_i_glide_gridfile>  (410) 
pfpi4k_grid

>  <i_i_glide_lignum>  (410) 
30

>  <i_i_glide_rotatable_bonds>  (410) 
2

>  <r_i_docking_score>  (410) 
-2.71046

>  <r_i_glide_ligand_efficiency>  (410) 
-0.112936

>  <r_i_glide_ligand_efficiency_sa>  (410) 
-0.325763

>  <r_i_glide_ligand_efficiency_ln>  (410) 
-0.648737

>  <r_i_glide_gscore>  (410) 
-2.71046

>  <r_i_glide_lipo>  (410) 
-0.175299

>  <r_i_glide_hbond>  (410) 
-0.109199

>  <r_i_glide_metal>  (410) 
-0

>  <r_i_glide_rewards>  (410) 
-1.08353

>  <r_i_glide_evdw>  (410) 
-20.9193

>  <r_i_glide_ecoul>  (410) 
-3.02477

>  <r_i_glide_erotb>  (410) 
0.160868

>  <r_i_glide_esite>  (410) 
-0.00361549

>  <r_i_glide_emodel>  (410) 
-27.8786

>  <r_i_glide_energy>  (410) 
-23.9441

>  <r_i_glide_einternal>  (410) 
0.151324

>  <r_i_glide_intrahb_reward>  (410) 
-0

>  <i_i_glide_confnum>  (410) 
3

>  <i_i_glide_posenum>  (410) 
10

>  <r_i_glide_eff_state_penalty>  (410) 
0

>  <ligand_id>  (410) 
104

>  <original_smiles>  (410) 
CN1C2=C(C(=O)CCC2)C(c2cnns2)C2=C1CC(C)(C)CC2=O

>  <smiles>  (410) 
[H]OC1=C2C(=C([H])C([H])([H])C1([H])[H])N(C([H])([H])[H])C1=C(C(=O)C([H])([H])C(C([H])([H])[H])(C([H])([H])[H])C1([H])[H])C2([H])c1snnc1[H]

$$$$
104:0:1
     RDKit          3D

 45 48  0  0  1  0  0  0  0  0999 V2000
    1.3661    0.1671    7.1626 C   0  0  0  0  0  0  0  0  0  0  0  0
    0.8493    0.4982    5.8380 N   0  0  0  0  0  0  0  0  0  0  0  0
   -0.1784    1.4378    5.6794 C   0  0  0  0  0  0  0  0  0  0  0  0
   -0.1833    2.2968    4.4911 C   0  0  0  0  0  0  0  0  0  0  0  0
   -1.2676    3.0631    4.2362 C   0  0  0  0  0  0  0  0  0  0  0  0
   -1.4049    3.8821    3.1846 O   0  0  0  0  0  0  0  0  0  0  0  0
   -2.5133    3.1209    5.0963 C   0  0  0  0  0  0  0  0  0  0  0  0
   -2.2928    2.5721    6.5146 C   0  0  0  0  0  0  0  0  0  0  0  0
   -1.1504    1.5770    6.6038 C   0  0  0  0  0  0  0  0  0  0  0  0
    1.0270    2.2559    3.5616 C   0  0  1  0  0  0  0  0  0  0  0  0
    2.0565    3.2645    4.0065 C   0  0  0  0  0  0  0  0  0  0  0  0
    2.9889    3.1932    5.0097 C   0  0  0  0  0  0  0  0  0  0  0  0
    3.7743    4.3496    5.1331 N   0  0  0  0  0  0  0  0  0  0  0  0
    3.4707    5.2890    4.2798 N   0  0  0  0  0  0  0  0  0  0  0  0
    2.2293    4.8081    3.2607 S   0  0  0  0  0  0  0  0  0  0  0  0
    1.6021    0.8369    3.5877 C   0  0  0  0  0  0  0  0  0  0  0  0
    1.5133    0.0514    4.6912 C   0  0  0  0  0  0  0  0  0  0  0  0
    2.1328   -1.3515    4.7576 C   0  0  0  0  0  0  0  0  0  0  0  0
    3.3316   -1.5096    3.8012 C   0  0  0  0  0  0  0  0  0  0  0  0
    4.5178   -0.6599    4.3226 C   0  0  0  0  0  0  0  0  0  0  0  0
    3.7587   -2.9872    3.7384 C   0  0  0  0  0  0  0  0  0  0  0  0
    2.8779   -1.0724    2.3905 C   0  0  0  0  0  0  0  0  0  0  0  0
    2.2537    0.3240    2.3609 C   0  0  0  0  0  0  0  0  0  0  0  0
    2.2951    0.9515    1.3086 O   0  0  0  0  0  0  0  0  0  0  0  0
    1.1065    0.9312    7.8926 H   0  0  0  0  0  0  0  0  0  0  0  0
    2.4549    0.1258    7.1293 H   0  0  0  0  0  0  0  0  0  0  0  0
    0.9942   -0.7984    7.5062 H   0  0  0  0  0  0  0  0  0  0  0  0
   -2.8658    4.1419    5.1663 H   0  0  0  0  0  0  0  0  0  0  0  0
   -3.2844    2.5502    4.5796 H   0  0  0  0  0  0  0  0  0  0  0  0
   -2.0671    3.3856    7.2035 H   0  0  0  0  0  0  0  0  0  0  0  0
   -3.2052    2.1036    6.8784 H   0  0  0  0  0  0  0  0  0  0  0  0
   -1.1472    0.9699    7.4971 H   0  0  0  0  0  0  0  0  0  0  0  0
    0.6994    2.4917    2.5508 H   0  0  0  0  0  0  0  0  0  0  0  0
    3.1670    2.3683    5.6887 H   0  0  0  0  0  0  0  0  0  0  0  0
    2.4272   -1.6384    5.7661 H   0  0  0  0  0  0  0  0  0  0  0  0
    1.3596   -2.0592    4.4691 H   0  0  0  0  0  0  0  0  0  0  0  0
    5.3798   -0.7130    3.6551 H   0  0  0  0  0  0  0  0  0  0  0  0
    4.8366   -0.9972    5.3111 H   0  0  0  0  0  0  0  0  0  0  0  0
    4.2546    0.3928    4.4274 H   0  0  0  0  0  0  0  0  0  0  0  0
    4.6098   -3.1314    3.0697 H   0  0  0  0  0  0  0  0  0  0  0  0
    2.9494   -3.6154    3.3674 H   0  0  0  0  0  0  0  0  0  0  0  0
    4.0409   -3.3684    4.7203 H   0  0  0  0  0  0  0  0  0  0  0  0
    3.7215   -1.0920    1.7061 H   0  0  0  0  0  0  0  0  0  0  0  0
    2.1404   -1.7740    1.9952 H   0  0  0  0  0  0  0  0  0  0  0  0
   -0.6565    3.7716    2.6097 H   0  0  0  0  0  0  0  0  0  0  0  0
  1  2  1  0
  1 25  1  0
  1 26  1  0
  1 27  1  0
  2 17  1  0
  2  3  1  0
  3  9  2  0
  3  4  1  0
  4  5  2  0
  4 10  1  0
  5  6  1  0
  5  7  1  0
  6 45  1  0
  7  8  1  0
  7 28  1  0
  7 29  1  0
  8  9  1  0
  8 30  1  0
  8 31  1  0
  9 32  1  0
 10 11  1  0
 10 16  1  0
 10 33  1  6
 11 15  1  0
 11 12  2  0
 12 13  1  0
 12 34  1  0
 13 14  2  0
 14 15  1  0
 16 23  1  0
 16 17  2  0
 17 18  1  0
 18 19  1  0
 18 35  1  0
 18 36  1  0
 19 20  1  0
 19 21  1  0
 19 22  1  0
 20 37  1  0
 20 38  1  0
 20 39  1  0
 21 40  1  0
 21 41  1  0
 21 42  1  0
 22 23  1  0
 22 43  1  0
 22 44  1  0
 23 24  2  0
M  END
>  <i_m_ct_stereo_status>  (411) 
1

>  <s_m_source_file>  (411) 
/var/tmp/pbs.5076255.sched01/tmpt95b3wv2/135g3gtwtb2.sdf

>  <i_m_source_file_index>  (411) 
30

>  <i_lp_mmshare_version>  (411) 
48012

>  <i_f3d_flags>  (411) 
0

>  <s_epik_input>  (411) 
Tz1DMVtDSDJdQyhbQ0gzXSkoW0NIM10pW0NIMl1DKE4yW0NIM10pPUMxW0NASF0oYzNbY0hdbm5zMylDKD1DMjQpQyg9TylbQ0gyXVtDSDJdW0NIMl00

>  <s_epik_cmdline>  (411) 
J2VwaWtfcHl0aG9uJywgJy1waHQnLCAnMi4wJywgJy1waCcsICc3LjAnLCAnLXRuJywgJzgnLCAnLW1hJywgJzIwMCcsICctaW1hZScsICc8aW5maWxlLm1hZT4nLCAnLW9tYWUnLCAnPG91dGZpbGUubWFlPic=

>  <r_lp_tautomer_probability>  (411) 
1

>  <r_epik_Ionization_Penalty>  (411) 
0.38711

>  <r_epik_Ionization_Penalty_Charging>  (411) 
0

>  <r_epik_Ionization_Penalty_Neutral>  (411) 
0.38711

>  <r_epik_State_Penalty>  (411) 
0.385564

>  <r_epik_Charging_Adjusted_Penalty>  (411) 
0.385564

>  <i_epik_Tot_Q>  (411) 
0

>  <i_epik_Tot_abs_Q>  (411) 
0

>  <s_epik_Chemistry_Notes>  (411) 
This compound has an imine and may undergo hydrolysis.

>  <s_lp_Force_Field>  (411) 
OPLS3e

>  <r_lp_Energy>  (411) 
23.5928

>  <b_lp_Chiralities_Consistent>  (411) 
1

>  <s_lp_Variant>  (411) 
104:0-1

>  <s_i_glide_gridfile>  (411) 
pfpi4k_grid

>  <i_i_glide_lignum>  (411) 
30

>  <i_i_glide_rotatable_bonds>  (411) 
2

>  <r_i_docking_score>  (411) 
-2.69024

>  <r_i_glide_ligand_efficiency>  (411) 
-0.112093

>  <r_i_glide_ligand_efficiency_sa>  (411) 
-0.323333

>  <r_i_glide_ligand_efficiency_ln>  (411) 
-0.643898

>  <r_i_glide_gscore>  (411) 
-2.69024

>  <r_i_glide_lipo>  (411) 
-0.146157

>  <r_i_glide_hbond>  (411) 
-0.120419

>  <r_i_glide_metal>  (411) 
-0

>  <r_i_glide_rewards>  (411) 
-1.06743

>  <r_i_glide_evdw>  (411) 
-20.7364

>  <r_i_glide_ecoul>  (411) 
-3.05336

>  <r_i_glide_erotb>  (411) 
0.160868

>  <r_i_glide_esite>  (411) 
-0.0222821

>  <r_i_glide_emodel>  (411) 
-27.8015

>  <r_i_glide_energy>  (411) 
-23.7898

>  <r_i_glide_einternal>  (411) 
0.0355567

>  <r_i_glide_intrahb_reward>  (411) 
-0

>  <i_i_glide_confnum>  (411) 
3

>  <i_i_glide_posenum>  (411) 
1

>  <r_i_glide_eff_state_penalty>  (411) 
0

>  <ligand_id>  (411) 
104

>  <original_smiles>  (411) 
CN1C2=C(C(=O)CCC2)C(c2cnns2)C2=C1CC(C)(C)CC2=O

>  <smiles>  (411) 
[H]OC1=C2C(=C([H])C([H])([H])C1([H])[H])N(C([H])([H])[H])C1=C(C(=O)C([H])([H])C(C([H])([H])[H])(C([H])([H])[H])C1([H])[H])C2([H])c1snnc1[H]

$$$$
104:0:2
     RDKit          3D

 45 48  0  0  1  0  0  0  0  0999 V2000
    5.3553   -0.0650    5.5019 C   0  0  0  0  0  0  0  0  0  0  0  0
    4.0931   -0.3670    4.8351 N   0  0  0  0  0  0  0  0  0  0  0  0
    3.3973    0.6298    4.1393 C   0  0  0  0  0  0  0  0  0  0  0  0
    2.6545    0.2689    2.9285 C   0  0  0  0  0  0  0  0  0  0  0  0
    1.8036    1.1668    2.3848 C   0  0  0  0  0  0  0  0  0  0  0  0
    1.0356    0.9448    1.3076 O   0  0  0  0  0  0  0  0  0  0  0  0
    1.5696    2.5705    2.9108 C   0  0  0  0  0  0  0  0  0  0  0  0
    2.6757    3.0498    3.8640 C   0  0  0  0  0  0  0  0  0  0  0  0
    3.4033    1.9123    4.5591 C   0  0  0  0  0  0  0  0  0  0  0  0
    2.8117   -1.1436    2.3725 C   0  0  1  0  0  0  0  0  0  0  0  0
    3.9347   -1.1964    1.3665 C   0  0  0  0  0  0  0  0  0  0  0  0
    3.8813   -1.3482    0.0083 C   0  0  0  0  0  0  0  0  0  0  0  0
    5.1409   -1.3438   -0.6145 N   0  0  0  0  0  0  0  0  0  0  0  0
    6.1409   -1.2014    0.2074 N   0  0  0  0  0  0  0  0  0  0  0  0
    5.6067   -1.0544    1.7885 S   0  0  0  0  0  0  0  0  0  0  0  0
    3.0533   -2.1003    3.5438 C   0  0  0  0  0  0  0  0  0  0  0  0
    3.6768   -1.6938    4.6772 C   0  0  0  0  0  0  0  0  0  0  0  0
    3.9738   -2.6467    5.8448 C   0  0  0  0  0  0  0  0  0  0  0  0
    4.0901   -4.1141    5.3859 C   0  0  0  0  0  0  0  0  0  0  0  0
    5.3821   -4.2847    4.5486 C   0  0  0  0  0  0  0  0  0  0  0  0
    4.1595   -5.0420    6.6120 C   0  0  0  0  0  0  0  0  0  0  0  0
    2.8256   -4.4668    4.5756 C   0  0  0  0  0  0  0  0  0  0  0  0
    2.5499   -3.4923    3.4266 C   0  0  0  0  0  0  0  0  0  0  0  0
    1.8882   -3.8973    2.4766 O   0  0  0  0  0  0  0  0  0  0  0  0
    5.7928    0.8575    5.1229 H   0  0  0  0  0  0  0  0  0  0  0  0
    6.0734   -0.8583    5.2956 H   0  0  0  0  0  0  0  0  0  0  0  0
    5.2247    0.0144    6.5817 H   0  0  0  0  0  0  0  0  0  0  0  0
    1.4877    3.2706    2.0807 H   0  0  0  0  0  0  0  0  0  0  0  0
    0.6090    2.5814    3.4285 H   0  0  0  0  0  0  0  0  0  0  0  0
    3.4172    3.6316    3.3183 H   0  0  0  0  0  0  0  0  0  0  0  0
    2.2490    3.7099    4.6186 H   0  0  0  0  0  0  0  0  0  0  0  0
    3.9581    2.2033    5.4409 H   0  0  0  0  0  0  0  0  0  0  0  0
    1.8755   -1.4208    1.8817 H   0  0  0  0  0  0  0  0  0  0  0  0
    3.0004   -1.4627   -0.6044 H   0  0  0  0  0  0  0  0  0  0  0  0
    4.8650   -2.3647    6.4062 H   0  0  0  0  0  0  0  0  0  0  0  0
    3.1480   -2.5651    6.5497 H   0  0  0  0  0  0  0  0  0  0  0  0
    5.4910   -5.3027    4.1702 H   0  0  0  0  0  0  0  0  0  0  0  0
    6.2592   -4.0539    5.1544 H   0  0  0  0  0  0  0  0  0  0  0  0
    5.4112   -3.6133    3.6884 H   0  0  0  0  0  0  0  0  0  0  0  0
    4.2477   -6.0891    6.3176 H   0  0  0  0  0  0  0  0  0  0  0  0
    3.2607   -4.9528    7.2217 H   0  0  0  0  0  0  0  0  0  0  0  0
    5.0103   -4.8029    7.2497 H   0  0  0  0  0  0  0  0  0  0  0  0
    2.9135   -5.4712    4.1672 H   0  0  0  0  0  0  0  0  0  0  0  0
    1.9503   -4.4706    5.2295 H   0  0  0  0  0  0  0  0  0  0  0  0
    1.2112    0.0819    0.9584 H   0  0  0  0  0  0  0  0  0  0  0  0
  1  2  1  0
  1 25  1  0
  1 26  1  0
  1 27  1  0
  2 17  1  0
  2  3  1  0
  3  9  2  0
  3  4  1  0
  4  5  2  0
  4 10  1  0
  5  6  1  0
  5  7  1  0
  6 45  1  0
  7  8  1  0
  7 28  1  0
  7 29  1  0
  8  9  1  0
  8 30  1  0
  8 31  1  0
  9 32  1  0
 10 11  1  0
 10 16  1  0
 10 33  1  6
 11 15  1  0
 11 12  2  0
 12 13  1  0
 12 34  1  0
 13 14  2  0
 14 15  1  0
 16 23  1  0
 16 17  2  0
 17 18  1  0
 18 19  1  0
 18 35  1  0
 18 36  1  0
 19 20  1  0
 19 21  1  0
 19 22  1  0
 20 37  1  0
 20 38  1  0
 20 39  1  0
 21 40  1  0
 21 41  1  0
 21 42  1  0
 22 23  1  0
 22 43  1  0
 22 44  1  0
 23 24  2  0
M  END
>  <i_m_ct_stereo_status>  (412) 
1

>  <s_m_source_file>  (412) 
/var/tmp/pbs.5076255.sched01/tmpt95b3wv2/135g3gtwtb2.sdf

>  <i_m_source_file_index>  (412) 
30

>  <i_lp_mmshare_version>  (412) 
48012

>  <i_f3d_flags>  (412) 
0

>  <s_epik_input>  (412) 
Tz1DMVtDSDJdQyhbQ0gzXSkoW0NIM10pW0NIMl1DKE4yW0NIM10pPUMxW0NASF0oYzNbY0hdbm5zMylDKD1DMjQpQyg9TylbQ0gyXVtDSDJdW0NIMl00

>  <s_epik_cmdline>  (412) 
J2VwaWtfcHl0aG9uJywgJy1waHQnLCAnMi4wJywgJy1waCcsICc3LjAnLCAnLXRuJywgJzgnLCAnLW1hJywgJzIwMCcsICctaW1hZScsICc8aW5maWxlLm1hZT4nLCAnLW9tYWUnLCAnPG91dGZpbGUubWFlPic=

>  <r_lp_tautomer_probability>  (412) 
1

>  <r_epik_Ionization_Penalty>  (412) 
0.38711

>  <r_epik_Ionization_Penalty_Charging>  (412) 
0

>  <r_epik_Ionization_Penalty_Neutral>  (412) 
0.38711

>  <r_epik_State_Penalty>  (412) 
0.385564

>  <r_epik_Charging_Adjusted_Penalty>  (412) 
0.385564

>  <i_epik_Tot_Q>  (412) 
0

>  <i_epik_Tot_abs_Q>  (412) 
0

>  <s_epik_Chemistry_Notes>  (412) 
This compound has an imine and may undergo hydrolysis.

>  <s_lp_Force_Field>  (412) 
OPLS3e

>  <r_lp_Energy>  (412) 
23.5928

>  <b_lp_Chiralities_Consistent>  (412) 
1

>  <s_lp_Variant>  (412) 
104:0-1

>  <s_i_glide_gridfile>  (412) 
pfpi4k_grid

>  <i_i_glide_lignum>  (412) 
30

>  <i_i_glide_rotatable_bonds>  (412) 
2

>  <r_i_docking_score>  (412) 
-2.45682

>  <r_i_glide_ligand_efficiency>  (412) 
-0.102367

>  <r_i_glide_ligand_efficiency_sa>  (412) 
-0.295279

>  <r_i_glide_ligand_efficiency_ln>  (412) 
-0.588029

>  <r_i_glide_gscore>  (412) 
-2.45682

>  <r_i_glide_lipo>  (412) 
-0.165986

>  <r_i_glide_hbond>  (412) 
-0.099567

>  <r_i_glide_metal>  (412) 
-0

>  <r_i_glide_rewards>  (412) 
-1.07008

>  <r_i_glide_evdw>  (412) 
-20.1248

>  <r_i_glide_ecoul>  (412) 
-1.61869

>  <r_i_glide_erotb>  (412) 
0.160868

>  <r_i_glide_esite>  (412) 
-0.0330063

>  <r_i_glide_emodel>  (412) 
-25.2808

>  <r_i_glide_energy>  (412) 
-21.7435

>  <r_i_glide_einternal>  (412) 
0.162672

>  <r_i_glide_intrahb_reward>  (412) 
-0

>  <i_i_glide_confnum>  (412) 
3

>  <i_i_glide_posenum>  (412) 
20

>  <r_i_glide_eff_state_penalty>  (412) 
0

>  <ligand_id>  (412) 
104

>  <original_smiles>  (412) 
CN1C2=C(C(=O)CCC2)C(c2cnns2)C2=C1CC(C)(C)CC2=O

>  <smiles>  (412) 
[H]OC1=C2C(=C([H])C([H])([H])C1([H])[H])N(C([H])([H])[H])C1=C(C(=O)C([H])([H])C(C([H])([H])[H])(C([H])([H])[H])C1([H])[H])C2([H])c1snnc1[H]

$$$$
104:1:0
     RDKit          3D

 44 47  0  0  1  0  0  0  0  0999 V2000
    2.2537    1.6936    8.0384 C   0  0  0  0  0  0  0  0  0  0  0  0
    0.8914    1.1842    7.9303 N   0  0  0  0  0  0  0  0  0  0  0  0
   -0.1431    1.7912    8.6459 C   0  0  0  0  0  0  0  0  0  0  0  0
   -1.4271    1.9943    7.9795 C   0  0  0  0  0  0  0  0  0  0  0  0
   -2.4486    2.6745    8.6332 C   0  0  0  0  0  0  0  0  0  0  0  0
   -3.6112    2.9522    8.2564 O   0  0  0  0  0  0  0  0  0  0  0  0
   -2.2368    3.2961   10.0179 C   0  0  0  0  0  0  0  0  0  0  0  0
   -1.0358    2.7579   10.8060 C   0  0  0  0  0  0  0  0  0  0  0  0
    0.0306    2.1424    9.9350 C   0  0  0  0  0  0  0  0  0  0  0  0
   -1.6323    1.4616    6.5631 C   0  0  1  0  0  0  0  0  0  0  0  0
   -1.4750    2.5557    5.5423 C   0  0  0  0  0  0  0  0  0  0  0  0
   -2.1886    2.7662    4.3854 C   0  0  0  0  0  0  0  0  0  0  0  0
   -1.7766    3.9095    3.6786 N   0  0  0  0  0  0  0  0  0  0  0  0
   -0.7780    4.5416    4.2205 N   0  0  0  0  0  0  0  0  0  0  0  0
   -0.2882    3.8007    5.6408 S   0  0  0  0  0  0  0  0  0  0  0  0
   -0.6356    0.3338    6.2914 C   0  0  0  0  0  0  0  0  0  0  0  0
    0.5544    0.2631    6.9356 C   0  0  0  0  0  0  0  0  0  0  0  0
    1.5966   -0.8186    6.6235 C   0  0  0  0  0  0  0  0  0  0  0  0
    1.4479   -1.3765    5.1935 C   0  0  0  0  0  0  0  0  0  0  0  0
    1.8589   -0.2857    4.1729 C   0  0  0  0  0  0  0  0  0  0  0  0
    2.3555   -2.6065    5.0221 C   0  0  0  0  0  0  0  0  0  0  0  0
   -0.0178   -1.8217    4.9967 C   0  0  0  0  0  0  0  0  0  0  0  0
   -1.0326   -0.7217    5.3288 C   0  0  0  0  0  0  0  0  0  0  0  0
   -2.1621   -0.8031    4.8502 O   0  0  0  0  0  0  0  0  0  0  0  0
    2.2718    2.6747    8.5130 H   0  0  0  0  0  0  0  0  0  0  0  0
    2.6766    1.8165    7.0407 H   0  0  0  0  0  0  0  0  0  0  0  0
    2.8855    1.0096    8.6076 H   0  0  0  0  0  0  0  0  0  0  0  0
   -2.1121    4.3729    9.8940 H   0  0  0  0  0  0  0  0  0  0  0  0
   -3.1334    3.1735   10.6295 H   0  0  0  0  0  0  0  0  0  0  0  0
   -0.6008    3.5627   11.3970 H   0  0  0  0  0  0  0  0  0  0  0  0
   -1.3660    2.0021   11.5142 H   0  0  0  0  0  0  0  0  0  0  0  0
    0.9702    1.9580   10.4355 H   0  0  0  0  0  0  0  0  0  0  0  0
   -2.6452    1.0625    6.5194 H   0  0  0  0  0  0  0  0  0  0  0  0
   -2.9967    2.1676    4.0007 H   0  0  0  0  0  0  0  0  0  0  0  0
    2.6156   -0.4625    6.7730 H   0  0  0  0  0  0  0  0  0  0  0  0
    1.4558   -1.6264    7.3430 H   0  0  0  0  0  0  0  0  0  0  0  0
    1.7283   -0.6217    3.1435 H   0  0  0  0  0  0  0  0  0  0  0  0
    2.9047   -0.0007    4.3031 H   0  0  0  0  0  0  0  0  0  0  0  0
    1.2755    0.6303    4.2872 H   0  0  0  0  0  0  0  0  0  0  0  0
    2.2713   -3.0283    4.0207 H   0  0  0  0  0  0  0  0  0  0  0  0
    2.0890   -3.3936    5.7288 H   0  0  0  0  0  0  0  0  0  0  0  0
    3.4018   -2.3587    5.1920 H   0  0  0  0  0  0  0  0  0  0  0  0
   -0.1801   -2.1603    3.9756 H   0  0  0  0  0  0  0  0  0  0  0  0
   -0.2394   -2.6686    5.6486 H   0  0  0  0  0  0  0  0  0  0  0  0
  1  2  1  0
  1 25  1  0
  1 26  1  0
  1 27  1  0
  2 17  1  0
  2  3  1  0
  3  9  2  0
  3  4  1  0
  4  5  2  0
  4 10  1  0
  5  6  1  0
  5  7  1  0
  7  8  1  0
  7 28  1  0
  7 29  1  0
  8  9  1  0
  8 30  1  0
  8 31  1  0
  9 32  1  0
 10 11  1  0
 10 16  1  0
 10 33  1  1
 11 15  1  0
 11 12  2  0
 12 13  1  0
 12 34  1  0
 13 14  2  0
 14 15  1  0
 16 23  1  0
 16 17  2  0
 17 18  1  0
 18 19  1  0
 18 35  1  0
 18 36  1  0
 19 20  1  0
 19 21  1  0
 19 22  1  0
 20 37  1  0
 20 38  1  0
 20 39  1  0
 21 40  1  0
 21 41  1  0
 21 42  1  0
 22 23  1  0
 22 43  1  0
 22 44  1  0
 23 24  2  0
M  CHG  1   6  -1
M  END
>  <i_m_ct_stereo_status>  (413) 
1

>  <s_m_source_file>  (413) 
/var/tmp/pbs.5076255.sched01/tmpt95b3wv2/135g3gtwtb2.sdf

>  <i_m_source_file_index>  (413) 
31

>  <i_lp_mmshare_version>  (413) 
48012

>  <i_f3d_flags>  (413) 
0

>  <s_epik_input>  (413) 
Tz1DMVtDSDJdQyhbQ0gzXSkoW0NIM10pW0NIMl1DKE4yW0NIM10pPUMxW0NASF0oYzNbY0hdbm5zMylDKD1DMjQpQyg9TylbQ0gyXVtDSDJdW0NIMl00

>  <s_epik_cmdline>  (413) 
J2VwaWtfcHl0aG9uJywgJy1waHQnLCAnMi4wJywgJy1waCcsICc3LjAnLCAnLXRuJywgJzgnLCAnLW1hJywgJzIwMCcsICctaW1hZScsICc8aW5maWxlLm1hZT4nLCAnLW9tYWUnLCAnPG91dGZpbGUubWFlPic=

>  <r_lp_tautomer_probability>  (413) 
1

>  <r_epik_Ionization_Penalty>  (413) 
0.435229

>  <r_epik_Ionization_Penalty_Charging>  (413) 
0.435226

>  <r_epik_Ionization_Penalty_Neutral>  (413) 
2.7649e-06

>  <r_epik_State_Penalty>  (413) 
0.436908

>  <r_epik_Charging_Adjusted_Penalty>  (413) 
0.872134

>  <i_epik_Tot_Q>  (413) 
-1

>  <i_epik_Tot_abs_Q>  (413) 
1

>  <s_epik_Chemistry_Notes>  (413) 
This compound has an imine and may undergo hydrolysis.

>  <s_lp_Force_Field>  (413) 
OPLS3e

>  <r_lp_Energy>  (413) 
24.5927

>  <b_lp_Chiralities_Consistent>  (413) 
1

>  <s_lp_Variant>  (413) 
104:0-2

>  <s_i_glide_gridfile>  (413) 
pfpi4k_grid

>  <i_i_glide_lignum>  (413) 
31

>  <i_i_glide_rotatable_bonds>  (413) 
1

>  <r_i_docking_score>  (413) 
-2.58005

>  <r_i_glide_ligand_efficiency>  (413) 
-0.107502

>  <r_i_glide_ligand_efficiency_sa>  (413) 
-0.310089

>  <r_i_glide_ligand_efficiency_ln>  (413) 
-0.617524

>  <r_i_glide_gscore>  (413) 
-2.58005

>  <r_i_glide_lipo>  (413) 
-0.0224333

>  <r_i_glide_hbond>  (413) 
0

>  <r_i_glide_metal>  (413) 
-0

>  <r_i_glide_rewards>  (413) 
-1.0743

>  <r_i_glide_evdw>  (413) 
-21.2958

>  <r_i_glide_ecoul>  (413) 
-2.48453

>  <r_i_glide_erotb>  (413) 
0.16171

>  <r_i_glide_esite>  (413) 
-0.207557

>  <r_i_glide_emodel>  (413) 
-28.7081

>  <r_i_glide_energy>  (413) 
-23.7803

>  <r_i_glide_einternal>  (413) 
0.243354

>  <r_i_glide_intrahb_reward>  (413) 
-0

>  <i_i_glide_confnum>  (413) 
4

>  <i_i_glide_posenum>  (413) 
15

>  <r_i_glide_eff_state_penalty>  (413) 
0

>  <ligand_id>  (413) 
104

>  <original_smiles>  (413) 
CN1C2=C(C(=O)CCC2)C(c2cnns2)C2=C1CC(C)(C)CC2=O

>  <smiles>  (413) 
[H]C1=C2C(=C([O-])C([H])([H])C1([H])[H])C([H])(c1snnc1[H])C1=C(N2C([H])([H])[H])C([H])([H])C(C([H])([H])[H])(C([H])([H])[H])C([H])([H])C1=O

$$$$
104:1:1
     RDKit          3D

 44 47  0  0  1  0  0  0  0  0999 V2000
    2.2733    1.5263    8.1434 C   0  0  0  0  0  0  0  0  0  0  0  0
    0.8979    1.0654    7.9928 N   0  0  0  0  0  0  0  0  0  0  0  0
   -0.1267    1.6680    8.7231 C   0  0  0  0  0  0  0  0  0  0  0  0
   -1.4004    1.9319    8.0519 C   0  0  0  0  0  0  0  0  0  0  0  0
   -2.4019    2.6301    8.7174 C   0  0  0  0  0  0  0  0  0  0  0  0
   -3.5475    2.9574    8.3323 O   0  0  0  0  0  0  0  0  0  0  0  0
   -2.1911    3.1877   10.1260 C   0  0  0  0  0  0  0  0  0  0  0  0
   -1.0158    2.5837   10.9066 C   0  0  0  0  0  0  0  0  0  0  0  0
    0.0413    1.9687   10.0266 C   0  0  0  0  0  0  0  0  0  0  0  0
   -1.6008    1.4608    6.6119 C   0  0  1  0  0  0  0  0  0  0  0  0
   -1.3829    2.5992    5.6485 C   0  0  0  0  0  0  0  0  0  0  0  0
   -0.5726    3.6977    5.7619 C   0  0  0  0  0  0  0  0  0  0  0  0
   -0.6366    4.5587    4.6570 N   0  0  0  0  0  0  0  0  0  0  0  0
   -1.4452    4.1562    3.7155 N   0  0  0  0  0  0  0  0  0  0  0  0
   -2.1798    2.7070    4.1234 S   0  0  0  0  0  0  0  0  0  0  0  0
   -0.6356    0.3181    6.3102 C   0  0  0  0  0  0  0  0  0  0  0  0
    0.5480    0.1881    6.9626 C   0  0  0  0  0  0  0  0  0  0  0  0
    1.5639   -0.9098    6.6250 C   0  0  0  0  0  0  0  0  0  0  0  0
    1.4186   -1.4091    5.1722 C   0  0  0  0  0  0  0  0  0  0  0  0
    1.8742   -0.2906    4.2006 C   0  0  0  0  0  0  0  0  0  0  0  0
    2.2931   -2.6577    4.9657 C   0  0  0  0  0  0  0  0  0  0  0  0
   -0.0566   -1.8020    4.9401 C   0  0  0  0  0  0  0  0  0  0  0  0
   -1.0432   -0.6889    5.3021 C   0  0  0  0  0  0  0  0  0  0  0  0
   -2.1675   -0.7228    4.8018 O   0  0  0  0  0  0  0  0  0  0  0  0
    2.3151    2.4874    8.6551 H   0  0  0  0  0  0  0  0  0  0  0  0
    2.7175    1.6726    7.1590 H   0  0  0  0  0  0  0  0  0  0  0  0
    2.8754    0.8055    8.6964 H   0  0  0  0  0  0  0  0  0  0  0  0
   -2.0320    4.2641   10.0479 H   0  0  0  0  0  0  0  0  0  0  0  0
   -3.0973    3.0668   10.7240 H   0  0  0  0  0  0  0  0  0  0  0  0
   -0.5636    3.3505   11.5341 H   0  0  0  0  0  0  0  0  0  0  0  0
   -1.3759    1.8113   11.5827 H   0  0  0  0  0  0  0  0  0  0  0  0
    0.9671    1.7361   10.5272 H   0  0  0  0  0  0  0  0  0  0  0  0
   -2.6235    1.1045    6.5283 H   0  0  0  0  0  0  0  0  0  0  0  0
    0.0715    3.9526    6.5936 H   0  0  0  0  0  0  0  0  0  0  0  0
    2.5923   -0.5892    6.7987 H   0  0  0  0  0  0  0  0  0  0  0  0
    1.3934   -1.7388    7.3125 H   0  0  0  0  0  0  0  0  0  0  0  0
    1.7445   -0.5826    3.1575 H   0  0  0  0  0  0  0  0  0  0  0  0
    2.9271   -0.0420    4.3513 H   0  0  0  0  0  0  0  0  0  0  0  0
    1.3170    0.6372    4.3442 H   0  0  0  0  0  0  0  0  0  0  0  0
    2.2118   -3.0362    3.9470 H   0  0  0  0  0  0  0  0  0  0  0  0
    1.9933   -3.4630    5.6362 H   0  0  0  0  0  0  0  0  0  0  0  0
    3.3448   -2.4479    5.1601 H   0  0  0  0  0  0  0  0  0  0  0  0
   -0.2104   -2.0980    3.9028 H   0  0  0  0  0  0  0  0  0  0  0  0
   -0.3087   -2.6682    5.5557 H   0  0  0  0  0  0  0  0  0  0  0  0
  1  2  1  0
  1 25  1  0
  1 26  1  0
  1 27  1  0
  2 17  1  0
  2  3  1  0
  3  9  2  0
  3  4  1  0
  4  5  2  0
  4 10  1  0
  5  6  1  0
  5  7  1  0
  7  8  1  0
  7 28  1  0
  7 29  1  0
  8  9  1  0
  8 30  1  0
  8 31  1  0
  9 32  1  0
 10 11  1  0
 10 16  1  0
 10 33  1  1
 11 15  1  0
 11 12  2  0
 12 13  1  0
 12 34  1  0
 13 14  2  0
 14 15  1  0
 16 23  1  0
 16 17  2  0
 17 18  1  0
 18 19  1  0
 18 35  1  0
 18 36  1  0
 19 20  1  0
 19 21  1  0
 19 22  1  0
 20 37  1  0
 20 38  1  0
 20 39  1  0
 21 40  1  0
 21 41  1  0
 21 42  1  0
 22 23  1  0
 22 43  1  0
 22 44  1  0
 23 24  2  0
M  CHG  1   6  -1
M  END
>  <i_m_ct_stereo_status>  (414) 
1

>  <s_m_source_file>  (414) 
/var/tmp/pbs.5076255.sched01/tmpt95b3wv2/135g3gtwtb2.sdf

>  <i_m_source_file_index>  (414) 
31

>  <i_lp_mmshare_version>  (414) 
48012

>  <i_f3d_flags>  (414) 
0

>  <s_epik_input>  (414) 
Tz1DMVtDSDJdQyhbQ0gzXSkoW0NIM10pW0NIMl1DKE4yW0NIM10pPUMxW0NASF0oYzNbY0hdbm5zMylDKD1DMjQpQyg9TylbQ0gyXVtDSDJdW0NIMl00

>  <s_epik_cmdline>  (414) 
J2VwaWtfcHl0aG9uJywgJy1waHQnLCAnMi4wJywgJy1waCcsICc3LjAnLCAnLXRuJywgJzgnLCAnLW1hJywgJzIwMCcsICctaW1hZScsICc8aW5maWxlLm1hZT4nLCAnLW9tYWUnLCAnPG91dGZpbGUubWFlPic=

>  <r_lp_tautomer_probability>  (414) 
1

>  <r_epik_Ionization_Penalty>  (414) 
0.435229

>  <r_epik_Ionization_Penalty_Charging>  (414) 
0.435226

>  <r_epik_Ionization_Penalty_Neutral>  (414) 
2.7649e-06

>  <r_epik_State_Penalty>  (414) 
0.436908

>  <r_epik_Charging_Adjusted_Penalty>  (414) 
0.872134

>  <i_epik_Tot_Q>  (414) 
-1

>  <i_epik_Tot_abs_Q>  (414) 
1

>  <s_epik_Chemistry_Notes>  (414) 
This compound has an imine and may undergo hydrolysis.

>  <s_lp_Force_Field>  (414) 
OPLS3e

>  <r_lp_Energy>  (414) 
24.5927

>  <b_lp_Chiralities_Consistent>  (414) 
1

>  <s_lp_Variant>  (414) 
104:0-2

>  <s_i_glide_gridfile>  (414) 
pfpi4k_grid

>  <i_i_glide_lignum>  (414) 
31

>  <i_i_glide_rotatable_bonds>  (414) 
1

>  <r_i_docking_score>  (414) 
-2.56836

>  <r_i_glide_ligand_efficiency>  (414) 
-0.107015

>  <r_i_glide_ligand_efficiency_sa>  (414) 
-0.308685

>  <r_i_glide_ligand_efficiency_ln>  (414) 
-0.614726

>  <r_i_glide_gscore>  (414) 
-2.56836

>  <r_i_glide_lipo>  (414) 
-0.0214478

>  <r_i_glide_hbond>  (414) 
0

>  <r_i_glide_metal>  (414) 
-0

>  <r_i_glide_rewards>  (414) 
-1.0743

>  <r_i_glide_evdw>  (414) 
-21.8878

>  <r_i_glide_ecoul>  (414) 
-2.28181

>  <r_i_glide_erotb>  (414) 
0.16171

>  <r_i_glide_esite>  (414) 
-0.197664

>  <r_i_glide_emodel>  (414) 
-29.1557

>  <r_i_glide_energy>  (414) 
-24.1696

>  <r_i_glide_einternal>  (414) 
0.15689

>  <r_i_glide_intrahb_reward>  (414) 
-0

>  <i_i_glide_confnum>  (414) 
2

>  <i_i_glide_posenum>  (414) 
27

>  <r_i_glide_eff_state_penalty>  (414) 
0

>  <ligand_id>  (414) 
104

>  <original_smiles>  (414) 
CN1C2=C(C(=O)CCC2)C(c2cnns2)C2=C1CC(C)(C)CC2=O

>  <smiles>  (414) 
[H]C1=C2C(=C([O-])C([H])([H])C1([H])[H])C([H])(c1snnc1[H])C1=C(N2C([H])([H])[H])C([H])([H])C(C([H])([H])[H])(C([H])([H])[H])C([H])([H])C1=O

$$$$
104:1:2
     RDKit          3D

 44 47  0  0  1  0  0  0  0  0999 V2000
    2.4138    3.6335    6.4778 C   0  0  0  0  0  0  0  0  0  0  0  0
    1.3406    2.6569    6.5958 N   0  0  0  0  0  0  0  0  0  0  0  0
    0.2570    2.9108    7.4399 C   0  0  0  0  0  0  0  0  0  0  0  0
   -1.0866    2.5821    6.9667 C   0  0  0  0  0  0  0  0  0  0  0  0
   -2.1865    2.8957    7.7523 C   0  0  0  0  0  0  0  0  0  0  0  0
   -3.3994    2.6815    7.5561 O   0  0  0  0  0  0  0  0  0  0  0  0
   -2.0491    3.6546    9.0721 C   0  0  0  0  0  0  0  0  0  0  0  0
   -0.6438    3.6602    9.6828 C   0  0  0  0  0  0  0  0  0  0  0  0
    0.4497    3.4042    8.6770 C   0  0  0  0  0  0  0  0  0  0  0  0
   -1.2588    1.8732    5.6274 C   0  0  1  0  0  0  0  0  0  0  0  0
   -1.6554    2.8563    4.5517 C   0  0  0  0  0  0  0  0  0  0  0  0
   -2.7706    2.8750    3.7623 C   0  0  0  0  0  0  0  0  0  0  0  0
   -2.8208    3.9599    2.8818 N   0  0  0  0  0  0  0  0  0  0  0  0
   -1.7834    4.7375    2.9425 N   0  0  0  0  0  0  0  0  0  0  0  0
   -0.6887    4.2054    4.0925 S   0  0  0  0  0  0  0  0  0  0  0  0
    0.0375    1.1629    5.2502 C   0  0  0  0  0  0  0  0  0  0  0  0
    1.2446    1.5896    5.6996 C   0  0  0  0  0  0  0  0  0  0  0  0
    2.5636    0.9422    5.2597 C   0  0  0  0  0  0  0  0  0  0  0  0
    2.4457    0.2472    3.8881 C   0  0  0  0  0  0  0  0  0  0  0  0
    2.2820    1.3205    2.7826 C   0  0  0  0  0  0  0  0  0  0  0  0
    3.7183   -0.5753    3.6177 C   0  0  0  0  0  0  0  0  0  0  0  0
    1.2379   -0.7166    3.9355 C   0  0  0  0  0  0  0  0  0  0  0  0
   -0.0607   -0.0430    4.3951 C   0  0  0  0  0  0  0  0  0  0  0  0
   -1.1337   -0.5641    4.0848 O   0  0  0  0  0  0  0  0  0  0  0  0
    2.1232    4.5898    6.9116 H   0  0  0  0  0  0  0  0  0  0  0  0
    2.6260    3.8128    5.4229 H   0  0  0  0  0  0  0  0  0  0  0  0
    3.3209    3.2789    6.9674 H   0  0  0  0  0  0  0  0  0  0  0  0
   -2.3549    4.6863    8.8977 H   0  0  0  0  0  0  0  0  0  0  0  0
   -2.7515    3.2637    9.8118 H   0  0  0  0  0  0  0  0  0  0  0  0
   -0.4675    4.6154   10.1712 H   0  0  0  0  0  0  0  0  0  0  0  0
   -0.5736    2.9013   10.4573 H   0  0  0  0  0  0  0  0  0  0  0  0
    1.4460    3.6096    9.0330 H   0  0  0  0  0  0  0  0  0  0  0  0
   -2.0502    1.1304    5.7506 H   0  0  0  0  0  0  0  0  0  0  0  0
   -3.5803    2.1600    3.7464 H   0  0  0  0  0  0  0  0  0  0  0  0
    3.3859    1.6569    5.2390 H   0  0  0  0  0  0  0  0  0  0  0  0
    2.8338    0.2049    6.0154 H   0  0  0  0  0  0  0  0  0  0  0  0
    2.1504    0.8736    1.7964 H   0  0  0  0  0  0  0  0  0  0  0  0
    3.1503    1.9798    2.7400 H   0  0  0  0  0  0  0  0  0  0  0  0
    1.4205    1.9664    2.9562 H   0  0  0  0  0  0  0  0  0  0  0  0
    3.6702   -1.0820    2.6539 H   0  0  0  0  0  0  0  0  0  0  0  0
    3.8605   -1.3427    4.3787 H   0  0  0  0  0  0  0  0  0  0  0  0
    4.6106    0.0503    3.6197 H   0  0  0  0  0  0  0  0  0  0  0  0
    1.0839   -1.1755    2.9592 H   0  0  0  0  0  0  0  0  0  0  0  0
    1.4423   -1.5290    4.6352 H   0  0  0  0  0  0  0  0  0  0  0  0
  1  2  1  0
  1 25  1  0
  1 26  1  0
  1 27  1  0
  2 17  1  0
  2  3  1  0
  3  9  2  0
  3  4  1  0
  4  5  2  0
  4 10  1  0
  5  6  1  0
  5  7  1  0
  7  8  1  0
  7 28  1  0
  7 29  1  0
  8  9  1  0
  8 30  1  0
  8 31  1  0
  9 32  1  0
 10 11  1  0
 10 16  1  0
 10 33  1  1
 11 15  1  0
 11 12  2  0
 12 13  1  0
 12 34  1  0
 13 14  2  0
 14 15  1  0
 16 23  1  0
 16 17  2  0
 17 18  1  0
 18 19  1  0
 18 35  1  0
 18 36  1  0
 19 20  1  0
 19 21  1  0
 19 22  1  0
 20 37  1  0
 20 38  1  0
 20 39  1  0
 21 40  1  0
 21 41  1  0
 21 42  1  0
 22 23  1  0
 22 43  1  0
 22 44  1  0
 23 24  2  0
M  CHG  1   6  -1
M  END
>  <i_m_ct_stereo_status>  (415) 
1

>  <s_m_source_file>  (415) 
/var/tmp/pbs.5076255.sched01/tmpt95b3wv2/135g3gtwtb2.sdf

>  <i_m_source_file_index>  (415) 
31

>  <i_lp_mmshare_version>  (415) 
48012

>  <i_f3d_flags>  (415) 
0

>  <s_epik_input>  (415) 
Tz1DMVtDSDJdQyhbQ0gzXSkoW0NIM10pW0NIMl1DKE4yW0NIM10pPUMxW0NASF0oYzNbY0hdbm5zMylDKD1DMjQpQyg9TylbQ0gyXVtDSDJdW0NIMl00

>  <s_epik_cmdline>  (415) 
J2VwaWtfcHl0aG9uJywgJy1waHQnLCAnMi4wJywgJy1waCcsICc3LjAnLCAnLXRuJywgJzgnLCAnLW1hJywgJzIwMCcsICctaW1hZScsICc8aW5maWxlLm1hZT4nLCAnLW9tYWUnLCAnPG91dGZpbGUubWFlPic=

>  <r_lp_tautomer_probability>  (415) 
1

>  <r_epik_Ionization_Penalty>  (415) 
0.435229

>  <r_epik_Ionization_Penalty_Charging>  (415) 
0.435226

>  <r_epik_Ionization_Penalty_Neutral>  (415) 
2.7649e-06

>  <r_epik_State_Penalty>  (415) 
0.436908

>  <r_epik_Charging_Adjusted_Penalty>  (415) 
0.872134

>  <i_epik_Tot_Q>  (415) 
-1

>  <i_epik_Tot_abs_Q>  (415) 
1

>  <s_epik_Chemistry_Notes>  (415) 
This compound has an imine and may undergo hydrolysis.

>  <s_lp_Force_Field>  (415) 
OPLS3e

>  <r_lp_Energy>  (415) 
24.5927

>  <b_lp_Chiralities_Consistent>  (415) 
1

>  <s_lp_Variant>  (415) 
104:0-2

>  <s_i_glide_gridfile>  (415) 
pfpi4k_grid

>  <i_i_glide_lignum>  (415) 
31

>  <i_i_glide_rotatable_bonds>  (415) 
1

>  <r_i_docking_score>  (415) 
-2.37528

>  <r_i_glide_ligand_efficiency>  (415) 
-0.0989699

>  <r_i_glide_ligand_efficiency_sa>  (415) 
-0.285478

>  <r_i_glide_ligand_efficiency_ln>  (415) 
-0.568513

>  <r_i_glide_gscore>  (415) 
-2.37528

>  <r_i_glide_lipo>  (415) 
-0.0808913

>  <r_i_glide_hbond>  (415) 
-8.08102e-05

>  <r_i_glide_metal>  (415) 
-0

>  <r_i_glide_rewards>  (415) 
-1.0743

>  <r_i_glide_evdw>  (415) 
-18.6289

>  <r_i_glide_ecoul>  (415) 
-1.78019

>  <r_i_glide_erotb>  (415) 
0.16171

>  <r_i_glide_esite>  (415) 
-0.183243

>  <r_i_glide_emodel>  (415) 
-24.9659

>  <r_i_glide_energy>  (415) 
-20.4091

>  <r_i_glide_einternal>  (415) 
0.117809

>  <r_i_glide_intrahb_reward>  (415) 
-0

>  <i_i_glide_confnum>  (415) 
2

>  <i_i_glide_posenum>  (415) 
18

>  <r_i_glide_eff_state_penalty>  (415) 
0

>  <ligand_id>  (415) 
104

>  <original_smiles>  (415) 
CN1C2=C(C(=O)CCC2)C(c2cnns2)C2=C1CC(C)(C)CC2=O

>  <smiles>  (415) 
[H]C1=C2C(=C([O-])C([H])([H])C1([H])[H])C([H])(c1snnc1[H])C1=C(N2C([H])([H])[H])C([H])([H])C(C([H])([H])[H])(C([H])([H])[H])C([H])([H])C1=O

$$$$
105:0:0
     RDKit          3D

 43 45  0  0  1  0  0  0  0  0999 V2000
    1.1178  -11.5917    4.0608 C   0  0  0  0  0  0  0  0  0  0  0  0
    2.1390  -11.0997    3.6070 C   0  0  0  0  0  0  0  0  0  0  0  0
    3.3941  -10.5211    3.0999 C   0  0  0  0  0  0  0  0  0  0  0  0
    3.4199   -8.9811    3.0598 C   0  0  0  0  0  0  0  0  0  0  0  0
    2.5412   -8.3691    1.9489 C   0  0  0  0  0  0  0  0  0  0  0  0
    2.3372   -6.8434    2.0868 C   0  0  2  0  0  0  0  0  0  0  0  0
    1.3620   -6.3437    1.0258 C   0  0  0  0  0  0  0  0  0  0  0  0
    0.1528   -6.5274    1.0637 O   0  0  0  0  0  0  0  0  0  0  0  0
    2.0166   -5.6319    0.1065 O   0  0  0  0  0  0  0  0  0  0  0  0
    3.4258   -5.6150    0.3015 C   0  0  2  0  0  0  0  0  0  0  0  0
    3.5866   -6.0101    1.7928 C   0  0  1  0  0  0  0  0  0  0  0  0
    3.7802   -4.8612    2.8215 C   0  0  0  0  0  0  0  0  0  0  0  0
    3.8658   -5.1184    4.0232 O   0  0  0  0  0  0  0  0  0  0  0  0
    3.8821   -3.5799    2.3394 O   0  0  0  0  0  0  0  0  0  0  0  0
    3.4703   -3.2805    1.0125 C   0  0  1  0  0  0  0  0  0  0  0  0
    3.9619   -1.9650    0.4069 C   0  0  1  0  0  0  0  0  0  0  0  0
    5.3206   -1.8147    0.6825 O   0  0  0  0  0  0  0  0  0  0  0  0
    5.8647   -0.5774    0.2615 C   0  0  0  0  0  0  0  0  0  0  0  0
    3.7506   -2.1643   -0.9710 O   0  0  0  0  0  0  0  0  0  0  0  0
    3.8124   -3.5419   -1.2808 C   0  0  1  0  0  0  0  0  0  0  0  0
    4.8097   -3.8585   -2.2119 O   0  0  0  0  0  0  0  0  0  0  0  0
    6.0242   -3.1325   -2.1099 C   0  0  0  0  0  0  0  0  0  0  0  0
    4.0751   -4.2520    0.0567 C   0  0  2  0  0  0  0  0  0  0  0  0
    0.2417  -12.0316    4.4824 H   0  0  0  0  0  0  0  0  0  0  0  0
    4.1926  -10.8802    3.7468 H   0  0  0  0  0  0  0  0  0  0  0  0
    3.5797  -10.9340    2.1107 H   0  0  0  0  0  0  0  0  0  0  0  0
    3.1158   -8.5831    4.0291 H   0  0  0  0  0  0  0  0  0  0  0  0
    4.4489   -8.6551    2.9067 H   0  0  0  0  0  0  0  0  0  0  0  0
    2.9799   -8.6057    0.9742 H   0  0  0  0  0  0  0  0  0  0  0  0
    1.5601   -8.8521    1.9522 H   0  0  0  0  0  0  0  0  0  0  0  0
    1.8966   -6.6121    3.0598 H   0  0  0  0  0  0  0  0  0  0  0  0
    3.8866   -6.3716   -0.3330 H   0  0  0  0  0  0  0  0  0  0  0  0
    4.4779   -6.6195    1.9017 H   0  0  0  0  0  0  0  0  0  0  0  0
    2.3831   -3.2853    0.9510 H   0  0  0  0  0  0  0  0  0  0  0  0
    3.4015   -1.1018    0.7738 H   0  0  0  0  0  0  0  0  0  0  0  0
    6.9281   -0.5564    0.5022 H   0  0  0  0  0  0  0  0  0  0  0  0
    5.3795    0.2530    0.7748 H   0  0  0  0  0  0  0  0  0  0  0  0
    5.7682   -0.4328   -0.8148 H   0  0  0  0  0  0  0  0  0  0  0  0
    2.8459   -3.8433   -1.6964 H   0  0  0  0  0  0  0  0  0  0  0  0
    6.7356   -3.4731   -2.8612 H   0  0  0  0  0  0  0  0  0  0  0  0
    6.4903   -3.2625   -1.1348 H   0  0  0  0  0  0  0  0  0  0  0  0
    5.8431   -2.0726   -2.2862 H   0  0  0  0  0  0  0  0  0  0  0  0
    5.1479   -4.3322    0.2362 H   0  0  0  0  0  0  0  0  0  0  0  0
  1  2  3  0
  1 24  1  0
  2  3  1  0
  3  4  1  0
  3 25  1  0
  3 26  1  0
  4  5  1  0
  4 27  1  0
  4 28  1  0
  5  6  1  0
  5 29  1  0
  5 30  1  0
  6 11  1  0
  6  7  1  0
  6 31  1  1
  7  8  2  0
  7  9  1  0
  9 10  1  0
 10 23  1  0
 10 11  1  0
 10 32  1  6
 11 12  1  0
 11 33  1  6
 12 13  2  0
 12 14  1  0
 14 15  1  0
 15 23  1  0
 15 16  1  0
 15 34  1  1
 16 17  1  0
 16 19  1  0
 16 35  1  1
 17 18  1  0
 18 36  1  0
 18 37  1  0
 18 38  1  0
 19 20  1  0
 20 21  1  0
 20 23  1  0
 20 39  1  6
 21 22  1  0
 22 40  1  0
 22 41  1  0
 22 42  1  0
 23 43  1  1
M  END
>  <i_m_ct_stereo_status>  (416) 
1

>  <s_m_source_file>  (416) 
/var/tmp/pbs.5076255.sched01/tmpt95b3wv2/135g3gtwtb2.sdf

>  <i_m_source_file_index>  (416) 
32

>  <i_lp_mmshare_version>  (416) 
48012

>  <i_f3d_flags>  (416) 
0

>  <s_epik_input>  (416) 
W0NIXSNDW0NIMl1bQ0gyXVtDSDJdW0NASF0oQyg9TylPMSlbQ0BASF0oW0NAQEhdMTIpQyg9TylPW0NAQEhdM1tDQEBIXTJbQ0BIXShPW0NIM10pT1tDQEBIXTNPW0NIM10=

>  <s_epik_cmdline>  (416) 
J2VwaWtfcHl0aG9uJywgJy1waHQnLCAnMi4wJywgJy1waCcsICc3LjAnLCAnLXRuJywgJzgnLCAnLW1hJywgJzIwMCcsICctaW1hZScsICc8aW5maWxlLm1hZT4nLCAnLW9tYWUnLCAnPG91dGZpbGUubWFlPic=

>  <r_lp_tautomer_probability>  (416) 
1

>  <r_epik_Ionization_Penalty>  (416) 
1.4011e-13

>  <r_epik_Ionization_Penalty_Charging>  (416) 
0

>  <r_epik_Ionization_Penalty_Neutral>  (416) 
1.4011e-13

>  <r_epik_State_Penalty>  (416) 
-0

>  <r_epik_Charging_Adjusted_Penalty>  (416) 
0

>  <i_epik_Tot_Q>  (416) 
0

>  <i_epik_Tot_abs_Q>  (416) 
0

>  <s_epik_Chemistry_Notes>  (416) 
This compound has an ester and may undergo hydrolysis at high or low pH. This compound contains an acetal/aminal-like group ( X-CH(R)-Y where X, Y are N, S, or O) that may be acid/base labile, releasing an aldehyde.

>  <s_lp_Force_Field>  (416) 
OPLS3e

>  <r_lp_Energy>  (416) 
4.93647

>  <b_lp_Chiralities_Consistent>  (416) 
1

>  <s_lp_Variant>  (416) 
105:0-1

>  <s_i_glide_gridfile>  (416) 
pfpi4k_grid

>  <i_i_glide_lignum>  (416) 
32

>  <i_i_glide_rotatable_bonds>  (416) 
6

>  <r_i_docking_score>  (416) 
-2.87596

>  <r_i_glide_ligand_efficiency>  (416) 
-0.125042

>  <r_i_glide_ligand_efficiency_sa>  (416) 
-0.355602

>  <r_i_glide_ligand_efficiency_ln>  (416) 
-0.695433

>  <r_i_glide_gscore>  (416) 
-2.87596

>  <r_i_glide_lipo>  (416) 
-0.462437

>  <r_i_glide_hbond>  (416) 
-0.174762

>  <r_i_glide_metal>  (416) 
-0

>  <r_i_glide_rewards>  (416) 
-1.19778

>  <r_i_glide_evdw>  (416) 
-23.2801

>  <r_i_glide_ecoul>  (416) 
-3.25904

>  <r_i_glide_erotb>  (416) 
0.712107

>  <r_i_glide_esite>  (416) 
-0.100229

>  <r_i_glide_emodel>  (416) 
-28.2274

>  <r_i_glide_energy>  (416) 
-26.5391

>  <r_i_glide_einternal>  (416) 
6.62711

>  <r_i_glide_intrahb_reward>  (416) 
-0

>  <i_i_glide_confnum>  (416) 
4

>  <i_i_glide_posenum>  (416) 
2

>  <r_i_glide_eff_state_penalty>  (416) 
0

>  <ligand_id>  (416) 
105

>  <original_smiles>  (416) 
C#CCCCC1C(=O)OC2C1C(=O)OC1C(OC)OC(OC)C12

>  <smiles>  (416) 
[H]C#CC([H])([H])C([H])([H])C([H])([H])C1([H])C(=O)OC2([H])C1([H])C(=O)OC1([H])C([H])(OC([H])([H])[H])OC([H])(OC([H])([H])[H])C12[H]

$$$$
105:0:1
     RDKit          3D

 43 45  0  0  1  0  0  0  0  0999 V2000
    1.1301  -11.6320    4.2073 C   0  0  0  0  0  0  0  0  0  0  0  0
    2.1198  -10.9405    4.0281 C   0  0  0  0  0  0  0  0  0  0  0  0
    3.3246  -10.1145    3.8429 C   0  0  0  0  0  0  0  0  0  0  0  0
    3.0561   -8.6011    3.7268 C   0  0  0  0  0  0  0  0  0  0  0  0
    2.3001   -8.1862    2.4450 C   0  0  0  0  0  0  0  0  0  0  0  0
    1.9309   -6.6849    2.3890 C   0  0  2  0  0  0  0  0  0  0  0  0
    1.1109   -6.3839    1.1408 C   0  0  0  0  0  0  0  0  0  0  0  0
   -0.0792   -6.6512    1.0239 O   0  0  0  0  0  0  0  0  0  0  0  0
    1.8529   -5.7184    0.2569 O   0  0  0  0  0  0  0  0  0  0  0  0
    3.1988   -5.5213    0.6673 C   0  0  2  0  0  0  0  0  0  0  0  0
    3.1356   -5.7507    2.2013 C   0  0  1  0  0  0  0  0  0  0  0  0
    3.0588   -4.4911    3.1121 C   0  0  0  0  0  0  0  0  0  0  0  0
    2.9688   -4.6266    4.3315 O   0  0  0  0  0  0  0  0  0  0  0  0
    3.1468   -3.2616    2.5124 O   0  0  0  0  0  0  0  0  0  0  0  0
    2.9309   -3.1345    1.1150 C   0  0  1  0  0  0  0  0  0  0  0  0
    3.4129   -1.8468    0.4575 C   0  0  1  0  0  0  0  0  0  0  0  0
    4.6823   -1.5343    0.9406 O   0  0  0  0  0  0  0  0  0  0  0  0
    5.1831   -0.3071    0.4372 C   0  0  0  0  0  0  0  0  0  0  0  0
    3.4603   -2.1906   -0.9056 O   0  0  0  0  0  0  0  0  0  0  0  0
    3.6265   -3.5808   -1.0596 C   0  0  1  0  0  0  0  0  0  0  0  0
    4.7945   -3.8828   -1.7527 O   0  0  0  0  0  0  0  0  0  0  0  0
    4.7440   -3.5008   -3.1192 C   0  0  0  0  0  0  0  0  0  0  0  0
    3.7514   -4.1250    0.3656 C   0  0  2  0  0  0  0  0  0  0  0  0
    0.2751  -12.2452    4.3824 H   0  0  0  0  0  0  0  0  0  0  0  0
    3.9751  -10.3038    4.6958 H   0  0  0  0  0  0  0  0  0  0  0  0
    3.8478  -10.4826    2.9609 H   0  0  0  0  0  0  0  0  0  0  0  0
    2.5055   -8.2571    4.6043 H   0  0  0  0  0  0  0  0  0  0  0  0
    4.0162   -8.0865    3.7541 H   0  0  0  0  0  0  0  0  0  0  0  0
    2.8993   -8.4566    1.5705 H   0  0  0  0  0  0  0  0  0  0  0  0
    1.3820   -8.7741    2.3646 H   0  0  0  0  0  0  0  0  0  0  0  0
    1.3206   -6.4191    3.2562 H   0  0  0  0  0  0  0  0  0  0  0  0
    3.8221   -6.2882    0.2059 H   0  0  0  0  0  0  0  0  0  0  0  0
    4.0460   -6.2506    2.5166 H   0  0  0  0  0  0  0  0  0  0  0  0
    1.8727   -3.2425    0.8876 H   0  0  0  0  0  0  0  0  0  0  0  0
    2.7254   -1.0147    0.6247 H   0  0  0  0  0  0  0  0  0  0  0  0
    6.1780   -0.1243    0.8429 H   0  0  0  0  0  0  0  0  0  0  0  0
    4.5392    0.5248    0.7272 H   0  0  0  0  0  0  0  0  0  0  0  0
    5.2635   -0.3254   -0.6516 H   0  0  0  0  0  0  0  0  0  0  0  0
    2.7470   -3.9822   -1.5668 H   0  0  0  0  0  0  0  0  0  0  0  0
    5.6855   -3.7643   -3.6014 H   0  0  0  0  0  0  0  0  0  0  0  0
    4.5998   -2.4246   -3.2338 H   0  0  0  0  0  0  0  0  0  0  0  0
    3.9409   -4.0163   -3.6487 H   0  0  0  0  0  0  0  0  0  0  0  0
    4.7970   -4.0596    0.6705 H   0  0  0  0  0  0  0  0  0  0  0  0
  1  2  3  0
  1 24  1  0
  2  3  1  0
  3  4  1  0
  3 25  1  0
  3 26  1  0
  4  5  1  0
  4 27  1  0
  4 28  1  0
  5  6  1  0
  5 29  1  0
  5 30  1  0
  6 11  1  0
  6  7  1  0
  6 31  1  1
  7  8  2  0
  7  9  1  0
  9 10  1  0
 10 23  1  0
 10 11  1  0
 10 32  1  6
 11 12  1  0
 11 33  1  1
 12 13  2  0
 12 14  1  0
 14 15  1  0
 15 23  1  0
 15 16  1  0
 15 34  1  1
 16 17  1  0
 16 19  1  0
 16 35  1  6
 17 18  1  0
 18 36  1  0
 18 37  1  0
 18 38  1  0
 19 20  1  0
 20 21  1  0
 20 23  1  0
 20 39  1  6
 21 22  1  0
 22 40  1  0
 22 41  1  0
 22 42  1  0
 23 43  1  1
M  END
>  <i_m_ct_stereo_status>  (417) 
1

>  <s_m_source_file>  (417) 
/var/tmp/pbs.5076255.sched01/tmpt95b3wv2/135g3gtwtb2.sdf

>  <i_m_source_file_index>  (417) 
32

>  <i_lp_mmshare_version>  (417) 
48012

>  <i_f3d_flags>  (417) 
0

>  <s_epik_input>  (417) 
W0NIXSNDW0NIMl1bQ0gyXVtDSDJdW0NASF0oQyg9TylPMSlbQ0BASF0oW0NAQEhdMTIpQyg9TylPW0NAQEhdM1tDQEBIXTJbQ0BIXShPW0NIM10pT1tDQEBIXTNPW0NIM10=

>  <s_epik_cmdline>  (417) 
J2VwaWtfcHl0aG9uJywgJy1waHQnLCAnMi4wJywgJy1waCcsICc3LjAnLCAnLXRuJywgJzgnLCAnLW1hJywgJzIwMCcsICctaW1hZScsICc8aW5maWxlLm1hZT4nLCAnLW9tYWUnLCAnPG91dGZpbGUubWFlPic=

>  <r_lp_tautomer_probability>  (417) 
1

>  <r_epik_Ionization_Penalty>  (417) 
1.4011e-13

>  <r_epik_Ionization_Penalty_Charging>  (417) 
0

>  <r_epik_Ionization_Penalty_Neutral>  (417) 
1.4011e-13

>  <r_epik_State_Penalty>  (417) 
-0

>  <r_epik_Charging_Adjusted_Penalty>  (417) 
0

>  <i_epik_Tot_Q>  (417) 
0

>  <i_epik_Tot_abs_Q>  (417) 
0

>  <s_epik_Chemistry_Notes>  (417) 
This compound has an ester and may undergo hydrolysis at high or low pH. This compound contains an acetal/aminal-like group ( X-CH(R)-Y where X, Y are N, S, or O) that may be acid/base labile, releasing an aldehyde.

>  <s_lp_Force_Field>  (417) 
OPLS3e

>  <r_lp_Energy>  (417) 
4.93647

>  <b_lp_Chiralities_Consistent>  (417) 
1

>  <s_lp_Variant>  (417) 
105:0-1

>  <s_i_glide_gridfile>  (417) 
pfpi4k_grid

>  <i_i_glide_lignum>  (417) 
32

>  <i_i_glide_rotatable_bonds>  (417) 
6

>  <r_i_docking_score>  (417) 
-2.86625

>  <r_i_glide_ligand_efficiency>  (417) 
-0.124619

>  <r_i_glide_ligand_efficiency_sa>  (417) 
-0.354401

>  <r_i_glide_ligand_efficiency_ln>  (417) 
-0.693085

>  <r_i_glide_gscore>  (417) 
-2.86625

>  <r_i_glide_lipo>  (417) 
-0.394153

>  <r_i_glide_hbond>  (417) 
-0.219702

>  <r_i_glide_metal>  (417) 
-0

>  <r_i_glide_rewards>  (417) 
-1.20612

>  <r_i_glide_evdw>  (417) 
-23.4822

>  <r_i_glide_ecoul>  (417) 
-2.97751

>  <r_i_glide_erotb>  (417) 
0.712107

>  <r_i_glide_esite>  (417) 
-0.137638

>  <r_i_glide_emodel>  (417) 
-30.4552

>  <r_i_glide_energy>  (417) 
-26.4597

>  <r_i_glide_einternal>  (417) 
2.33838

>  <r_i_glide_intrahb_reward>  (417) 
-0

>  <i_i_glide_confnum>  (417) 
4

>  <i_i_glide_posenum>  (417) 
18

>  <r_i_glide_eff_state_penalty>  (417) 
0

>  <ligand_id>  (417) 
105

>  <original_smiles>  (417) 
C#CCCCC1C(=O)OC2C1C(=O)OC1C(OC)OC(OC)C12

>  <smiles>  (417) 
[H]C#CC([H])([H])C([H])([H])C([H])([H])C1([H])C(=O)OC2([H])C1([H])C(=O)OC1([H])C([H])(OC([H])([H])[H])OC([H])(OC([H])([H])[H])C12[H]

$$$$
105:0:2
     RDKit          3D

 43 45  0  0  1  0  0  0  0  0999 V2000
   -4.1730    3.3477    2.0586 C   0  0  0  0  0  0  0  0  0  0  0  0
   -3.3188    3.1563    2.9102 C   0  0  0  0  0  0  0  0  0  0  0  0
   -2.3221    2.9335    3.9690 C   0  0  0  0  0  0  0  0  0  0  0  0
   -0.8626    2.8559    3.4954 C   0  0  0  0  0  0  0  0  0  0  0  0
   -0.5094    1.5905    2.6692 C   0  0  0  0  0  0  0  0  0  0  0  0
    0.7374    0.8157    3.1740 C   0  0  2  0  0  0  0  0  0  0  0  0
    2.0156    1.6527    3.0821 C   0  0  0  0  0  0  0  0  0  0  0  0
    2.2984    2.5644    3.8470 O   0  0  0  0  0  0  0  0  0  0  0  0
    2.7829    1.1948    2.0907 O   0  0  0  0  0  0  0  0  0  0  0  0
    2.1899    0.1352    1.3591 C   0  0  2  0  0  0  0  0  0  0  0  0
    1.0867   -0.3939    2.3014 C   0  0  1  0  0  0  0  0  0  0  0  0
    1.4100   -1.6699    3.1329 C   0  0  0  0  0  0  0  0  0  0  0  0
    0.5764   -2.1266    3.9180 O   0  0  0  0  0  0  0  0  0  0  0  0
    2.6241   -2.2849    2.9334 O   0  0  0  0  0  0  0  0  0  0  0  0
    3.6684   -1.5843    2.2656 C   0  0  1  0  0  0  0  0  0  0  0  0
    4.8409   -2.4078    1.7276 C   0  0  1  0  0  0  0  0  0  0  0  0
    4.3563   -3.5384    1.0661 O   0  0  0  0  0  0  0  0  0  0  0  0
    5.3576   -4.4238    0.5843 C   0  0  0  0  0  0  0  0  0  0  0  0
    5.4456   -1.5136    0.8238 O   0  0  0  0  0  0  0  0  0  0  0  0
    4.4819   -0.6197    0.3029 C   0  0  1  0  0  0  0  0  0  0  0  0
    4.3508   -0.6896   -1.0896 O   0  0  0  0  0  0  0  0  0  0  0  0
    4.4050   -1.9868   -1.6680 C   0  0  0  0  0  0  0  0  0  0  0  0
    3.1611   -0.9878    0.9938 C   0  0  2  0  0  0  0  0  0  0  0  0
   -4.9166    3.5000    1.3096 H   0  0  0  0  0  0  0  0  0  0  0  0
   -2.4290    3.7448    4.6852 H   0  0  0  0  0  0  0  0  0  0  0  0
   -2.5855    2.0173    4.4954 H   0  0  0  0  0  0  0  0  0  0  0  0
   -0.6076    3.7398    2.9088 H   0  0  0  0  0  0  0  0  0  0  0  0
   -0.2355    2.9078    4.3834 H   0  0  0  0  0  0  0  0  0  0  0  0
   -1.3585    0.9015    2.6527 H   0  0  0  0  0  0  0  0  0  0  0  0
   -0.3631    1.8836    1.6230 H   0  0  0  0  0  0  0  0  0  0  0  0
    0.5910    0.5289    4.2172 H   0  0  0  0  0  0  0  0  0  0  0  0
    1.7161    0.5483    0.4757 H   0  0  0  0  0  0  0  0  0  0  0  0
    0.2338   -0.6733    1.6921 H   0  0  0  0  0  0  0  0  0  0  0  0
    4.0772   -0.8134    2.9221 H   0  0  0  0  0  0  0  0  0  0  0  0
    5.5306   -2.7092    2.5202 H   0  0  0  0  0  0  0  0  0  0  0  0
    4.8751   -5.2714    0.0956 H   0  0  0  0  0  0  0  0  0  0  0  0
    5.9636   -4.8120    1.4036 H   0  0  0  0  0  0  0  0  0  0  0  0
    6.0082   -3.9443   -0.1483 H   0  0  0  0  0  0  0  0  0  0  0  0
    4.7873    0.3966    0.5656 H   0  0  0  0  0  0  0  0  0  0  0  0
    4.2485   -1.9393   -2.7470 H   0  0  0  0  0  0  0  0  0  0  0  0
    3.6402   -2.6449   -1.2625 H   0  0  0  0  0  0  0  0  0  0  0  0
    5.3841   -2.4285   -1.4895 H   0  0  0  0  0  0  0  0  0  0  0  0
    2.6267   -1.7462    0.4206 H   0  0  0  0  0  0  0  0  0  0  0  0
  1  2  3  0
  1 24  1  0
  2  3  1  0
  3  4  1  0
  3 25  1  0
  3 26  1  0
  4  5  1  0
  4 27  1  0
  4 28  1  0
  5  6  1  0
  5 29  1  0
  5 30  1  0
  6 11  1  0
  6  7  1  0
  6 31  1  1
  7  8  2  0
  7  9  1  0
  9 10  1  0
 10 23  1  0
 10 11  1  0
 10 32  1  6
 11 12  1  0
 11 33  1  6
 12 13  2  0
 12 14  1  0
 14 15  1  0
 15 23  1  0
 15 16  1  0
 15 34  1  1
 16 17  1  0
 16 19  1  0
 16 35  1  1
 17 18  1  0
 18 36  1  0
 18 37  1  0
 18 38  1  0
 19 20  1  0
 20 21  1  0
 20 23  1  0
 20 39  1  6
 21 22  1  0
 22 40  1  0
 22 41  1  0
 22 42  1  0
 23 43  1  6
M  END
>  <i_m_ct_stereo_status>  (418) 
1

>  <s_m_source_file>  (418) 
/var/tmp/pbs.5076255.sched01/tmpt95b3wv2/135g3gtwtb2.sdf

>  <i_m_source_file_index>  (418) 
32

>  <i_lp_mmshare_version>  (418) 
48012

>  <i_f3d_flags>  (418) 
0

>  <s_epik_input>  (418) 
W0NIXSNDW0NIMl1bQ0gyXVtDSDJdW0NASF0oQyg9TylPMSlbQ0BASF0oW0NAQEhdMTIpQyg9TylPW0NAQEhdM1tDQEBIXTJbQ0BIXShPW0NIM10pT1tDQEBIXTNPW0NIM10=

>  <s_epik_cmdline>  (418) 
J2VwaWtfcHl0aG9uJywgJy1waHQnLCAnMi4wJywgJy1waCcsICc3LjAnLCAnLXRuJywgJzgnLCAnLW1hJywgJzIwMCcsICctaW1hZScsICc8aW5maWxlLm1hZT4nLCAnLW9tYWUnLCAnPG91dGZpbGUubWFlPic=

>  <r_lp_tautomer_probability>  (418) 
1

>  <r_epik_Ionization_Penalty>  (418) 
1.4011e-13

>  <r_epik_Ionization_Penalty_Charging>  (418) 
0

>  <r_epik_Ionization_Penalty_Neutral>  (418) 
1.4011e-13

>  <r_epik_State_Penalty>  (418) 
-0

>  <r_epik_Charging_Adjusted_Penalty>  (418) 
0

>  <i_epik_Tot_Q>  (418) 
0

>  <i_epik_Tot_abs_Q>  (418) 
0

>  <s_epik_Chemistry_Notes>  (418) 
This compound has an ester and may undergo hydrolysis at high or low pH. This compound contains an acetal/aminal-like group ( X-CH(R)-Y where X, Y are N, S, or O) that may be acid/base labile, releasing an aldehyde.

>  <s_lp_Force_Field>  (418) 
OPLS3e

>  <r_lp_Energy>  (418) 
4.93647

>  <b_lp_Chiralities_Consistent>  (418) 
1

>  <s_lp_Variant>  (418) 
105:0-1

>  <s_i_glide_gridfile>  (418) 
pfpi4k_grid

>  <i_i_glide_lignum>  (418) 
32

>  <i_i_glide_rotatable_bonds>  (418) 
6

>  <r_i_docking_score>  (418) 
-2.3075

>  <r_i_glide_ligand_efficiency>  (418) 
-0.100326

>  <r_i_glide_ligand_efficiency_sa>  (418) 
-0.285314

>  <r_i_glide_ligand_efficiency_ln>  (418) 
-0.557975

>  <r_i_glide_gscore>  (418) 
-2.3075

>  <r_i_glide_lipo>  (418) 
-0.217476

>  <r_i_glide_hbond>  (418) 
0

>  <r_i_glide_metal>  (418) 
-0

>  <r_i_glide_rewards>  (418) 
-1.37186

>  <r_i_glide_evdw>  (418) 
-26.1825

>  <r_i_glide_ecoul>  (418) 
-0.753603

>  <r_i_glide_erotb>  (418) 
0.712107

>  <r_i_glide_esite>  (418) 
-0.00811016

>  <r_i_glide_emodel>  (418) 
-27.1255

>  <r_i_glide_energy>  (418) 
-26.9361

>  <r_i_glide_einternal>  (418) 
7.16405

>  <r_i_glide_intrahb_reward>  (418) 
-0

>  <i_i_glide_confnum>  (418) 
3

>  <i_i_glide_posenum>  (418) 
1

>  <r_i_glide_eff_state_penalty>  (418) 
0

>  <ligand_id>  (418) 
105

>  <original_smiles>  (418) 
C#CCCCC1C(=O)OC2C1C(=O)OC1C(OC)OC(OC)C12

>  <smiles>  (418) 
[H]C#CC([H])([H])C([H])([H])C([H])([H])C1([H])C(=O)OC2([H])C1([H])C(=O)OC1([H])C([H])(OC([H])([H])[H])OC([H])(OC([H])([H])[H])C12[H]

$$$$
106:0:0
     RDKit          3D

 36 39  0  0  1  0  0  0  0  0999 V2000
   -6.9521   -5.1022   -4.2739 C   0  0  0  0  0  0  0  0  0  0  0  0
   -6.3206   -6.2055   -4.8707 C   0  0  0  0  0  0  0  0  0  0  0  0
   -6.7952   -6.7170   -6.0902 C   0  0  0  0  0  0  0  0  0  0  0  0
   -7.9147   -6.1392   -6.7409 C   0  0  0  0  0  0  0  0  0  0  0  0
   -8.4502   -6.6754   -8.0843 C   0  0  1  0  0  0  0  0  0  0  0  0
   -8.4692   -5.5421   -9.1530 C   0  0  0  0  0  0  0  0  0  0  0  0
   -8.9895   -6.0783  -10.5048 C   0  0  2  0  0  0  0  0  0  0  0  0
  -10.4256   -6.6072  -10.3353 C   0  0  0  0  0  0  0  0  0  0  0  0
  -10.4241   -7.7534   -9.3054 C   0  0  1  0  0  0  0  0  0  0  0  0
   -9.5195   -8.9036   -9.7871 C   0  0  0  0  0  0  0  0  0  0  0  0
   -8.0950   -8.3590   -9.9617 C   0  0  1  0  0  0  0  0  0  0  0  0
   -8.0740   -7.2108  -10.9837 C   0  0  0  0  0  0  0  0  0  0  0  0
   -7.5738   -7.8434   -8.6168 C   0  0  0  0  0  0  0  0  0  0  0  0
   -9.8988   -7.2289   -7.9498 C   0  0  0  0  0  0  0  0  0  0  0  0
   -8.5495   -5.0437   -6.1117 C   0  0  0  0  0  0  0  0  0  0  0  0
   -8.0748   -4.5323   -4.8857 C   0  0  0  0  0  0  0  0  0  0  0  0
   -6.6002   -4.7204   -3.3261 H   0  0  0  0  0  0  0  0  0  0  0  0
   -5.4766   -6.6743   -4.3917 H   0  0  0  0  0  0  0  0  0  0  0  0
   -6.2777   -7.5667   -6.5067 H   0  0  0  0  0  0  0  0  0  0  0  0
   -9.0961   -4.7059   -8.8321 H   0  0  0  0  0  0  0  0  0  0  0  0
   -7.4701   -5.1333   -9.2953 H   0  0  0  0  0  0  0  0  0  0  0  0
   -8.9764   -5.2861  -11.2523 H   0  0  0  0  0  0  0  0  0  0  0  0
  -11.0889   -5.8131   -9.9963 H   0  0  0  0  0  0  0  0  0  0  0  0
  -10.8185   -6.9612  -11.2890 H   0  0  0  0  0  0  0  0  0  0  0  0
  -11.4383   -8.1268   -9.1672 H   0  0  0  0  0  0  0  0  0  0  0  0
   -9.5195   -9.7121   -9.0553 H   0  0  0  0  0  0  0  0  0  0  0  0
   -9.8834   -9.3267  -10.7208 H   0  0  0  0  0  0  0  0  0  0  0  0
   -7.4387   -9.1599  -10.2975 H   0  0  0  0  0  0  0  0  0  0  0  0
   -8.3888   -7.5889  -11.9504 H   0  0  0  0  0  0  0  0  0  0  0  0
   -7.0548   -6.8405  -11.0935 H   0  0  0  0  0  0  0  0  0  0  0  0
   -6.5445   -7.5149   -8.7537 H   0  0  0  0  0  0  0  0  0  0  0  0
   -7.5667   -8.6741   -7.9053 H   0  0  0  0  0  0  0  0  0  0  0  0
   -9.9017   -8.0745   -7.2606 H   0  0  0  0  0  0  0  0  0  0  0  0
  -10.5867   -6.4641   -7.5687 H   0  0  0  0  0  0  0  0  0  0  0  0
   -9.4176   -4.5960   -6.5630 H   0  0  0  0  0  0  0  0  0  0  0  0
   -8.5948   -3.7091   -4.4184 H   0  0  0  0  0  0  0  0  0  0  0  0
  1 16  2  0
  1  2  1  0
  1 17  1  0
  2  3  2  0
  2 18  1  0
  3  4  1  0
  3 19  1  0
  5  4  1  1
  4 15  2  0
  5 13  1  0
  5 14  1  0
  5  6  1  0
  6  7  1  0
  6 20  1  0
  6 21  1  0
  7 12  1  0
  7  8  1  0
  7 22  1  6
  8  9  1  0
  8 23  1  0
  8 24  1  0
  9 10  1  0
  9 14  1  0
  9 25  1  1
 10 11  1  0
 10 26  1  0
 10 27  1  0
 11 12  1  0
 11 13  1  0
 11 28  1  6
 12 29  1  0
 12 30  1  0
 13 31  1  0
 13 32  1  0
 14 33  1  0
 14 34  1  0
 15 16  1  0
 15 35  1  0
 16 36  1  0
M  END
>  <i_m_ct_stereo_status>  (419) 
1

>  <s_m_source_file>  (419) 
/var/tmp/pbs.5076255.sched01/tmpt95b3wv2/135g3gtwtb2.sdf

>  <i_m_source_file_index>  (419) 
33

>  <i_lp_mmshare_version>  (419) 
48012

>  <i_f3d_flags>  (419) 
0

>  <s_epik_input>  (419) 
W2NIXTFbY0hdW2NIXVtjSF1bY0hdYzFDMjNbQ0gyXVtDQEhdNFtDSDJdW0NAQEhdKFtDSDJdMylbQ0gyXVtDQEhdKFtDSDJdNClbQ0gyXTI=

>  <s_epik_cmdline>  (419) 
J2VwaWtfcHl0aG9uJywgJy1waHQnLCAnMi4wJywgJy1waCcsICc3LjAnLCAnLXRuJywgJzgnLCAnLW1hJywgJzIwMCcsICctaW1hZScsICc8aW5maWxlLm1hZT4nLCAnLW9tYWUnLCAnPG91dGZpbGUubWFlPic=

>  <r_lp_tautomer_probability>  (419) 
1

>  <r_epik_Ionization_Penalty>  (419) 
0

>  <r_epik_Ionization_Penalty_Charging>  (419) 
0

>  <r_epik_Ionization_Penalty_Neutral>  (419) 
0

>  <r_epik_State_Penalty>  (419) 
-0

>  <r_epik_Charging_Adjusted_Penalty>  (419) 
0

>  <i_epik_Tot_Q>  (419) 
0

>  <i_epik_Tot_abs_Q>  (419) 
0

>  <s_lp_Force_Field>  (419) 
OPLS3e

>  <r_lp_Energy>  (419) 
15.745

>  <b_lp_Chiralities_Consistent>  (419) 
1

>  <s_lp_Variant>  (419) 
106:0-1

>  <s_i_glide_gridfile>  (419) 
pfpi4k_grid

>  <i_i_glide_lignum>  (419) 
33

>  <i_i_glide_rotatable_bonds>  (419) 
1

>  <r_i_docking_score>  (419) 
-5.88196

>  <r_i_glide_ligand_efficiency>  (419) 
-0.367622

>  <r_i_glide_ligand_efficiency_sa>  (419) 
-0.92635

>  <r_i_glide_ligand_efficiency_ln>  (419) 
-1.55913

>  <r_i_glide_gscore>  (419) 
-5.88196

>  <r_i_glide_lipo>  (419) 
-2.69794

>  <r_i_glide_hbond>  (419) 
0

>  <r_i_glide_metal>  (419) 
-0

>  <r_i_glide_rewards>  (419) 
-2.53021

>  <r_i_glide_evdw>  (419) 
-20.2316

>  <r_i_glide_ecoul>  (419) 
-0.0777744

>  <r_i_glide_erotb>  (419) 
0.369438

>  <r_i_glide_esite>  (419) 
0

>  <r_i_glide_emodel>  (419) 
-26.1488

>  <r_i_glide_energy>  (419) 
-20.3093

>  <r_i_glide_einternal>  (419) 
1.50025

>  <r_i_glide_intrahb_reward>  (419) 
-0

>  <i_i_glide_confnum>  (419) 
2

>  <i_i_glide_posenum>  (419) 
9

>  <r_i_glide_eff_state_penalty>  (419) 
0

>  <ligand_id>  (419) 
106

>  <original_smiles>  (419) 
c1ccc(C23CC4CC(CC(C4)C2)C3)cc1

>  <smiles>  (419) 
[H]c1c([H])c([H])c(C23C([H])([H])C4([H])C([H])([H])C([H])(C([H])([H])C([H])(C4([H])[H])C2([H])[H])C3([H])[H])c([H])c1[H]

$$$$
106:0:1
     RDKit          3D

 36 39  0  0  1  0  0  0  0  0999 V2000
   -6.2439   -5.3989   -4.6964 C   0  0  0  0  0  0  0  0  0  0  0  0
   -5.8150   -6.5923   -5.2924 C   0  0  0  0  0  0  0  0  0  0  0  0
   -6.5614   -7.1460   -6.3489 C   0  0  0  0  0  0  0  0  0  0  0  0
   -7.7631   -6.5368   -6.7907 C   0  0  0  0  0  0  0  0  0  0  0  0
   -8.5711   -7.1687   -7.9448 C   0  0  1  0  0  0  0  0  0  0  0  0
   -9.9752   -6.5032   -8.1348 C   0  0  0  0  0  0  0  0  0  0  0  0
  -10.7590   -7.1650   -9.2668 C   0  0  2  0  0  0  0  0  0  0  0  0
  -10.9489   -8.6569   -8.9558 C   0  0  0  0  0  0  0  0  0  0  0  0
   -9.5708   -9.3350   -8.8558 C   0  0  1  0  0  0  0  0  0  0  0  0
   -8.7907   -9.1503  -10.1727 C   0  0  0  0  0  0  0  0  0  0  0  0
   -8.5965   -7.6439  -10.4473 C   0  0  1  0  0  0  0  0  0  0  0  0
   -9.9734   -6.9663  -10.5716 C   0  0  0  0  0  0  0  0  0  0  0  0
   -7.8005   -7.0057   -9.2814 C   0  0  0  0  0  0  0  0  0  0  0  0
   -8.7618   -8.7009   -7.7090 C   0  0  0  0  0  0  0  0  0  0  0  0
   -8.1846   -5.3491   -6.1532 C   0  0  0  0  0  0  0  0  0  0  0  0
   -7.4331   -4.7858   -5.1048 C   0  0  0  0  0  0  0  0  0  0  0  0
   -5.6610   -4.9352   -3.9227 H   0  0  0  0  0  0  0  0  0  0  0  0
   -4.9049   -7.0791   -4.9704 H   0  0  0  0  0  0  0  0  0  0  0  0
   -6.1875   -8.0374   -6.8261 H   0  0  0  0  0  0  0  0  0  0  0  0
  -10.5699   -6.5552   -7.2232 H   0  0  0  0  0  0  0  0  0  0  0  0
   -9.8821   -5.4442   -8.3787 H   0  0  0  0  0  0  0  0  0  0  0  0
  -11.7331   -6.6819   -9.3383 H   0  0  0  0  0  0  0  0  0  0  0  0
  -11.4920   -8.7804   -8.0174 H   0  0  0  0  0  0  0  0  0  0  0  0
  -11.5532   -9.1286   -9.7310 H   0  0  0  0  0  0  0  0  0  0  0  0
   -9.7008  -10.3985   -8.6503 H   0  0  0  0  0  0  0  0  0  0  0  0
   -7.8200   -9.6479  -10.1073 H   0  0  0  0  0  0  0  0  0  0  0  0
   -9.3293   -9.6215  -10.9992 H   0  0  0  0  0  0  0  0  0  0  0  0
   -8.0419   -7.5145  -11.3785 H   0  0  0  0  0  0  0  0  0  0  0  0
  -10.5254   -7.3794  -11.4169 H   0  0  0  0  0  0  0  0  0  0  0  0
   -9.8409   -5.9022  -10.7697 H   0  0  0  0  0  0  0  0  0  0  0  0
   -7.6256   -5.9494   -9.4935 H   0  0  0  0  0  0  0  0  0  0  0  0
   -6.8141   -7.4748   -9.2280 H   0  0  0  0  0  0  0  0  0  0  0  0
   -7.8161   -9.2430   -7.6464 H   0  0  0  0  0  0  0  0  0  0  0  0
   -9.2668   -8.8921   -6.7666 H   0  0  0  0  0  0  0  0  0  0  0  0
   -9.0878   -4.8238   -6.4264 H   0  0  0  0  0  0  0  0  0  0  0  0
   -7.7660   -3.8750   -4.6254 H   0  0  0  0  0  0  0  0  0  0  0  0
  1 16  2  0
  1  2  1  0
  1 17  1  0
  2  3  2  0
  2 18  1  0
  3  4  1  0
  3 19  1  0
  5  4  1  1
  4 15  2  0
  5 13  1  0
  5 14  1  0
  5  6  1  0
  6  7  1  0
  6 20  1  0
  6 21  1  0
  7 12  1  0
  7  8  1  0
  7 22  1  6
  8  9  1  0
  8 23  1  0
  8 24  1  0
  9 10  1  0
  9 14  1  0
  9 25  1  1
 10 11  1  0
 10 26  1  0
 10 27  1  0
 11 12  1  0
 11 13  1  0
 11 28  1  6
 12 29  1  0
 12 30  1  0
 13 31  1  0
 13 32  1  0
 14 33  1  0
 14 34  1  0
 15 16  1  0
 15 35  1  0
 16 36  1  0
M  END
>  <i_m_ct_stereo_status>  (420) 
1

>  <s_m_source_file>  (420) 
/var/tmp/pbs.5076255.sched01/tmpt95b3wv2/135g3gtwtb2.sdf

>  <i_m_source_file_index>  (420) 
33

>  <i_lp_mmshare_version>  (420) 
48012

>  <i_f3d_flags>  (420) 
0

>  <s_epik_input>  (420) 
W2NIXTFbY0hdW2NIXVtjSF1bY0hdYzFDMjNbQ0gyXVtDQEhdNFtDSDJdW0NAQEhdKFtDSDJdMylbQ0gyXVtDQEhdKFtDSDJdNClbQ0gyXTI=

>  <s_epik_cmdline>  (420) 
J2VwaWtfcHl0aG9uJywgJy1waHQnLCAnMi4wJywgJy1waCcsICc3LjAnLCAnLXRuJywgJzgnLCAnLW1hJywgJzIwMCcsICctaW1hZScsICc8aW5maWxlLm1hZT4nLCAnLW9tYWUnLCAnPG91dGZpbGUubWFlPic=

>  <r_lp_tautomer_probability>  (420) 
1

>  <r_epik_Ionization_Penalty>  (420) 
0

>  <r_epik_Ionization_Penalty_Charging>  (420) 
0

>  <r_epik_Ionization_Penalty_Neutral>  (420) 
0

>  <r_epik_State_Penalty>  (420) 
-0

>  <r_epik_Charging_Adjusted_Penalty>  (420) 
0

>  <i_epik_Tot_Q>  (420) 
0

>  <i_epik_Tot_abs_Q>  (420) 
0

>  <s_lp_Force_Field>  (420) 
OPLS3e

>  <r_lp_Energy>  (420) 
15.745

>  <b_lp_Chiralities_Consistent>  (420) 
1

>  <s_lp_Variant>  (420) 
106:0-1

>  <s_i_glide_gridfile>  (420) 
pfpi4k_grid

>  <i_i_glide_lignum>  (420) 
33

>  <i_i_glide_rotatable_bonds>  (420) 
1

>  <r_i_docking_score>  (420) 
-5.61058

>  <r_i_glide_ligand_efficiency>  (420) 
-0.350661

>  <r_i_glide_ligand_efficiency_sa>  (420) 
-0.883611

>  <r_i_glide_ligand_efficiency_ln>  (420) 
-1.4872

>  <r_i_glide_gscore>  (420) 
-5.61058

>  <r_i_glide_lipo>  (420) 
-2.4712

>  <r_i_glide_hbond>  (420) 
0

>  <r_i_glide_metal>  (420) 
-0

>  <r_i_glide_rewards>  (420) 
-2.42233

>  <r_i_glide_evdw>  (420) 
-21.7915

>  <r_i_glide_ecoul>  (420) 
0.0206184

>  <r_i_glide_erotb>  (420) 
0.369438

>  <r_i_glide_esite>  (420) 
0

>  <r_i_glide_emodel>  (420) 
-27.8384

>  <r_i_glide_energy>  (420) 
-21.7709

>  <r_i_glide_einternal>  (420) 
0.446948

>  <r_i_glide_intrahb_reward>  (420) 
-0

>  <i_i_glide_confnum>  (420) 
2

>  <i_i_glide_posenum>  (420) 
2

>  <r_i_glide_eff_state_penalty>  (420) 
0

>  <ligand_id>  (420) 
106

>  <original_smiles>  (420) 
c1ccc(C23CC4CC(CC(C4)C2)C3)cc1

>  <smiles>  (420) 
[H]c1c([H])c([H])c(C23C([H])([H])C4([H])C([H])([H])C([H])(C([H])([H])C([H])(C4([H])[H])C2([H])[H])C3([H])[H])c([H])c1[H]

$$$$
107:0:0
     RDKit          3D

 60 64  0  0  1  0  0  0  0  0999 V2000
   -0.4139   -8.6609    2.4925 C   0  0  0  0  0  0  0  0  0  0  0  0
    0.0819   -7.9525    3.7818 C   0  0  0  0  0  0  0  0  0  0  0  0
   -1.1339   -7.1526    4.3050 C   0  0  0  0  0  0  0  0  0  0  0  0
    0.4415   -9.0168    4.8383 C   0  0  0  0  0  0  0  0  0  0  0  0
    1.7263   -9.7818    4.5019 C   0  0  0  0  0  0  0  0  0  0  0  0
    2.9152   -8.8143    4.4179 C   0  0  1  0  0  0  0  0  0  0  0  0
    4.1127   -9.5326    4.1928 O   0  0  0  0  0  0  0  0  0  0  0  0
    2.7454   -7.6610    3.3738 C   0  0  1  0  0  0  0  0  0  0  0  0
    2.9675   -8.1811    1.9261 C   0  0  0  0  0  0  0  0  0  0  0  0
    1.3180   -7.0172    3.4910 C   0  0  2  0  0  0  0  0  0  0  0  0
    1.5081   -5.7645    4.3769 C   0  0  1  0  0  0  0  0  0  0  0  0
    1.5419   -6.0662    5.7588 O   0  0  0  0  0  0  0  0  0  0  0  0
    2.8506   -5.2033    3.8902 C   0  0  2  0  0  0  0  0  0  0  0  0
    3.4360   -4.0932    4.7893 C   0  0  0  0  0  0  0  0  0  0  0  0
    2.5580   -4.5684    2.6313 O   0  0  0  0  0  0  0  0  0  0  0  0
    3.5159   -4.5618    1.6468 C   0  0  0  0  0  0  0  0  0  0  0  0
    3.2471   -3.7402    0.4890 C   0  0  0  0  0  0  0  0  0  0  0  0
    4.1182   -3.7240   -0.5369 C   0  0  0  0  0  0  0  0  0  0  0  0
    3.9488   -2.8866   -1.7379 C   0  0  0  0  0  0  0  0  0  0  0  0
    3.4159   -1.5801   -1.6946 C   0  0  0  0  0  0  0  0  0  0  0  0
    3.3076   -0.8593   -2.8980 C   0  0  0  0  0  0  0  0  0  0  0  0
    3.7057   -1.4788   -4.0891 C   0  0  0  0  0  0  0  0  0  0  0  0
    4.2118   -2.7291   -4.1461 N   0  0  0  0  0  0  0  0  0  0  0  0
    4.3236   -3.4105   -2.9872 C   0  0  0  0  0  0  0  0  0  0  0  0
    5.2927   -4.4423   -0.4711 O   0  0  0  0  0  0  0  0  0  0  0  0
    5.6410   -5.2292    0.6106 C   0  0  0  0  0  0  0  0  0  0  0  0
    6.7016   -5.8493    0.6158 O   0  0  0  0  0  0  0  0  0  0  0  0
    4.6640   -5.2654    1.7304 C   0  0  0  0  0  0  0  0  0  0  0  0
    4.9764   -6.2089    2.8882 C   0  0  1  0  0  0  0  0  0  0  0  0
    5.9960   -5.6523    3.7010 O   0  0  0  0  0  0  0  0  0  0  0  0
    3.7212   -6.4723    3.7544 C   0  0  2  0  0  0  0  0  0  0  0  0
   -1.3397   -9.2134    2.6766 H   0  0  0  0  0  0  0  0  0  0  0  0
    0.2847   -9.4002    2.1108 H   0  0  0  0  0  0  0  0  0  0  0  0
   -0.6128   -7.9554    1.6821 H   0  0  0  0  0  0  0  0  0  0  0  0
   -0.9429   -6.7035    5.2776 H   0  0  0  0  0  0  0  0  0  0  0  0
   -2.0009   -7.8002    4.4291 H   0  0  0  0  0  0  0  0  0  0  0  0
   -1.4183   -6.3565    3.6223 H   0  0  0  0  0  0  0  0  0  0  0  0
    0.5568   -8.5468    5.8143 H   0  0  0  0  0  0  0  0  0  0  0  0
   -0.3793   -9.7230    4.9507 H   0  0  0  0  0  0  0  0  0  0  0  0
    1.9062  -10.5152    5.2905 H   0  0  0  0  0  0  0  0  0  0  0  0
    1.6194  -10.3598    3.5831 H   0  0  0  0  0  0  0  0  0  0  0  0
    3.0070   -8.3904    5.4175 H   0  0  0  0  0  0  0  0  0  0  0  0
    4.0052  -10.0573    3.4099 H   0  0  0  0  0  0  0  0  0  0  0  0
    2.8047   -7.3951    1.1902 H   0  0  0  0  0  0  0  0  0  0  0  0
    2.3017   -9.0007    1.6755 H   0  0  0  0  0  0  0  0  0  0  0  0
    3.9712   -8.5707    1.7661 H   0  0  0  0  0  0  0  0  0  0  0  0
    1.0956   -6.5892    2.5133 H   0  0  0  0  0  0  0  0  0  0  0  0
    0.7129   -5.0337    4.2248 H   0  0  0  0  0  0  0  0  0  0  0  0
    2.2147   -6.7216    5.9067 H   0  0  0  0  0  0  0  0  0  0  0  0
    3.7378   -4.4525    5.7713 H   0  0  0  0  0  0  0  0  0  0  0  0
    2.7037   -3.2996    4.9337 H   0  0  0  0  0  0  0  0  0  0  0  0
    4.3092   -3.6339    4.3269 H   0  0  0  0  0  0  0  0  0  0  0  0
    2.3464   -3.1508    0.4575 H   0  0  0  0  0  0  0  0  0  0  0  0
    3.0984   -1.1322   -0.7574 H   0  0  0  0  0  0  0  0  0  0  0  0
    2.8961    0.1401   -2.9268 H   0  0  0  0  0  0  0  0  0  0  0  0
    3.6201   -0.9681   -5.0370 H   0  0  0  0  0  0  0  0  0  0  0  0
    4.7368   -4.4059   -3.0663 H   0  0  0  0  0  0  0  0  0  0  0  0
    5.3888   -7.1449    2.5080 H   0  0  0  0  0  0  0  0  0  0  0  0
    6.2995   -6.3259    4.2975 H   0  0  0  0  0  0  0  0  0  0  0  0
    4.1027   -6.6889    4.7546 H   0  0  0  0  0  0  0  0  0  0  0  0
  1  2  1  0
  1 32  1  0
  1 33  1  0
  1 34  1  0
  2 10  1  0
  2  3  1  0
  2  4  1  0
  3 35  1  0
  3 36  1  0
  3 37  1  0
  4  5  1  0
  4 38  1  0
  4 39  1  0
  5  6  1  0
  5 40  1  0
  5 41  1  0
  6  7  1  0
  6  8  1  0
  6 42  1  1
  7 43  1  0
  8 31  1  0
  8  9  1  6
  8 10  1  0
  9 44  1  0
  9 45  1  0
  9 46  1  0
 10 11  1  0
 10 47  1  6
 11 12  1  0
 11 13  1  0
 11 48  1  1
 12 49  1  0
 13 31  1  0
 13 14  1  1
 13 15  1  0
 14 50  1  0
 14 51  1  0
 14 52  1  0
 15 16  1  0
 16 28  2  0
 16 17  1  0
 17 18  2  0
 17 53  1  0
 18 19  1  0
 18 25  1  0
 19 24  1  0
 19 20  2  0
 20 21  1  0
 20 54  1  0
 21 22  2  0
 21 55  1  0
 22 23  1  0
 22 56  1  0
 23 24  2  0
 24 57  1  0
 25 26  1  0
 26 27  2  0
 26 28  1  0
 28 29  1  0
 29 30  1  0
 29 31  1  0
 29 58  1  6
 30 59  1  0
 31 60  1  1
M  END
>  <i_m_ct_stereo_status>  (421) 
1

>  <s_m_source_file>  (421) 
/var/tmp/pbs.5076255.sched01/tmpt95b3wv2/135g3gtwtb2.sdf

>  <i_m_source_file_index>  (421) 
34

>  <i_lp_mmshare_version>  (421) 
48012

>  <i_f3d_flags>  (421) 
0

>  <s_epik_input>  (421) 
W09IXVtDQEBIXTFbQ0gyXVtDSDJdQyhbQ0gzXSkoW0NIM10pW0NASF0oW0NAXTEyW0NIM10pW0NAQEhdKFtPSF0pW0NAQF0zKFtDSDNdKVtDQEBIXTJbQ0BIXShbT0hdKWM0YyhPMylbY0hdYyhvYzQ9TyktYzVbY0hdW2NIXVtjSF1uW2NIXTU=

>  <s_epik_cmdline>  (421) 
J2VwaWtfcHl0aG9uJywgJy1waHQnLCAnMi4wJywgJy1waCcsICc3LjAnLCAnLXRuJywgJzgnLCAnLW1hJywgJzIwMCcsICctaW1hZScsICc8aW5maWxlLm1hZT4nLCAnLW9tYWUnLCAnPG91dGZpbGUubWFlPic=

>  <r_lp_tautomer_probability>  (421) 
1

>  <r_epik_Ionization_Penalty>  (421) 
0.00422869

>  <r_epik_Ionization_Penalty_Charging>  (421) 
0

>  <r_epik_Ionization_Penalty_Neutral>  (421) 
0.00422869

>  <r_epik_State_Penalty>  (421) 
0.00303862

>  <r_epik_Charging_Adjusted_Penalty>  (421) 
0.00303862

>  <i_epik_Tot_Q>  (421) 
0

>  <i_epik_Tot_abs_Q>  (421) 
0

>  <s_lp_Force_Field>  (421) 
OPLS3e

>  <r_lp_Energy>  (421) 
59.4435

>  <b_lp_Chiralities_Consistent>  (421) 
1

>  <s_lp_Variant>  (421) 
107:0-1

>  <s_i_glide_gridfile>  (421) 
pfpi4k_grid

>  <i_i_glide_lignum>  (421) 
34

>  <i_i_glide_rotatable_bonds>  (421) 
4

>  <r_i_docking_score>  (421) 
-3.20849

>  <r_i_glide_ligand_efficiency>  (421) 
-0.1035

>  <r_i_glide_ligand_efficiency_sa>  (421) 
-0.325132

>  <r_i_glide_ligand_efficiency_ln>  (421) 
-0.723613

>  <r_i_glide_gscore>  (421) 
-3.20849

>  <r_i_glide_lipo>  (421) 
-0.173356

>  <r_i_glide_hbond>  (421) 
-0.282979

>  <r_i_glide_metal>  (421) 
-0

>  <r_i_glide_rewards>  (421) 
-0.494385

>  <r_i_glide_evdw>  (421) 
-31.4578

>  <r_i_glide_ecoul>  (421) 
-5.29021

>  <r_i_glide_erotb>  (421) 
0.108649

>  <r_i_glide_esite>  (421) 
0

>  <r_i_glide_emodel>  (421) 
-43.2217

>  <r_i_glide_energy>  (421) 
-36.748

>  <r_i_glide_einternal>  (421) 
1.92952

>  <r_i_glide_intrahb_reward>  (421) 
-0

>  <i_i_glide_confnum>  (421) 
4

>  <i_i_glide_posenum>  (421) 
8

>  <r_i_glide_eff_state_penalty>  (421) 
0

>  <ligand_id>  (421) 
107

>  <original_smiles>  (421) 
CC1(C)CCC(O)C2(C)C1C(O)C1(C)Oc3cc(-c4cccnc4)oc(=O)c3C(O)C12

>  <smiles>  (421) 
[H]OC1([H])c2c(c([H])c(-c3c([H])nc([H])c([H])c3[H])oc2=O)OC2(C([H])([H])[H])C([H])(O[H])C3([H])C(C([H])([H])[H])(C([H])([H])[H])C([H])([H])C([H])([H])C([H])(O[H])C3(C([H])([H])[H])C12[H]

$$$$
107:0:1
     RDKit          3D

 60 64  0  0  1  0  0  0  0  0999 V2000
   -0.1711   -8.9969    2.5038 C   0  0  0  0  0  0  0  0  0  0  0  0
    0.2738   -8.2973    3.8152 C   0  0  0  0  0  0  0  0  0  0  0  0
   -0.9777   -7.5377    4.3131 C   0  0  0  0  0  0  0  0  0  0  0  0
    0.6347   -9.3697    4.8597 C   0  0  0  0  0  0  0  0  0  0  0  0
    1.9512  -10.0910    4.5427 C   0  0  0  0  0  0  0  0  0  0  0  0
    3.1159   -9.0886    4.5022 C   0  0  1  0  0  0  0  0  0  0  0  0
    4.3345   -9.7742    4.2910 O   0  0  0  0  0  0  0  0  0  0  0  0
    2.9393   -7.9210    3.4732 C   0  0  1  0  0  0  0  0  0  0  0  0
    3.2057   -8.4106    2.0208 C   0  0  0  0  0  0  0  0  0  0  0  0
    1.4890   -7.3224    3.5684 C   0  0  2  0  0  0  0  0  0  0  0  0
    1.6234   -6.0783    4.4764 C   0  0  1  0  0  0  0  0  0  0  0  0
    1.6312   -6.3987    5.8563 O   0  0  0  0  0  0  0  0  0  0  0  0
    2.9604   -5.4707    4.0287 C   0  0  2  0  0  0  0  0  0  0  0  0
    3.4903   -4.3600    4.9610 C   0  0  0  0  0  0  0  0  0  0  0  0
    2.6766   -4.8201    2.7782 O   0  0  0  0  0  0  0  0  0  0  0  0
    3.6504   -4.7727    1.8091 C   0  0  0  0  0  0  0  0  0  0  0  0
    3.3857   -3.9420    0.6608 C   0  0  0  0  0  0  0  0  0  0  0  0
    4.2770   -3.8827   -0.3432 C   0  0  0  0  0  0  0  0  0  0  0  0
    4.1031   -3.0320   -1.5365 C   0  0  0  0  0  0  0  0  0  0  0  0
    3.4254   -1.7941   -1.5080 C   0  0  0  0  0  0  0  0  0  0  0  0
    3.3159   -1.0584   -2.7084 C   0  0  0  0  0  0  0  0  0  0  0  0
    3.8660   -1.5986   -3.8824 C   0  0  0  0  0  0  0  0  0  0  0  0
    4.5071   -2.7813   -3.9172 N   0  0  0  0  0  0  0  0  0  0  0  0
    4.6196   -3.4737   -2.7696 C   0  0  0  0  0  0  0  0  0  0  0  0
    5.4704   -4.5700   -0.2628 O   0  0  0  0  0  0  0  0  0  0  0  0
    5.8182   -5.3581    0.8171 C   0  0  0  0  0  0  0  0  0  0  0  0
    6.9040   -5.9343    0.8711 O   0  0  0  0  0  0  0  0  0  0  0  0
    4.8130   -5.4510    1.9069 C   0  0  0  0  0  0  0  0  0  0  0  0
    5.1345   -6.3995    3.0530 C   0  0  1  0  0  0  0  0  0  0  0  0
    6.1330   -5.8261    3.8825 O   0  0  0  0  0  0  0  0  0  0  0  0
    3.8726   -6.7115    3.8937 C   0  0  2  0  0  0  0  0  0  0  0  0
   -1.0833   -9.5781    2.6566 H   0  0  0  0  0  0  0  0  0  0  0  0
    0.5576   -9.7086    2.1243 H   0  0  0  0  0  0  0  0  0  0  0  0
   -0.3728   -8.2810    1.7048 H   0  0  0  0  0  0  0  0  0  0  0  0
   -0.8195   -7.1006    5.2974 H   0  0  0  0  0  0  0  0  0  0  0  0
   -1.8278   -8.2144    4.4157 H   0  0  0  0  0  0  0  0  0  0  0  0
   -1.2716   -6.7371    3.6364 H   0  0  0  0  0  0  0  0  0  0  0  0
    0.7180   -8.9140    5.8466 H   0  0  0  0  0  0  0  0  0  0  0  0
   -0.1694  -10.1004    4.9439 H   0  0  0  0  0  0  0  0  0  0  0  0
    2.1372  -10.8307    5.3237 H   0  0  0  0  0  0  0  0  0  0  0  0
    1.8837  -10.6557    3.6125 H   0  0  0  0  0  0  0  0  0  0  0  0
    3.1749   -8.6783    5.5100 H   0  0  0  0  0  0  0  0  0  0  0  0
    4.2562  -10.2856    3.4965 H   0  0  0  0  0  0  0  0  0  0  0  0
    3.0351   -7.6188    1.2911 H   0  0  0  0  0  0  0  0  0  0  0  0
    2.5702   -9.2451    1.7421 H   0  0  0  0  0  0  0  0  0  0  0  0
    4.2232   -8.7692    1.8771 H   0  0  0  0  0  0  0  0  0  0  0  0
    1.2748   -6.8849    2.5932 H   0  0  0  0  0  0  0  0  0  0  0  0
    0.8112   -5.3701    4.3139 H   0  0  0  0  0  0  0  0  0  0  0  0
    2.3079   -7.0413    6.0117 H   0  0  0  0  0  0  0  0  0  0  0  0
    3.7815   -4.7302    5.9443 H   0  0  0  0  0  0  0  0  0  0  0  0
    2.7318   -3.5907    5.1035 H   0  0  0  0  0  0  0  0  0  0  0  0
    4.3596   -3.8686    4.5250 H   0  0  0  0  0  0  0  0  0  0  0  0
    2.4644   -3.3823    0.6231 H   0  0  0  0  0  0  0  0  0  0  0  0
    3.0188   -1.4017   -0.5894 H   0  0  0  0  0  0  0  0  0  0  0  0
    2.8054   -0.1080   -2.7351 H   0  0  0  0  0  0  0  0  0  0  0  0
    3.8037   -1.0691   -4.8203 H   0  0  0  0  0  0  0  0  0  0  0  0
    5.1474   -4.4149   -2.8327 H   0  0  0  0  0  0  0  0  0  0  0  0
    5.5771   -7.3224    2.6745 H   0  0  0  0  0  0  0  0  0  0  0  0
    6.9642   -5.8705    3.4255 H   0  0  0  0  0  0  0  0  0  0  0  0
    4.2456   -6.9326    4.8963 H   0  0  0  0  0  0  0  0  0  0  0  0
  1  2  1  0
  1 32  1  0
  1 33  1  0
  1 34  1  0
  2 10  1  0
  2  3  1  0
  2  4  1  0
  3 35  1  0
  3 36  1  0
  3 37  1  0
  4  5  1  0
  4 38  1  0
  4 39  1  0
  5  6  1  0
  5 40  1  0
  5 41  1  0
  6  7  1  0
  6  8  1  0
  6 42  1  1
  7 43  1  0
  8 31  1  0
  8  9  1  6
  8 10  1  0
  9 44  1  0
  9 45  1  0
  9 46  1  0
 10 11  1  0
 10 47  1  6
 11 12  1  0
 11 13  1  0
 11 48  1  1
 12 49  1  0
 13 31  1  0
 13 14  1  1
 13 15  1  0
 14 50  1  0
 14 51  1  0
 14 52  1  0
 15 16  1  0
 16 28  2  0
 16 17  1  0
 17 18  2  0
 17 53  1  0
 18 19  1  0
 18 25  1  0
 19 24  1  0
 19 20  2  0
 20 21  1  0
 20 54  1  0
 21 22  2  0
 21 55  1  0
 22 23  1  0
 22 56  1  0
 23 24  2  0
 24 57  1  0
 25 26  1  0
 26 27  2  0
 26 28  1  0
 28 29  1  0
 29 30  1  0
 29 31  1  0
 29 58  1  6
 30 59  1  0
 31 60  1  1
M  END
>  <i_m_ct_stereo_status>  (422) 
1

>  <s_m_source_file>  (422) 
/var/tmp/pbs.5076255.sched01/tmpt95b3wv2/135g3gtwtb2.sdf

>  <i_m_source_file_index>  (422) 
34

>  <i_lp_mmshare_version>  (422) 
48012

>  <i_f3d_flags>  (422) 
0

>  <s_epik_input>  (422) 
W09IXVtDQEBIXTFbQ0gyXVtDSDJdQyhbQ0gzXSkoW0NIM10pW0NASF0oW0NAXTEyW0NIM10pW0NAQEhdKFtPSF0pW0NAQF0zKFtDSDNdKVtDQEBIXTJbQ0BIXShbT0hdKWM0YyhPMylbY0hdYyhvYzQ9TyktYzVbY0hdW2NIXVtjSF1uW2NIXTU=

>  <s_epik_cmdline>  (422) 
J2VwaWtfcHl0aG9uJywgJy1waHQnLCAnMi4wJywgJy1waCcsICc3LjAnLCAnLXRuJywgJzgnLCAnLW1hJywgJzIwMCcsICctaW1hZScsICc8aW5maWxlLm1hZT4nLCAnLW9tYWUnLCAnPG91dGZpbGUubWFlPic=

>  <r_lp_tautomer_probability>  (422) 
1

>  <r_epik_Ionization_Penalty>  (422) 
0.00422869

>  <r_epik_Ionization_Penalty_Charging>  (422) 
0

>  <r_epik_Ionization_Penalty_Neutral>  (422) 
0.00422869

>  <r_epik_State_Penalty>  (422) 
0.00303862

>  <r_epik_Charging_Adjusted_Penalty>  (422) 
0.00303862

>  <i_epik_Tot_Q>  (422) 
0

>  <i_epik_Tot_abs_Q>  (422) 
0

>  <s_lp_Force_Field>  (422) 
OPLS3e

>  <r_lp_Energy>  (422) 
59.4435

>  <b_lp_Chiralities_Consistent>  (422) 
1

>  <s_lp_Variant>  (422) 
107:0-1

>  <s_i_glide_gridfile>  (422) 
pfpi4k_grid

>  <i_i_glide_lignum>  (422) 
34

>  <i_i_glide_rotatable_bonds>  (422) 
4

>  <r_i_docking_score>  (422) 
-3.05418

>  <r_i_glide_ligand_efficiency>  (422) 
-0.098522

>  <r_i_glide_ligand_efficiency_sa>  (422) 
-0.309495

>  <r_i_glide_ligand_efficiency_ln>  (422) 
-0.688812

>  <r_i_glide_gscore>  (422) 
-3.05418

>  <r_i_glide_lipo>  (422) 
-0.270739

>  <r_i_glide_hbond>  (422) 
-0.108497

>  <r_i_glide_metal>  (422) 
-0

>  <r_i_glide_rewards>  (422) 
-0.494385

>  <r_i_glide_evdw>  (422) 
-32.8099

>  <r_i_glide_ecoul>  (422) 
-4.32478

>  <r_i_glide_erotb>  (422) 
0.108649

>  <r_i_glide_esite>  (422) 
0

>  <r_i_glide_emodel>  (422) 
-43.536

>  <r_i_glide_energy>  (422) 
-37.1347

>  <r_i_glide_einternal>  (422) 
1.39804

>  <r_i_glide_intrahb_reward>  (422) 
-0

>  <i_i_glide_confnum>  (422) 
1

>  <i_i_glide_posenum>  (422) 
36

>  <r_i_glide_eff_state_penalty>  (422) 
0

>  <ligand_id>  (422) 
107

>  <original_smiles>  (422) 
CC1(C)CCC(O)C2(C)C1C(O)C1(C)Oc3cc(-c4cccnc4)oc(=O)c3C(O)C12

>  <smiles>  (422) 
[H]OC1([H])c2c(c([H])c(-c3c([H])nc([H])c([H])c3[H])oc2=O)OC2(C([H])([H])[H])C([H])(O[H])C3([H])C(C([H])([H])[H])(C([H])([H])[H])C([H])([H])C([H])([H])C([H])(O[H])C3(C([H])([H])[H])C12[H]

$$$$
107:0:2
     RDKit          3D

 60 64  0  0  1  0  0  0  0  0999 V2000
   -0.4670   -8.7385    2.5116 C   0  0  0  0  0  0  0  0  0  0  0  0
   -0.0445   -8.0121    3.8194 C   0  0  0  0  0  0  0  0  0  0  0  0
   -1.2954   -7.2262    4.2699 C   0  0  0  0  0  0  0  0  0  0  0  0
    0.2693   -9.0575    4.9017 C   0  0  0  0  0  0  0  0  0  0  0  0
    1.5748   -9.8189    4.6418 C   0  0  0  0  0  0  0  0  0  0  0  0
    2.7564   -8.8408    4.6150 C   0  0  1  0  0  0  0  0  0  0  0  0
    3.9591   -9.5629    4.4480 O   0  0  0  0  0  0  0  0  0  0  0  0
    2.6337   -7.6981    3.5506 C   0  0  1  0  0  0  0  0  0  0  0  0
    2.9323   -8.2277    2.1188 C   0  0  0  0  0  0  0  0  0  0  0  0
    1.1943   -7.0669    3.5860 C   0  0  2  0  0  0  0  0  0  0  0  0
    1.3263   -5.8047    4.4694 C   0  0  1  0  0  0  0  0  0  0  0  0
    1.2931   -6.0981    5.8565 O   0  0  0  0  0  0  0  0  0  0  0  0
    2.6861   -5.2338    4.0463 C   0  0  2  0  0  0  0  0  0  0  0  0
    3.2133   -4.1118    4.9654 C   0  0  0  0  0  0  0  0  0  0  0  0
    2.4541   -4.6110    2.7714 O   0  0  0  0  0  0  0  0  0  0  0  0
    3.4594   -4.6052    1.8295 C   0  0  0  0  0  0  0  0  0  0  0  0
    3.2427   -3.7995    0.6575 C   0  0  0  0  0  0  0  0  0  0  0  0
    4.1606   -3.7812   -0.3244 C   0  0  0  0  0  0  0  0  0  0  0  0
    4.0416   -2.9591   -1.5371 C   0  0  0  0  0  0  0  0  0  0  0  0
    3.4232   -1.6908   -1.5470 C   0  0  0  0  0  0  0  0  0  0  0  0
    3.3646   -0.9835   -2.7623 C   0  0  0  0  0  0  0  0  0  0  0  0
    3.9024   -1.5774   -3.9164 C   0  0  0  0  0  0  0  0  0  0  0  0
    4.4860   -2.7892   -3.9184 N   0  0  0  0  0  0  0  0  0  0  0  0
    4.5545   -3.4578   -2.7480 C   0  0  0  0  0  0  0  0  0  0  0  0
    5.3391   -4.4889   -0.1923 O   0  0  0  0  0  0  0  0  0  0  0  0
    5.6397   -5.2648    0.9040 C   0  0  0  0  0  0  0  0  0  0  0  0
    6.7049   -5.8762    0.9698 O   0  0  0  0  0  0  0  0  0  0  0  0
    4.6075   -5.3028    1.9812 C   0  0  0  0  0  0  0  0  0  0  0  0
    4.8712   -6.2265    3.1623 C   0  0  1  0  0  0  0  0  0  0  0  0
    5.8581   -5.6598    4.0118 O   0  0  0  0  0  0  0  0  0  0  0  0
    3.5753   -6.4956    3.9689 C   0  0  2  0  0  0  0  0  0  0  0  0
   -1.3952   -9.2988    2.6521 H   0  0  0  0  0  0  0  0  0  0  0  0
    0.2581   -9.4737    2.1713 H   0  0  0  0  0  0  0  0  0  0  0  0
   -0.6314   -8.0432    1.6859 H   0  0  0  0  0  0  0  0  0  0  0  0
   -1.1559   -6.7627    5.2463 H   0  0  0  0  0  0  0  0  0  0  0  0
   -2.1596   -7.8858    4.3587 H   0  0  0  0  0  0  0  0  0  0  0  0
   -1.5551   -6.4435    3.5641 H   0  0  0  0  0  0  0  0  0  0  0  0
    0.3305   -8.5816    5.8803 H   0  0  0  0  0  0  0  0  0  0  0  0
   -0.5496   -9.7684    4.9776 H   0  0  0  0  0  0  0  0  0  0  0  0
    1.7153  -10.5475    5.4433 H   0  0  0  0  0  0  0  0  0  0  0  0
    1.5259  -10.4032    3.7216 H   0  0  0  0  0  0  0  0  0  0  0  0
    2.7946   -8.4118    5.6167 H   0  0  0  0  0  0  0  0  0  0  0  0
    3.9664  -10.2767    5.0685 H   0  0  0  0  0  0  0  0  0  0  0  0
    2.8005   -7.4526    1.3650 H   0  0  0  0  0  0  0  0  0  0  0  0
    2.2905   -9.0574    1.8443 H   0  0  0  0  0  0  0  0  0  0  0  0
    3.9456   -8.6111    2.0186 H   0  0  0  0  0  0  0  0  0  0  0  0
    1.0202   -6.6507    2.5935 H   0  0  0  0  0  0  0  0  0  0  0  0
    0.5316   -5.0875    4.2696 H   0  0  0  0  0  0  0  0  0  0  0  0
    1.9613   -6.7365    6.0429 H   0  0  0  0  0  0  0  0  0  0  0  0
    3.4677   -4.4601    5.9662 H   0  0  0  0  0  0  0  0  0  0  0  0
    2.4639   -3.3282    5.0667 H   0  0  0  0  0  0  0  0  0  0  0  0
    4.0984   -3.6384    4.5437 H   0  0  0  0  0  0  0  0  0  0  0  0
    2.3351   -3.2219    0.5776 H   0  0  0  0  0  0  0  0  0  0  0  0
    3.0220   -1.2570   -0.6429 H   0  0  0  0  0  0  0  0  0  0  0  0
    2.9034   -0.0102   -2.8249 H   0  0  0  0  0  0  0  0  0  0  0  0
    3.8788   -1.0647   -4.8656 H   0  0  0  0  0  0  0  0  0  0  0  0
    5.0352   -4.4224   -2.7852 H   0  0  0  0  0  0  0  0  0  0  0  0
    5.3096   -7.1628    2.8169 H   0  0  0  0  0  0  0  0  0  0  0  0
    5.5240   -4.8581    4.3794 H   0  0  0  0  0  0  0  0  0  0  0  0
    3.9134   -6.7030    4.9857 H   0  0  0  0  0  0  0  0  0  0  0  0
  1  2  1  0
  1 32  1  0
  1 33  1  0
  1 34  1  0
  2 10  1  0
  2  3  1  0
  2  4  1  0
  3 35  1  0
  3 36  1  0
  3 37  1  0
  4  5  1  0
  4 38  1  0
  4 39  1  0
  5  6  1  0
  5 40  1  0
  5 41  1  0
  6  7  1  0
  6  8  1  0
  6 42  1  1
  7 43  1  0
  8 31  1  0
  8  9  1  6
  8 10  1  0
  9 44  1  0
  9 45  1  0
  9 46  1  0
 10 11  1  0
 10 47  1  6
 11 12  1  0
 11 13  1  0
 11 48  1  6
 12 49  1  0
 13 31  1  0
 13 14  1  1
 13 15  1  0
 14 50  1  0
 14 51  1  0
 14 52  1  0
 15 16  1  0
 16 28  2  0
 16 17  1  0
 17 18  2  0
 17 53  1  0
 18 19  1  0
 18 25  1  0
 19 24  1  0
 19 20  2  0
 20 21  1  0
 20 54  1  0
 21 22  2  0
 21 55  1  0
 22 23  1  0
 22 56  1  0
 23 24  2  0
 24 57  1  0
 25 26  1  0
 26 27  2  0
 26 28  1  0
 28 29  1  0
 29 30  1  0
 29 31  1  0
 29 58  1  6
 30 59  1  0
 31 60  1  1
M  END
>  <i_m_ct_stereo_status>  (423) 
1

>  <s_m_source_file>  (423) 
/var/tmp/pbs.5076255.sched01/tmpt95b3wv2/135g3gtwtb2.sdf

>  <i_m_source_file_index>  (423) 
34

>  <i_lp_mmshare_version>  (423) 
48012

>  <i_f3d_flags>  (423) 
0

>  <s_epik_input>  (423) 
W09IXVtDQEBIXTFbQ0gyXVtDSDJdQyhbQ0gzXSkoW0NIM10pW0NASF0oW0NAXTEyW0NIM10pW0NAQEhdKFtPSF0pW0NAQF0zKFtDSDNdKVtDQEBIXTJbQ0BIXShbT0hdKWM0YyhPMylbY0hdYyhvYzQ9TyktYzVbY0hdW2NIXVtjSF1uW2NIXTU=

>  <s_epik_cmdline>  (423) 
J2VwaWtfcHl0aG9uJywgJy1waHQnLCAnMi4wJywgJy1waCcsICc3LjAnLCAnLXRuJywgJzgnLCAnLW1hJywgJzIwMCcsICctaW1hZScsICc8aW5maWxlLm1hZT4nLCAnLW9tYWUnLCAnPG91dGZpbGUubWFlPic=

>  <r_lp_tautomer_probability>  (423) 
1

>  <r_epik_Ionization_Penalty>  (423) 
0.00422869

>  <r_epik_Ionization_Penalty_Charging>  (423) 
0

>  <r_epik_Ionization_Penalty_Neutral>  (423) 
0.00422869

>  <r_epik_State_Penalty>  (423) 
0.00303862

>  <r_epik_Charging_Adjusted_Penalty>  (423) 
0.00303862

>  <i_epik_Tot_Q>  (423) 
0

>  <i_epik_Tot_abs_Q>  (423) 
0

>  <s_lp_Force_Field>  (423) 
OPLS3e

>  <r_lp_Energy>  (423) 
59.4435

>  <b_lp_Chiralities_Consistent>  (423) 
1

>  <s_lp_Variant>  (423) 
107:0-1

>  <s_i_glide_gridfile>  (423) 
pfpi4k_grid

>  <i_i_glide_lignum>  (423) 
34

>  <i_i_glide_rotatable_bonds>  (423) 
4

>  <r_i_docking_score>  (423) 
-2.92462

>  <r_i_glide_ligand_efficiency>  (423) 
-0.0943427

>  <r_i_glide_ligand_efficiency_sa>  (423) 
-0.296366

>  <r_i_glide_ligand_efficiency_ln>  (423) 
-0.659592

>  <r_i_glide_gscore>  (423) 
-2.92462

>  <r_i_glide_lipo>  (423) 
-0.211136

>  <r_i_glide_hbond>  (423) 
-0.110464

>  <r_i_glide_metal>  (423) 
-0

>  <r_i_glide_rewards>  (423) 
-0.494385

>  <r_i_glide_evdw>  (423) 
-32.4438

>  <r_i_glide_ecoul>  (423) 
-3.96731

>  <r_i_glide_erotb>  (423) 
0.108649

>  <r_i_glide_esite>  (423) 
0

>  <r_i_glide_emodel>  (423) 
-42.4542

>  <r_i_glide_energy>  (423) 
-36.4111

>  <r_i_glide_einternal>  (423) 
1.5187

>  <r_i_glide_intrahb_reward>  (423) 
-0

>  <i_i_glide_confnum>  (423) 
3

>  <i_i_glide_posenum>  (423) 
10

>  <r_i_glide_eff_state_penalty>  (423) 
0

>  <ligand_id>  (423) 
107

>  <original_smiles>  (423) 
CC1(C)CCC(O)C2(C)C1C(O)C1(C)Oc3cc(-c4cccnc4)oc(=O)c3C(O)C12

>  <smiles>  (423) 
[H]OC1([H])c2c(c([H])c(-c3c([H])nc([H])c([H])c3[H])oc2=O)OC2(C([H])([H])[H])C([H])(O[H])C3([H])C(C([H])([H])[H])(C([H])([H])[H])C([H])([H])C([H])([H])C([H])(O[H])C3(C([H])([H])[H])C12[H]

$$$$
108:0:0
     RDKit          3D

 86 94  0  0  1  0  0  0  0  0999 V2000
    4.5601   -3.1671    7.1592 C   0  0  0  0  0  0  0  0  0  0  0  0
    4.4455   -3.2617    5.6118 C   0  0  0  0  0  0  0  0  0  0  0  0
    4.0149   -1.8469    5.1583 C   0  0  0  0  0  0  0  0  0  0  0  0
    3.7023   -4.5640    4.9919 C   0  0  1  0  0  0  0  0  0  0  0  0
    2.5397   -4.9656    5.9971 C   0  0  1  0  0  0  0  0  0  0  0  0
    1.2156   -4.5660    5.3669 C   0  0  0  0  0  0  0  0  0  0  0  0
    1.4984   -5.3223    4.0459 C   0  0  1  0  0  0  0  0  0  0  0  0
    2.8246   -4.5232    3.6207 C   0  0  1  0  0  0  0  0  0  0  0  0
    2.2947   -3.2172    3.4216 O   0  0  0  0  0  0  0  0  0  0  0  0
    3.4171   -4.5997    2.1090 C   0  0  2  0  0  0  0  0  0  0  0  0
    3.7782   -5.8731    1.2687 C   0  0  1  0  0  0  0  0  0  0  0  0
    2.7078   -6.1552    0.4010 O   0  0  0  0  0  0  0  0  0  0  0  0
    5.0969   -5.5557    0.5169 C   0  0  1  0  0  0  0  0  0  0  0  0
    5.0235   -4.0381    0.3033 C   0  0  1  0  0  0  0  0  0  0  0  0
    4.1068   -3.5758   -0.8536 C   0  0  0  0  0  0  0  0  0  0  0  0
    4.3017   -2.1931   -1.0656 O   0  0  0  0  0  0  0  0  0  0  0  0
    4.5631   -3.6148    1.7147 C   0  0  2  0  0  0  0  0  0  0  0  0
    5.8113   -3.7824    2.5746 C   0  0  0  0  0  0  0  0  0  0  0  0
    6.2586   -5.2562    2.7301 C   0  0  1  0  0  0  0  0  0  0  0  0
    5.6077   -6.2235    3.7747 C   0  0  0  0  0  0  0  0  0  0  0  0
    4.6603   -5.8467    4.9734 C   0  0  1  0  0  0  0  0  0  0  0  0
    5.5395   -5.8209    6.0818 O   0  0  0  0  0  0  0  0  0  0  0  0
    3.7275   -7.0259    5.3117 C   0  0  2  0  0  0  0  0  0  0  0  0
    2.8033   -7.6908    4.2732 C   0  0  1  0  0  0  0  0  0  0  0  0
    2.4152   -9.1900    4.2348 C   0  0  1  0  0  0  0  0  0  0  0  0
    1.7417   -9.6727    5.5491 C   0  0  1  0  0  0  0  0  0  0  0  0
    2.6309   -9.6655    6.6526 O   0  0  0  0  0  0  0  0  0  0  0  0
    0.4449   -8.8403    5.7677 C   0  0  1  0  0  0  0  0  0  0  0  0
    0.2509   -8.4684    7.1244 O   0  0  0  0  0  0  0  0  0  0  0  0
    0.3424   -7.6609    4.7246 C   0  0  2  0  0  0  0  0  0  0  0  0
   -0.9773   -6.9025    4.9640 C   0  0  0  0  0  0  0  0  0  0  0  0
    0.2391   -8.3953    3.3577 C   0  0  0  0  0  0  0  0  0  0  0  0
    1.4042   -9.3086    3.1418 N   0  0  2  0  0  0  0  0  0  0  0  0
    1.0058  -10.6888    2.8068 C   0  0  0  0  0  0  0  0  0  0  0  0
    1.6551   -6.7751    4.6645 C   0  0  2  0  0  0  0  0  0  0  0  0
    2.4701   -6.4608    5.9239 C   0  0  2  0  0  0  0  0  0  0  0  0
    6.2850   -5.9074    1.3830 N   0  0  2  0  0  0  0  0  0  0  0  0
    7.6050   -5.7740    0.7147 C   0  0  0  0  0  0  0  0  0  0  0  0
    3.6421   -2.8141    7.6279 H   0  0  0  0  0  0  0  0  0  0  0  0
    5.3347   -2.4500    7.4347 H   0  0  0  0  0  0  0  0  0  0  0  0
    4.8312   -4.1004    7.6480 H   0  0  0  0  0  0  0  0  0  0  0  0
    5.5016   -3.3530    5.3913 H   0  0  0  0  0  0  0  0  0  0  0  0
    2.9851   -1.6282    5.4479 H   0  0  0  0  0  0  0  0  0  0  0  0
    4.1257   -1.6780    4.0890 H   0  0  0  0  0  0  0  0  0  0  0  0
    4.6359   -1.0859    5.6324 H   0  0  0  0  0  0  0  0  0  0  0  0
    2.6153   -4.6423    7.0273 H   0  0  0  0  0  0  0  0  0  0  0  0
    0.3899   -4.9507    5.9489 H   0  0  0  0  0  0  0  0  0  0  0  0
    1.0378   -3.4894    5.3296 H   0  0  0  0  0  0  0  0  0  0  0  0
    0.6921   -5.2406    3.3098 H   0  0  0  0  0  0  0  0  0  0  0  0
    3.0118   -2.6272    3.2566 H   0  0  0  0  0  0  0  0  0  0  0  0
    2.5857   -4.2122    1.5099 H   0  0  0  0  0  0  0  0  0  0  0  0
    3.9304   -6.8253    1.7219 H   0  0  0  0  0  0  0  0  0  0  0  0
    2.9291   -5.8528   -0.4715 H   0  0  0  0  0  0  0  0  0  0  0  0
    5.1748   -6.0962   -0.4255 H   0  0  0  0  0  0  0  0  0  0  0  0
    6.0060   -3.6407    0.0532 H   0  0  0  0  0  0  0  0  0  0  0  0
    4.3497   -4.1066   -1.7751 H   0  0  0  0  0  0  0  0  0  0  0  0
    3.0508   -3.7434   -0.6526 H   0  0  0  0  0  0  0  0  0  0  0  0
    5.1801   -2.0495   -1.3747 H   0  0  0  0  0  0  0  0  0  0  0  0
    4.2414   -2.5683    1.7133 H   0  0  0  0  0  0  0  0  0  0  0  0
    6.6156   -3.2460    2.0721 H   0  0  0  0  0  0  0  0  0  0  0  0
    5.7445   -3.2221    3.4771 H   0  0  0  0  0  0  0  0  0  0  0  0
    7.2880   -5.1945    3.0724 H   0  0  0  0  0  0  0  0  0  0  0  0
    5.1698   -7.0620    3.2574 H   0  0  0  0  0  0  0  0  0  0  0  0
    6.4482   -6.7775    4.2003 H   0  0  0  0  0  0  0  0  0  0  0  0
    6.1335   -5.0962    5.9877 H   0  0  0  0  0  0  0  0  0  0  0  0
    4.1942   -7.7868    5.9372 H   0  0  0  0  0  0  0  0  0  0  0  0
    3.0672   -7.3892    3.3011 H   0  0  0  0  0  0  0  0  0  0  0  0
    3.2862   -9.7998    4.0057 H   0  0  0  0  0  0  0  0  0  0  0  0
    1.4788  -10.7267    5.4619 H   0  0  0  0  0  0  0  0  0  0  0  0
    2.4062  -10.3943    7.2200 H   0  0  0  0  0  0  0  0  0  0  0  0
   -0.3887   -9.5235    5.5754 H   0  0  0  0  0  0  0  0  0  0  0  0
    0.3611   -9.2481    7.6492 H   0  0  0  0  0  0  0  0  0  0  0  0
   -1.1489   -6.1051    4.2459 H   0  0  0  0  0  0  0  0  0  0  0  0
   -0.9842   -6.4776    5.9665 H   0  0  0  0  0  0  0  0  0  0  0  0
   -1.8211   -7.5860    4.8800 H   0  0  0  0  0  0  0  0  0  0  0  0
   -0.6953   -8.9516    3.2960 H   0  0  0  0  0  0  0  0  0  0  0  0
    0.2096   -7.6672    2.5540 H   0  0  0  0  0  0  0  0  0  0  0  0
    0.3830  -11.1367    3.5774 H   0  0  0  0  0  0  0  0  0  0  0  0
    1.8777  -11.3180    2.6604 H   0  0  0  0  0  0  0  0  0  0  0  0
    0.4230  -10.6787    1.8946 H   0  0  0  0  0  0  0  0  0  0  0  0
    2.1644   -6.9708    6.8320 H   0  0  0  0  0  0  0  0  0  0  0  0
    7.8906   -4.7373    0.5642 H   0  0  0  0  0  0  0  0  0  0  0  0
    7.6098   -6.2546   -0.2513 H   0  0  0  0  0  0  0  0  0  0  0  0
    8.3870   -6.2511    1.2996 H   0  0  0  0  0  0  0  0  0  0  0  0
    6.2097   -6.8976    1.5675 H   0  0  0  0  0  0  0  0  0  0  0  0
    1.8658   -8.9584    2.3118 H   0  0  0  0  0  0  0  0  0  0  0  0
  1  2  1  0
  1 39  1  0
  1 40  1  0
  1 41  1  0
  2  3  1  0
  4  2  1  1
  2 42  1  0
  3 43  1  0
  3 44  1  0
  3 45  1  0
  4  8  1  0
  4 21  1  0
  4  5  1  0
  5 36  1  0
  5  6  1  0
  5 46  1  1
  6  7  1  0
  6 47  1  0
  6 48  1  0
  7 35  1  0
  7  8  1  0
  7 49  1  6
  8  9  1  6
  8 10  1  0
  9 50  1  0
 10 17  1  0
 10 11  1  0
 10 51  1  6
 11 12  1  0
 11 13  1  0
 11 52  1  1
 12 53  1  0
 13 37  1  0
 13 14  1  0
 13 54  1  6
 14 15  1  0
 14 17  1  0
 14 55  1  6
 15 16  1  0
 15 56  1  0
 15 57  1  0
 16 58  1  0
 17 18  1  0
 17 59  1  6
 18 19  1  0
 18 60  1  0
 18 61  1  0
 19 20  1  0
 19 37  1  0
 19 62  1  1
 20 21  1  0
 20 63  1  0
 20 64  1  0
 21 22  1  1
 21 23  1  0
 22 65  1  0
 23 36  1  0
 23 24  1  0
 23 66  1  1
 24 35  1  0
 24 25  1  0
 24 67  1  6
 25 33  1  0
 25 26  1  0
 25 68  1  6
 26 27  1  0
 26 28  1  0
 26 69  1  6
 27 70  1  0
 28 29  1  0
 28 30  1  0
 28 71  1  6
 29 72  1  0
 30 31  1  1
 30 32  1  0
 35 30  1  1
 31 73  1  0
 31 74  1  0
 31 75  1  0
 32 33  1  0
 32 76  1  0
 32 77  1  0
 33 34  1  0
 33 86  1  6
 34 78  1  0
 34 79  1  0
 34 80  1  0
 35 36  1  0
 36 81  1  1
 37 38  1  0
 37 85  1  1
 38 82  1  0
 38 83  1  0
 38 84  1  0
M  CHG  2  33   1  37   1
M  END
>  <i_m_ct_stereo_status>  (424) 
1

>  <s_m_source_file>  (424) 
/var/tmp/pbs.5076255.sched01/tmpt95b3wv2/135g3gtwtb2.sdf

>  <i_m_source_file_index>  (424) 
35

>  <i_lp_mmshare_version>  (424) 
48012

>  <i_f3d_flags>  (424) 
0

>  <s_epik_input>  (424) 
W0NIM11OMVtDSDJdW0NAQF0yKFtDSDNdKVtDQEhdKFtPSF0pW0NASF0oW09IXSlbQ0BASF0xW0NAQEhdM1tDQEhdKFtDQEhdNFtDQEhdKFtDSDJdNSlbQ0BdNihbQ0hdKFtDSDNdKVtDSDNdKVtDQEBdNyhbQ0BIXTVbQ0BAXTIzNClbT0hdKVtDQEBdNihbT0hdKVtDSDJdW0NAQEhdOFtDSDJdW0NAQEhdOVtDQEhdN1tDQEBIXShbT0hdKVtDQEhdKE44W0NIM10pW0NASF05W0NIMl1bT0hd

>  <s_epik_cmdline>  (424) 
J2VwaWtfcHl0aG9uJywgJy1waHQnLCAnMi4wJywgJy1waCcsICc3LjAnLCAnLXRuJywgJzgnLCAnLW1hJywgJzIwMCcsICctaW1hZScsICc8aW5maWxlLm1hZT4nLCAnLW9tYWUnLCAnPG91dGZpbGUubWFlPic=

>  <r_epik_Ionization_Penalty>  (424) 
0.163002

>  <r_epik_Ionization_Penalty_Charging>  (424) 
0.163002

>  <r_epik_Ionization_Penalty_Neutral>  (424) 
5.05668e-07

>  <r_epik_State_Penalty>  (424) 
0.146653

>  <r_epik_Charging_Adjusted_Penalty>  (424) 
0.309655

>  <i_epik_Tot_Q>  (424) 
2

>  <i_epik_Tot_abs_Q>  (424) 
2

>  <s_lp_Force_Field>  (424) 
OPLS3e

>  <r_lp_Energy>  (424) 
227.128

>  <b_lp_Chiralities_Consistent>  (424) 
1

>  <s_lp_Variant>  (424) 
108:0-1

>  <s_i_glide_gridfile>  (424) 
pfpi4k_grid

>  <i_i_glide_lignum>  (424) 
35

>  <i_i_glide_rotatable_bonds>  (424) 
8

>  <r_i_docking_score>  (424) 
-2.78862

>  <r_i_glide_ligand_efficiency>  (424) 
-0.0733848

>  <r_i_glide_ligand_efficiency_sa>  (424) 
-0.246718

>  <r_i_glide_ligand_efficiency_ln>  (424) 
-0.601309

>  <r_i_glide_gscore>  (424) 
-2.78862

>  <r_i_glide_lipo>  (424) 
-0.455287

>  <r_i_glide_hbond>  (424) 
-0.243973

>  <r_i_glide_metal>  (424) 
-0

>  <r_i_glide_rewards>  (424) 
0

>  <r_i_glide_evdw>  (424) 
-18.2306

>  <r_i_glide_ecoul>  (424) 
-8.31014

>  <r_i_glide_erotb>  (424) 
0.0726888

>  <r_i_glide_esite>  (424) 
-0.00399682

>  <r_i_glide_emodel>  (424) 
-27.2915

>  <r_i_glide_energy>  (424) 
-26.5408

>  <r_i_glide_einternal>  (424) 
7.05957

>  <r_i_glide_intrahb_reward>  (424) 
-0

>  <i_i_glide_confnum>  (424) 
3

>  <i_i_glide_posenum>  (424) 
6

>  <r_i_glide_eff_state_penalty>  (424) 
0

>  <ligand_id>  (424) 
108

>  <original_smiles>  (424) 
CC(C)C12C3CC4C1(O)C1C(O)C5C(CO)C1CC(CC2(O)C1C2C6C(O)C(O)C(C)(CN6C)C24C13)N5C

>  <smiles>  (424) 
[H]OC([H])([H])C1([H])C2([H])C([H])([H])C3([H])C([H])([H])C4(O[H])C5([H])C6([H])C7([H])C([H])([H])C([H])(C(O[H])(C2([H])C([H])(O[H])C1([H])[N+]3([H])C([H])([H])[H])C74C([H])(C([H])([H])[H])C([H])([H])[H])C61C5([H])C2([H])C([H])(O[H])C([H])(O[H])C1(C([H])([H])[H])C([H])([H])[N+]2([H])C([H])([H])[H]

$$$$
108:0:1
     RDKit          3D

 86 94  0  0  1  0  0  0  0  0999 V2000
    3.4119   -2.6185    7.0012 C   0  0  0  0  0  0  0  0  0  0  0  0
    3.3694   -2.7318    5.4511 C   0  0  0  0  0  0  0  0  0  0  0  0
    2.7688   -1.3877    4.9723 C   0  0  0  0  0  0  0  0  0  0  0  0
    2.8343   -4.1239    4.8188 C   0  0  1  0  0  0  0  0  0  0  0  0
    1.6973   -4.6705    5.7834 C   0  0  1  0  0  0  0  0  0  0  0  0
    0.3552   -4.4562    5.0991 C   0  0  0  0  0  0  0  0  0  0  0  0
    0.8057   -5.1811    3.8033 C   0  0  1  0  0  0  0  0  0  0  0  0
    2.0209   -4.2089    3.4155 C   0  0  1  0  0  0  0  0  0  0  0  0
    1.3306   -2.9849    3.2032 O   0  0  0  0  0  0  0  0  0  0  0  0
    2.6759   -4.2103    1.9250 C   0  0  2  0  0  0  0  0  0  0  0  0
    3.1896   -5.4229    1.0626 C   0  0  1  0  0  0  0  0  0  0  0  0
    2.2123   -5.7512    0.0796 O   0  0  0  0  0  0  0  0  0  0  0  0
    4.4974   -4.9321    0.3882 C   0  0  1  0  0  0  0  0  0  0  0  0
    4.2413   -3.4372    0.1654 C   0  0  1  0  0  0  0  0  0  0  0  0
    3.3095   -3.0993   -1.0248 C   0  0  0  0  0  0  0  0  0  0  0  0
    3.7122   -1.8748   -1.6053 O   0  0  0  0  0  0  0  0  0  0  0  0
    3.6834   -3.0738    1.5575 C   0  0  2  0  0  0  0  0  0  0  0  0
    4.9118   -3.0713    2.4676 C   0  0  0  0  0  0  0  0  0  0  0  0
    5.5188   -4.4842    2.6383 C   0  0  1  0  0  0  0  0  0  0  0  0
    4.9703   -5.5218    3.6746 C   0  0  0  0  0  0  0  0  0  0  0  0
    3.9489   -5.2680    4.8405 C   0  0  1  0  0  0  0  0  0  0  0  0
    4.7740   -5.1212    5.9785 O   0  0  0  0  0  0  0  0  0  0  0  0
    3.1733   -6.5585    5.1582 C   0  0  2  0  0  0  0  0  0  0  0  0
    2.3882   -7.3438    4.0874 C   0  0  1  0  0  0  0  0  0  0  0  0
    2.1989   -8.8796    4.0422 C   0  0  1  0  0  0  0  0  0  0  0  0
    1.5566   -9.4518    5.3315 C   0  0  1  0  0  0  0  0  0  0  0  0
    2.4087   -9.3230    6.4550 O   0  0  0  0  0  0  0  0  0  0  0  0
    0.1573   -8.7919    5.5065 C   0  0  1  0  0  0  0  0  0  0  0  0
   -0.0826   -8.4629    6.8630 O   0  0  0  0  0  0  0  0  0  0  0  0
   -0.0650   -7.6312    4.4562 C   0  0  2  0  0  0  0  0  0  0  0  0
   -1.4805   -7.0427    4.6176 C   0  0  0  0  0  0  0  0  0  0  0  0
   -0.0287   -8.3828    3.0946 C   0  0  0  0  0  0  0  0  0  0  0  0
    1.2490   -9.1385    2.9223 N   0  0  2  0  0  0  0  0  0  0  0  0
    1.0443  -10.5632    2.6041 C   0  0  0  0  0  0  0  0  0  0  0  0
    1.1233   -6.5859    4.4406 C   0  0  2  0  0  0  0  0  0  0  0  0
    1.8367   -6.1608    5.7248 C   0  0  2  0  0  0  0  0  0  0  0  0
    5.6787   -5.1288    1.3007 N   0  0  2  0  0  0  0  0  0  0  0  0
    6.9891   -4.8158    0.6770 C   0  0  0  0  0  0  0  0  0  0  0  0
    2.4367   -2.3892    7.4331 H   0  0  0  0  0  0  0  0  0  0  0  0
    4.0746   -1.8027    7.2962 H   0  0  0  0  0  0  0  0  0  0  0  0
    3.7860   -3.5071    7.5072 H   0  0  0  0  0  0  0  0  0  0  0  0
    4.4357   -2.6807    5.2699 H   0  0  0  0  0  0  0  0  0  0  0  0
    1.7088   -1.3079    5.2221 H   0  0  0  0  0  0  0  0  0  0  0  0
    2.8946   -1.2103    3.9065 H   0  0  0  0  0  0  0  0  0  0  0  0
    3.2656   -0.5485    5.4610 H   0  0  0  0  0  0  0  0  0  0  0  0
    1.6872   -4.3391    6.8144 H   0  0  0  0  0  0  0  0  0  0  0  0
   -0.4290   -4.9414    5.6614 H   0  0  0  0  0  0  0  0  0  0  0  0
    0.0336   -3.4157    5.0433 H   0  0  0  0  0  0  0  0  0  0  0  0
    0.0712   -5.2654    3.0142 H   0  0  0  0  0  0  0  0  0  0  0  0
    1.9492   -2.3293    2.9289 H   0  0  0  0  0  0  0  0  0  0  0  0
    1.8240   -3.9215    1.3046 H   0  0  0  0  0  0  0  0  0  0  0  0
    3.4369   -6.3601    1.5211 H   0  0  0  0  0  0  0  0  0  0  0  0
    2.6285   -5.8537   -0.7715 H   0  0  0  0  0  0  0  0  0  0  0  0
    4.6900   -5.4568   -0.5458 H   0  0  0  0  0  0  0  0  0  0  0  0
    5.1817   -2.9262   -0.0393 H   0  0  0  0  0  0  0  0  0  0  0  0
    3.3628   -3.8545   -1.8095 H   0  0  0  0  0  0  0  0  0  0  0  0
    2.2641   -3.0286   -0.7231 H   0  0  0  0  0  0  0  0  0  0  0  0
    4.4892   -2.0258   -2.1169 H   0  0  0  0  0  0  0  0  0  0  0  0
    3.2238   -2.0805    1.5351 H   0  0  0  0  0  0  0  0  0  0  0  0
    5.6743   -2.4385    2.0070 H   0  0  0  0  0  0  0  0  0  0  0  0
    4.7328   -2.5317    3.3690 H   0  0  0  0  0  0  0  0  0  0  0  0
    6.5307   -4.3093    2.9825 H   0  0  0  0  0  0  0  0  0  0  0  0
    4.6629   -6.4113    3.1440 H   0  0  0  0  0  0  0  0  0  0  0  0
    5.8649   -5.9511    4.1332 H   0  0  0  0  0  0  0  0  0  0  0  0
    5.1904   -4.2773    5.9460 H   0  0  0  0  0  0  0  0  0  0  0  0
    3.7134   -7.2507    5.8031 H   0  0  0  0  0  0  0  0  0  0  0  0
    2.6381   -7.0044    3.1201 H   0  0  0  0  0  0  0  0  0  0  0  0
    3.1517   -9.3705    3.8482 H   0  0  0  0  0  0  0  0  0  0  0  0
    1.4300  -10.5323    5.2458 H   0  0  0  0  0  0  0  0  0  0  0  0
    2.2116  -10.0245    7.0629 H   0  0  0  0  0  0  0  0  0  0  0  0
   -0.5865   -9.5664    5.3009 H   0  0  0  0  0  0  0  0  0  0  0  0
    0.0640   -9.2435    7.3697 H   0  0  0  0  0  0  0  0  0  0  0  0
   -1.7412   -6.2992    3.8668 H   0  0  0  0  0  0  0  0  0  0  0  0
   -1.6356   -6.5895    5.5946 H   0  0  0  0  0  0  0  0  0  0  0  0
   -2.1835   -7.8638    4.5111 H   0  0  0  0  0  0  0  0  0  0  0  0
   -0.8793   -9.0573    3.0038 H   0  0  0  0  0  0  0  0  0  0  0  0
   -0.1327   -7.6724    2.2801 H   0  0  0  0  0  0  0  0  0  0  0  0
    0.4675  -11.0831    3.3693 H   0  0  0  0  0  0  0  0  0  0  0  0
    2.0024  -11.0694    2.4908 H   0  0  0  0  0  0  0  0  0  0  0  0
    0.4885  -10.6536    1.6820 H   0  0  0  0  0  0  0  0  0  0  0  0
    1.5667   -6.7083    6.6205 H   0  0  0  0  0  0  0  0  0  0  0  0
    7.1481   -3.7464    0.5380 H   0  0  0  0  0  0  0  0  0  0  0  0
    7.0634   -5.2928   -0.2926 H   0  0  0  0  0  0  0  0  0  0  0  0
    7.8104   -5.1907    1.2888 H   0  0  0  0  0  0  0  0  0  0  0  0
    5.7306   -6.1202    1.4899 H   0  0  0  0  0  0  0  0  0  0  0  0
    1.6823   -8.7390    2.1044 H   0  0  0  0  0  0  0  0  0  0  0  0
  1  2  1  0
  1 39  1  0
  1 40  1  0
  1 41  1  0
  2  3  1  0
  4  2  1  1
  2 42  1  0
  3 43  1  0
  3 44  1  0
  3 45  1  0
  4  8  1  0
  4 21  1  0
  4  5  1  0
  5 36  1  0
  5  6  1  0
  5 46  1  1
  6  7  1  0
  6 47  1  0
  6 48  1  0
  7 35  1  0
  7  8  1  0
  7 49  1  6
  8  9  1  6
  8 10  1  0
  9 50  1  0
 10 17  1  0
 10 11  1  0
 10 51  1  6
 11 12  1  0
 11 13  1  0
 11 52  1  1
 12 53  1  0
 13 37  1  0
 13 14  1  0
 13 54  1  6
 14 15  1  0
 14 17  1  0
 14 55  1  6
 15 16  1  0
 15 56  1  0
 15 57  1  0
 16 58  1  0
 17 18  1  0
 17 59  1  6
 18 19  1  0
 18 60  1  0
 18 61  1  0
 19 20  1  0
 19 37  1  0
 19 62  1  1
 20 21  1  0
 20 63  1  0
 20 64  1  0
 21 22  1  1
 21 23  1  0
 22 65  1  0
 23 36  1  0
 23 24  1  0
 23 66  1  1
 24 35  1  0
 24 25  1  0
 24 67  1  6
 25 33  1  0
 25 26  1  0
 25 68  1  6
 26 27  1  0
 26 28  1  0
 26 69  1  6
 27 70  1  0
 28 29  1  0
 28 30  1  0
 28 71  1  6
 29 72  1  0
 30 31  1  1
 30 32  1  0
 35 30  1  1
 31 73  1  0
 31 74  1  0
 31 75  1  0
 32 33  1  0
 32 76  1  0
 32 77  1  0
 33 34  1  0
 33 86  1  6
 34 78  1  0
 34 79  1  0
 34 80  1  0
 35 36  1  0
 36 81  1  1
 37 38  1  0
 37 85  1  1
 38 82  1  0
 38 83  1  0
 38 84  1  0
M  CHG  2  33   1  37   1
M  END
>  <i_m_ct_stereo_status>  (425) 
1

>  <s_m_source_file>  (425) 
/var/tmp/pbs.5076255.sched01/tmpt95b3wv2/135g3gtwtb2.sdf

>  <i_m_source_file_index>  (425) 
35

>  <i_lp_mmshare_version>  (425) 
48012

>  <i_f3d_flags>  (425) 
0

>  <s_epik_input>  (425) 
W0NIM11OMVtDSDJdW0NAQF0yKFtDSDNdKVtDQEhdKFtPSF0pW0NASF0oW09IXSlbQ0BASF0xW0NAQEhdM1tDQEhdKFtDQEhdNFtDQEhdKFtDSDJdNSlbQ0BdNihbQ0hdKFtDSDNdKVtDSDNdKVtDQEBdNyhbQ0BIXTVbQ0BAXTIzNClbT0hdKVtDQEBdNihbT0hdKVtDSDJdW0NAQEhdOFtDSDJdW0NAQEhdOVtDQEhdN1tDQEBIXShbT0hdKVtDQEhdKE44W0NIM10pW0NASF05W0NIMl1bT0hd

>  <s_epik_cmdline>  (425) 
J2VwaWtfcHl0aG9uJywgJy1waHQnLCAnMi4wJywgJy1waCcsICc3LjAnLCAnLXRuJywgJzgnLCAnLW1hJywgJzIwMCcsICctaW1hZScsICc8aW5maWxlLm1hZT4nLCAnLW9tYWUnLCAnPG91dGZpbGUubWFlPic=

>  <r_epik_Ionization_Penalty>  (425) 
0.163002

>  <r_epik_Ionization_Penalty_Charging>  (425) 
0.163002

>  <r_epik_Ionization_Penalty_Neutral>  (425) 
5.05668e-07

>  <r_epik_State_Penalty>  (425) 
0.146653

>  <r_epik_Charging_Adjusted_Penalty>  (425) 
0.309655

>  <i_epik_Tot_Q>  (425) 
2

>  <i_epik_Tot_abs_Q>  (425) 
2

>  <s_lp_Force_Field>  (425) 
OPLS3e

>  <r_lp_Energy>  (425) 
227.128

>  <b_lp_Chiralities_Consistent>  (425) 
1

>  <s_lp_Variant>  (425) 
108:0-1

>  <s_i_glide_gridfile>  (425) 
pfpi4k_grid

>  <i_i_glide_lignum>  (425) 
35

>  <i_i_glide_rotatable_bonds>  (425) 
8

>  <r_i_docking_score>  (425) 
-2.70477

>  <r_i_glide_ligand_efficiency>  (425) 
-0.0711783

>  <r_i_glide_ligand_efficiency_sa>  (425) 
-0.2393

>  <r_i_glide_ligand_efficiency_ln>  (425) 
-0.583229

>  <r_i_glide_gscore>  (425) 
-2.70477

>  <r_i_glide_lipo>  (425) 
-0.428304

>  <r_i_glide_hbond>  (425) 
-0.32

>  <r_i_glide_metal>  (425) 
-0

>  <r_i_glide_rewards>  (425) 
0

>  <r_i_glide_evdw>  (425) 
-14.8993

>  <r_i_glide_ecoul>  (425) 
-8.56

>  <r_i_glide_erotb>  (425) 
0.0726888

>  <r_i_glide_esite>  (425) 
-0.000194596

>  <r_i_glide_emodel>  (425) 
-23.4176

>  <r_i_glide_energy>  (425) 
-23.4593

>  <r_i_glide_einternal>  (425) 
9.23434

>  <r_i_glide_intrahb_reward>  (425) 
-0

>  <i_i_glide_confnum>  (425) 
3

>  <i_i_glide_posenum>  (425) 
9

>  <r_i_glide_eff_state_penalty>  (425) 
0

>  <ligand_id>  (425) 
108

>  <original_smiles>  (425) 
CC(C)C12C3CC4C1(O)C1C(O)C5C(CO)C1CC(CC2(O)C1C2C6C(O)C(O)C(C)(CN6C)C24C13)N5C

>  <smiles>  (425) 
[H]OC([H])([H])C1([H])C2([H])C([H])([H])C3([H])C([H])([H])C4(O[H])C5([H])C6([H])C7([H])C([H])([H])C([H])(C(O[H])(C2([H])C([H])(O[H])C1([H])[N+]3([H])C([H])([H])[H])C74C([H])(C([H])([H])[H])C([H])([H])[H])C61C5([H])C2([H])C([H])(O[H])C([H])(O[H])C1(C([H])([H])[H])C([H])([H])[N+]2([H])C([H])([H])[H]

$$$$
108:0:2
     RDKit          3D

 86 94  0  0  1  0  0  0  0  0999 V2000
    0.2801   -6.7219    8.9639 C   0  0  0  0  0  0  0  0  0  0  0  0
    0.5780   -5.8156    7.7386 C   0  0  0  0  0  0  0  0  0  0  0  0
   -0.7255   -5.0151    7.5008 C   0  0  0  0  0  0  0  0  0  0  0  0
    1.3562   -6.4903    6.4817 C   0  0  1  0  0  0  0  0  0  0  0  0
    0.8593   -7.9969    6.3754 C   0  0  1  0  0  0  0  0  0  0  0  0
   -0.0665   -8.1124    5.1720 C   0  0  0  0  0  0  0  0  0  0  0  0
    0.9527   -7.4758    4.1997 C   0  0  1  0  0  0  0  0  0  0  0  0
    1.1178   -6.0539    4.9306 C   0  0  1  0  0  0  0  0  0  0  0  0
   -0.1871   -5.5351    4.8028 O   0  0  0  0  0  0  0  0  0  0  0  0
    1.7657   -4.7668    4.1709 C   0  0  2  0  0  0  0  0  0  0  0  0
    3.1570   -4.6646    3.4462 C   0  0  1  0  0  0  0  0  0  0  0  0
    3.0393   -4.7982    2.0394 O   0  0  0  0  0  0  0  0  0  0  0  0
    3.7418   -3.2835    3.8412 C   0  0  1  0  0  0  0  0  0  0  0  0
    2.4967   -2.4063    4.0293 C   0  0  1  0  0  0  0  0  0  0  0  0
    1.8383   -1.9096    2.7221 C   0  0  0  0  0  0  0  0  0  0  0  0
    0.8581   -0.9463    3.0326 O   0  0  0  0  0  0  0  0  0  0  0  0
    1.6479   -3.3715    4.8795 C   0  0  2  0  0  0  0  0  0  0  0  0
    2.3062   -3.3312    6.2645 C   0  0  0  0  0  0  0  0  0  0  0  0
    3.7257   -3.9432    6.2802 C   0  0  1  0  0  0  0  0  0  0  0  0
    3.9687   -5.4930    6.3746 C   0  0  0  0  0  0  0  0  0  0  0  0
    2.9262   -6.6119    6.7488 C   0  0  1  0  0  0  0  0  0  0  0  0
    3.1782   -6.8400    8.1223 O   0  0  0  0  0  0  0  0  0  0  0  0
    3.3214   -7.9513    6.1007 C   0  0  2  0  0  0  0  0  0  0  0  0
    3.5495   -8.1122    4.5809 C   0  0  1  0  0  0  0  0  0  0  0  0
    4.5700   -9.0738    3.9213 C   0  0  1  0  0  0  0  0  0  0  0  0
    4.3521  -10.5527    4.3422 C   0  0  1  0  0  0  0  0  0  0  0  0
    4.5869  -10.7499    5.7237 O   0  0  0  0  0  0  0  0  0  0  0  0
    2.9282  -10.9921    3.9058 C   0  0  1  0  0  0  0  0  0  0  0  0
    2.3005  -11.8284    4.8653 O   0  0  0  0  0  0  0  0  0  0  0  0
    2.0880   -9.7679    3.3748 C   0  0  2  0  0  0  0  0  0  0  0  0
    0.6980  -10.2812    2.9096 C   0  0  0  0  0  0  0  0  0  0  0  0
    2.8876   -9.2974    2.1143 C   0  0  0  0  0  0  0  0  0  0  0  0
    4.3130   -8.9678    2.4524 N   0  0  2  0  0  0  0  0  0  0  0  0
    5.3025   -9.6695    1.6013 C   0  0  0  0  0  0  0  0  0  0  0  0
    2.1020   -8.5453    4.3833 C   0  0  2  0  0  0  0  0  0  0  0  0
    2.0586   -8.7575    5.9014 C   0  0  2  0  0  0  0  0  0  0  0  0
    4.5173   -3.3833    5.1333 N   0  0  2  0  0  0  0  0  0  0  0  0
    5.2494   -2.1383    5.4895 C   0  0  0  0  0  0  0  0  0  0  0  0
   -0.5853   -7.3676    8.7986 H   0  0  0  0  0  0  0  0  0  0  0  0
    0.0542   -6.1165    9.8428 H   0  0  0  0  0  0  0  0  0  0  0  0
    1.0956   -7.3789    9.2516 H   0  0  0  0  0  0  0  0  0  0  0  0
    1.2702   -5.1423    8.2273 H   0  0  0  0  0  0  0  0  0  0  0  0
   -1.5201   -5.6480    7.1072 H   0  0  0  0  0  0  0  0  0  0  0  0
   -0.5981   -4.1635    6.8365 H   0  0  0  0  0  0  0  0  0  0  0  0
   -1.0994   -4.6008    8.4378 H   0  0  0  0  0  0  0  0  0  0  0  0
    0.4490   -8.4707    7.2577 H   0  0  0  0  0  0  0  0  0  0  0  0
   -0.3047   -9.1527    4.9778 H   0  0  0  0  0  0  0  0  0  0  0  0
   -1.0378   -7.6299    5.2787 H   0  0  0  0  0  0  0  0  0  0  0  0
    0.5816   -7.3957    3.1758 H   0  0  0  0  0  0  0  0  0  0  0  0
   -0.2386   -4.7468    5.3188 H   0  0  0  0  0  0  0  0  0  0  0  0
    1.1126   -4.6362    3.3037 H   0  0  0  0  0  0  0  0  0  0  0  0
    3.9226   -5.3702    3.6536 H   0  0  0  0  0  0  0  0  0  0  0  0
    2.6116   -4.0309    1.6923 H   0  0  0  0  0  0  0  0  0  0  0  0
    4.4011   -2.8929    3.0651 H   0  0  0  0  0  0  0  0  0  0  0  0
    2.7469   -1.4951    4.5726 H   0  0  0  0  0  0  0  0  0  0  0  0
    2.5769   -1.4341    2.0757 H   0  0  0  0  0  0  0  0  0  0  0  0
    1.3829   -2.7096    2.1448 H   0  0  0  0  0  0  0  0  0  0  0  0
    0.6142   -0.5009    2.2325 H   0  0  0  0  0  0  0  0  0  0  0  0
    0.6167   -3.0121    4.9470 H   0  0  0  0  0  0  0  0  0  0  0  0
    2.4039   -2.2860    6.5602 H   0  0  0  0  0  0  0  0  0  0  0  0
    1.6515   -3.6852    7.0261 H   0  0  0  0  0  0  0  0  0  0  0  0
    4.1685   -3.5679    7.2041 H   0  0  0  0  0  0  0  0  0  0  0  0
    4.5078   -5.8177    5.5001 H   0  0  0  0  0  0  0  0  0  0  0  0
    4.8050   -5.5938    7.0715 H   0  0  0  0  0  0  0  0  0  0  0  0
    2.9049   -6.0835    8.6182 H   0  0  0  0  0  0  0  0  0  0  0  0
    4.0869   -8.4885    6.6600 H   0  0  0  0  0  0  0  0  0  0  0  0
    3.6279   -7.1708    4.1133 H   0  0  0  0  0  0  0  0  0  0  0  0
    5.5885   -8.7572    4.1495 H   0  0  0  0  0  0  0  0  0  0  0  0
    5.0861  -11.1961    3.8551 H   0  0  0  0  0  0  0  0  0  0  0  0
    4.2980  -11.6238    5.9446 H   0  0  0  0  0  0  0  0  0  0  0  0
    3.0711  -11.6610    3.0513 H   0  0  0  0  0  0  0  0  0  0  0  0
    2.1968  -11.3799    5.6960 H   0  0  0  0  0  0  0  0  0  0  0  0
    0.0657   -9.4940    2.4997 H   0  0  0  0  0  0  0  0  0  0  0  0
    0.1590  -10.7908    3.7075 H   0  0  0  0  0  0  0  0  0  0  0  0
    0.8034  -11.0209    2.1185 H   0  0  0  0  0  0  0  0  0  0  0  0
    2.8501  -10.0558    1.3302 H   0  0  0  0  0  0  0  0  0  0  0  0
    2.4205   -8.4084    1.6907 H   0  0  0  0  0  0  0  0  0  0  0  0
    5.1967  -10.7497    1.6876 H   0  0  0  0  0  0  0  0  0  0  0  0
    6.3221   -9.4101    1.8842 H   0  0  0  0  0  0  0  0  0  0  0  0
    5.1596   -9.4023    0.5559 H   0  0  0  0  0  0  0  0  0  0  0  0
    2.1372   -9.7851    6.2500 H   0  0  0  0  0  0  0  0  0  0  0  0
    4.5785   -1.3530    5.8387 H   0  0  0  0  0  0  0  0  0  0  0  0
    5.8069   -1.7569    4.6346 H   0  0  0  0  0  0  0  0  0  0  0  0
    5.9648   -2.3391    6.2874 H   0  0  0  0  0  0  0  0  0  0  0  0
    5.2487   -4.0550    4.9601 H   0  0  0  0  0  0  0  0  0  0  0  0
    4.4191   -7.9881    2.2348 H   0  0  0  0  0  0  0  0  0  0  0  0
  1  2  1  0
  1 39  1  0
  1 40  1  0
  1 41  1  0
  2  3  1  0
  4  2  1  1
  2 42  1  0
  3 43  1  0
  3 44  1  0
  3 45  1  0
  4  8  1  0
  4 21  1  0
  4  5  1  0
  5 36  1  0
  5  6  1  0
  5 46  1  1
  6  7  1  0
  6 47  1  0
  6 48  1  0
  7 35  1  0
  7  8  1  0
  7 49  1  6
  8  9  1  1
  8 10  1  0
  9 50  1  0
 10 17  1  0
 10 11  1  0
 10 51  1  6
 11 12  1  0
 11 13  1  0
 11 52  1  1
 12 53  1  0
 13 37  1  0
 13 14  1  0
 13 54  1  6
 14 15  1  0
 14 17  1  0
 14 55  1  1
 15 16  1  0
 15 56  1  0
 15 57  1  0
 16 58  1  0
 17 18  1  0
 17 59  1  1
 18 19  1  0
 18 60  1  0
 18 61  1  0
 19 20  1  0
 19 37  1  0
 19 62  1  1
 20 21  1  0
 20 63  1  0
 20 64  1  0
 21 22  1  1
 21 23  1  0
 22 65  1  0
 23 36  1  0
 23 24  1  0
 23 66  1  1
 24 35  1  0
 24 25  1  0
 24 67  1  6
 25 33  1  0
 25 26  1  0
 25 68  1  6
 26 27  1  0
 26 28  1  0
 26 69  1  6
 27 70  1  0
 28 29  1  0
 28 30  1  0
 28 71  1  6
 29 72  1  0
 30 31  1  6
 30 32  1  0
 35 30  1  6
 31 73  1  0
 31 74  1  0
 31 75  1  0
 32 33  1  0
 32 76  1  0
 32 77  1  0
 33 34  1  0
 33 86  1  6
 34 78  1  0
 34 79  1  0
 34 80  1  0
 35 36  1  0
 36 81  1  6
 37 38  1  0
 37 85  1  6
 38 82  1  0
 38 83  1  0
 38 84  1  0
M  CHG  2  33   1  37   1
M  END
>  <i_m_ct_stereo_status>  (426) 
1

>  <s_m_source_file>  (426) 
/var/tmp/pbs.5076255.sched01/tmpt95b3wv2/135g3gtwtb2.sdf

>  <i_m_source_file_index>  (426) 
35

>  <i_lp_mmshare_version>  (426) 
48012

>  <i_f3d_flags>  (426) 
0

>  <s_epik_input>  (426) 
W0NIM11OMVtDSDJdW0NAQF0yKFtDSDNdKVtDQEhdKFtPSF0pW0NASF0oW09IXSlbQ0BASF0xW0NAQEhdM1tDQEhdKFtDQEhdNFtDQEhdKFtDSDJdNSlbQ0BdNihbQ0hdKFtDSDNdKVtDSDNdKVtDQEBdNyhbQ0BIXTVbQ0BAXTIzNClbT0hdKVtDQEBdNihbT0hdKVtDSDJdW0NAQEhdOFtDSDJdW0NAQEhdOVtDQEhdN1tDQEBIXShbT0hdKVtDQEhdKE44W0NIM10pW0NASF05W0NIMl1bT0hd

>  <s_epik_cmdline>  (426) 
J2VwaWtfcHl0aG9uJywgJy1waHQnLCAnMi4wJywgJy1waCcsICc3LjAnLCAnLXRuJywgJzgnLCAnLW1hJywgJzIwMCcsICctaW1hZScsICc8aW5maWxlLm1hZT4nLCAnLW9tYWUnLCAnPG91dGZpbGUubWFlPic=

>  <r_epik_Ionization_Penalty>  (426) 
0.163002

>  <r_epik_Ionization_Penalty_Charging>  (426) 
0.163002

>  <r_epik_Ionization_Penalty_Neutral>  (426) 
5.05668e-07

>  <r_epik_State_Penalty>  (426) 
0.146653

>  <r_epik_Charging_Adjusted_Penalty>  (426) 
0.309655

>  <i_epik_Tot_Q>  (426) 
2

>  <i_epik_Tot_abs_Q>  (426) 
2

>  <s_lp_Force_Field>  (426) 
OPLS3e

>  <r_lp_Energy>  (426) 
227.128

>  <b_lp_Chiralities_Consistent>  (426) 
1

>  <s_lp_Variant>  (426) 
108:0-1

>  <s_i_glide_gridfile>  (426) 
pfpi4k_grid

>  <i_i_glide_lignum>  (426) 
35

>  <i_i_glide_rotatable_bonds>  (426) 
8

>  <r_i_docking_score>  (426) 
-1.7648

>  <r_i_glide_ligand_efficiency>  (426) 
-0.046442

>  <r_i_glide_ligand_efficiency_sa>  (426) 
-0.156137

>  <r_i_glide_ligand_efficiency_ln>  (426) 
-0.380542

>  <r_i_glide_gscore>  (426) 
-1.7648

>  <r_i_glide_lipo>  (426) 
-0.192116

>  <r_i_glide_hbond>  (426) 
0

>  <r_i_glide_metal>  (426) 
-0

>  <r_i_glide_rewards>  (426) 
0

>  <r_i_glide_evdw>  (426) 
-19.1378

>  <r_i_glide_ecoul>  (426) 
-4.46569

>  <r_i_glide_erotb>  (426) 
0.0726888

>  <r_i_glide_esite>  (426) 
-0.0186244

>  <r_i_glide_emodel>  (426) 
-23.5701

>  <r_i_glide_energy>  (426) 
-23.6035

>  <r_i_glide_einternal>  (426) 
6.11712

>  <r_i_glide_intrahb_reward>  (426) 
-0

>  <i_i_glide_confnum>  (426) 
3

>  <i_i_glide_posenum>  (426) 
18

>  <r_i_glide_eff_state_penalty>  (426) 
0

>  <ligand_id>  (426) 
108

>  <original_smiles>  (426) 
CC(C)C12C3CC4C1(O)C1C(O)C5C(CO)C1CC(CC2(O)C1C2C6C(O)C(O)C(C)(CN6C)C24C13)N5C

>  <smiles>  (426) 
[H]OC([H])([H])C1([H])C2([H])C([H])([H])C3([H])C([H])([H])C4(O[H])C5([H])C6([H])C7([H])C([H])([H])C([H])(C(O[H])(C2([H])C([H])(O[H])C1([H])[N+]3([H])C([H])([H])[H])C74C([H])(C([H])([H])[H])C([H])([H])[H])C61C5([H])C2([H])C([H])(O[H])C([H])(O[H])C1(C([H])([H])[H])C([H])([H])[N+]2([H])C([H])([H])[H]

$$$$
108:1:0
     RDKit          3D

 85 93  0  0  1  0  0  0  0  0999 V2000
    6.4677   -9.1646    4.2930 C   0  0  0  0  0  0  0  0  0  0  0  0
    5.7100   -8.7237    3.0184 C   0  0  0  0  0  0  0  0  0  0  0  0
    6.6344   -9.0978    1.8313 C   0  0  0  0  0  0  0  0  0  0  0  0
    5.0356   -7.2542    2.9769 C   0  0  1  0  0  0  0  0  0  0  0  0
    5.9393   -6.2378    2.1502 C   0  0  1  0  0  0  0  0  0  0  0  0
    5.3833   -6.1181    0.7354 C   0  0  0  0  0  0  0  0  0  0  0  0
    3.9463   -5.8419    1.2001 C   0  0  1  0  0  0  0  0  0  0  0  0
    3.7097   -7.1809    2.0221 C   0  0  1  0  0  0  0  0  0  0  0  0
    3.8374   -8.2367    1.0664 O   0  0  0  0  0  0  0  0  0  0  0  0
    2.1750   -7.5389    2.3651 C   0  0  2  0  0  0  0  0  0  0  0  0
    1.1564   -6.4082    2.6439 C   0  0  1  0  0  0  0  0  0  0  0  0
    0.1735   -6.3053    1.6218 O   0  0  0  0  0  0  0  0  0  0  0  0
    0.5408   -6.8144    3.9914 C   0  0  1  0  0  0  0  0  0  0  0  0
    0.3823   -8.3422    3.8895 C   0  0  1  0  0  0  0  0  0  0  0  0
   -0.7951   -8.8935    3.0350 C   0  0  0  0  0  0  0  0  0  0  0  0
   -2.0222   -8.6566    3.7000 O   0  0  0  0  0  0  0  0  0  0  0  0
    1.7903   -8.6883    3.3637 C   0  0  2  0  0  0  0  0  0  0  0  0
    2.6220   -8.7426    4.6380 C   0  0  0  0  0  0  0  0  0  0  0  0
    2.6018   -7.4180    5.4124 C   0  0  1  0  0  0  0  0  0  0  0  0
    4.0093   -6.8072    5.5768 C   0  0  0  0  0  0  0  0  0  0  0  0
    4.9609   -6.4530    4.3824 C   0  0  1  0  0  0  0  0  0  0  0  0
    6.2367   -6.4696    4.9991 O   0  0  0  0  0  0  0  0  0  0  0  0
    4.9596   -4.9740    4.0382 C   0  0  2  0  0  0  0  0  0  0  0  0
    3.7040   -4.3443    3.4838 C   0  0  1  0  0  0  0  0  0  0  0  0
    3.1753   -2.9252    3.7663 C   0  0  1  0  0  0  0  0  0  0  0  0
    4.2237   -1.8240    3.4498 C   0  0  1  0  0  0  0  0  0  0  0  0
    5.2966   -1.8759    4.3692 O   0  0  0  0  0  0  0  0  0  0  0  0
    4.6543   -1.9424    1.9574 C   0  0  1  0  0  0  0  0  0  0  0  0
    6.0535   -1.8576    1.7380 O   0  0  0  0  0  0  0  0  0  0  0  0
    3.9610   -3.1670    1.2669 C   0  0  2  0  0  0  0  0  0  0  0  0
    4.3119   -3.1521   -0.2381 C   0  0  0  0  0  0  0  0  0  0  0  0
    2.4488   -2.8260    1.4480 C   0  0  0  0  0  0  0  0  0  0  0  0
    2.0169   -2.7960    2.8707 N   0  0  0  0  0  0  0  0  0  0  0  0
    1.1274   -1.6832    3.1710 C   0  0  0  0  0  0  0  0  0  0  0  0
    4.2084   -4.5294    2.0405 C   0  0  2  0  0  0  0  0  0  0  0  0
    5.5646   -4.8682    2.6687 C   0  0  2  0  0  0  0  0  0  0  0  0
    1.4886   -6.4496    5.1082 N   0  0  2  0  0  0  0  0  0  0  0  0
    0.7723   -6.0117    6.3242 C   0  0  0  0  0  0  0  0  0  0  0  0
    7.4227   -8.6457    4.4004 H   0  0  0  0  0  0  0  0  0  0  0  0
    6.7000  -10.2293    4.2596 H   0  0  0  0  0  0  0  0  0  0  0  0
    5.8923   -9.0154    5.2039 H   0  0  0  0  0  0  0  0  0  0  0  0
    4.9080   -9.4548    2.9334 H   0  0  0  0  0  0  0  0  0  0  0  0
    7.5758   -8.5465    1.8397 H   0  0  0  0  0  0  0  0  0  0  0  0
    6.1790   -8.9597    0.8551 H   0  0  0  0  0  0  0  0  0  0  0  0
    6.8906  -10.1570    1.8798 H   0  0  0  0  0  0  0  0  0  0  0  0
    7.0088   -6.4159    2.2110 H   0  0  0  0  0  0  0  0  0  0  0  0
    5.8470   -5.2941    0.2056 H   0  0  0  0  0  0  0  0  0  0  0  0
    5.5050   -6.9807    0.0898 H   0  0  0  0  0  0  0  0  0  0  0  0
    3.2426   -5.7165    0.3746 H   0  0  0  0  0  0  0  0  0  0  0  0
    3.8142   -9.0702    1.5135 H   0  0  0  0  0  0  0  0  0  0  0  0
    1.7482   -7.9381    1.4358 H   0  0  0  0  0  0  0  0  0  0  0  0
    1.5340   -5.4055    2.5802 H   0  0  0  0  0  0  0  0  0  0  0  0
   -0.1171   -7.1814    1.4079 H   0  0  0  0  0  0  0  0  0  0  0  0
   -0.4151   -6.3178    4.1296 H   0  0  0  0  0  0  0  0  0  0  0  0
    0.2129   -8.7608    4.8816 H   0  0  0  0  0  0  0  0  0  0  0  0
   -0.8661   -8.4950    2.0259 H   0  0  0  0  0  0  0  0  0  0  0  0
   -0.6836   -9.9718    2.9151 H   0  0  0  0  0  0  0  0  0  0  0  0
   -2.1780   -9.3896    4.2953 H   0  0  0  0  0  0  0  0  0  0  0  0
    1.7955   -9.6703    2.8815 H   0  0  0  0  0  0  0  0  0  0  0  0
    2.2167   -9.5345    5.2718 H   0  0  0  0  0  0  0  0  0  0  0  0
    3.6343   -9.0754    4.4747 H   0  0  0  0  0  0  0  0  0  0  0  0
    2.3907   -7.7665    6.4231 H   0  0  0  0  0  0  0  0  0  0  0  0
    3.9217   -5.9230    6.2090 H   0  0  0  0  0  0  0  0  0  0  0  0
    4.5417   -7.5173    6.2154 H   0  0  0  0  0  0  0  0  0  0  0  0
    6.8895   -6.2695    4.3443 H   0  0  0  0  0  0  0  0  0  0  0  0
    5.4259   -4.3218    4.7745 H   0  0  0  0  0  0  0  0  0  0  0  0
    2.9806   -5.0581    3.7700 H   0  0  0  0  0  0  0  0  0  0  0  0
    2.8530   -2.8507    4.8027 H   0  0  0  0  0  0  0  0  0  0  0  0
    3.7709   -0.8417    3.6004 H   0  0  0  0  0  0  0  0  0  0  0  0
    4.9699   -1.6424    5.2242 H   0  0  0  0  0  0  0  0  0  0  0  0
    4.2808   -1.0375    1.4726 H   0  0  0  0  0  0  0  0  0  0  0  0
    6.4626   -2.5570    2.2237 H   0  0  0  0  0  0  0  0  0  0  0  0
    3.7939   -3.9240   -0.8049 H   0  0  0  0  0  0  0  0  0  0  0  0
    5.3832   -3.2518   -0.4158 H   0  0  0  0  0  0  0  0  0  0  0  0
    4.0159   -2.1964   -0.6746 H   0  0  0  0  0  0  0  0  0  0  0  0
    2.2285   -1.8663    0.9733 H   0  0  0  0  0  0  0  0  0  0  0  0
    1.8597   -3.5620    0.9120 H   0  0  0  0  0  0  0  0  0  0  0  0
    0.2544   -1.7167    2.5257 H   0  0  0  0  0  0  0  0  0  0  0  0
    1.6105   -0.7189    3.0120 H   0  0  0  0  0  0  0  0  0  0  0  0
    0.7713   -1.7317    4.2014 H   0  0  0  0  0  0  0  0  0  0  0  0
    6.3275   -4.1114    2.5795 H   0  0  0  0  0  0  0  0  0  0  0  0
    0.1766   -6.8223    6.7443 H   0  0  0  0  0  0  0  0  0  0  0  0
    0.1135   -5.1756    6.1104 H   0  0  0  0  0  0  0  0  0  0  0  0
    1.4789   -5.6852    7.0865 H   0  0  0  0  0  0  0  0  0  0  0  0
    1.9546   -5.6184    4.7741 H   0  0  0  0  0  0  0  0  0  0  0  0
  1  2  1  0
  1 39  1  0
  1 40  1  0
  1 41  1  0
  2  3  1  0
  4  2  1  1
  2 42  1  0
  3 43  1  0
  3 44  1  0
  3 45  1  0
  4  8  1  0
  4 21  1  0
  4  5  1  0
  5 36  1  0
  5  6  1  0
  5 46  1  6
  6  7  1  0
  6 47  1  0
  6 48  1  0
  7 35  1  0
  7  8  1  0
  7 49  1  6
  8  9  1  6
  8 10  1  0
  9 50  1  0
 10 17  1  0
 10 11  1  0
 10 51  1  6
 11 12  1  0
 11 13  1  0
 11 52  1  1
 12 53  1  0
 13 37  1  0
 13 14  1  0
 13 54  1  1
 14 15  1  0
 14 17  1  0
 14 55  1  1
 15 16  1  0
 15 56  1  0
 15 57  1  0
 16 58  1  0
 17 18  1  0
 17 59  1  6
 18 19  1  0
 18 60  1  0
 18 61  1  0
 19 20  1  0
 19 37  1  0
 19 62  1  1
 20 21  1  0
 20 63  1  0
 20 64  1  0
 21 22  1  1
 21 23  1  0
 22 65  1  0
 23 36  1  0
 23 24  1  0
 23 66  1  1
 24 35  1  0
 24 25  1  0
 24 67  1  6
 25 33  1  0
 25 26  1  0
 25 68  1  1
 26 27  1  0
 26 28  1  0
 26 69  1  6
 27 70  1  0
 28 29  1  0
 28 30  1  0
 28 71  1  6
 29 72  1  0
 30 31  1  6
 30 32  1  0
 35 30  1  6
 31 73  1  0
 31 74  1  0
 31 75  1  0
 32 33  1  0
 32 76  1  0
 32 77  1  0
 33 34  1  0
 34 78  1  0
 34 79  1  0
 34 80  1  0
 35 36  1  0
 36 81  1  1
 37 38  1  0
 37 85  1  6
 38 82  1  0
 38 83  1  0
 38 84  1  0
M  CHG  1  37   1
M  END
>  <i_m_ct_stereo_status>  (427) 
1

>  <s_m_source_file>  (427) 
/var/tmp/pbs.5076255.sched01/tmpt95b3wv2/135g3gtwtb2.sdf

>  <i_m_source_file_index>  (427) 
36

>  <i_lp_mmshare_version>  (427) 
48012

>  <i_f3d_flags>  (427) 
0

>  <s_epik_input>  (427) 
W0NIM11OMVtDSDJdW0NAQF0yKFtDSDNdKVtDQEhdKFtPSF0pW0NASF0oW09IXSlbQ0BASF0xW0NAQEhdM1tDQEhdKFtDQEhdNFtDQEhdKFtDSDJdNSlbQ0BdNihbQ0hdKFtDSDNdKVtDSDNdKVtDQEBdNyhbQ0BIXTVbQ0BAXTIzNClbT0hdKVtDQEBdNihbT0hdKVtDSDJdW0NAQEhdOFtDSDJdW0NAQEhdOVtDQEhdN1tDQEBIXShbT0hdKVtDQEhdKE44W0NIM10pW0NASF05W0NIMl1bT0hd

>  <s_epik_cmdline>  (427) 
J2VwaWtfcHl0aG9uJywgJy1waHQnLCAnMi4wJywgJy1waCcsICc3LjAnLCAnLXRuJywgJzgnLCAnLW1hJywgJzIwMCcsICctaW1hZScsICc8aW5maWxlLm1hZT4nLCAnLW9tYWUnLCAnPG91dGZpbGUubWFlPic=

>  <r_epik_Ionization_Penalty>  (427) 
0.873237

>  <r_epik_Ionization_Penalty_Charging>  (427) 
0.00627129

>  <r_epik_Ionization_Penalty_Neutral>  (427) 
0.866966

>  <r_epik_State_Penalty>  (427) 
0.923104

>  <r_epik_Charging_Adjusted_Penalty>  (427) 
0.929375

>  <i_epik_Tot_Q>  (427) 
1

>  <i_epik_Tot_abs_Q>  (427) 
1

>  <s_lp_Force_Field>  (427) 
OPLS3e

>  <r_lp_Energy>  (427) 
201.407

>  <b_lp_Chiralities_Consistent>  (427) 
1

>  <s_lp_Variant>  (427) 
108:0-2

>  <s_i_glide_gridfile>  (427) 
pfpi4k_grid

>  <i_i_glide_lignum>  (427) 
36

>  <i_i_glide_rotatable_bonds>  (427) 
8

>  <r_i_docking_score>  (427) 
-3.35868

>  <r_i_glide_ligand_efficiency>  (427) 
-0.0883862

>  <r_i_glide_ligand_efficiency_sa>  (427) 
-0.297152

>  <r_i_glide_ligand_efficiency_ln>  (427) 
-0.724229

>  <r_i_glide_gscore>  (427) 
-3.35868

>  <r_i_glide_lipo>  (427) 
-0.3775

>  <r_i_glide_hbond>  (427) 
-0.425992

>  <r_i_glide_metal>  (427) 
-0

>  <r_i_glide_rewards>  (427) 
0

>  <r_i_glide_evdw>  (427) 
-20.0555

>  <r_i_glide_ecoul>  (427) 
-10.8235

>  <r_i_glide_erotb>  (427) 
0.0729428

>  <r_i_glide_esite>  (427) 
-0.001832

>  <r_i_glide_emodel>  (427) 
-36.0496

>  <r_i_glide_energy>  (427) 
-30.8789

>  <r_i_glide_einternal>  (427) 
5.14262

>  <r_i_glide_intrahb_reward>  (427) 
-0

>  <i_i_glide_confnum>  (427) 
3

>  <i_i_glide_posenum>  (427) 
2

>  <r_i_glide_eff_state_penalty>  (427) 
0

>  <ligand_id>  (427) 
108

>  <original_smiles>  (427) 
CC(C)C12C3CC4C1(O)C1C(O)C5C(CO)C1CC(CC2(O)C1C2C6C(O)C(O)C(C)(CN6C)C24C13)N5C

>  <smiles>  (427) 
[H]OC([H])([H])C1([H])C2([H])C([H])([H])C3([H])C([H])([H])C4(O[H])C5([H])C6([H])C7([H])N(C([H])([H])[H])C([H])([H])C(C([H])([H])[H])(C([H])(O[H])C7([H])O[H])C67C5([H])C5([H])C([H])([H])C7([H])C(O[H])(C2([H])C([H])(O[H])C1([H])[N+]3([H])C([H])([H])[H])C54C([H])(C([H])([H])[H])C([H])([H])[H]

$$$$
108:1:1
     RDKit          3D

 85 93  0  0  1  0  0  0  0  0999 V2000
    6.6817   -8.2375    5.1674 C   0  0  0  0  0  0  0  0  0  0  0  0
    5.9741   -8.1507    3.7931 C   0  0  0  0  0  0  0  0  0  0  0  0
    6.9368   -8.8253    2.7792 C   0  0  0  0  0  0  0  0  0  0  0  0
    5.3171   -6.7459    3.3368 C   0  0  1  0  0  0  0  0  0  0  0  0
    6.2420   -5.9947    2.2798 C   0  0  1  0  0  0  0  0  0  0  0  0
    5.7174   -6.2711    0.8759 C   0  0  0  0  0  0  0  0  0  0  0  0
    4.2720   -5.8709    1.2196 C   0  0  1  0  0  0  0  0  0  0  0  0
    4.0136   -6.9322    2.3737 C   0  0  1  0  0  0  0  0  0  0  0  0
    4.1504   -8.2031    1.7348 O   0  0  0  0  0  0  0  0  0  0  0  0
    2.4758   -7.1626    2.7839 C   0  0  2  0  0  0  0  0  0  0  0  0
    1.4451   -6.0098    2.7050 C   0  0  1  0  0  0  0  0  0  0  0  0
    0.4467   -6.2551    1.7232 O   0  0  0  0  0  0  0  0  0  0  0  0
    0.8159   -6.0243    4.1104 C   0  0  1  0  0  0  0  0  0  0  0  0
    0.6411   -7.5191    4.4128 C   0  0  1  0  0  0  0  0  0  0  0  0
   -0.5412   -8.2714    3.7310 C   0  0  0  0  0  0  0  0  0  0  0  0
   -0.2174   -8.7873    2.4610 O   0  0  0  0  0  0  0  0  0  0  0  0
    2.0627   -8.0043    4.0518 C   0  0  2  0  0  0  0  0  0  0  0  0
    2.8637   -7.7129    5.3080 C   0  0  0  0  0  0  0  0  0  0  0  0
    2.8455   -6.2297    5.6887 C   0  0  1  0  0  0  0  0  0  0  0  0
    4.2539   -5.6009    5.6997 C   0  0  0  0  0  0  0  0  0  0  0  0
    5.2262   -5.5933    4.4682 C   0  0  1  0  0  0  0  0  0  0  0  0
    6.4940   -5.4413    5.0873 O   0  0  0  0  0  0  0  0  0  0  0  0
    5.2381   -4.2634    3.7295 C   0  0  2  0  0  0  0  0  0  0  0  0
    3.9987   -3.8057    3.0007 C   0  0  1  0  0  0  0  0  0  0  0  0
    3.4858   -2.3612    2.8802 C   0  0  1  0  0  0  0  0  0  0  0  0
    4.5418   -1.3876    2.2848 C   0  0  1  0  0  0  0  0  0  0  0  0
    5.5996   -1.1640    3.1915 O   0  0  0  0  0  0  0  0  0  0  0  0
    5.0003   -1.9129    0.8941 C   0  0  1  0  0  0  0  0  0  0  0  0
    6.4044   -1.8947    0.6910 O   0  0  0  0  0  0  0  0  0  0  0  0
    4.3067   -3.2834    0.5554 C   0  0  2  0  0  0  0  0  0  0  0  0
    4.6789   -3.6808   -0.8900 C   0  0  0  0  0  0  0  0  0  0  0  0
    2.7960   -2.8994    0.6145 C   0  0  0  0  0  0  0  0  0  0  0  0
    2.3450   -2.4759    1.9639 N   0  0  0  0  0  0  0  0  0  0  0  0
    1.4662   -1.3113    1.9354 C   0  0  0  0  0  0  0  0  0  0  0  0
    4.5264   -4.3794    1.6748 C   0  0  2  0  0  0  0  0  0  0  0  0
    5.8684   -4.5388    2.3947 C   0  0  2  0  0  0  0  0  0  0  0  0
    1.7389   -5.3704    5.1003 N   0  0  2  0  0  0  0  0  0  0  0  0
    1.0121   -4.6138    6.1447 C   0  0  0  0  0  0  0  0  0  0  0  0
    7.6425   -7.7182    5.1666 H   0  0  0  0  0  0  0  0  0  0  0  0
    6.9031   -9.2757    5.4197 H   0  0  0  0  0  0  0  0  0  0  0  0
    6.0740   -7.8630    5.9884 H   0  0  0  0  0  0  0  0  0  0  0  0
    5.1674   -8.8758    3.8793 H   0  0  0  0  0  0  0  0  0  0  0  0
    7.8834   -8.2930    2.6751 H   0  0  0  0  0  0  0  0  0  0  0  0
    6.5143   -8.9473    1.7860 H   0  0  0  0  0  0  0  0  0  0  0  0
    7.1822   -9.8353    3.1132 H   0  0  0  0  0  0  0  0  0  0  0  0
    7.3091   -6.1505    2.4128 H   0  0  0  0  0  0  0  0  0  0  0  0
    6.1888   -5.6250    0.1466 H   0  0  0  0  0  0  0  0  0  0  0  0
    5.8646   -7.2793    0.5029 H   0  0  0  0  0  0  0  0  0  0  0  0
    3.5770   -5.9751    0.3843 H   0  0  0  0  0  0  0  0  0  0  0  0
    4.0210   -8.8856    2.3762 H   0  0  0  0  0  0  0  0  0  0  0  0
    2.0766   -7.7834    1.9753 H   0  0  0  0  0  0  0  0  0  0  0  0
    1.8168   -5.0586    2.3701 H   0  0  0  0  0  0  0  0  0  0  0  0
    0.2212   -7.1837    1.7884 H   0  0  0  0  0  0  0  0  0  0  0  0
   -0.1407   -5.5038    4.0937 H   0  0  0  0  0  0  0  0  0  0  0  0
    0.4236   -7.6235    5.4766 H   0  0  0  0  0  0  0  0  0  0  0  0
   -0.8463   -9.1161    4.3546 H   0  0  0  0  0  0  0  0  0  0  0  0
   -1.4178   -7.6230    3.6428 H   0  0  0  0  0  0  0  0  0  0  0  0
   -0.8064   -9.5046    2.2359 H   0  0  0  0  0  0  0  0  0  0  0  0
    2.0784   -9.0806    3.8593 H   0  0  0  0  0  0  0  0  0  0  0  0
    2.4386   -8.2978    6.1244 H   0  0  0  0  0  0  0  0  0  0  0  0
    3.8741   -8.0802    5.2560 H   0  0  0  0  0  0  0  0  0  0  0  0
    2.6100   -6.2809    6.7498 H   0  0  0  0  0  0  0  0  0  0  0  0
    4.1604   -4.5777    6.0591 H   0  0  0  0  0  0  0  0  0  0  0  0
    4.7617   -6.1062    6.5203 H   0  0  0  0  0  0  0  0  0  0  0  0
    6.7130   -6.2512    5.5275 H   0  0  0  0  0  0  0  0  0  0  0  0
    5.7017   -3.4387    4.2716 H   0  0  0  0  0  0  0  0  0  0  0  0
    3.2581   -4.4131    3.4568 H   0  0  0  0  0  0  0  0  0  0  0  0
    3.1468   -2.0027    3.8523 H   0  0  0  0  0  0  0  0  0  0  0  0
    4.0862   -0.4026    2.1499 H   0  0  0  0  0  0  0  0  0  0  0  0
    5.2481   -0.7578    3.9691 H   0  0  0  0  0  0  0  0  0  0  0  0
    4.6397   -1.1778    0.1733 H   0  0  0  0  0  0  0  0  0  0  0  0
    6.7950   -2.4684    1.3353 H   0  0  0  0  0  0  0  0  0  0  0  0
    4.1660   -4.5786   -1.2257 H   0  0  0  0  0  0  0  0  0  0  0  0
    5.7508   -3.8289   -1.0169 H   0  0  0  0  0  0  0  0  0  0  0  0
    4.3931   -2.8832   -1.5787 H   0  0  0  0  0  0  0  0  0  0  0  0
    2.6129   -2.1010   -0.1068 H   0  0  0  0  0  0  0  0  0  0  0  0
    2.2004   -3.7483    0.2805 H   0  0  0  0  0  0  0  0  0  0  0  0
    0.6148   -1.5032    1.2916 H   0  0  0  0  0  0  0  0  0  0  0  0
    1.9694   -0.4323    1.5338 H   0  0  0  0  0  0  0  0  0  0  0  0
    1.0829   -1.0800    2.9308 H   0  0  0  0  0  0  0  0  0  0  0  0
    6.6372   -3.8307    2.1258 H   0  0  0  0  0  0  0  0  0  0  0  0
    0.4038   -5.2757    6.7580 H   0  0  0  0  0  0  0  0  0  0  0  0
    0.3652   -3.8637    5.6931 H   0  0  0  0  0  0  0  0  0  0  0  0
    1.7130   -4.0951    6.7962 H   0  0  0  0  0  0  0  0  0  0  0  0
    2.2240   -4.6676    4.5607 H   0  0  0  0  0  0  0  0  0  0  0  0
  1  2  1  0
  1 39  1  0
  1 40  1  0
  1 41  1  0
  2  3  1  0
  4  2  1  1
  2 42  1  0
  3 43  1  0
  3 44  1  0
  3 45  1  0
  4  8  1  0
  4 21  1  0
  4  5  1  0
  5 36  1  0
  5  6  1  0
  5 46  1  6
  6  7  1  0
  6 47  1  0
  6 48  1  0
  7 35  1  0
  7  8  1  0
  7 49  1  6
  8  9  1  6
  8 10  1  0
  9 50  1  0
 10 17  1  0
 10 11  1  0
 10 51  1  6
 11 12  1  0
 11 13  1  0
 11 52  1  6
 12 53  1  0
 13 37  1  0
 13 14  1  0
 13 54  1  6
 14 15  1  0
 14 17  1  0
 14 55  1  1
 15 16  1  0
 15 56  1  0
 15 57  1  0
 16 58  1  0
 17 18  1  0
 17 59  1  6
 18 19  1  0
 18 60  1  0
 18 61  1  0
 19 20  1  0
 19 37  1  0
 19 62  1  1
 20 21  1  0
 20 63  1  0
 20 64  1  0
 21 22  1  1
 21 23  1  0
 22 65  1  0
 23 36  1  0
 23 24  1  0
 23 66  1  1
 24 35  1  0
 24 25  1  0
 24 67  1  1
 25 33  1  0
 25 26  1  0
 25 68  1  1
 26 27  1  0
 26 28  1  0
 26 69  1  6
 27 70  1  0
 28 29  1  0
 28 30  1  0
 28 71  1  6
 29 72  1  0
 30 31  1  6
 30 32  1  0
 35 30  1  6
 31 73  1  0
 31 74  1  0
 31 75  1  0
 32 33  1  0
 32 76  1  0
 32 77  1  0
 33 34  1  0
 34 78  1  0
 34 79  1  0
 34 80  1  0
 35 36  1  0
 36 81  1  6
 37 38  1  0
 37 85  1  6
 38 82  1  0
 38 83  1  0
 38 84  1  0
M  CHG  1  37   1
M  END
>  <i_m_ct_stereo_status>  (428) 
1

>  <s_m_source_file>  (428) 
/var/tmp/pbs.5076255.sched01/tmpt95b3wv2/135g3gtwtb2.sdf

>  <i_m_source_file_index>  (428) 
36

>  <i_lp_mmshare_version>  (428) 
48012

>  <i_f3d_flags>  (428) 
0

>  <s_epik_input>  (428) 
W0NIM11OMVtDSDJdW0NAQF0yKFtDSDNdKVtDQEhdKFtPSF0pW0NASF0oW09IXSlbQ0BASF0xW0NAQEhdM1tDQEhdKFtDQEhdNFtDQEhdKFtDSDJdNSlbQ0BdNihbQ0hdKFtDSDNdKVtDSDNdKVtDQEBdNyhbQ0BIXTVbQ0BAXTIzNClbT0hdKVtDQEBdNihbT0hdKVtDSDJdW0NAQEhdOFtDSDJdW0NAQEhdOVtDQEhdN1tDQEBIXShbT0hdKVtDQEhdKE44W0NIM10pW0NASF05W0NIMl1bT0hd

>  <s_epik_cmdline>  (428) 
J2VwaWtfcHl0aG9uJywgJy1waHQnLCAnMi4wJywgJy1waCcsICc3LjAnLCAnLXRuJywgJzgnLCAnLW1hJywgJzIwMCcsICctaW1hZScsICc8aW5maWxlLm1hZT4nLCAnLW9tYWUnLCAnPG91dGZpbGUubWFlPic=

>  <r_epik_Ionization_Penalty>  (428) 
0.873237

>  <r_epik_Ionization_Penalty_Charging>  (428) 
0.00627129

>  <r_epik_Ionization_Penalty_Neutral>  (428) 
0.866966

>  <r_epik_State_Penalty>  (428) 
0.923104

>  <r_epik_Charging_Adjusted_Penalty>  (428) 
0.929375

>  <i_epik_Tot_Q>  (428) 
1

>  <i_epik_Tot_abs_Q>  (428) 
1

>  <s_lp_Force_Field>  (428) 
OPLS3e

>  <r_lp_Energy>  (428) 
201.407

>  <b_lp_Chiralities_Consistent>  (428) 
1

>  <s_lp_Variant>  (428) 
108:0-2

>  <s_i_glide_gridfile>  (428) 
pfpi4k_grid

>  <i_i_glide_lignum>  (428) 
36

>  <i_i_glide_rotatable_bonds>  (428) 
8

>  <r_i_docking_score>  (428) 
-2.85092

>  <r_i_glide_ligand_efficiency>  (428) 
-0.0750241

>  <r_i_glide_ligand_efficiency_sa>  (428) 
-0.252229

>  <r_i_glide_ligand_efficiency_ln>  (428) 
-0.614741

>  <r_i_glide_gscore>  (428) 
-2.85092

>  <r_i_glide_lipo>  (428) 
-0.39949

>  <r_i_glide_hbond>  (428) 
0

>  <r_i_glide_metal>  (428) 
-0

>  <r_i_glide_rewards>  (428) 
-0.5

>  <r_i_glide_evdw>  (428) 
-21.1433

>  <r_i_glide_ecoul>  (428) 
-6.44453

>  <r_i_glide_erotb>  (428) 
0.0729428

>  <r_i_glide_esite>  (428) 
-0.00052336

>  <r_i_glide_emodel>  (428) 
-34.4322

>  <r_i_glide_energy>  (428) 
-27.5878

>  <r_i_glide_einternal>  (428) 
9.86675

>  <r_i_glide_intrahb_reward>  (428) 
-0.5

>  <i_i_glide_confnum>  (428) 
3

>  <i_i_glide_posenum>  (428) 
33

>  <r_i_glide_eff_state_penalty>  (428) 
0

>  <ligand_id>  (428) 
108

>  <original_smiles>  (428) 
CC(C)C12C3CC4C1(O)C1C(O)C5C(CO)C1CC(CC2(O)C1C2C6C(O)C(O)C(C)(CN6C)C24C13)N5C

>  <smiles>  (428) 
[H]OC([H])([H])C1([H])C2([H])C([H])([H])C3([H])C([H])([H])C4(O[H])C5([H])C6([H])C7([H])N(C([H])([H])[H])C([H])([H])C(C([H])([H])[H])(C([H])(O[H])C7([H])O[H])C67C5([H])C5([H])C([H])([H])C7([H])C(O[H])(C2([H])C([H])(O[H])C1([H])[N+]3([H])C([H])([H])[H])C54C([H])(C([H])([H])[H])C([H])([H])[H]

$$$$
108:1:2
     RDKit          3D

 85 93  0  0  1  0  0  0  0  0999 V2000
    6.8965   -8.3914    4.5579 C   0  0  0  0  0  0  0  0  0  0  0  0
    6.0480   -8.1918    3.2804 C   0  0  0  0  0  0  0  0  0  0  0  0
    6.9058   -8.7472    2.1124 C   0  0  0  0  0  0  0  0  0  0  0  0
    5.3275   -6.7669    3.0302 C   0  0  1  0  0  0  0  0  0  0  0  0
    6.1227   -5.9035    1.9555 C   0  0  1  0  0  0  0  0  0  0  0  0
    5.4448   -6.0549    0.5962 C   0  0  0  0  0  0  0  0  0  0  0  0
    4.0470   -5.7242    1.1308 C   0  0  1  0  0  0  0  0  0  0  0  0
    3.9289   -6.8943    2.1988 C   0  0  1  0  0  0  0  0  0  0  0  0
    4.0135   -8.1029    1.4347 O   0  0  0  0  0  0  0  0  0  0  0  0
    2.4464   -7.2038    2.7409 C   0  0  2  0  0  0  0  0  0  0  0  0
    1.3944   -6.0739    2.8819 C   0  0  1  0  0  0  0  0  0  0  0  0
    0.3009   -6.2617    1.9874 O   0  0  0  0  0  0  0  0  0  0  0  0
    0.9218   -6.2287    4.3325 C   0  0  1  0  0  0  0  0  0  0  0  0
    0.8038   -7.7523    4.5092 C   0  0  1  0  0  0  0  0  0  0  0  0
   -0.4341   -8.4684    3.8928 C   0  0  0  0  0  0  0  0  0  0  0  0
   -0.2676   -8.8670    2.5457 O   0  0  0  0  0  0  0  0  0  0  0  0
    2.1855   -8.1668    3.9595 C   0  0  2  0  0  0  0  0  0  0  0  0
    3.1123   -7.9701    5.1477 C   0  0  0  0  0  0  0  0  0  0  0  0
    3.1136   -6.5258    5.6647 C   0  0  1  0  0  0  0  0  0  0  0  0
    4.5048   -5.8689    5.5872 C   0  0  0  0  0  0  0  0  0  0  0  0
    5.3385   -5.7236    4.2685 C   0  0  1  0  0  0  0  0  0  0  0  0
    6.6597   -5.6118    4.7673 O   0  0  0  0  0  0  0  0  0  0  0  0
    5.2605   -4.3323    3.6613 C   0  0  2  0  0  0  0  0  0  0  0  0
    3.9403   -3.8414    3.1148 C   0  0  1  0  0  0  0  0  0  0  0  0
    3.3962   -2.4035    3.1805 C   0  0  1  0  0  0  0  0  0  0  0  0
    4.3595   -1.3515    2.5697 C   0  0  1  0  0  0  0  0  0  0  0  0
    5.5050   -1.1907    3.3704 O   0  0  0  0  0  0  0  0  0  0  0  0
    4.6853   -1.7355    1.0987 C   0  0  1  0  0  0  0  0  0  0  0  0
    6.0703   -1.6507    0.7890 O   0  0  0  0  0  0  0  0  0  0  0  0
    3.9874   -3.0884    0.7100 C   0  0  2  0  0  0  0  0  0  0  0  0
    4.1966   -3.3445   -0.8008 C   0  0  0  0  0  0  0  0  0  0  0  0
    2.4839   -2.7534    0.9627 C   0  0  0  0  0  0  0  0  0  0  0  0
    2.1665   -2.4652    2.3884 N   0  0  0  0  0  0  0  0  0  0  0  0
    1.2728   -1.3261    2.5549 C   0  0  0  0  0  0  0  0  0  0  0  0
    4.3375   -4.2774    1.6917 C   0  0  2  0  0  0  0  0  0  0  0  0
    5.7528   -4.4679    2.2487 C   0  0  2  0  0  0  0  0  0  0  0  0
    1.9374   -5.6497    5.2800 N   0  0  2  0  0  0  0  0  0  0  0  0
    1.3167   -5.0072    6.4609 C   0  0  0  0  0  0  0  0  0  0  0  0
    7.8402   -7.8440    4.5110 H   0  0  0  0  0  0  0  0  0  0  0  0
    7.1580   -9.4417    4.6920 H   0  0  0  0  0  0  0  0  0  0  0  0
    6.3746   -8.0962    5.4654 H   0  0  0  0  0  0  0  0  0  0  0  0
    5.2642   -8.9408    3.3813 H   0  0  0  0  0  0  0  0  0  0  0  0
    7.8319   -8.1892    1.9644 H   0  0  0  0  0  0  0  0  0  0  0  0
    6.3835   -8.7855    1.1603 H   0  0  0  0  0  0  0  0  0  0  0  0
    7.1934   -9.7779    2.3270 H   0  0  0  0  0  0  0  0  0  0  0  0
    7.1997   -6.0492    1.9493 H   0  0  0  0  0  0  0  0  0  0  0  0
    5.8284   -5.3382   -0.1173 H   0  0  0  0  0  0  0  0  0  0  0  0
    5.5378   -7.0193    0.1124 H   0  0  0  0  0  0  0  0  0  0  0  0
    3.2688   -5.7664    0.3657 H   0  0  0  0  0  0  0  0  0  0  0  0
    3.9999   -8.8421    2.0206 H   0  0  0  0  0  0  0  0  0  0  0  0
    1.9705   -7.7608    1.9263 H   0  0  0  0  0  0  0  0  0  0  0  0
    1.7153   -5.0873    2.5948 H   0  0  0  0  0  0  0  0  0  0  0  0
    0.0596   -7.1879    2.0170 H   0  0  0  0  0  0  0  0  0  0  0  0
   -0.0368   -5.7346    4.4667 H   0  0  0  0  0  0  0  0  0  0  0  0
    0.7036   -7.9560    5.5742 H   0  0  0  0  0  0  0  0  0  0  0  0
   -0.6502   -9.3747    4.4663 H   0  0  0  0  0  0  0  0  0  0  0  0
   -1.3197   -7.8331    3.9684 H   0  0  0  0  0  0  0  0  0  0  0  0
    0.4109   -9.5283    2.5053 H   0  0  0  0  0  0  0  0  0  0  0  0
    2.2005   -9.2226    3.6707 H   0  0  0  0  0  0  0  0  0  0  0  0
    2.7850   -8.6380    5.9478 H   0  0  0  0  0  0  0  0  0  0  0  0
    4.1183   -8.3074    4.9558 H   0  0  0  0  0  0  0  0  0  0  0  0
    2.9959   -6.6826    6.7351 H   0  0  0  0  0  0  0  0  0  0  0  0
    4.4384   -4.8844    6.0506 H   0  0  0  0  0  0  0  0  0  0  0  0
    5.1100   -6.4368    6.2967 H   0  0  0  0  0  0  0  0  0  0  0  0
    7.2446   -5.5011    4.0340 H   0  0  0  0  0  0  0  0  0  0  0  0
    5.7585   -3.5460    4.2303 H   0  0  0  0  0  0  0  0  0  0  0  0
    3.2571   -4.5057    3.5787 H   0  0  0  0  0  0  0  0  0  0  0  0
    3.1632   -2.1393    4.2123 H   0  0  0  0  0  0  0  0  0  0  0  0
    3.8811   -0.3691    2.5767 H   0  0  0  0  0  0  0  0  0  0  0  0
    6.0624   -0.5508    2.9550 H   0  0  0  0  0  0  0  0  0  0  0  0
    4.2415   -0.9501    0.4835 H   0  0  0  0  0  0  0  0  0  0  0  0
    6.5206   -2.3098    1.2917 H   0  0  0  0  0  0  0  0  0  0  0  0
    3.6555   -4.2155   -1.1632 H   0  0  0  0  0  0  0  0  0  0  0  0
    5.2489   -3.4553   -1.0561 H   0  0  0  0  0  0  0  0  0  0  0  0
    3.8269   -2.4925   -1.3743 H   0  0  0  0  0  0  0  0  0  0  0  0
    2.2192   -1.8870    0.3583 H   0  0  0  0  0  0  0  0  0  0  0  0
    1.8616   -3.5763    0.6125 H   0  0  0  0  0  0  0  0  0  0  0  0
    0.3562   -1.4820    1.9978 H   0  0  0  0  0  0  0  0  0  0  0  0
    1.7086   -0.4010    2.1819 H   0  0  0  0  0  0  0  0  0  0  0  0
    0.9980   -1.1922    3.6024 H   0  0  0  0  0  0  0  0  0  0  0  0
    6.4873   -3.7232    1.9794 H   0  0  0  0  0  0  0  0  0  0  0  0
    0.7857   -5.7376    7.0725 H   0  0  0  0  0  0  0  0  0  0  0  0
    0.6146   -4.2340    6.1546 H   0  0  0  0  0  0  0  0  0  0  0  0
    2.0756   -4.5337    7.0829 H   0  0  0  0  0  0  0  0  0  0  0  0
    2.3535   -4.8833    4.7633 H   0  0  0  0  0  0  0  0  0  0  0  0
  1  2  1  0
  1 39  1  0
  1 40  1  0
  1 41  1  0
  2  3  1  0
  4  2  1  1
  2 42  1  0
  3 43  1  0
  3 44  1  0
  3 45  1  0
  4  8  1  0
  4 21  1  0
  4  5  1  0
  5 36  1  0
  5  6  1  0
  5 46  1  6
  6  7  1  0
  6 47  1  0
  6 48  1  0
  7 35  1  0
  7  8  1  0
  7 49  1  6
  8  9  1  6
  8 10  1  0
  9 50  1  0
 10 17  1  0
 10 11  1  0
 10 51  1  6
 11 12  1  0
 11 13  1  0
 11 52  1  1
 12 53  1  0
 13 37  1  0
 13 14  1  0
 13 54  1  6
 14 15  1  0
 14 17  1  0
 14 55  1  1
 15 16  1  0
 15 56  1  0
 15 57  1  0
 16 58  1  0
 17 18  1  0
 17 59  1  6
 18 19  1  0
 18 60  1  0
 18 61  1  0
 19 20  1  0
 19 37  1  0
 19 62  1  1
 20 21  1  0
 20 63  1  0
 20 64  1  0
 21 22  1  1
 21 23  1  0
 22 65  1  0
 23 36  1  0
 23 24  1  0
 23 66  1  1
 24 35  1  0
 24 25  1  0
 24 67  1  1
 25 33  1  0
 25 26  1  0
 25 68  1  1
 26 27  1  0
 26 28  1  0
 26 69  1  6
 27 70  1  0
 28 29  1  0
 28 30  1  0
 28 71  1  6
 29 72  1  0
 30 31  1  6
 30 32  1  0
 35 30  1  6
 31 73  1  0
 31 74  1  0
 31 75  1  0
 32 33  1  0
 32 76  1  0
 32 77  1  0
 33 34  1  0
 34 78  1  0
 34 79  1  0
 34 80  1  0
 35 36  1  0
 36 81  1  6
 37 38  1  0
 37 85  1  6
 38 82  1  0
 38 83  1  0
 38 84  1  0
M  CHG  1  37   1
M  END
>  <i_m_ct_stereo_status>  (429) 
1

>  <s_m_source_file>  (429) 
/var/tmp/pbs.5076255.sched01/tmpt95b3wv2/135g3gtwtb2.sdf

>  <i_m_source_file_index>  (429) 
36

>  <i_lp_mmshare_version>  (429) 
48012

>  <i_f3d_flags>  (429) 
0

>  <s_epik_input>  (429) 
W0NIM11OMVtDSDJdW0NAQF0yKFtDSDNdKVtDQEhdKFtPSF0pW0NASF0oW09IXSlbQ0BASF0xW0NAQEhdM1tDQEhdKFtDQEhdNFtDQEhdKFtDSDJdNSlbQ0BdNihbQ0hdKFtDSDNdKVtDSDNdKVtDQEBdNyhbQ0BIXTVbQ0BAXTIzNClbT0hdKVtDQEBdNihbT0hdKVtDSDJdW0NAQEhdOFtDSDJdW0NAQEhdOVtDQEhdN1tDQEBIXShbT0hdKVtDQEhdKE44W0NIM10pW0NASF05W0NIMl1bT0hd

>  <s_epik_cmdline>  (429) 
J2VwaWtfcHl0aG9uJywgJy1waHQnLCAnMi4wJywgJy1waCcsICc3LjAnLCAnLXRuJywgJzgnLCAnLW1hJywgJzIwMCcsICctaW1hZScsICc8aW5maWxlLm1hZT4nLCAnLW9tYWUnLCAnPG91dGZpbGUubWFlPic=

>  <r_epik_Ionization_Penalty>  (429) 
0.873237

>  <r_epik_Ionization_Penalty_Charging>  (429) 
0.00627129

>  <r_epik_Ionization_Penalty_Neutral>  (429) 
0.866966

>  <r_epik_State_Penalty>  (429) 
0.923104

>  <r_epik_Charging_Adjusted_Penalty>  (429) 
0.929375

>  <i_epik_Tot_Q>  (429) 
1

>  <i_epik_Tot_abs_Q>  (429) 
1

>  <s_lp_Force_Field>  (429) 
OPLS3e

>  <r_lp_Energy>  (429) 
201.407

>  <b_lp_Chiralities_Consistent>  (429) 
1

>  <s_lp_Variant>  (429) 
108:0-2

>  <s_i_glide_gridfile>  (429) 
pfpi4k_grid

>  <i_i_glide_lignum>  (429) 
36

>  <i_i_glide_rotatable_bonds>  (429) 
8

>  <r_i_docking_score>  (429) 
-2.83946

>  <r_i_glide_ligand_efficiency>  (429) 
-0.0747226

>  <r_i_glide_ligand_efficiency_sa>  (429) 
-0.251216

>  <r_i_glide_ligand_efficiency_ln>  (429) 
-0.612271

>  <r_i_glide_gscore>  (429) 
-2.83946

>  <r_i_glide_lipo>  (429) 
-0.443099

>  <r_i_glide_hbond>  (429) 
0

>  <r_i_glide_metal>  (429) 
-0

>  <r_i_glide_rewards>  (429) 
-0.5

>  <r_i_glide_evdw>  (429) 
-20.0424

>  <r_i_glide_ecoul>  (429) 
-6.44703

>  <r_i_glide_erotb>  (429) 
0.0729428

>  <r_i_glide_esite>  (429) 
-0.000131306

>  <r_i_glide_emodel>  (429) 
-33.5203

>  <r_i_glide_energy>  (429) 
-26.4894

>  <r_i_glide_einternal>  (429) 
9.52543

>  <r_i_glide_intrahb_reward>  (429) 
-0.5

>  <i_i_glide_confnum>  (429) 
3

>  <i_i_glide_posenum>  (429) 
31

>  <r_i_glide_eff_state_penalty>  (429) 
0

>  <ligand_id>  (429) 
108

>  <original_smiles>  (429) 
CC(C)C12C3CC4C1(O)C1C(O)C5C(CO)C1CC(CC2(O)C1C2C6C(O)C(O)C(C)(CN6C)C24C13)N5C

>  <smiles>  (429) 
[H]OC([H])([H])C1([H])C2([H])C([H])([H])C3([H])C([H])([H])C4(O[H])C5([H])C6([H])C7([H])N(C([H])([H])[H])C([H])([H])C(C([H])([H])[H])(C([H])(O[H])C7([H])O[H])C67C5([H])C5([H])C([H])([H])C7([H])C(O[H])(C2([H])C([H])(O[H])C1([H])[N+]3([H])C([H])([H])[H])C54C([H])(C([H])([H])[H])C([H])([H])[H]

$$$$
109:0:0
     RDKit          3D

 52 56  0  0  1  0  0  0  0  0999 V2000
    2.8143   -3.1394   -2.7021 C   0  0  0  0  0  0  0  0  0  0  0  0
    3.3220   -3.0524   -1.4586 C   0  0  0  0  0  0  0  0  0  0  0  0
    4.5222   -2.1551   -1.1889 C   0  0  0  0  0  0  0  0  0  0  0  0
    5.2039   -1.5541   -2.0198 O   0  0  0  0  0  0  0  0  0  0  0  0
    4.8439   -2.1164    0.3099 C   0  0  1  0  0  0  0  0  0  0  0  0
    3.4178   -1.6714    0.6918 C   0  0  0  0  0  0  0  0  0  0  0  0
    2.6856   -2.6883    1.0121 C   0  0  0  0  0  0  0  0  0  0  0  0
    2.6612   -3.7098   -0.1661 C   0  0  2  0  0  0  0  0  0  0  0  0
    3.3702   -5.0238    0.1099 C   0  0  0  0  0  0  0  0  0  0  0  0
    4.8683   -4.8692   -0.0002 C   0  0  0  0  0  0  0  0  0  0  0  0
    5.4444   -3.5863    0.6508 C   0  0  1  0  0  0  0  0  0  0  0  0
    6.9682   -3.7522    0.4222 C   0  0  0  0  0  0  0  0  0  0  0  0
    2.5665   -2.7379    2.5621 C   0  0  1  0  0  0  0  0  0  0  0  0
    2.2971   -4.0634    3.3393 C   0  0  1  0  0  0  0  0  0  0  0  0
    1.4206   -3.8477    4.5927 C   0  0  0  0  0  0  0  0  0  0  0  0
    1.5263   -5.0212    2.6426 O   0  0  0  0  0  0  0  0  0  0  0  0
    3.6973   -4.5549    3.7638 C   0  0  0  0  0  0  0  0  0  0  0  0
    4.5792   -3.2938    4.0059 C   0  0  0  0  0  0  0  0  0  0  0  0
    3.8605   -2.0928    3.3218 C   0  0  2  0  0  0  0  0  0  0  0  0
    3.2552   -1.4481    4.4271 O   0  0  0  0  0  0  0  0  0  0  0  0
    4.8580   -0.9527    2.6247 C   0  0  2  0  0  0  0  0  0  0  0  0
    5.8056   -0.5233    3.5833 O   0  0  0  0  0  0  0  0  0  0  0  0
    3.9714    0.0713    2.3704 O   0  0  0  0  0  0  0  0  0  0  0  0
    3.1220   -0.2664    1.2857 C   0  0  0  0  0  0  0  0  0  0  0  0
    5.6085   -1.0799    1.1738 C   0  0  1  0  0  0  0  0  0  0  0  0
    7.0170   -1.0686    1.2215 O   0  0  0  0  0  0  0  0  0  0  0  0
    1.9383   -3.7490   -2.9099 H   0  0  0  0  0  0  0  0  0  0  0  0
    3.2848   -2.6525   -3.5450 H   0  0  0  0  0  0  0  0  0  0  0  0
    1.6194   -3.9294   -0.4016 H   0  0  0  0  0  0  0  0  0  0  0  0
    3.1207   -5.5070    1.0357 H   0  0  0  0  0  0  0  0  0  0  0  0
    3.0596   -5.7385   -0.6383 H   0  0  0  0  0  0  0  0  0  0  0  0
    5.2924   -5.7504    0.4830 H   0  0  0  0  0  0  0  0  0  0  0  0
    5.1685   -4.9462   -1.0477 H   0  0  0  0  0  0  0  0  0  0  0  0
    5.2909   -3.7552    1.6950 H   0  0  0  0  0  0  0  0  0  0  0  0
    7.3033   -3.2089   -0.4616 H   0  0  0  0  0  0  0  0  0  0  0  0
    7.2694   -4.7928    0.2988 H   0  0  0  0  0  0  0  0  0  0  0  0
    7.5370   -3.4127    1.2847 H   0  0  0  0  0  0  0  0  0  0  0  0
    1.6952   -2.1013    2.7351 H   0  0  0  0  0  0  0  0  0  0  0  0
    1.8902   -3.2248    5.3474 H   0  0  0  0  0  0  0  0  0  0  0  0
    1.2057   -4.7947    5.0840 H   0  0  0  0  0  0  0  0  0  0  0  0
    0.4678   -3.3904    4.3285 H   0  0  0  0  0  0  0  0  0  0  0  0
    2.0685   -5.4012    1.9724 H   0  0  0  0  0  0  0  0  0  0  0  0
    3.6584   -5.1998    4.6452 H   0  0  0  0  0  0  0  0  0  0  0  0
    4.1513   -5.1568    2.9770 H   0  0  0  0  0  0  0  0  0  0  0  0
    4.6677   -3.1343    5.0839 H   0  0  0  0  0  0  0  0  0  0  0  0
    5.6094   -3.4387    3.6853 H   0  0  0  0  0  0  0  0  0  0  0  0
    2.9421   -0.6158    4.1143 H   0  0  0  0  0  0  0  0  0  0  0  0
    6.4380    0.0212    3.1416 H   0  0  0  0  0  0  0  0  0  0  0  0
    3.2655    0.4769    0.5015 H   0  0  0  0  0  0  0  0  0  0  0  0
    2.0778   -0.1914    1.6010 H   0  0  0  0  0  0  0  0  0  0  0  0
    5.4961   -0.1248    0.6516 H   0  0  0  0  0  0  0  0  0  0  0  0
    7.3321   -0.1844    1.4461 H   0  0  0  0  0  0  0  0  0  0  0  0
  1  2  2  0
  1 27  1  0
  1 28  1  0
  2  8  1  0
  2  3  1  0
  3  4  2  0
  5  3  1  6
  5 11  1  0
  5 25  1  0
  5  6  1  0
  6 24  1  0
  6  7  2  0
  7  8  1  0
  7 13  1  0
  8  9  1  0
  8 29  1  6
  9 10  1  0
  9 30  1  0
  9 31  1  0
 10 11  1  0
 10 32  1  0
 10 33  1  0
 11 12  1  0
 11 34  1  1
 12 35  1  0
 12 36  1  0
 12 37  1  0
 13 19  1  0
 13 14  1  0
 13 38  1  6
 14 15  1  0
 14 16  1  6
 14 17  1  0
 15 39  1  0
 15 40  1  0
 15 41  1  0
 16 42  1  0
 17 18  1  0
 17 43  1  0
 17 44  1  0
 18 19  1  0
 18 45  1  0
 18 46  1  0
 19 20  1  1
 19 21  1  0
 20 47  1  0
 21 22  1  1
 21 23  1  0
 21 25  1  0
 22 48  1  0
 23 24  1  0
 24 49  1  0
 24 50  1  0
 25 26  1  0
 25 51  1  6
 26 52  1  0
M  END
>  <i_m_ct_stereo_status>  (430) 
1

>  <s_m_source_file>  (430) 
/var/tmp/pbs.5076255.sched01/tmpt95b3wv2/135g3gtwtb2.sdf

>  <i_m_source_file_index>  (430) 
37

>  <i_lp_mmshare_version>  (430) 
48012

>  <i_f3d_flags>  (430) 
1

>  <s_epik_input>  (430) 
W0NIM11bQ0BASF0xW0NIMl1bQ0gyXVtDQEhdKEMoPVtDSDJdKUMyPU8pQyg9QzNbQ0BAXTEyNClbQ0BASF01W0NAXShbT0hdKShbQ0BdKFtPSF0pKE9bQ0gyXTMpW0NASF00W09IXSlbQ0gyXVtDSDJdW0NAXTUoW0NIM10pW09IXQ==

>  <s_epik_cmdline>  (430) 
J2VwaWtfcHl0aG9uJywgJy1waHQnLCAnMi4wJywgJy1waCcsICc3LjAnLCAnLXRuJywgJzgnLCAnLW1hJywgJzIwMCcsICctaW1hZScsICc8aW5maWxlLm1hZT4nLCAnLW9tYWUnLCAnPG91dGZpbGUubWFlPic=

>  <r_lp_tautomer_probability>  (430) 
1

>  <r_epik_Ionization_Penalty>  (430) 
2.24365e-05

>  <r_epik_Ionization_Penalty_Charging>  (430) 
0

>  <r_epik_Ionization_Penalty_Neutral>  (430) 
2.24365e-05

>  <r_epik_State_Penalty>  (430) 
-0

>  <r_epik_Charging_Adjusted_Penalty>  (430) 
0

>  <i_epik_Tot_Q>  (430) 
0

>  <i_epik_Tot_abs_Q>  (430) 
0

>  <s_lp_Force_Field>  (430) 
OPLS3e

>  <r_lp_Energy>  (430) 
210.875

>  <b_lp_Chiralities_Consistent>  (430) 
1

>  <s_lp_Variant>  (430) 
109:0-1

>  <s_i_glide_gridfile>  (430) 
pfpi4k_grid

>  <i_i_glide_lignum>  (430) 
37

>  <i_i_glide_rotatable_bonds>  (430) 
4

>  <r_i_docking_score>  (430) 
-3.59793

>  <r_i_glide_ligand_efficiency>  (430) 
-0.138382

>  <r_i_glide_ligand_efficiency_sa>  (430) 
-0.409956

>  <r_i_glide_ligand_efficiency_ln>  (430) 
-0.844962

>  <r_i_glide_gscore>  (430) 
-3.59793

>  <r_i_glide_lipo>  (430) 
-0.366541

>  <r_i_glide_hbond>  (430) 
0

>  <r_i_glide_metal>  (430) 
-0

>  <r_i_glide_rewards>  (430) 
-1.06651

>  <r_i_glide_evdw>  (430) 
-21.9729

>  <r_i_glide_ecoul>  (430) 
-6.93711

>  <r_i_glide_erotb>  (430) 
0

>  <r_i_glide_esite>  (430) 
-0.0256676

>  <r_i_glide_emodel>  (430) 
-34.689

>  <r_i_glide_energy>  (430) 
-28.91

>  <r_i_glide_einternal>  (430) 
0.66958

>  <r_i_glide_intrahb_reward>  (430) 
-0

>  <i_i_glide_confnum>  (430) 
1

>  <i_i_glide_posenum>  (430) 
28

>  <r_i_glide_eff_state_penalty>  (430) 
0

>  <ligand_id>  (430) 
109

>  <original_smiles>  (430) 
C=C1C(=O)C23C4=C(C1CCC2C)C1C(C)(O)CCC1(O)C(O)(OC4)C3O

>  <smiles>  (430) 
[H]OC1([H])C2(O[H])OC([H])([H])C3=C(C4([H])C(=C([H])[H])C(=O)C31C([H])(C([H])([H])[H])C([H])([H])C4([H])[H])C1([H])C(O[H])(C([H])([H])[H])C([H])([H])C([H])([H])C21O[H]

$$$$
109:0:1
     RDKit          3D

 52 56  0  0  1  0  0  0  0  0999 V2000
    2.7327   -3.1398   -2.6678 C   0  0  0  0  0  0  0  0  0  0  0  0
    3.2605   -3.0469   -1.4360 C   0  0  0  0  0  0  0  0  0  0  0  0
    4.4692   -2.1551   -1.1865 C   0  0  0  0  0  0  0  0  0  0  0  0
    5.1408   -1.5608   -2.0312 O   0  0  0  0  0  0  0  0  0  0  0  0
    4.8036   -2.1065    0.3089 C   0  0  1  0  0  0  0  0  0  0  0  0
    3.3846   -1.6475    0.7066 C   0  0  0  0  0  0  0  0  0  0  0  0
    2.6501   -2.6553    1.0407 C   0  0  0  0  0  0  0  0  0  0  0  0
    2.6115   -3.6874   -0.1305 C   0  0  2  0  0  0  0  0  0  0  0  0
    3.2933   -5.0079    0.1506 C   0  0  0  0  0  0  0  0  0  0  0  0
    4.7942   -4.8681    0.0267 C   0  0  0  0  0  0  0  0  0  0  0  0
    5.3888   -3.5817    0.6603 C   0  0  1  0  0  0  0  0  0  0  0  0
    6.9092   -3.7579    0.4227 C   0  0  0  0  0  0  0  0  0  0  0  0
    2.5358   -2.6885    2.5922 C   0  0  1  0  0  0  0  0  0  0  0  0
    2.2632   -4.0020    3.3849 C   0  0  1  0  0  0  0  0  0  0  0  0
    1.3968   -3.7681    4.6451 C   0  0  0  0  0  0  0  0  0  0  0  0
    1.4830   -4.9589    2.6991 O   0  0  0  0  0  0  0  0  0  0  0  0
    3.6636   -4.4993    3.7980 C   0  0  0  0  0  0  0  0  0  0  0  0
    4.5560   -3.2452    4.0246 C   0  0  0  0  0  0  0  0  0  0  0  0
    3.8447   -2.0466    3.3363 C   0  0  2  0  0  0  0  0  0  0  0  0
    3.2549   -1.3813    4.4394 O   0  0  0  0  0  0  0  0  0  0  0  0
    4.8461   -0.9210    2.6175 C   0  0  2  0  0  0  0  0  0  0  0  0
    5.8049   -0.4928    3.5620 O   0  0  0  0  0  0  0  0  0  0  0  0
    3.9654    0.1082    2.3599 O   0  0  0  0  0  0  0  0  0  0  0  0
    3.1019   -0.2365    1.2876 C   0  0  0  0  0  0  0  0  0  0  0  0
    5.5842   -1.0693    1.1607 C   0  0  1  0  0  0  0  0  0  0  0  0
    7.0009   -1.0701    1.1905 O   0  0  0  0  0  0  0  0  0  0  0  0
    1.8489   -3.7422   -2.8568 H   0  0  0  0  0  0  0  0  0  0  0  0
    3.1943   -2.6597   -3.5225 H   0  0  0  0  0  0  0  0  0  0  0  0
    1.5676   -3.9007   -0.3543 H   0  0  0  0  0  0  0  0  0  0  0  0
    3.0427   -5.4659    1.0902 H   0  0  0  0  0  0  0  0  0  0  0  0
    2.9342   -5.7271   -0.5742 H   0  0  0  0  0  0  0  0  0  0  0  0
    5.2182   -5.7475    0.5154 H   0  0  0  0  0  0  0  0  0  0  0  0
    5.0827   -4.9533   -1.0234 H   0  0  0  0  0  0  0  0  0  0  0  0
    5.2413   -3.7373    1.7077 H   0  0  0  0  0  0  0  0  0  0  0  0
    7.2385   -3.2258   -0.4703 H   0  0  0  0  0  0  0  0  0  0  0  0
    7.1976   -4.8037    0.3037 H   0  0  0  0  0  0  0  0  0  0  0  0
    7.4869   -3.4164    1.2789 H   0  0  0  0  0  0  0  0  0  0  0  0
    1.6719   -2.0453    2.7622 H   0  0  0  0  0  0  0  0  0  0  0  0
    1.8777   -3.1385    5.3864 H   0  0  0  0  0  0  0  0  0  0  0  0
    1.1795   -4.7045    5.1567 H   0  0  0  0  0  0  0  0  0  0  0  0
    0.4467   -3.3062    4.3851 H   0  0  0  0  0  0  0  0  0  0  0  0
    1.4639   -5.7466    3.2221 H   0  0  0  0  0  0  0  0  0  0  0  0
    3.6284   -5.1366    4.6863 H   0  0  0  0  0  0  0  0  0  0  0  0
    4.1007   -5.1106    3.0081 H   0  0  0  0  0  0  0  0  0  0  0  0
    4.6537   -3.0750    5.0981 H   0  0  0  0  0  0  0  0  0  0  0  0
    5.5803   -3.4011    3.6932 H   0  0  0  0  0  0  0  0  0  0  0  0
    2.9352   -0.5536    4.1151 H   0  0  0  0  0  0  0  0  0  0  0  0
    6.4601    0.0069    3.0984 H   0  0  0  0  0  0  0  0  0  0  0  0
    3.2463    0.4963    0.4938 H   0  0  0  0  0  0  0  0  0  0  0  0
    2.0621   -0.1485    1.6122 H   0  0  0  0  0  0  0  0  0  0  0  0
    5.4732   -0.1224    0.6288 H   0  0  0  0  0  0  0  0  0  0  0  0
    7.3211   -0.1799    1.3737 H   0  0  0  0  0  0  0  0  0  0  0  0
  1  2  2  0
  1 27  1  0
  1 28  1  0
  2  8  1  0
  2  3  1  0
  3  4  2  0
  5  3  1  6
  5 11  1  0
  5 25  1  0
  5  6  1  0
  6 24  1  0
  6  7  2  0
  7  8  1  0
  7 13  1  0
  8  9  1  0
  8 29  1  6
  9 10  1  0
  9 30  1  0
  9 31  1  0
 10 11  1  0
 10 32  1  0
 10 33  1  0
 11 12  1  0
 11 34  1  1
 12 35  1  0
 12 36  1  0
 12 37  1  0
 13 19  1  0
 13 14  1  0
 13 38  1  6
 14 15  1  0
 14 16  1  6
 14 17  1  0
 15 39  1  0
 15 40  1  0
 15 41  1  0
 16 42  1  0
 17 18  1  0
 17 43  1  0
 17 44  1  0
 18 19  1  0
 18 45  1  0
 18 46  1  0
 19 20  1  1
 19 21  1  0
 20 47  1  0
 21 22  1  1
 21 23  1  0
 21 25  1  0
 22 48  1  0
 23 24  1  0
 24 49  1  0
 24 50  1  0
 25 26  1  0
 25 51  1  6
 26 52  1  0
M  END
>  <i_m_ct_stereo_status>  (431) 
1

>  <s_m_source_file>  (431) 
/var/tmp/pbs.5076255.sched01/tmpt95b3wv2/135g3gtwtb2.sdf

>  <i_m_source_file_index>  (431) 
37

>  <i_lp_mmshare_version>  (431) 
48012

>  <i_f3d_flags>  (431) 
1

>  <s_epik_input>  (431) 
W0NIM11bQ0BASF0xW0NIMl1bQ0gyXVtDQEhdKEMoPVtDSDJdKUMyPU8pQyg9QzNbQ0BAXTEyNClbQ0BASF01W0NAXShbT0hdKShbQ0BdKFtPSF0pKE9bQ0gyXTMpW0NASF00W09IXSlbQ0gyXVtDSDJdW0NAXTUoW0NIM10pW09IXQ==

>  <s_epik_cmdline>  (431) 
J2VwaWtfcHl0aG9uJywgJy1waHQnLCAnMi4wJywgJy1waCcsICc3LjAnLCAnLXRuJywgJzgnLCAnLW1hJywgJzIwMCcsICctaW1hZScsICc8aW5maWxlLm1hZT4nLCAnLW9tYWUnLCAnPG91dGZpbGUubWFlPic=

>  <r_lp_tautomer_probability>  (431) 
1

>  <r_epik_Ionization_Penalty>  (431) 
2.24365e-05

>  <r_epik_Ionization_Penalty_Charging>  (431) 
0

>  <r_epik_Ionization_Penalty_Neutral>  (431) 
2.24365e-05

>  <r_epik_State_Penalty>  (431) 
-0

>  <r_epik_Charging_Adjusted_Penalty>  (431) 
0

>  <i_epik_Tot_Q>  (431) 
0

>  <i_epik_Tot_abs_Q>  (431) 
0

>  <s_lp_Force_Field>  (431) 
OPLS3e

>  <r_lp_Energy>  (431) 
210.875

>  <b_lp_Chiralities_Consistent>  (431) 
1

>  <s_lp_Variant>  (431) 
109:0-1

>  <s_i_glide_gridfile>  (431) 
pfpi4k_grid

>  <i_i_glide_lignum>  (431) 
37

>  <i_i_glide_rotatable_bonds>  (431) 
4

>  <r_i_docking_score>  (431) 
-3.58322

>  <r_i_glide_ligand_efficiency>  (431) 
-0.137816

>  <r_i_glide_ligand_efficiency_sa>  (431) 
-0.408279

>  <r_i_glide_ligand_efficiency_ln>  (431) 
-0.841506

>  <r_i_glide_gscore>  (431) 
-3.58322

>  <r_i_glide_lipo>  (431) 
-0.357062

>  <r_i_glide_hbond>  (431) 
0

>  <r_i_glide_metal>  (431) 
-0

>  <r_i_glide_rewards>  (431) 
-1.06709

>  <r_i_glide_evdw>  (431) 
-22.3759

>  <r_i_glide_ecoul>  (431) 
-6.7622

>  <r_i_glide_erotb>  (431) 
0

>  <r_i_glide_esite>  (431) 
-0.0259411

>  <r_i_glide_emodel>  (431) 
-34.9123

>  <r_i_glide_energy>  (431) 
-29.1381

>  <r_i_glide_einternal>  (431) 
0.646954

>  <r_i_glide_intrahb_reward>  (431) 
-0

>  <i_i_glide_confnum>  (431) 
2

>  <i_i_glide_posenum>  (431) 
38

>  <r_i_glide_eff_state_penalty>  (431) 
0

>  <ligand_id>  (431) 
109

>  <original_smiles>  (431) 
C=C1C(=O)C23C4=C(C1CCC2C)C1C(C)(O)CCC1(O)C(O)(OC4)C3O

>  <smiles>  (431) 
[H]OC1([H])C2(O[H])OC([H])([H])C3=C(C4([H])C(=C([H])[H])C(=O)C31C([H])(C([H])([H])[H])C([H])([H])C4([H])[H])C1([H])C(O[H])(C([H])([H])[H])C([H])([H])C([H])([H])C21O[H]

$$$$
109:0:2
     RDKit          3D

 52 56  0  0  1  0  0  0  0  0999 V2000
    2.6994   -3.1598   -2.6855 C   0  0  0  0  0  0  0  0  0  0  0  0
    3.2410   -3.0646   -1.4574 C   0  0  0  0  0  0  0  0  0  0  0  0
    4.4537   -2.1669   -1.2312 C   0  0  0  0  0  0  0  0  0  0  0  0
    5.0983   -1.5574   -2.0873 O   0  0  0  0  0  0  0  0  0  0  0  0
    4.8113   -2.1252    0.2560 C   0  0  1  0  0  0  0  0  0  0  0  0
    3.3962   -1.6886    0.6849 C   0  0  0  0  0  0  0  0  0  0  0  0
    2.6794   -2.7080    1.0358 C   0  0  0  0  0  0  0  0  0  0  0  0
    2.6213   -3.7277   -0.1445 C   0  0  2  0  0  0  0  0  0  0  0  0
    3.3408   -5.0410    0.1117 C   0  0  0  0  0  0  0  0  0  0  0  0
    4.8392   -4.8812   -0.0489 C   0  0  0  0  0  0  0  0  0  0  0  0
    5.4300   -3.5940    0.5848 C   0  0  1  0  0  0  0  0  0  0  0  0
    6.9484   -3.7527    0.3181 C   0  0  0  0  0  0  0  0  0  0  0  0
    2.6091   -2.7479    2.5904 C   0  0  1  0  0  0  0  0  0  0  0  0
    2.3679   -4.0730    3.3691 C   0  0  1  0  0  0  0  0  0  0  0  0
    1.5288   -3.8623    4.6485 C   0  0  0  0  0  0  0  0  0  0  0  0
    1.5734   -5.0216    2.6876 O   0  0  0  0  0  0  0  0  0  0  0  0
    3.7806   -4.5592    3.7491 C   0  0  0  0  0  0  0  0  0  0  0  0
    4.6663   -3.2979    3.9668 C   0  0  0  0  0  0  0  0  0  0  0  0
    3.9311   -2.0947    3.3014 C   0  0  2  0  0  0  0  0  0  0  0  0
    3.3897   -1.4306    4.4339 O   0  0  0  0  0  0  0  0  0  0  0  0
    4.8786   -0.9425    2.5625 C   0  0  2  0  0  0  0  0  0  0  0  0
    5.8107   -0.4458    3.4814 O   0  0  0  0  0  0  0  0  0  0  0  0
    3.9686    0.0597    2.3284 O   0  0  0  0  0  0  0  0  0  0  0  0
    3.1011   -0.2851    1.2748 C   0  0  0  0  0  0  0  0  0  0  0  0
    5.5970   -1.0806    1.0870 C   0  0  1  0  0  0  0  0  0  0  0  0
    7.0125   -1.0601    1.0733 O   0  0  0  0  0  0  0  0  0  0  0  0
    1.8227   -3.7766   -2.8593 H   0  0  0  0  0  0  0  0  0  0  0  0
    3.1430   -2.6694   -3.5420 H   0  0  0  0  0  0  0  0  0  0  0  0
    1.5768   -3.9559   -0.3507 H   0  0  0  0  0  0  0  0  0  0  0  0
    3.1320   -5.5197    1.0504 H   0  0  0  0  0  0  0  0  0  0  0  0
    2.9763   -5.7535   -0.6146 H   0  0  0  0  0  0  0  0  0  0  0  0
    5.2852   -5.7592    0.4230 H   0  0  0  0  0  0  0  0  0  0  0  0
    5.1078   -4.9548   -1.1055 H   0  0  0  0  0  0  0  0  0  0  0  0
    5.3080   -3.7623    1.6330 H   0  0  0  0  0  0  0  0  0  0  0  0
    7.2548   -3.2081   -0.5759 H   0  0  0  0  0  0  0  0  0  0  0  0
    7.2481   -4.7937    0.1844 H   0  0  0  0  0  0  0  0  0  0  0  0
    7.5380   -3.4086    1.1665 H   0  0  0  0  0  0  0  0  0  0  0  0
    1.7410   -2.1172    2.7834 H   0  0  0  0  0  0  0  0  0  0  0  0
    2.0193   -3.2322    5.3842 H   0  0  0  0  0  0  0  0  0  0  0  0
    1.3367   -4.8118    5.1475 H   0  0  0  0  0  0  0  0  0  0  0  0
    0.5637   -3.4168    4.4132 H   0  0  0  0  0  0  0  0  0  0  0  0
    2.0752   -5.3569    1.9583 H   0  0  0  0  0  0  0  0  0  0  0  0
    3.7691   -5.2046    4.6303 H   0  0  0  0  0  0  0  0  0  0  0  0
    4.2129   -5.1603    2.9507 H   0  0  0  0  0  0  0  0  0  0  0  0
    4.7808   -3.1374    5.0411 H   0  0  0  0  0  0  0  0  0  0  0  0
    5.6853   -3.4374    3.6147 H   0  0  0  0  0  0  0  0  0  0  0  0
    2.9820   -0.6397    4.1129 H   0  0  0  0  0  0  0  0  0  0  0  0
    5.3327   -0.2929    4.2874 H   0  0  0  0  0  0  0  0  0  0  0  0
    3.2314    0.4613    0.4915 H   0  0  0  0  0  0  0  0  0  0  0  0
    2.0726   -0.2178    1.6290 H   0  0  0  0  0  0  0  0  0  0  0  0
    5.4621   -0.1305    0.5728 H   0  0  0  0  0  0  0  0  0  0  0  0
    7.2960   -0.2027    1.4051 H   0  0  0  0  0  0  0  0  0  0  0  0
  1  2  2  0
  1 27  1  0
  1 28  1  0
  2  8  1  0
  2  3  1  0
  3  4  2  0
  5  3  1  6
  5 11  1  0
  5 25  1  0
  5  6  1  0
  6 24  1  0
  6  7  2  0
  7  8  1  0
  7 13  1  0
  8  9  1  0
  8 29  1  6
  9 10  1  0
  9 30  1  0
  9 31  1  0
 10 11  1  0
 10 32  1  0
 10 33  1  0
 11 12  1  0
 11 34  1  1
 12 35  1  0
 12 36  1  0
 12 37  1  0
 13 19  1  0
 13 14  1  0
 13 38  1  1
 14 15  1  0
 14 16  1  6
 14 17  1  0
 15 39  1  0
 15 40  1  0
 15 41  1  0
 16 42  1  0
 17 18  1  0
 17 43  1  0
 17 44  1  0
 18 19  1  0
 18 45  1  0
 18 46  1  0
 19 20  1  1
 19 21  1  0
 20 47  1  0
 21 22  1  1
 21 23  1  0
 21 25  1  0
 22 48  1  0
 23 24  1  0
 24 49  1  0
 24 50  1  0
 25 26  1  0
 25 51  1  6
 26 52  1  0
M  END
>  <i_m_ct_stereo_status>  (432) 
1

>  <s_m_source_file>  (432) 
/var/tmp/pbs.5076255.sched01/tmpt95b3wv2/135g3gtwtb2.sdf

>  <i_m_source_file_index>  (432) 
37

>  <i_lp_mmshare_version>  (432) 
48012

>  <i_f3d_flags>  (432) 
1

>  <s_epik_input>  (432) 
W0NIM11bQ0BASF0xW0NIMl1bQ0gyXVtDQEhdKEMoPVtDSDJdKUMyPU8pQyg9QzNbQ0BAXTEyNClbQ0BASF01W0NAXShbT0hdKShbQ0BdKFtPSF0pKE9bQ0gyXTMpW0NASF00W09IXSlbQ0gyXVtDSDJdW0NAXTUoW0NIM10pW09IXQ==

>  <s_epik_cmdline>  (432) 
J2VwaWtfcHl0aG9uJywgJy1waHQnLCAnMi4wJywgJy1waCcsICc3LjAnLCAnLXRuJywgJzgnLCAnLW1hJywgJzIwMCcsICctaW1hZScsICc8aW5maWxlLm1hZT4nLCAnLW9tYWUnLCAnPG91dGZpbGUubWFlPic=

>  <r_lp_tautomer_probability>  (432) 
1

>  <r_epik_Ionization_Penalty>  (432) 
2.24365e-05

>  <r_epik_Ionization_Penalty_Charging>  (432) 
0

>  <r_epik_Ionization_Penalty_Neutral>  (432) 
2.24365e-05

>  <r_epik_State_Penalty>  (432) 
-0

>  <r_epik_Charging_Adjusted_Penalty>  (432) 
0

>  <i_epik_Tot_Q>  (432) 
0

>  <i_epik_Tot_abs_Q>  (432) 
0

>  <s_lp_Force_Field>  (432) 
OPLS3e

>  <r_lp_Energy>  (432) 
210.875

>  <b_lp_Chiralities_Consistent>  (432) 
1

>  <s_lp_Variant>  (432) 
109:0-1

>  <s_i_glide_gridfile>  (432) 
pfpi4k_grid

>  <i_i_glide_lignum>  (432) 
37

>  <i_i_glide_rotatable_bonds>  (432) 
4

>  <r_i_docking_score>  (432) 
-3.53641

>  <r_i_glide_ligand_efficiency>  (432) 
-0.136016

>  <r_i_glide_ligand_efficiency_sa>  (432) 
-0.402947

>  <r_i_glide_ligand_efficiency_ln>  (432) 
-0.830515

>  <r_i_glide_gscore>  (432) 
-3.53641

>  <r_i_glide_lipo>  (432) 
-0.377619

>  <r_i_glide_hbond>  (432) 
0

>  <r_i_glide_metal>  (432) 
-0

>  <r_i_glide_rewards>  (432) 
-1.07041

>  <r_i_glide_evdw>  (432) 
-22.7798

>  <r_i_glide_ecoul>  (432) 
-6.15594

>  <r_i_glide_erotb>  (432) 
0

>  <r_i_glide_esite>  (432) 
-0.0260016

>  <r_i_glide_emodel>  (432) 
-34.748

>  <r_i_glide_energy>  (432) 
-28.9358

>  <r_i_glide_einternal>  (432) 
0.677963

>  <r_i_glide_intrahb_reward>  (432) 
-0

>  <i_i_glide_confnum>  (432) 
2

>  <i_i_glide_posenum>  (432) 
3

>  <r_i_glide_eff_state_penalty>  (432) 
0

>  <ligand_id>  (432) 
109

>  <original_smiles>  (432) 
C=C1C(=O)C23C4=C(C1CCC2C)C1C(C)(O)CCC1(O)C(O)(OC4)C3O

>  <smiles>  (432) 
[H]OC1([H])C2(O[H])OC([H])([H])C3=C(C4([H])C(=C([H])[H])C(=O)C31C([H])(C([H])([H])[H])C([H])([H])C4([H])[H])C1([H])C(O[H])(C([H])([H])[H])C([H])([H])C([H])([H])C21O[H]

$$$$
110:0:0
     RDKit          3D

 64 69  0  0  1  0  0  0  0  0999 V2000
    9.6414   -2.3919    0.8060 C   0  0  0  0  0  0  0  0  0  0  0  0
    8.3029   -2.6882    0.1784 C   0  0  0  0  0  0  0  0  0  0  0  0
    8.0670   -2.8013   -1.1534 C   0  0  0  0  0  0  0  0  0  0  0  0
    6.6311   -3.1867   -1.2595 C   0  0  2  0  0  0  0  0  0  0  0  0
    5.5629   -2.9903   -2.3718 C   0  0  1  0  0  0  0  0  0  0  0  0
    4.6523   -4.1937   -2.1565 C   0  0  0  0  0  0  0  0  0  0  0  0
    4.0169   -3.9940   -0.7456 C   0  0  1  0  0  0  0  0  0  0  0  0
    4.4691   -5.0020    0.2035 N   0  0  0  0  0  0  0  0  0  0  0  0
    3.6916   -5.8227    0.9255 C   0  0  0  0  0  0  0  0  0  0  0  0
    2.4558   -5.7615    0.9014 O   0  0  0  0  0  0  0  0  0  0  0  0
    4.4115   -6.8789    1.7967 C   0  0  1  0  0  0  0  0  0  0  0  0
    4.1362   -8.2999    1.2351 C   0  0  0  0  0  0  0  0  0  0  0  0
    4.8206   -9.3578    2.1253 C   0  0  2  0  0  0  0  0  0  0  0  0
    4.2582   -9.2644    3.5551 C   0  0  0  0  0  0  0  0  0  0  0  0
    4.5549   -7.8650    4.1282 C   0  0  1  0  0  0  0  0  0  0  0  0
    6.0746   -7.6131    4.1534 C   0  0  0  0  0  0  0  0  0  0  0  0
    6.6336   -7.7289    2.7232 C   0  0  1  0  0  0  0  0  0  0  0  0
    6.3440   -9.1277    2.1500 C   0  0  0  0  0  0  0  0  0  0  0  0
    5.9618   -6.6700    1.8385 C   0  0  0  0  0  0  0  0  0  0  0  0
    3.8697   -6.8013    3.2507 C   0  0  0  0  0  0  0  0  0  0  0  0
    4.4977   -2.5576   -0.3937 C   0  0  1  0  0  0  0  0  0  0  0  0
    3.6345   -1.8242    0.6363 C   0  0  0  0  0  0  0  0  0  0  0  0
    6.0235   -2.4571   -0.0885 C   0  0  1  0  0  0  0  0  0  0  0  0
    7.0106   -2.8160    1.0204 C   0  0  0  0  0  0  0  0  0  0  0  0
    4.5099   -1.9629   -1.8541 C   0  0  0  0  0  0  0  0  0  0  0  0
    5.0286   -0.5673   -2.0193 C   0  0  0  0  0  0  0  0  0  0  0  0
    3.1361   -1.8711   -2.5924 C   0  0  0  0  0  0  0  0  0  0  0  0
    9.8983   -3.1176    1.5833 H   0  0  0  0  0  0  0  0  0  0  0  0
    9.5825   -1.3842    1.2200 H   0  0  0  0  0  0  0  0  0  0  0  0
   10.4455   -2.3636    0.0946 H   0  0  0  0  0  0  0  0  0  0  0  0
    8.7915   -2.7893   -1.9575 H   0  0  0  0  0  0  0  0  0  0  0  0
    6.7080   -4.2414   -1.0316 H   0  0  0  0  0  0  0  0  0  0  0  0
    5.9367   -2.9046   -3.3990 H   0  0  0  0  0  0  0  0  0  0  0  0
    3.9359   -4.2029   -2.9691 H   0  0  0  0  0  0  0  0  0  0  0  0
    5.1249   -5.1691   -2.2288 H   0  0  0  0  0  0  0  0  0  0  0  0
    2.9300   -4.0494   -0.8251 H   0  0  0  0  0  0  0  0  0  0  0  0
    5.4640   -5.1642    0.2618 H   0  0  0  0  0  0  0  0  0  0  0  0
    3.0626   -8.4926    1.1931 H   0  0  0  0  0  0  0  0  0  0  0  0
    4.5052   -8.3875    0.2107 H   0  0  0  0  0  0  0  0  0  0  0  0
    4.6154  -10.3471    1.7252 H   0  0  0  0  0  0  0  0  0  0  0  0
    3.1830   -9.4455    3.5473 H   0  0  0  0  0  0  0  0  0  0  0  0
    4.7005  -10.0368    4.1839 H   0  0  0  0  0  0  0  0  0  0  0  0
    4.1590   -7.7976    5.1392 H   0  0  0  0  0  0  0  0  0  0  0  0
    6.2774   -6.6179    4.5514 H   0  0  0  0  0  0  0  0  0  0  0  0
    6.5642   -8.3274    4.8163 H   0  0  0  0  0  0  0  0  0  0  0  0
    7.7105   -7.5581    2.7363 H   0  0  0  0  0  0  0  0  0  0  0  0
    6.8317   -9.8936    2.7552 H   0  0  0  0  0  0  0  0  0  0  0  0
    6.7513   -9.2167    1.1426 H   0  0  0  0  0  0  0  0  0  0  0  0
    6.4181   -6.7305    0.8492 H   0  0  0  0  0  0  0  0  0  0  0  0
    6.2077   -5.6952    2.2536 H   0  0  0  0  0  0  0  0  0  0  0  0
    4.0381   -5.8068    3.6694 H   0  0  0  0  0  0  0  0  0  0  0  0
    2.7916   -6.9656    3.2658 H   0  0  0  0  0  0  0  0  0  0  0  0
    3.9210   -0.7765    0.7042 H   0  0  0  0  0  0  0  0  0  0  0  0
    3.7142   -2.2594    1.6353 H   0  0  0  0  0  0  0  0  0  0  0  0
    2.5968   -1.8591    0.3256 H   0  0  0  0  0  0  0  0  0  0  0  0
    6.1924   -1.3695   -0.0779 H   0  0  0  0  0  0  0  0  0  0  0  0
    6.9153   -3.8089    1.4734 H   0  0  0  0  0  0  0  0  0  0  0  0
    6.9328   -2.0522    1.7934 H   0  0  0  0  0  0  0  0  0  0  0  0
    4.6002    0.0879   -1.2718 H   0  0  0  0  0  0  0  0  0  0  0  0
    4.7781   -0.1285   -2.9883 H   0  0  0  0  0  0  0  0  0  0  0  0
    6.1033   -0.5916   -1.9296 H   0  0  0  0  0  0  0  0  0  0  0  0
    2.6205   -0.9770   -2.2382 H   0  0  0  0  0  0  0  0  0  0  0  0
    2.4355   -2.6997   -2.4659 H   0  0  0  0  0  0  0  0  0  0  0  0
    3.2801   -1.7389   -3.6668 H   0  0  0  0  0  0  0  0  0  0  0  0
  1  2  1  0
  1 28  1  0
  1 29  1  0
  1 30  1  0
  2 24  1  0
  2  3  2  0
  3  4  1  0
  3 31  1  0
  4 23  1  0
  4  5  1  0
  4 32  1  1
  5 25  1  0
  5  6  1  0
  5 33  1  6
  6  7  1  0
  6 34  1  0
  6 35  1  0
  7  8  1  0
  7 21  1  0
  7 36  1  6
  8  9  1  0
  8 37  1  0
  9 10  2  0
 11  9  1  6
 11 19  1  0
 11 20  1  0
 11 12  1  0
 12 13  1  0
 12 38  1  0
 12 39  1  0
 13 18  1  0
 13 14  1  0
 13 40  1  6
 14 15  1  0
 14 41  1  0
 14 42  1  0
 15 16  1  0
 15 20  1  0
 15 43  1  1
 16 17  1  0
 16 44  1  0
 16 45  1  0
 17 18  1  0
 17 19  1  0
 17 46  1  1
 18 47  1  0
 18 48  1  0
 19 49  1  0
 19 50  1  0
 20 51  1  0
 20 52  1  0
 21 22  1  1
 21 23  1  0
 21 25  1  0
 22 53  1  0
 22 54  1  0
 22 55  1  0
 23 24  1  0
 23 56  1  6
 24 57  1  0
 24 58  1  0
 25 26  1  0
 25 27  1  0
 26 59  1  0
 26 60  1  0
 26 61  1  0
 27 62  1  0
 27 63  1  0
 27 64  1  0
M  END
>  <i_m_ct_stereo_status>  (433) 
1

>  <s_m_source_file>  (433) 
/var/tmp/pbs.5076255.sched01/tmpt95b3wv2/135g3gtwtb2.sdf

>  <i_m_source_file_index>  (433) 
38

>  <i_lp_mmshare_version>  (433) 
48012

>  <i_f3d_flags>  (433) 
0

>  <s_epik_input>  (433) 
W0NIM11DKFtDSDJdMSk9W0NIXVtDQEBIXShbQ0BIXTFbQ0BdMjNbQ0gzXSlbQ0BIXShDMyhbQ0gzXSlbQ0gzXSlbQ0gyXVtDQEhdMltOSF1DKD1PKUM0NVtDSDJdW0NAQEhdNltDSDJdW0NASF0oW0NIMl01KVtDSDJdW0NAQEhdKFtDSDJdNilbQ0gyXTQ=

>  <s_epik_cmdline>  (433) 
J2VwaWtfcHl0aG9uJywgJy1waHQnLCAnMi4wJywgJy1waCcsICc3LjAnLCAnLXRuJywgJzgnLCAnLW1hJywgJzIwMCcsICctaW1hZScsICc8aW5maWxlLm1hZT4nLCAnLW9tYWUnLCAnPG91dGZpbGUubWFlPic=

>  <r_lp_tautomer_probability>  (433) 
1

>  <r_epik_Ionization_Penalty>  (433) 
2.06891e-07

>  <r_epik_Ionization_Penalty_Charging>  (433) 
0

>  <r_epik_Ionization_Penalty_Neutral>  (433) 
2.06891e-07

>  <r_epik_State_Penalty>  (433) 
-0

>  <r_epik_Charging_Adjusted_Penalty>  (433) 
0

>  <i_epik_Tot_Q>  (433) 
0

>  <i_epik_Tot_abs_Q>  (433) 
0

>  <s_lp_Force_Field>  (433) 
OPLS3e

>  <r_lp_Energy>  (433) 
67.7678

>  <b_lp_Chiralities_Consistent>  (433) 
1

>  <s_lp_Variant>  (433) 
110:0-1

>  <s_i_glide_gridfile>  (433) 
pfpi4k_grid

>  <i_i_glide_lignum>  (433) 
38

>  <i_i_glide_rotatable_bonds>  (433) 
3

>  <r_i_docking_score>  (433) 
-2.27455

>  <r_i_glide_ligand_efficiency>  (433) 
-0.0842426

>  <r_i_glide_ligand_efficiency_sa>  (433) 
-0.252728

>  <r_i_glide_ligand_efficiency_ln>  (433) 
-0.529478

>  <r_i_glide_gscore>  (433) 
-2.27455

>  <r_i_glide_lipo>  (433) 
-0.604097

>  <r_i_glide_hbond>  (433) 
0

>  <r_i_glide_metal>  (433) 
-0

>  <r_i_glide_rewards>  (433) 
-0.943814

>  <r_i_glide_evdw>  (433) 
-17.5867

>  <r_i_glide_ecoul>  (433) 
-1.83316

>  <r_i_glide_erotb>  (433) 
0.427667

>  <r_i_glide_esite>  (433) 
0

>  <r_i_glide_emodel>  (433) 
-20.4278

>  <r_i_glide_energy>  (433) 
-19.4198

>  <r_i_glide_einternal>  (433) 
0.551574

>  <r_i_glide_intrahb_reward>  (433) 
-0

>  <i_i_glide_confnum>  (433) 
2

>  <i_i_glide_posenum>  (433) 
34

>  <r_i_glide_eff_state_penalty>  (433) 
0

>  <ligand_id>  (433) 
110

>  <original_smiles>  (433) 
CC1=CC2C3CC(NC(=O)C45CC6CC(CC(C6)C4)C5)C(C)(C2C1)C3(C)C

>  <smiles>  (433) 
[H]C1=C(C([H])([H])[H])C([H])([H])C2([H])C1([H])C1([H])C([H])([H])C([H])(N([H])C(=O)C34C([H])([H])C5([H])C([H])([H])C([H])(C([H])([H])C([H])(C5([H])[H])C3([H])[H])C4([H])[H])C2(C([H])([H])[H])C1(C([H])([H])[H])C([H])([H])[H]

$$$$
110:0:1
     RDKit          3D

 64 69  0  0  1  0  0  0  0  0999 V2000
    9.2683   -2.2119    0.4854 C   0  0  0  0  0  0  0  0  0  0  0  0
    7.8754   -2.4242   -0.0006 C   0  0  0  0  0  0  0  0  0  0  0  0
    7.5476   -2.7777   -1.2772 C   0  0  0  0  0  0  0  0  0  0  0  0
    6.0810   -3.0100   -1.2465 C   0  0  2  0  0  0  0  0  0  0  0  0
    4.9592   -2.8459   -2.3023 C   0  0  1  0  0  0  0  0  0  0  0  0
    3.9404   -3.8747   -1.7679 C   0  0  0  0  0  0  0  0  0  0  0  0
    3.4125   -3.2592   -0.4276 C   0  0  1  0  0  0  0  0  0  0  0  0
    3.7880   -4.1094    0.6769 N   0  0  0  0  0  0  0  0  0  0  0  0
    3.1156   -5.2186    1.0529 C   0  0  0  0  0  0  0  0  0  0  0  0
    1.9782   -5.4730    0.6416 O   0  0  0  0  0  0  0  0  0  0  0  0
    3.8494   -6.1758    2.0060 C   0  0  1  0  0  0  0  0  0  0  0  0
    2.9989   -6.3883    3.2923 C   0  0  0  0  0  0  0  0  0  0  0  0
    3.7130   -7.3689    4.2495 C   0  0  2  0  0  0  0  0  0  0  0  0
    5.0897   -6.8004    4.6403 C   0  0  0  0  0  0  0  0  0  0  0  0
    5.9514   -6.6366    3.3757 C   0  0  1  0  0  0  0  0  0  0  0  0
    6.1291   -7.9872    2.6608 C   0  0  0  0  0  0  0  0  0  0  0  0
    4.7447   -8.5485    2.2821 C   0  0  1  0  0  0  0  0  0  0  0  0
    3.8913   -8.7324    3.5532 C   0  0  0  0  0  0  0  0  0  0  0  0
    4.0330   -7.5657    1.3218 C   0  0  0  0  0  0  0  0  0  0  0  0
    5.2628   -5.6524    2.4260 C   0  0  0  0  0  0  0  0  0  0  0  0
    4.1195   -1.8825   -0.4076 C   0  0  1  0  0  0  0  0  0  0  0  0
    3.5227   -0.8157    0.5305 C   0  0  0  0  0  0  0  0  0  0  0  0
    5.6614   -1.9795   -0.2178 C   0  0  1  0  0  0  0  0  0  0  0  0
    6.6678   -2.2111    0.9162 C   0  0  0  0  0  0  0  0  0  0  0  0
    4.1214   -1.5818   -1.9674 C   0  0  0  0  0  0  0  0  0  0  0  0
    4.7785   -0.3086   -2.4561 C   0  0  0  0  0  0  0  0  0  0  0  0
    2.7557   -1.4413   -2.6849 C   0  0  0  0  0  0  0  0  0  0  0  0
    9.5223   -2.9076    1.2761 H   0  0  0  0  0  0  0  0  0  0  0  0
    9.4026   -1.1816    0.8169 H   0  0  0  0  0  0  0  0  0  0  0  0
    9.9592   -2.4069   -0.3091 H   0  0  0  0  0  0  0  0  0  0  0  0
    8.2025   -3.0079   -2.0894 H   0  0  0  0  0  0  0  0  0  0  0  0
    6.0842   -4.0220   -0.8479 H   0  0  0  0  0  0  0  0  0  0  0  0
    5.2543   -2.9890   -3.3437 H   0  0  0  0  0  0  0  0  0  0  0  0
    3.1347   -3.9409   -2.4975 H   0  0  0  0  0  0  0  0  0  0  0  0
    4.4024   -4.8375   -1.6409 H   0  0  0  0  0  0  0  0  0  0  0  0
    2.3414   -3.1221   -0.4329 H   0  0  0  0  0  0  0  0  0  0  0  0
    4.7107   -3.9880    1.0536 H   0  0  0  0  0  0  0  0  0  0  0  0
    2.8298   -5.4320    3.7925 H   0  0  0  0  0  0  0  0  0  0  0  0
    2.0099   -6.7821    3.0381 H   0  0  0  0  0  0  0  0  0  0  0  0
    3.1071   -7.4993    5.1451 H   0  0  0  0  0  0  0  0  0  0  0  0
    4.9662   -5.8375    5.1374 H   0  0  0  0  0  0  0  0  0  0  0  0
    5.5791   -7.4619    5.3551 H   0  0  0  0  0  0  0  0  0  0  0  0
    6.9281   -6.2417    3.6518 H   0  0  0  0  0  0  0  0  0  0  0  0
    6.7366   -7.8632    1.7637 H   0  0  0  0  0  0  0  0  0  0  0  0
    6.6624   -8.6877    3.3019 H   0  0  0  0  0  0  0  0  0  0  0  0
    4.8615   -9.5121    1.7865 H   0  0  0  0  0  0  0  0  0  0  0  0
    4.3710   -9.4386    4.2310 H   0  0  0  0  0  0  0  0  0  0  0  0
    2.9197   -9.1604    3.2996 H   0  0  0  0  0  0  0  0  0  0  0  0
    3.0655   -7.9860    1.0297 H   0  0  0  0  0  0  0  0  0  0  0  0
    4.6128   -7.4665    0.3991 H   0  0  0  0  0  0  0  0  0  0  0  0
    5.9023   -5.5109    1.5530 H   0  0  0  0  0  0  0  0  0  0  0  0
    5.1844   -4.6843    2.9200 H   0  0  0  0  0  0  0  0  0  0  0  0
    3.9700    0.1675    0.3653 H   0  0  0  0  0  0  0  0  0  0  0  0
    3.6428   -1.0675    1.5871 H   0  0  0  0  0  0  0  0  0  0  0  0
    2.4702   -0.7184    0.3680 H   0  0  0  0  0  0  0  0  0  0  0  0
    5.9631   -0.9740   -0.4617 H   0  0  0  0  0  0  0  0  0  0  0  0
    6.4873   -3.0739    1.5573 H   0  0  0  0  0  0  0  0  0  0  0  0
    6.7765   -1.3217    1.5253 H   0  0  0  0  0  0  0  0  0  0  0  0
    4.4174    0.5201   -1.8883 H   0  0  0  0  0  0  0  0  0  0  0  0
    4.5468   -0.0634   -3.4736 H   0  0  0  0  0  0  0  0  0  0  0  0
    5.8547   -0.3746   -2.3199 H   0  0  0  0  0  0  0  0  0  0  0  0
    2.3477   -0.4522   -2.4696 H   0  0  0  0  0  0  0  0  0  0  0  0
    1.9823   -2.1549   -2.3722 H   0  0  0  0  0  0  0  0  0  0  0  0
    2.8303   -1.5022   -3.7710 H   0  0  0  0  0  0  0  0  0  0  0  0
  1  2  1  0
  1 28  1  0
  1 29  1  0
  1 30  1  0
  2 24  1  0
  2  3  2  0
  3  4  1  0
  3 31  1  0
  4 23  1  0
  4  5  1  0
  4 32  1  1
  5 25  1  0
  5  6  1  0
  5 33  1  6
  6  7  1  0
  6 34  1  0
  6 35  1  0
  7  8  1  0
  7 21  1  0
  7 36  1  6
  8  9  1  0
  8 37  1  0
  9 10  2  0
 11  9  1  6
 11 19  1  0
 11 20  1  0
 11 12  1  0
 12 13  1  0
 12 38  1  0
 12 39  1  0
 13 18  1  0
 13 14  1  0
 13 40  1  1
 14 15  1  0
 14 41  1  0
 14 42  1  0
 15 16  1  0
 15 20  1  0
 15 43  1  1
 16 17  1  0
 16 44  1  0
 16 45  1  0
 17 18  1  0
 17 19  1  0
 17 46  1  6
 18 47  1  0
 18 48  1  0
 19 49  1  0
 19 50  1  0
 20 51  1  0
 20 52  1  0
 21 22  1  1
 21 23  1  0
 21 25  1  0
 22 53  1  0
 22 54  1  0
 22 55  1  0
 23 24  1  0
 23 56  1  6
 24 57  1  0
 24 58  1  0
 25 26  1  0
 25 27  1  0
 26 59  1  0
 26 60  1  0
 26 61  1  0
 27 62  1  0
 27 63  1  0
 27 64  1  0
M  END
>  <i_m_ct_stereo_status>  (434) 
1

>  <s_m_source_file>  (434) 
/var/tmp/pbs.5076255.sched01/tmpt95b3wv2/135g3gtwtb2.sdf

>  <i_m_source_file_index>  (434) 
38

>  <i_lp_mmshare_version>  (434) 
48012

>  <i_f3d_flags>  (434) 
0

>  <s_epik_input>  (434) 
W0NIM11DKFtDSDJdMSk9W0NIXVtDQEBIXShbQ0BIXTFbQ0BdMjNbQ0gzXSlbQ0BIXShDMyhbQ0gzXSlbQ0gzXSlbQ0gyXVtDQEhdMltOSF1DKD1PKUM0NVtDSDJdW0NAQEhdNltDSDJdW0NASF0oW0NIMl01KVtDSDJdW0NAQEhdKFtDSDJdNilbQ0gyXTQ=

>  <s_epik_cmdline>  (434) 
J2VwaWtfcHl0aG9uJywgJy1waHQnLCAnMi4wJywgJy1waCcsICc3LjAnLCAnLXRuJywgJzgnLCAnLW1hJywgJzIwMCcsICctaW1hZScsICc8aW5maWxlLm1hZT4nLCAnLW9tYWUnLCAnPG91dGZpbGUubWFlPic=

>  <r_lp_tautomer_probability>  (434) 
1

>  <r_epik_Ionization_Penalty>  (434) 
2.06891e-07

>  <r_epik_Ionization_Penalty_Charging>  (434) 
0

>  <r_epik_Ionization_Penalty_Neutral>  (434) 
2.06891e-07

>  <r_epik_State_Penalty>  (434) 
-0

>  <r_epik_Charging_Adjusted_Penalty>  (434) 
0

>  <i_epik_Tot_Q>  (434) 
0

>  <i_epik_Tot_abs_Q>  (434) 
0

>  <s_lp_Force_Field>  (434) 
OPLS3e

>  <r_lp_Energy>  (434) 
67.7678

>  <b_lp_Chiralities_Consistent>  (434) 
1

>  <s_lp_Variant>  (434) 
110:0-1

>  <s_i_glide_gridfile>  (434) 
pfpi4k_grid

>  <i_i_glide_lignum>  (434) 
38

>  <i_i_glide_rotatable_bonds>  (434) 
3

>  <r_i_docking_score>  (434) 
-2.04622

>  <r_i_glide_ligand_efficiency>  (434) 
-0.075786

>  <r_i_glide_ligand_efficiency_sa>  (434) 
-0.227358

>  <r_i_glide_ligand_efficiency_ln>  (434) 
-0.476327

>  <r_i_glide_gscore>  (434) 
-2.04622

>  <r_i_glide_lipo>  (434) 
-0.436009

>  <r_i_glide_hbond>  (434) 
-0.059312

>  <r_i_glide_metal>  (434) 
-0

>  <r_i_glide_rewards>  (434) 
-0.90295

>  <r_i_glide_evdw>  (434) 
-12.2468

>  <r_i_glide_ecoul>  (434) 
-3.03548

>  <r_i_glide_erotb>  (434) 
0.427667

>  <r_i_glide_esite>  (434) 
-0.0079581

>  <r_i_glide_emodel>  (434) 
-15.4015

>  <r_i_glide_energy>  (434) 
-15.2823

>  <r_i_glide_einternal>  (434) 
1.14316

>  <r_i_glide_intrahb_reward>  (434) 
-0

>  <i_i_glide_confnum>  (434) 
2

>  <i_i_glide_posenum>  (434) 
1

>  <r_i_glide_eff_state_penalty>  (434) 
0

>  <ligand_id>  (434) 
110

>  <original_smiles>  (434) 
CC1=CC2C3CC(NC(=O)C45CC6CC(CC(C6)C4)C5)C(C)(C2C1)C3(C)C

>  <smiles>  (434) 
[H]C1=C(C([H])([H])[H])C([H])([H])C2([H])C1([H])C1([H])C([H])([H])C([H])(N([H])C(=O)C34C([H])([H])C5([H])C([H])([H])C([H])(C([H])([H])C([H])(C5([H])[H])C3([H])[H])C4([H])[H])C2(C([H])([H])[H])C1(C([H])([H])[H])C([H])([H])[H]

$$$$
110:0:2
     RDKit          3D

 64 69  0  0  1  0  0  0  0  0999 V2000
    8.9956   -2.4939    0.2638 C   0  0  0  0  0  0  0  0  0  0  0  0
    7.6003   -2.5865   -0.2972 C   0  0  0  0  0  0  0  0  0  0  0  0
    7.2840   -2.8512   -1.5800 C   0  0  0  0  0  0  0  0  0  0  0  0
    5.7940   -2.9742   -1.6596 C   0  0  2  0  0  0  0  0  0  0  0  0
    4.7234   -2.6459   -2.7602 C   0  0  1  0  0  0  0  0  0  0  0  0
    3.6129   -3.5999   -2.3598 C   0  0  0  0  0  0  0  0  0  0  0  0
    3.1086   -3.0920   -0.9619 C   0  0  1  0  0  0  0  0  0  0  0  0
    3.3668   -4.0710    0.0751 N   0  0  0  0  0  0  0  0  0  0  0  0
    2.6053   -5.0960    0.4207 C   0  0  0  0  0  0  0  0  0  0  0  0
    1.5504   -5.4111   -0.1859 O   0  0  0  0  0  0  0  0  0  0  0  0
    3.0115   -5.9025    1.6529 C   0  0  1  0  0  0  0  0  0  0  0  0
    3.0814   -7.4097    1.2970 C   0  0  0  0  0  0  0  0  0  0  0  0
    3.4581   -8.2322    2.5422 C   0  0  2  0  0  0  0  0  0  0  0  0
    2.3924   -8.0185    3.6365 C   0  0  0  0  0  0  0  0  0  0  0  0
    2.3424   -6.5238    4.0156 C   0  0  1  0  0  0  0  0  0  0  0  0
    3.7199   -6.0501    4.5259 C   0  0  0  0  0  0  0  0  0  0  0  0
    4.7797   -6.2830    3.4310 C   0  0  1  0  0  0  0  0  0  0  0  0
    4.8396   -7.7784    3.0598 C   0  0  0  0  0  0  0  0  0  0  0  0
    4.4091   -5.4614    2.1923 C   0  0  0  0  0  0  0  0  0  0  0  0
    1.9524   -5.7010    2.7747 C   0  0  0  0  0  0  0  0  0  0  0  0
    3.8892   -1.7571   -0.7938 C   0  0  1  0  0  0  0  0  0  0  0  0
    3.3770   -0.7087    0.2672 C   0  0  0  0  0  0  0  0  0  0  0  0
    5.4155   -1.9763   -0.5868 C   0  0  1  0  0  0  0  0  0  0  0  0
    6.3582   -2.3412    0.5795 C   0  0  0  0  0  0  0  0  0  0  0  0
    3.9613   -1.3779   -2.3194 C   0  0  0  0  0  0  0  0  0  0  0  0
    4.7000   -0.1329   -2.6545 C   0  0  0  0  0  0  0  0  0  0  0  0
    2.6242   -1.1240   -3.0259 C   0  0  0  0  0  0  0  0  0  0  0  0
    9.1384   -3.2252    1.0571 H   0  0  0  0  0  0  0  0  0  0  0  0
    9.1840   -1.4868    0.6411 H   0  0  0  0  0  0  0  0  0  0  0  0
    9.7151   -2.7017   -0.5198 H   0  0  0  0  0  0  0  0  0  0  0  0
    7.9642   -3.0919   -2.3679 H   0  0  0  0  0  0  0  0  0  0  0  0
    5.7004   -4.0047   -1.3068 H   0  0  0  0  0  0  0  0  0  0  0  0
    5.0414   -2.7373   -3.8059 H   0  0  0  0  0  0  0  0  0  0  0  0
    2.7949   -3.6093   -3.0942 H   0  0  0  0  0  0  0  0  0  0  0  0
    4.1160   -4.5764   -2.3416 H   0  0  0  0  0  0  0  0  0  0  0  0
    2.0370   -2.8847   -0.9620 H   0  0  0  0  0  0  0  0  0  0  0  0
    4.2389   -3.9449    0.5822 H   0  0  0  0  0  0  0  0  0  0  0  0
    2.1156   -7.7526    0.9117 H   0  0  0  0  0  0  0  0  0  0  0  0
    3.8112   -7.5779    0.4991 H   0  0  0  0  0  0  0  0  0  0  0  0
    3.4956   -9.2875    2.2726 H   0  0  0  0  0  0  0  0  0  0  0  0
    1.4155   -8.3488    3.2778 H   0  0  0  0  0  0  0  0  0  0  0  0
    2.6210   -8.6252    4.5100 H   0  0  0  0  0  0  0  0  0  0  0  0
    1.5940   -6.3713    4.7918 H   0  0  0  0  0  0  0  0  0  0  0  0
    3.6759   -4.9909    4.7821 H   0  0  0  0  0  0  0  0  0  0  0  0
    3.9903   -6.5775    5.4371 H   0  0  0  0  0  0  0  0  0  0  0  0
    5.7553   -5.9593    3.7925 H   0  0  0  0  0  0  0  0  0  0  0  0
    5.1294   -8.3731    3.9242 H   0  0  0  0  0  0  0  0  0  0  0  0
    5.5971   -7.9471    2.2930 H   0  0  0  0  0  0  0  0  0  0  0  0
    5.1735   -5.5909    1.4249 H   0  0  0  0  0  0  0  0  0  0  0  0
    4.4051   -4.4045    2.4595 H   0  0  0  0  0  0  0  0  0  0  0  0
    1.8719   -4.6422    3.0311 H   0  0  0  0  0  0  0  0  0  0  0  0
    0.9645   -6.0061    2.4214 H   0  0  0  0  0  0  0  0  0  0  0  0
    3.8142    0.2901    0.1960 H   0  0  0  0  0  0  0  0  0  0  0  0
    3.4807   -1.0872    1.2812 H   0  0  0  0  0  0  0  0  0  0  0  0
    2.3389   -0.4297    0.1066 H   0  0  0  0  0  0  0  0  0  0  0  0
    5.7992   -0.9853   -0.7889 H   0  0  0  0  0  0  0  0  0  0  0  0
    6.0848   -3.2378    1.1427 H   0  0  0  0  0  0  0  0  0  0  0  0
    6.5018   -1.5001    1.2564 H   0  0  0  0  0  0  0  0  0  0  0  0
    4.5335    0.5351   -1.8938 H   0  0  0  0  0  0  0  0  0  0  0  0
    4.6150    0.2338   -3.6642 H   0  0  0  0  0  0  0  0  0  0  0  0
    5.7699   -0.4262   -2.6354 H   0  0  0  0  0  0  0  0  0  0  0  0
    2.2784   -0.1264   -2.7522 H   0  0  0  0  0  0  0  0  0  0  0  0
    1.8169   -1.8158   -2.7406 H   0  0  0  0  0  0  0  0  0  0  0  0
    2.7134   -1.1218   -4.1144 H   0  0  0  0  0  0  0  0  0  0  0  0
  1  2  1  0
  1 28  1  0
  1 29  1  0
  1 30  1  0
  2 24  1  0
  2  3  2  0
  3  4  1  0
  3 31  1  0
  4 23  1  0
  4  5  1  0
  4 32  1  1
  5 25  1  0
  5  6  1  0
  5 33  1  6
  6  7  1  0
  6 34  1  0
  6 35  1  0
  7  8  1  0
  7 21  1  0
  7 36  1  6
  8  9  1  0
  8 37  1  0
  9 10  2  0
 11  9  1  6
 11 19  1  0
 11 20  1  0
 11 12  1  0
 12 13  1  0
 12 38  1  0
 12 39  1  0
 13 18  1  0
 13 14  1  0
 13 40  1  6
 14 15  1  0
 14 41  1  0
 14 42  1  0
 15 16  1  0
 15 20  1  0
 15 43  1  1
 16 17  1  0
 16 44  1  0
 16 45  1  0
 17 18  1  0
 17 19  1  0
 17 46  1  1
 18 47  1  0
 18 48  1  0
 19 49  1  0
 19 50  1  0
 20 51  1  0
 20 52  1  0
 21 22  1  1
 21 23  1  0
 21 25  1  0
 22 53  1  0
 22 54  1  0
 22 55  1  0
 23 24  1  0
 23 56  1  6
 24 57  1  0
 24 58  1  0
 25 26  1  0
 25 27  1  0
 26 59  1  0
 26 60  1  0
 26 61  1  0
 27 62  1  0
 27 63  1  0
 27 64  1  0
M  END
>  <i_m_ct_stereo_status>  (435) 
1

>  <s_m_source_file>  (435) 
/var/tmp/pbs.5076255.sched01/tmpt95b3wv2/135g3gtwtb2.sdf

>  <i_m_source_file_index>  (435) 
38

>  <i_lp_mmshare_version>  (435) 
48012

>  <i_f3d_flags>  (435) 
0

>  <s_epik_input>  (435) 
W0NIM11DKFtDSDJdMSk9W0NIXVtDQEBIXShbQ0BIXTFbQ0BdMjNbQ0gzXSlbQ0BIXShDMyhbQ0gzXSlbQ0gzXSlbQ0gyXVtDQEhdMltOSF1DKD1PKUM0NVtDSDJdW0NAQEhdNltDSDJdW0NASF0oW0NIMl01KVtDSDJdW0NAQEhdKFtDSDJdNilbQ0gyXTQ=

>  <s_epik_cmdline>  (435) 
J2VwaWtfcHl0aG9uJywgJy1waHQnLCAnMi4wJywgJy1waCcsICc3LjAnLCAnLXRuJywgJzgnLCAnLW1hJywgJzIwMCcsICctaW1hZScsICc8aW5maWxlLm1hZT4nLCAnLW9tYWUnLCAnPG91dGZpbGUubWFlPic=

>  <r_lp_tautomer_probability>  (435) 
1

>  <r_epik_Ionization_Penalty>  (435) 
2.06891e-07

>  <r_epik_Ionization_Penalty_Charging>  (435) 
0

>  <r_epik_Ionization_Penalty_Neutral>  (435) 
2.06891e-07

>  <r_epik_State_Penalty>  (435) 
-0

>  <r_epik_Charging_Adjusted_Penalty>  (435) 
0

>  <i_epik_Tot_Q>  (435) 
0

>  <i_epik_Tot_abs_Q>  (435) 
0

>  <s_lp_Force_Field>  (435) 
OPLS3e

>  <r_lp_Energy>  (435) 
67.7678

>  <b_lp_Chiralities_Consistent>  (435) 
1

>  <s_lp_Variant>  (435) 
110:0-1

>  <s_i_glide_gridfile>  (435) 
pfpi4k_grid

>  <i_i_glide_lignum>  (435) 
38

>  <i_i_glide_rotatable_bonds>  (435) 
3

>  <r_i_docking_score>  (435) 
-1.48355

>  <r_i_glide_ligand_efficiency>  (435) 
-0.0549462

>  <r_i_glide_ligand_efficiency_sa>  (435) 
-0.164839

>  <r_i_glide_ligand_efficiency_ln>  (435) 
-0.345345

>  <r_i_glide_gscore>  (435) 
-1.48355

>  <r_i_glide_lipo>  (435) 
-0.336769

>  <r_i_glide_hbond>  (435) 
-0.114795

>  <r_i_glide_metal>  (435) 
-0

>  <r_i_glide_rewards>  (435) 
-0.90295

>  <r_i_glide_evdw>  (435) 
1.92463

>  <r_i_glide_ecoul>  (435) 
-3.99824

>  <r_i_glide_erotb>  (435) 
0.427667

>  <r_i_glide_esite>  (435) 
-0.0570342

>  <r_i_glide_emodel>  (435) 
0.891031

>  <r_i_glide_energy>  (435) 
-2.07361

>  <r_i_glide_einternal>  (435) 
0.469094

>  <r_i_glide_intrahb_reward>  (435) 
-0

>  <i_i_glide_confnum>  (435) 
6

>  <i_i_glide_posenum>  (435) 
13

>  <r_i_glide_eff_state_penalty>  (435) 
0

>  <ligand_id>  (435) 
110

>  <original_smiles>  (435) 
CC1=CC2C3CC(NC(=O)C45CC6CC(CC(C6)C4)C5)C(C)(C2C1)C3(C)C

>  <smiles>  (435) 
[H]C1=C(C([H])([H])[H])C([H])([H])C2([H])C1([H])C1([H])C([H])([H])C([H])(N([H])C(=O)C34C([H])([H])C5([H])C([H])([H])C([H])(C([H])([H])C([H])(C5([H])[H])C3([H])[H])C4([H])[H])C2(C([H])([H])[H])C1(C([H])([H])[H])C([H])([H])[H]

$$$$
111:0:0
     RDKit          3D

 18 19  0  0  1  0  0  0  0  0999 V2000
    0.6181   -6.2548    0.4817 O   0  0  0  0  0  0  0  0  0  0  0  0
    1.7871   -5.8882    0.7564 C   0  0  0  0  0  0  0  0  0  0  0  0
    2.3997   -5.0056    0.1216 O   0  0  0  0  0  0  0  0  0  0  0  0
    2.4983   -6.4498    1.9937 C   0  0  0  0  0  0  0  0  0  0  0  0
    1.8851   -7.7728    2.4304 C   0  0  0  0  0  0  0  0  0  0  0  0
    2.6009   -8.9009    2.2026 N   0  0  0  0  0  0  0  0  0  0  0  0
    2.1103  -10.0843    2.5895 C   0  0  0  0  0  0  0  0  0  0  0  0
    0.9557  -10.3464    3.2143 N   0  0  0  0  0  0  0  0  0  0  0  0
    0.2496   -9.2065    3.4496 C   0  0  0  0  0  0  0  0  0  0  0  0
   -0.9739   -9.0561    4.0713 N   0  0  0  0  0  0  0  0  0  0  0  0
   -1.2274   -7.7409    4.0707 C   0  0  0  0  0  0  0  0  0  0  0  0
   -0.3075   -6.9518    3.5168 N   0  0  0  0  0  0  0  0  0  0  0  0
    0.6408   -7.8816    3.1036 C   0  0  0  0  0  0  0  0  0  0  0  0
   -1.5493   -9.8083    4.4826 H   0  0  0  0  0  0  0  0  0  0  0  0
    3.5573   -6.5803    1.7586 H   0  0  0  0  0  0  0  0  0  0  0  0
    2.4318   -5.7263    2.8070 H   0  0  0  0  0  0  0  0  0  0  0  0
    2.7315  -10.9423    2.3612 H   0  0  0  0  0  0  0  0  0  0  0  0
   -2.1254   -7.3288    4.4976 H   0  0  0  0  0  0  0  0  0  0  0  0
  1  2  2  0
  2  3  1  0
  2  4  1  0
  4  5  1  0
  4 15  1  0
  4 16  1  0
  5 13  2  0
  5  6  1  0
  6  7  2  0
  7  8  1  0
  7 17  1  0
  8  9  2  0
  9 13  1  0
  9 10  1  0
 10 14  1  0
 10 11  1  0
 11 12  2  0
 11 18  1  0
 12 13  1  0
M  CHG  1   3  -1
M  END
>  <i_m_ct_stereo_status>  (436) 
1

>  <s_m_source_file>  (436) 
/var/tmp/pbs.5076255.sched01/tmpt95b3wv2/135g3gtwtb2.sdf

>  <i_m_source_file_index>  (436) 
39

>  <i_lp_mmshare_version>  (436) 
48012

>  <i_f3d_flags>  (436) 
0

>  <s_epik_input>  (436) 
Tz1DKFtPSF0pW0NIMl1jKG5bY0hdbjEpYyhjMTIpbltjSF1bbkhdMg==

>  <s_epik_cmdline>  (436) 
J2VwaWtfcHl0aG9uJywgJy1waHQnLCAnMi4wJywgJy1waCcsICc3LjAnLCAnLXRuJywgJzgnLCAnLW1hJywgJzIwMCcsICctaW1hZScsICc8aW5maWxlLm1hZT4nLCAnLW9tYWUnLCAnPG91dGZpbGUubWFlPic=

>  <r_lp_tautomer_probability>  (436) 
0.605878

>  <r_epik_Ionization_Penalty>  (436) 
0.0025357

>  <r_epik_Ionization_Penalty_Charging>  (436) 
0.000107379

>  <r_epik_Ionization_Penalty_Neutral>  (436) 
0.00242832

>  <r_epik_State_Penalty>  (436) 
0.289684

>  <r_epik_Charging_Adjusted_Penalty>  (436) 
0.289791

>  <i_epik_Tot_Q>  (436) 
-1

>  <i_epik_Tot_abs_Q>  (436) 
1

>  <s_lp_Force_Field>  (436) 
OPLS3e

>  <r_lp_Energy>  (436) 
12.4003

>  <b_lp_Chiralities_Consistent>  (436) 
1

>  <s_lp_Variant>  (436) 
111:0-1

>  <s_i_glide_gridfile>  (436) 
pfpi4k_grid

>  <i_i_glide_lignum>  (436) 
39

>  <i_i_glide_rotatable_bonds>  (436) 
2

>  <r_i_docking_score>  (436) 
-4.77433

>  <r_i_glide_ligand_efficiency>  (436) 
-0.367256

>  <r_i_glide_ligand_efficiency_sa>  (436) 
-0.863541

>  <r_i_glide_ligand_efficiency_ln>  (436) 
-1.33924

>  <r_i_glide_gscore>  (436) 
-4.77433

>  <r_i_glide_lipo>  (436) 
0

>  <r_i_glide_hbond>  (436) 
-0.415894

>  <r_i_glide_metal>  (436) 
-0

>  <r_i_glide_rewards>  (436) 
-2.29527

>  <r_i_glide_evdw>  (436) 
-13.0409

>  <r_i_glide_ecoul>  (436) 
-7.60719

>  <r_i_glide_erotb>  (436) 
0

>  <r_i_glide_esite>  (436) 
-0.270038

>  <r_i_glide_emodel>  (436) 
-31.4072

>  <r_i_glide_energy>  (436) 
-20.6481

>  <r_i_glide_einternal>  (436) 
0.267976

>  <r_i_glide_intrahb_reward>  (436) 
-0

>  <i_i_glide_confnum>  (436) 
1

>  <i_i_glide_posenum>  (436) 
16

>  <r_i_glide_eff_state_penalty>  (436) 
0

>  <ligand_id>  (436) 
111

>  <original_smiles>  (436) 
O=C(O)Cc1ncnc2[nH]cnc12

>  <smiles>  (436) 
[H]c1nc(C([H])([H])C(=O)[O-])c2nc([H])n([H])c2n1

$$$$
111:0:1
     RDKit          3D

 18 19  0  0  1  0  0  0  0  0999 V2000
   -1.8236    0.5443    6.7872 O   0  0  0  0  0  0  0  0  0  0  0  0
   -1.7810   -0.0407    5.6802 C   0  0  0  0  0  0  0  0  0  0  0  0
   -1.8804   -1.2830    5.5521 O   0  0  0  0  0  0  0  0  0  0  0  0
   -1.7204    0.8065    4.3973 C   0  0  0  0  0  0  0  0  0  0  0  0
   -0.4408    1.6347    4.3340 C   0  0  0  0  0  0  0  0  0  0  0  0
   -0.3447    2.7423    5.1136 N   0  0  0  0  0  0  0  0  0  0  0  0
    0.7624    3.4883    5.0706 C   0  0  0  0  0  0  0  0  0  0  0  0
    1.8501    3.3379    4.3060 N   0  0  0  0  0  0  0  0  0  0  0  0
    1.7188    2.2615    3.4837 C   0  0  0  0  0  0  0  0  0  0  0  0
    2.6112    1.7847    2.5416 N   0  0  0  0  0  0  0  0  0  0  0  0
    2.0228    0.6996    2.0031 C   0  0  0  0  0  0  0  0  0  0  0  0
    0.8314    0.3598    2.4940 N   0  0  0  0  0  0  0  0  0  0  0  0
    0.6222    1.3528    3.4386 C   0  0  0  0  0  0  0  0  0  0  0  0
    3.5211    2.1698    2.3089 H   0  0  0  0  0  0  0  0  0  0  0  0
   -1.7775    0.1587    3.5233 H   0  0  0  0  0  0  0  0  0  0  0  0
   -2.5849    1.4680    4.3555 H   0  0  0  0  0  0  0  0  0  0  0  0
    0.7772    4.3179    5.7610 H   0  0  0  0  0  0  0  0  0  0  0  0
    2.4988    0.1215    1.2290 H   0  0  0  0  0  0  0  0  0  0  0  0
  1  2  2  0
  2  3  1  0
  2  4  1  0
  4  5  1  0
  4 15  1  0
  4 16  1  0
  5 13  2  0
  5  6  1  0
  6  7  2  0
  7  8  1  0
  7 17  1  0
  8  9  2  0
  9 13  1  0
  9 10  1  0
 10 14  1  0
 10 11  1  0
 11 12  2  0
 11 18  1  0
 12 13  1  0
M  CHG  1   3  -1
M  END
>  <i_m_ct_stereo_status>  (437) 
1

>  <s_m_source_file>  (437) 
/var/tmp/pbs.5076255.sched01/tmpt95b3wv2/135g3gtwtb2.sdf

>  <i_m_source_file_index>  (437) 
39

>  <i_lp_mmshare_version>  (437) 
48012

>  <i_f3d_flags>  (437) 
0

>  <s_epik_input>  (437) 
Tz1DKFtPSF0pW0NIMl1jKG5bY0hdbjEpYyhjMTIpbltjSF1bbkhdMg==

>  <s_epik_cmdline>  (437) 
J2VwaWtfcHl0aG9uJywgJy1waHQnLCAnMi4wJywgJy1waCcsICc3LjAnLCAnLXRuJywgJzgnLCAnLW1hJywgJzIwMCcsICctaW1hZScsICc8aW5maWxlLm1hZT4nLCAnLW9tYWUnLCAnPG91dGZpbGUubWFlPic=

>  <r_lp_tautomer_probability>  (437) 
0.605878

>  <r_epik_Ionization_Penalty>  (437) 
0.0025357

>  <r_epik_Ionization_Penalty_Charging>  (437) 
0.000107379

>  <r_epik_Ionization_Penalty_Neutral>  (437) 
0.00242832

>  <r_epik_State_Penalty>  (437) 
0.289684

>  <r_epik_Charging_Adjusted_Penalty>  (437) 
0.289791

>  <i_epik_Tot_Q>  (437) 
-1

>  <i_epik_Tot_abs_Q>  (437) 
1

>  <s_lp_Force_Field>  (437) 
OPLS3e

>  <r_lp_Energy>  (437) 
12.4003

>  <b_lp_Chiralities_Consistent>  (437) 
1

>  <s_lp_Variant>  (437) 
111:0-1

>  <s_i_glide_gridfile>  (437) 
pfpi4k_grid

>  <i_i_glide_lignum>  (437) 
39

>  <i_i_glide_rotatable_bonds>  (437) 
2

>  <r_i_docking_score>  (437) 
-4.53186

>  <r_i_glide_ligand_efficiency>  (437) 
-0.348604

>  <r_i_glide_ligand_efficiency_sa>  (437) 
-0.819685

>  <r_i_glide_ligand_efficiency_ln>  (437) 
-1.27123

>  <r_i_glide_gscore>  (437) 
-4.53186

>  <r_i_glide_lipo>  (437) 
0

>  <r_i_glide_hbond>  (437) 
-0.52

>  <r_i_glide_metal>  (437) 
-0

>  <r_i_glide_rewards>  (437) 
-2.20132

>  <r_i_glide_evdw>  (437) 
-12.58

>  <r_i_glide_ecoul>  (437) 
-6.89133

>  <r_i_glide_erotb>  (437) 
0

>  <r_i_glide_esite>  (437) 
-0.147839

>  <r_i_glide_emodel>  (437) 
-29.4799

>  <r_i_glide_energy>  (437) 
-19.4713

>  <r_i_glide_einternal>  (437) 
0.83061

>  <r_i_glide_intrahb_reward>  (437) 
-0

>  <i_i_glide_confnum>  (437) 
1

>  <i_i_glide_posenum>  (437) 
19

>  <r_i_glide_eff_state_penalty>  (437) 
0

>  <ligand_id>  (437) 
111

>  <original_smiles>  (437) 
O=C(O)Cc1ncnc2[nH]cnc12

>  <smiles>  (437) 
[H]c1nc(C([H])([H])C(=O)[O-])c2nc([H])n([H])c2n1

$$$$
111:0:2
     RDKit          3D

 18 19  0  0  1  0  0  0  0  0999 V2000
    1.3404   -5.0294    2.8767 O   0  0  0  0  0  0  0  0  0  0  0  0
    2.2526   -5.2971    2.0670 C   0  0  0  0  0  0  0  0  0  0  0  0
    3.2975   -4.6220    1.9240 O   0  0  0  0  0  0  0  0  0  0  0  0
    2.0767   -6.4935    1.1219 C   0  0  0  0  0  0  0  0  0  0  0  0
    1.6242   -7.7480    1.8701 C   0  0  0  0  0  0  0  0  0  0  0  0
    2.4834   -8.7985    1.8818 N   0  0  0  0  0  0  0  0  0  0  0  0
    2.1316   -9.9383    2.4837 C   0  0  0  0  0  0  0  0  0  0  0  0
    1.0048  -10.2184    3.1420 N   0  0  0  0  0  0  0  0  0  0  0  0
    0.1438   -9.1675    3.1185 C   0  0  0  0  0  0  0  0  0  0  0  0
   -1.1040   -9.0602    3.6899 N   0  0  0  0  0  0  0  0  0  0  0  0
   -1.5616   -7.8413    3.3633 C   0  0  0  0  0  0  0  0  0  0  0  0
   -0.7738   -7.0953    2.5907 N   0  0  0  0  0  0  0  0  0  0  0  0
    0.3496   -7.9119    2.4748 C   0  0  0  0  0  0  0  0  0  0  0  0
   -1.5702   -9.7832    4.2562 H   0  0  0  0  0  0  0  0  0  0  0  0
    1.3475   -6.2599    0.3508 H   0  0  0  0  0  0  0  0  0  0  0  0
    3.0221   -6.6735    0.6119 H   0  0  0  0  0  0  0  0  0  0  0  0
    2.8644  -10.7288    2.4445 H   0  0  0  0  0  0  0  0  0  0  0  0
   -2.5205   -7.4671    3.7077 H   0  0  0  0  0  0  0  0  0  0  0  0
  1  2  2  0
  2  3  1  0
  2  4  1  0
  4  5  1  0
  4 15  1  0
  4 16  1  0
  5 13  2  0
  5  6  1  0
  6  7  2  0
  7  8  1  0
  7 17  1  0
  8  9  2  0
  9 13  1  0
  9 10  1  0
 10 14  1  0
 10 11  1  0
 11 12  2  0
 11 18  1  0
 12 13  1  0
M  CHG  1   3  -1
M  END
>  <i_m_ct_stereo_status>  (438) 
1

>  <s_m_source_file>  (438) 
/var/tmp/pbs.5076255.sched01/tmpt95b3wv2/135g3gtwtb2.sdf

>  <i_m_source_file_index>  (438) 
39

>  <i_lp_mmshare_version>  (438) 
48012

>  <i_f3d_flags>  (438) 
0

>  <s_epik_input>  (438) 
Tz1DKFtPSF0pW0NIMl1jKG5bY0hdbjEpYyhjMTIpbltjSF1bbkhdMg==

>  <s_epik_cmdline>  (438) 
J2VwaWtfcHl0aG9uJywgJy1waHQnLCAnMi4wJywgJy1waCcsICc3LjAnLCAnLXRuJywgJzgnLCAnLW1hJywgJzIwMCcsICctaW1hZScsICc8aW5maWxlLm1hZT4nLCAnLW9tYWUnLCAnPG91dGZpbGUubWFlPic=

>  <r_lp_tautomer_probability>  (438) 
0.605878

>  <r_epik_Ionization_Penalty>  (438) 
0.0025357

>  <r_epik_Ionization_Penalty_Charging>  (438) 
0.000107379

>  <r_epik_Ionization_Penalty_Neutral>  (438) 
0.00242832

>  <r_epik_State_Penalty>  (438) 
0.289684

>  <r_epik_Charging_Adjusted_Penalty>  (438) 
0.289791

>  <i_epik_Tot_Q>  (438) 
-1

>  <i_epik_Tot_abs_Q>  (438) 
1

>  <s_lp_Force_Field>  (438) 
OPLS3e

>  <r_lp_Energy>  (438) 
12.4003

>  <b_lp_Chiralities_Consistent>  (438) 
1

>  <s_lp_Variant>  (438) 
111:0-1

>  <s_i_glide_gridfile>  (438) 
pfpi4k_grid

>  <i_i_glide_lignum>  (438) 
39

>  <i_i_glide_rotatable_bonds>  (438) 
2

>  <r_i_docking_score>  (438) 
-4.29637

>  <r_i_glide_ligand_efficiency>  (438) 
-0.33049

>  <r_i_glide_ligand_efficiency_sa>  (438) 
-0.777093

>  <r_i_glide_ligand_efficiency_ln>  (438) 
-1.20517

>  <r_i_glide_gscore>  (438) 
-4.29637

>  <r_i_glide_lipo>  (438) 
0

>  <r_i_glide_hbond>  (438) 
-0.317604

>  <r_i_glide_metal>  (438) 
-0

>  <r_i_glide_rewards>  (438) 
-2.29332

>  <r_i_glide_evdw>  (438) 
-16.3904

>  <r_i_glide_ecoul>  (438) 
-4.29464

>  <r_i_glide_erotb>  (438) 
0

>  <r_i_glide_esite>  (438) 
-0.22173

>  <r_i_glide_emodel>  (438) 
-29.9548

>  <r_i_glide_energy>  (438) 
-20.6851

>  <r_i_glide_einternal>  (438) 
0.453032

>  <r_i_glide_intrahb_reward>  (438) 
-0

>  <i_i_glide_confnum>  (438) 
1

>  <i_i_glide_posenum>  (438) 
34

>  <r_i_glide_eff_state_penalty>  (438) 
0

>  <ligand_id>  (438) 
111

>  <original_smiles>  (438) 
O=C(O)Cc1ncnc2[nH]cnc12

>  <smiles>  (438) 
[H]c1nc(C([H])([H])C(=O)[O-])c2nc([H])n([H])c2n1

$$$$
111:1:0
     RDKit          3D

 18 19  0  0  1  0  0  0  0  0999 V2000
   -2.2265    0.2160    6.4798 O   0  0  0  0  0  0  0  0  0  0  0  0
   -1.8338   -0.5955    5.6138 C   0  0  0  0  0  0  0  0  0  0  0  0
   -2.0736   -1.8212    5.6815 O   0  0  0  0  0  0  0  0  0  0  0  0
   -1.0047   -0.1064    4.4182 C   0  0  0  0  0  0  0  0  0  0  0  0
   -0.6628    1.3719    4.5476 C   0  0  0  0  0  0  0  0  0  0  0  0
    0.4200    1.7040    5.2841 N   0  0  0  0  0  0  0  0  0  0  0  0
    0.7043    3.0035    5.4192 C   0  0  0  0  0  0  0  0  0  0  0  0
    0.0792    4.0672    4.8996 N   0  0  0  0  0  0  0  0  0  0  0  0
   -0.9609    3.7384    4.1299 C   0  0  0  0  0  0  0  0  0  0  0  0
   -1.7855    4.6341    3.4738 N   0  0  0  0  0  0  0  0  0  0  0  0
   -2.6510    3.8257    2.8779 C   0  0  0  0  0  0  0  0  0  0  0  0
   -2.5076    2.5148    3.1127 N   0  0  0  0  0  0  0  0  0  0  0  0
   -1.3948    2.3988    3.9284 C   0  0  0  0  0  0  0  0  0  0  0  0
   -3.1072    1.7813    2.7555 H   0  0  0  0  0  0  0  0  0  0  0  0
   -0.0807   -0.6917    4.3591 H   0  0  0  0  0  0  0  0  0  0  0  0
   -1.5581   -0.2646    3.4921 H   0  0  0  0  0  0  0  0  0  0  0  0
    1.5641    3.2175    6.0401 H   0  0  0  0  0  0  0  0  0  0  0  0
   -3.4422    4.2283    2.2661 H   0  0  0  0  0  0  0  0  0  0  0  0
  1  2  2  0
  2  3  1  0
  2  4  1  0
  4 15  1  0
  4 16  1  0
  4  5  1  0
  5  6  2  0
  5 13  1  0
  6  7  1  0
  7 17  1  0
  7  8  2  0
  8  9  1  0
  9 10  1  0
  9 13  2  0
 10 11  2  0
 11 18  1  0
 11 12  1  0
 12 14  1  0
 12 13  1  0
M  CHG  1   3  -1
M  END
>  <i_m_ct_stereo_status>  (439) 
1

>  <s_m_source_file>  (439) 
/var/tmp/pbs.5076255.sched01/tmpt95b3wv2/135g3gtwtb2.sdf

>  <i_m_source_file_index>  (439) 
40

>  <i_lp_mmshare_version>  (439) 
48012

>  <i_f3d_flags>  (439) 
0

>  <s_epik_input>  (439) 
Tz1DKFtPSF0pW0NIMl1jKG5bY0hdbjEpYyhjMTIpbltjSF1bbkhdMg==

>  <s_epik_cmdline>  (439) 
J2VwaWtfcHl0aG9uJywgJy1waHQnLCAnMi4wJywgJy1waCcsICc3LjAnLCAnLXRuJywgJzgnLCAnLW1hJywgJzIwMCcsICctaW1hZScsICc8aW5maWxlLm1hZT4nLCAnLW9tYWUnLCAnPG91dGZpbGUubWFlPic=

>  <r_lp_tautomer_probability>  (439) 
0.393285

>  <r_epik_Ionization_Penalty>  (439) 
0.00218511

>  <r_epik_Ionization_Penalty_Charging>  (439) 
0.000378556

>  <r_epik_Ionization_Penalty_Neutral>  (439) 
0.00180655

>  <r_epik_State_Penalty>  (439) 
0.562897

>  <r_epik_Charging_Adjusted_Penalty>  (439) 
0.563276

>  <i_epik_Tot_Q>  (439) 
-1

>  <i_epik_Tot_abs_Q>  (439) 
1

>  <s_lp_Force_Field>  (439) 
OPLS3e

>  <r_lp_Energy>  (439) 
12.2186

>  <b_lp_Chiralities_Consistent>  (439) 
1

>  <s_lp_Variant>  (439) 
111:0-2

>  <s_i_glide_gridfile>  (439) 
pfpi4k_grid

>  <i_i_glide_lignum>  (439) 
40

>  <i_i_glide_rotatable_bonds>  (439) 
2

>  <r_i_docking_score>  (439) 
-5.49091

>  <r_i_glide_ligand_efficiency>  (439) 
-0.422378

>  <r_i_glide_ligand_efficiency_sa>  (439) 
-0.993151

>  <r_i_glide_ligand_efficiency_ln>  (439) 
-1.54025

>  <r_i_glide_gscore>  (439) 
-5.49091

>  <r_i_glide_lipo>  (439) 
0

>  <r_i_glide_hbond>  (439) 
-0.68

>  <r_i_glide_metal>  (439) 
-0

>  <r_i_glide_rewards>  (439) 
-2.20132

>  <r_i_glide_evdw>  (439) 
-9.65022

>  <r_i_glide_ecoul>  (439) 
-12.5883

>  <r_i_glide_erotb>  (439) 
0

>  <r_i_glide_esite>  (439) 
-0.238832

>  <r_i_glide_emodel>  (439) 
-35.7915

>  <r_i_glide_energy>  (439) 
-22.2386

>  <r_i_glide_einternal>  (439) 
0.57392

>  <r_i_glide_intrahb_reward>  (439) 
-0

>  <i_i_glide_confnum>  (439) 
2

>  <i_i_glide_posenum>  (439) 
17

>  <r_i_glide_eff_state_penalty>  (439) 
0

>  <ligand_id>  (439) 
111

>  <original_smiles>  (439) 
O=C(O)Cc1ncnc2[nH]cnc12

>  <smiles>  (439) 
[H]c1nc(C([H])([H])C(=O)[O-])c2c(n1)nc([H])n2[H]

$$$$
111:1:1
     RDKit          3D

 18 19  0  0  1  0  0  0  0  0999 V2000
    3.8369   -1.3546   -4.7127 O   0  0  0  0  0  0  0  0  0  0  0  0
    4.2096   -1.8840   -3.6440 C   0  0  0  0  0  0  0  0  0  0  0  0
    4.5308   -3.0896   -3.5306 O   0  0  0  0  0  0  0  0  0  0  0  0
    4.2998   -0.9550   -2.4261 C   0  0  0  0  0  0  0  0  0  0  0  0
    4.9801   -1.6189   -1.2339 C   0  0  0  0  0  0  0  0  0  0  0  0
    6.3088   -1.8544   -1.2848 N   0  0  0  0  0  0  0  0  0  0  0  0
    6.8841   -2.4673   -0.2428 C   0  0  0  0  0  0  0  0  0  0  0  0
    6.3439   -2.8339    0.9222 N   0  0  0  0  0  0  0  0  0  0  0  0
    5.0371   -2.5521    1.0056 C   0  0  0  0  0  0  0  0  0  0  0  0
    4.2302   -2.8032    2.1015 N   0  0  0  0  0  0  0  0  0  0  0  0
    3.0570   -2.3387    1.6823 C   0  0  0  0  0  0  0  0  0  0  0  0
    3.0164   -1.8110    0.4488 N   0  0  0  0  0  0  0  0  0  0  0  0
    4.3004   -1.9323   -0.0466 C   0  0  0  0  0  0  0  0  0  0  0  0
    2.1628   -1.4560   -0.0151 H   0  0  0  0  0  0  0  0  0  0  0  0
    4.8646   -0.0651   -2.7010 H   0  0  0  0  0  0  0  0  0  0  0  0
    3.2950   -0.6361   -2.1608 H   0  0  0  0  0  0  0  0  0  0  0  0
    7.9450   -2.6602   -0.3579 H   0  0  0  0  0  0  0  0  0  0  0  0
    2.1932   -2.4195    2.3199 H   0  0  0  0  0  0  0  0  0  0  0  0
  1  2  2  0
  2  3  1  0
  2  4  1  0
  4 15  1  0
  4 16  1  0
  4  5  1  0
  5  6  2  0
  5 13  1  0
  6  7  1  0
  7 17  1  0
  7  8  2  0
  8  9  1  0
  9 10  1  0
  9 13  2  0
 10 11  2  0
 11 18  1  0
 11 12  1  0
 12 14  1  0
 12 13  1  0
M  CHG  1   3  -1
M  END
>  <i_m_ct_stereo_status>  (440) 
1

>  <s_m_source_file>  (440) 
/var/tmp/pbs.5076255.sched01/tmpt95b3wv2/135g3gtwtb2.sdf

>  <i_m_source_file_index>  (440) 
40

>  <i_lp_mmshare_version>  (440) 
48012

>  <i_f3d_flags>  (440) 
0

>  <s_epik_input>  (440) 
Tz1DKFtPSF0pW0NIMl1jKG5bY0hdbjEpYyhjMTIpbltjSF1bbkhdMg==

>  <s_epik_cmdline>  (440) 
J2VwaWtfcHl0aG9uJywgJy1waHQnLCAnMi4wJywgJy1waCcsICc3LjAnLCAnLXRuJywgJzgnLCAnLW1hJywgJzIwMCcsICctaW1hZScsICc8aW5maWxlLm1hZT4nLCAnLW9tYWUnLCAnPG91dGZpbGUubWFlPic=

>  <r_lp_tautomer_probability>  (440) 
0.393285

>  <r_epik_Ionization_Penalty>  (440) 
0.00218511

>  <r_epik_Ionization_Penalty_Charging>  (440) 
0.000378556

>  <r_epik_Ionization_Penalty_Neutral>  (440) 
0.00180655

>  <r_epik_State_Penalty>  (440) 
0.562897

>  <r_epik_Charging_Adjusted_Penalty>  (440) 
0.563276

>  <i_epik_Tot_Q>  (440) 
-1

>  <i_epik_Tot_abs_Q>  (440) 
1

>  <s_lp_Force_Field>  (440) 
OPLS3e

>  <r_lp_Energy>  (440) 
12.2186

>  <b_lp_Chiralities_Consistent>  (440) 
1

>  <s_lp_Variant>  (440) 
111:0-2

>  <s_i_glide_gridfile>  (440) 
pfpi4k_grid

>  <i_i_glide_lignum>  (440) 
40

>  <i_i_glide_rotatable_bonds>  (440) 
2

>  <r_i_docking_score>  (440) 
-5.14692

>  <r_i_glide_ligand_efficiency>  (440) 
-0.395917

>  <r_i_glide_ligand_efficiency_sa>  (440) 
-0.930933

>  <r_i_glide_ligand_efficiency_ln>  (440) 
-1.44376

>  <r_i_glide_gscore>  (440) 
-5.14692

>  <r_i_glide_lipo>  (440) 
0

>  <r_i_glide_hbond>  (440) 
-0.472458

>  <r_i_glide_metal>  (440) 
-0

>  <r_i_glide_rewards>  (440) 
-2.49632

>  <r_i_glide_evdw>  (440) 
-14.4981

>  <r_i_glide_ecoul>  (440) 
-9.08079

>  <r_i_glide_erotb>  (440) 
0

>  <r_i_glide_esite>  (440) 
-0.0911166

>  <r_i_glide_emodel>  (440) 
-36.1125

>  <r_i_glide_energy>  (440) 
-23.5789

>  <r_i_glide_einternal>  (440) 
0.764734

>  <r_i_glide_intrahb_reward>  (440) 
-0

>  <i_i_glide_confnum>  (440) 
2

>  <i_i_glide_posenum>  (440) 
3

>  <r_i_glide_eff_state_penalty>  (440) 
0

>  <ligand_id>  (440) 
111

>  <original_smiles>  (440) 
O=C(O)Cc1ncnc2[nH]cnc12

>  <smiles>  (440) 
[H]c1nc(C([H])([H])C(=O)[O-])c2c(n1)nc([H])n2[H]

$$$$
111:1:2
     RDKit          3D

 18 19  0  0  1  0  0  0  0  0999 V2000
    0.1244   -1.3718    5.9642 O   0  0  0  0  0  0  0  0  0  0  0  0
   -1.0814   -1.5259    5.6671 C   0  0  0  0  0  0  0  0  0  0  0  0
   -1.8159   -2.4526    6.0825 O   0  0  0  0  0  0  0  0  0  0  0  0
   -1.7474   -0.4974    4.7545 C   0  0  0  0  0  0  0  0  0  0  0  0
   -1.7796    0.8767    5.4138 C   0  0  0  0  0  0  0  0  0  0  0  0
   -2.1088    0.9745    6.7294 N   0  0  0  0  0  0  0  0  0  0  0  0
   -2.1251    2.1909    7.2876 C   0  0  0  0  0  0  0  0  0  0  0  0
   -1.9095    3.3808    6.7119 N   0  0  0  0  0  0  0  0  0  0  0  0
   -1.6372    3.2956    5.4040 C   0  0  0  0  0  0  0  0  0  0  0  0
   -1.4054    4.3756    4.5661 N   0  0  0  0  0  0  0  0  0  0  0  0
   -1.2096    3.7751    3.3991 C   0  0  0  0  0  0  0  0  0  0  0  0
   -1.2878    2.4354    3.3855 N   0  0  0  0  0  0  0  0  0  0  0  0
   -1.5618    2.0631    4.6953 C   0  0  0  0  0  0  0  0  0  0  0  0
   -1.1506    1.8766    2.5524 H   0  0  0  0  0  0  0  0  0  0  0  0
   -1.2035   -0.4595    3.8109 H   0  0  0  0  0  0  0  0  0  0  0  0
   -2.7670   -0.8051    4.5199 H   0  0  0  0  0  0  0  0  0  0  0  0
   -2.3184    2.2086    8.3485 H   0  0  0  0  0  0  0  0  0  0  0  0
   -0.9962    4.3611    2.5206 H   0  0  0  0  0  0  0  0  0  0  0  0
  1  2  2  0
  2  3  1  0
  2  4  1  0
  4 15  1  0
  4 16  1  0
  4  5  1  0
  5  6  2  0
  5 13  1  0
  6  7  1  0
  7 17  1  0
  7  8  2  0
  8  9  1  0
  9 10  1  0
  9 13  2  0
 10 11  2  0
 11 18  1  0
 11 12  1  0
 12 14  1  0
 12 13  1  0
M  CHG  1   3  -1
M  END
>  <i_m_ct_stereo_status>  (441) 
1

>  <s_m_source_file>  (441) 
/var/tmp/pbs.5076255.sched01/tmpt95b3wv2/135g3gtwtb2.sdf

>  <i_m_source_file_index>  (441) 
40

>  <i_lp_mmshare_version>  (441) 
48012

>  <i_f3d_flags>  (441) 
0

>  <s_epik_input>  (441) 
Tz1DKFtPSF0pW0NIMl1jKG5bY0hdbjEpYyhjMTIpbltjSF1bbkhdMg==

>  <s_epik_cmdline>  (441) 
J2VwaWtfcHl0aG9uJywgJy1waHQnLCAnMi4wJywgJy1waCcsICc3LjAnLCAnLXRuJywgJzgnLCAnLW1hJywgJzIwMCcsICctaW1hZScsICc8aW5maWxlLm1hZT4nLCAnLW9tYWUnLCAnPG91dGZpbGUubWFlPic=

>  <r_lp_tautomer_probability>  (441) 
0.393285

>  <r_epik_Ionization_Penalty>  (441) 
0.00218511

>  <r_epik_Ionization_Penalty_Charging>  (441) 
0.000378556

>  <r_epik_Ionization_Penalty_Neutral>  (441) 
0.00180655

>  <r_epik_State_Penalty>  (441) 
0.562897

>  <r_epik_Charging_Adjusted_Penalty>  (441) 
0.563276

>  <i_epik_Tot_Q>  (441) 
-1

>  <i_epik_Tot_abs_Q>  (441) 
1

>  <s_lp_Force_Field>  (441) 
OPLS3e

>  <r_lp_Energy>  (441) 
12.2186

>  <b_lp_Chiralities_Consistent>  (441) 
1

>  <s_lp_Variant>  (441) 
111:0-2

>  <s_i_glide_gridfile>  (441) 
pfpi4k_grid

>  <i_i_glide_lignum>  (441) 
40

>  <i_i_glide_rotatable_bonds>  (441) 
2

>  <r_i_docking_score>  (441) 
-4.59538

>  <r_i_glide_ligand_efficiency>  (441) 
-0.353491

>  <r_i_glide_ligand_efficiency_sa>  (441) 
-0.831176

>  <r_i_glide_ligand_efficiency_ln>  (441) 
-1.28905

>  <r_i_glide_gscore>  (441) 
-4.59538

>  <r_i_glide_lipo>  (441) 
0

>  <r_i_glide_hbond>  (441) 
-0.190776

>  <r_i_glide_metal>  (441) 
-0

>  <r_i_glide_rewards>  (441) 
-2.20132

>  <r_i_glide_evdw>  (441) 
-12.8845

>  <r_i_glide_ecoul>  (441) 
-9.00262

>  <r_i_glide_erotb>  (441) 
0

>  <r_i_glide_esite>  (441) 
-0.208676

>  <r_i_glide_emodel>  (441) 
-32.1831

>  <r_i_glide_energy>  (441) 
-21.8871

>  <r_i_glide_einternal>  (441) 
2.48875

>  <r_i_glide_intrahb_reward>  (441) 
-0

>  <i_i_glide_confnum>  (441) 
2

>  <i_i_glide_posenum>  (441) 
34

>  <r_i_glide_eff_state_penalty>  (441) 
0

>  <ligand_id>  (441) 
111

>  <original_smiles>  (441) 
O=C(O)Cc1ncnc2[nH]cnc12

>  <smiles>  (441) 
[H]c1nc(C([H])([H])C(=O)[O-])c2c(n1)nc([H])n2[H]

$$$$
113:0:0
     RDKit          3D

 68 73  0  0  1  0  0  0  0  0999 V2000
    1.8656   -2.4186    5.1903 C   0  0  0  0  0  0  0  0  0  0  0  0
    1.3822   -3.3890    4.0998 C   0  0  0  0  0  0  0  0  0  0  0  0
    2.1715   -3.3115    2.9201 O   0  0  0  0  0  0  0  0  0  0  0  0
    3.4950   -3.8098    3.0415 C   0  0  2  0  0  0  0  0  0  0  0  0
    4.4616   -3.3980    1.8624 C   0  0  1  0  0  0  0  0  0  0  0  0
    4.1703   -4.4183    0.7812 C   0  0  2  0  0  0  0  0  0  0  0  0
    3.0426   -3.8607   -0.1173 C   0  0  0  0  0  0  0  0  0  0  0  0
    3.4211   -2.4273   -0.6440 C   0  0  1  0  0  0  0  0  0  0  0  0
    3.5891   -1.4467    0.5174 C   0  0  1  0  0  0  0  0  0  0  0  0
    2.4266   -1.2282    1.2932 O   0  0  0  0  0  0  0  0  0  0  0  0
    4.8133   -2.0550    1.2163 C   0  0  2  0  0  0  0  0  0  0  0  0
    5.8307   -2.2738   -0.0157 C   0  0  1  0  0  0  0  0  0  0  0  0
    6.5412   -1.0439    0.0748 O   0  0  0  0  0  0  0  0  0  0  0  0
    7.0009   -3.4290   -0.0796 C   0  0  1  0  0  0  0  0  0  0  0  0
    8.3104   -2.9352   -0.7593 C   0  0  0  0  0  0  0  0  0  0  0  0
    7.3827   -4.4235    1.1025 C   0  0  0  0  0  0  0  0  0  0  0  0
    6.7994   -5.9172    1.2311 C   0  0  1  0  0  0  0  0  0  0  0  0
    7.8267   -6.7736    1.7249 O   0  0  0  0  0  0  0  0  0  0  0  0
    8.4627   -6.4109    2.9553 C   0  0  0  0  0  0  0  0  0  0  0  0
    5.5220   -6.0564    2.1298 C   0  0  2  0  0  0  0  0  0  0  0  0
    5.1944   -7.0254    3.2881 C   0  0  0  0  0  0  0  0  0  0  0  0
    4.0810   -6.2236    3.9736 C   0  0  2  0  0  0  0  0  0  0  0  0
    2.6999   -6.3030    3.6226 O   0  0  0  0  0  0  0  0  0  0  0  0
    3.4480   -5.3402    2.8706 C   0  0  1  0  0  0  0  0  0  0  0  0
    4.1086   -5.7007    1.5787 C   0  0  1  0  0  0  0  0  0  0  0  0
    3.4152   -6.8235    0.7904 C   0  0  0  0  0  0  0  0  0  0  0  0
    4.8407   -2.3019   -1.2949 C   0  0  1  0  0  0  0  0  0  0  0  0
    5.0752   -3.3768   -2.3977 C   0  0  0  0  0  0  0  0  0  0  0  0
    4.9434   -1.0395   -1.9871 O   0  0  0  0  0  0  0  0  0  0  0  0
    4.0582   -0.7224   -3.0690 C   0  0  0  0  0  0  0  0  0  0  0  0
    1.2103   -2.4612    6.0617 H   0  0  0  0  0  0  0  0  0  0  0  0
    1.8561   -1.3890    4.8288 H   0  0  0  0  0  0  0  0  0  0  0  0
    2.8795   -2.6415    5.5326 H   0  0  0  0  0  0  0  0  0  0  0  0
    1.3361   -4.4060    4.4841 H   0  0  0  0  0  0  0  0  0  0  0  0
    0.3655   -3.1237    3.8175 H   0  0  0  0  0  0  0  0  0  0  0  0
    3.9509   -3.5245    3.9897 H   0  0  0  0  0  0  0  0  0  0  0  0
    5.4041   -3.5084    2.3481 H   0  0  0  0  0  0  0  0  0  0  0  0
    4.9375   -4.6332    0.0742 H   0  0  0  0  0  0  0  0  0  0  0  0
    2.8655   -4.5241   -0.9593 H   0  0  0  0  0  0  0  0  0  0  0  0
    2.1052   -3.8153    0.4348 H   0  0  0  0  0  0  0  0  0  0  0  0
    2.6161   -2.1148   -1.3121 H   0  0  0  0  0  0  0  0  0  0  0  0
    3.8469   -0.4543    0.1413 H   0  0  0  0  0  0  0  0  0  0  0  0
    1.7199   -1.0410    0.6622 H   0  0  0  0  0  0  0  0  0  0  0  0
    5.1946   -1.3817    1.9850 H   0  0  0  0  0  0  0  0  0  0  0  0
    6.9387   -0.9690    0.9200 H   0  0  0  0  0  0  0  0  0  0  0  0
    6.7129   -4.1684   -0.8117 H   0  0  0  0  0  0  0  0  0  0  0  0
    8.9028   -2.2990   -0.1020 H   0  0  0  0  0  0  0  0  0  0  0  0
    8.1126   -2.3953   -1.6833 H   0  0  0  0  0  0  0  0  0  0  0  0
    8.9473   -3.7762   -1.0400 H   0  0  0  0  0  0  0  0  0  0  0  0
    8.4468   -4.5972    0.9434 H   0  0  0  0  0  0  0  0  0  0  0  0
    7.3903   -3.8917    2.0507 H   0  0  0  0  0  0  0  0  0  0  0  0
    6.5671   -6.2672    0.2301 H   0  0  0  0  0  0  0  0  0  0  0  0
    9.2507   -7.1442    3.1591 H   0  0  0  0  0  0  0  0  0  0  0  0
    7.7725   -6.3956    3.7895 H   0  0  0  0  0  0  0  0  0  0  0  0
    8.9785   -5.4457    2.8873 H   0  0  0  0  0  0  0  0  0  0  0  0
    5.8780   -5.3152    2.8381 H   0  0  0  0  0  0  0  0  0  0  0  0
    4.8215   -8.0058    2.9509 H   0  0  0  0  0  0  0  0  0  0  0  0
    6.0136   -7.1867    3.9818 H   0  0  0  0  0  0  0  0  0  0  0  0
    4.3231   -5.7549    4.9221 H   0  0  0  0  0  0  0  0  0  0  0  0
    3.3591   -7.7470    1.3584 H   0  0  0  0  0  0  0  0  0  0  0  0
    3.9672   -7.0227   -0.1248 H   0  0  0  0  0  0  0  0  0  0  0  0
    2.3949   -6.5475    0.5280 H   0  0  0  0  0  0  0  0  0  0  0  0
    5.0135   -4.4049   -2.0308 H   0  0  0  0  0  0  0  0  0  0  0  0
    6.0663   -3.2610   -2.8348 H   0  0  0  0  0  0  0  0  0  0  0  0
    4.3519   -3.2866   -3.2110 H   0  0  0  0  0  0  0  0  0  0  0  0
    4.2675    0.2898   -3.4338 H   0  0  0  0  0  0  0  0  0  0  0  0
    3.0110   -0.6995   -2.7701 H   0  0  0  0  0  0  0  0  0  0  0  0
    4.1757   -1.4289   -3.8911 H   0  0  0  0  0  0  0  0  0  0  0  0
  1  2  1  0
  1 31  1  0
  1 32  1  0
  1 33  1  0
  2  3  1  0
  2 34  1  0
  2 35  1  0
  3  4  1  0
  4 24  1  0
  4  5  1  0
  4 36  1  1
  5 11  1  0
  5  6  1  0
  5 37  1  1
  6 25  1  0
  6  7  1  0
  6 38  1  6
  7  8  1  0
  7 39  1  0
  7 40  1  0
  8 27  1  0
  8  9  1  0
  8 41  1  6
  9 10  1  0
  9 11  1  0
  9 42  1  6
 10 43  1  0
 11 12  1  0
 11 44  1  1
 12 13  1  6
 12 14  1  0
 12 27  1  0
 13 45  1  0
 14 15  1  0
 14 16  1  0
 14 46  1  6
 15 47  1  0
 15 48  1  0
 15 49  1  0
 16 17  1  0
 16 50  1  0
 16 51  1  0
 17 18  1  0
 17 20  1  0
 17 52  1  6
 18 19  1  0
 19 53  1  0
 19 54  1  0
 19 55  1  0
 20 25  1  0
 20 21  1  0
 20 56  1  1
 21 22  1  0
 21 57  1  0
 21 58  1  0
 22 24  1  0
 22 23  1  0
 22 59  1  1
 24 23  1  6
 24 25  1  0
 25 26  1  6
 26 60  1  0
 26 61  1  0
 26 62  1  0
 27 28  1  0
 27 29  1  6
 28 63  1  0
 28 64  1  0
 28 65  1  0
 29 30  1  0
 30 66  1  0
 30 67  1  0
 30 68  1  0
M  END
>  <i_m_ct_stereo_status>  (442) 
1

>  <s_m_source_file>  (442) 
/var/tmp/pbs.5076255.sched01/tmpt95b3wv2/135g3gtwtb2.sdf

>  <i_m_source_file_index>  (442) 
42

>  <i_lp_mmshare_version>  (442) 
48012

>  <i_f3d_flags>  (442) 
0

>  <s_epik_input>  (442) 
TzFbQ0BIXShbQ0BAXTEyMylbQ0gyXVtDQEBIXTRbQ0BdMyhbQ0gzXSlbQ0BASF01W0NASF0oW0NASF0yT1tDSDJdW0NIM10pW0NASF02W0NAXShbT0hdKShbQ0BdKFtDSDNdKShPW0NIM10pW0NAQEhdKFtDSDJdNSlbQ0BIXTZbT0hdKVtDQEBIXShbQ0gzXSlbQ0gyXVtDQEhdNE9bQ0gzXQ==

>  <s_epik_cmdline>  (442) 
J2VwaWtfcHl0aG9uJywgJy1waHQnLCAnMi4wJywgJy1waCcsICc3LjAnLCAnLXRuJywgJzgnLCAnLW1hJywgJzIwMCcsICctaW1hZScsICc8aW5maWxlLm1hZT4nLCAnLW9tYWUnLCAnPG91dGZpbGUubWFlPic=

>  <r_lp_tautomer_probability>  (442) 
1

>  <r_epik_Ionization_Penalty>  (442) 
3.97684e-07

>  <r_epik_Ionization_Penalty_Charging>  (442) 
0

>  <r_epik_Ionization_Penalty_Neutral>  (442) 
3.97684e-07

>  <r_epik_State_Penalty>  (442) 
-0

>  <r_epik_Charging_Adjusted_Penalty>  (442) 
0

>  <i_epik_Tot_Q>  (442) 
0

>  <i_epik_Tot_abs_Q>  (442) 
0

>  <s_lp_Force_Field>  (442) 
OPLS3e

>  <r_lp_Energy>  (442) 
155.962

>  <b_lp_Chiralities_Consistent>  (442) 
1

>  <s_lp_Variant>  (442) 
113:0-1

>  <s_i_glide_gridfile>  (442) 
pfpi4k_grid

>  <i_i_glide_lignum>  (442) 
42

>  <i_i_glide_rotatable_bonds>  (442) 
6

>  <r_i_docking_score>  (442) 
-3.24634

>  <r_i_glide_ligand_efficiency>  (442) 
-0.108211

>  <r_i_glide_ligand_efficiency_sa>  (442) 
-0.336238

>  <r_i_glide_ligand_efficiency_ln>  (442) 
-0.737605

>  <r_i_glide_gscore>  (442) 
-3.24634

>  <r_i_glide_lipo>  (442) 
-0.884145

>  <r_i_glide_hbond>  (442) 
0

>  <r_i_glide_metal>  (442) 
-0

>  <r_i_glide_rewards>  (442) 
-0.528035

>  <r_i_glide_evdw>  (442) 
-23.7951

>  <r_i_glide_ecoul>  (442) 
-5.03577

>  <r_i_glide_erotb>  (442) 
0.110956

>  <r_i_glide_esite>  (442) 
0

>  <r_i_glide_emodel>  (442) 
-32.1398

>  <r_i_glide_energy>  (442) 
-28.8309

>  <r_i_glide_einternal>  (442) 
6.18394

>  <r_i_glide_intrahb_reward>  (442) 
-0

>  <i_i_glide_confnum>  (442) 
4

>  <i_i_glide_posenum>  (442) 
24

>  <r_i_glide_eff_state_penalty>  (442) 
0

>  <ligand_id>  (442) 
113

>  <original_smiles>  (442) 
CCOC1C2C3CC4C(O)C2C(O)(C(C)CC(OC)C2CC5OC51C23C)C4(C)OC

>  <smiles>  (442) 
[H]OC1([H])C2([H])C([H])([H])C3([H])C4([H])C([H])(OC([H])([H])C([H])([H])[H])C56OC5([H])C([H])([H])C([H])(C([H])(OC([H])([H])[H])C([H])([H])C([H])(C([H])([H])[H])C(O[H])(C14[H])C2(OC([H])([H])[H])C([H])([H])[H])C36C([H])([H])[H]

$$$$
114:0:0
     RDKit          3D

 78 84  0  0  1  0  0  0  0  0999 V2000
    2.1338   -8.0228    8.4364 C   0  0  0  0  0  0  0  0  0  0  0  0
    3.1820   -7.3397    7.5315 C   0  0  2  0  0  0  0  0  0  0  0  0
    2.9593   -5.8116    7.6263 C   0  0  0  0  0  0  0  0  0  0  0  0
    3.9879   -4.9103    6.8815 C   0  0  1  0  0  0  0  0  0  0  0  0
    4.8569   -4.2081    7.9658 C   0  0  0  0  0  0  0  0  0  0  0  0
    4.9104   -5.7695    5.9598 C   0  0  2  0  0  0  0  0  0  0  0  0
    5.8085   -4.8538    5.0704 C   0  0  0  0  0  0  0  0  0  0  0  0
    5.0477   -3.8033    4.2392 C   0  0  1  0  0  0  0  0  0  0  0  0
    4.4146   -4.4547    3.1627 O   0  0  0  0  0  0  0  0  0  0  0  0
    4.1021   -2.9666    5.1341 C   0  0  1  0  0  0  0  0  0  0  0  0
    3.3027   -1.8301    4.4353 C   0  0  1  0  0  0  0  0  0  0  0  0
    2.3337   -2.2936    3.3140 C   0  0  0  0  0  0  0  0  0  0  0  0
    1.4213   -1.1852    2.8467 C   0  0  0  0  0  0  0  0  0  0  0  0
    1.2132   -0.0513    3.5346 C   0  0  0  0  0  0  0  0  0  0  0  0
    0.5660    1.0750    2.8380 C   0  0  0  0  0  0  0  0  0  0  0  0
   -0.4982    0.9754    2.2351 O   0  0  0  0  0  0  0  0  0  0  0  0
    1.2939    2.4267    2.8880 C   0  0  0  0  0  0  0  0  0  0  0  0
    2.5041    2.3897    3.8231 C   0  0  0  0  0  0  0  0  0  0  0  0
    2.7227    1.4302    4.7473 C   0  0  0  0  0  0  0  0  0  0  0  0
    1.7917    0.2352    4.9288 C   0  0  1  0  0  0  0  0  0  0  0  0
    0.6829    0.7161    5.9016 C   0  0  0  0  0  0  0  0  0  0  0  0
    2.5504   -1.0140    5.5136 C   0  0  1  0  0  0  0  0  0  0  0  0
    1.6749   -2.0057    6.3275 C   0  0  0  0  0  0  0  0  0  0  0  0
    2.4732   -3.0171    6.9342 O   0  0  0  0  0  0  0  0  0  0  0  0
    3.2048   -3.8509    6.0352 C   0  0  2  0  0  0  0  0  0  0  0  0
    4.1444   -6.8911    5.1765 C   0  0  1  0  0  0  0  0  0  0  0  0
    5.1562   -7.7754    4.3779 C   0  0  1  0  0  0  0  0  0  0  0  0
    6.2433   -8.2268    5.1476 O   0  0  0  0  0  0  0  0  0  0  0  0
    4.5413   -8.7969    3.6704 O   0  0  0  0  0  0  0  0  0  0  0  0
    3.3599   -9.3522    4.0862 C   0  0  0  0  0  0  0  0  0  0  0  0
    2.5635   -9.8620    3.1297 C   0  0  0  0  0  0  0  0  0  0  0  0
    1.2214  -10.3457    3.4466 C   0  0  0  0  0  0  0  0  0  0  0  0
    0.4708  -10.7508    2.5676 O   0  0  0  0  0  0  0  0  0  0  0  0
    0.7975  -10.2766    4.8433 C   0  0  0  0  0  0  0  0  0  0  0  0
    1.6001   -9.7741    5.7955 C   0  0  0  0  0  0  0  0  0  0  0  0
    3.0291   -9.2440    5.5887 C   0  0  1  0  0  0  0  0  0  0  0  0
    3.9526  -10.1964    6.3901 C   0  0  0  0  0  0  0  0  0  0  0  0
    3.1348   -7.7379    6.0222 C   0  0  1  0  0  0  0  0  0  0  0  0
    1.1236   -7.8693    8.0570 H   0  0  0  0  0  0  0  0  0  0  0  0
    2.1641   -7.6207    9.4487 H   0  0  0  0  0  0  0  0  0  0  0  0
    2.2998   -9.0930    8.5423 H   0  0  0  0  0  0  0  0  0  0  0  0
    4.1618   -7.5908    7.9413 H   0  0  0  0  0  0  0  0  0  0  0  0
    1.9557   -5.5997    7.2549 H   0  0  0  0  0  0  0  0  0  0  0  0
    2.9146   -5.5280    8.6760 H   0  0  0  0  0  0  0  0  0  0  0  0
    5.6056   -3.5346    7.5537 H   0  0  0  0  0  0  0  0  0  0  0  0
    5.3918   -4.9362    8.5780 H   0  0  0  0  0  0  0  0  0  0  0  0
    4.2505   -3.6082    8.6459 H   0  0  0  0  0  0  0  0  0  0  0  0
    5.6028   -6.2882    6.6254 H   0  0  0  0  0  0  0  0  0  0  0  0
    6.5073   -4.3209    5.7159 H   0  0  0  0  0  0  0  0  0  0  0  0
    6.4698   -5.4364    4.4298 H   0  0  0  0  0  0  0  0  0  0  0  0
    5.7758   -3.1292    3.7882 H   0  0  0  0  0  0  0  0  0  0  0  0
    3.8103   -5.0911    3.5161 H   0  0  0  0  0  0  0  0  0  0  0  0
    4.7729   -2.4339    5.8062 H   0  0  0  0  0  0  0  0  0  0  0  0
    4.0253   -1.1589    3.9681 H   0  0  0  0  0  0  0  0  0  0  0  0
    2.9117   -2.5888    2.4382 H   0  0  0  0  0  0  0  0  0  0  0  0
    1.7290   -3.1525    3.6043 H   0  0  0  0  0  0  0  0  0  0  0  0
    1.0157   -1.3021    1.8506 H   0  0  0  0  0  0  0  0  0  0  0  0
    1.6302    2.6813    1.8819 H   0  0  0  0  0  0  0  0  0  0  0  0
    0.6045    3.2121    3.2024 H   0  0  0  0  0  0  0  0  0  0  0  0
    3.1837    3.2267    3.7387 H   0  0  0  0  0  0  0  0  0  0  0  0
    3.5917    1.4861    5.3864 H   0  0  0  0  0  0  0  0  0  0  0  0
    0.2444    1.6646    5.5856 H   0  0  0  0  0  0  0  0  0  0  0  0
    1.0834    0.8866    6.9034 H   0  0  0  0  0  0  0  0  0  0  0  0
   -0.1395    0.0040    5.9748 H   0  0  0  0  0  0  0  0  0  0  0  0
    3.2863   -0.6333    6.2244 H   0  0  0  0  0  0  0  0  0  0  0  0
    1.1833   -1.4973    7.1559 H   0  0  0  0  0  0  0  0  0  0  0  0
    0.8861   -2.4521    5.7194 H   0  0  0  0  0  0  0  0  0  0  0  0
    2.4961   -4.3778    5.3967 H   0  0  0  0  0  0  0  0  0  0  0  0
    3.5216   -6.4197    4.4212 H   0  0  0  0  0  0  0  0  0  0  0  0
    5.6049   -7.1880    3.5767 H   0  0  0  0  0  0  0  0  0  0  0  0
    5.8991   -8.7825    5.8317 H   0  0  0  0  0  0  0  0  0  0  0  0
    2.8776   -9.8627    2.0960 H   0  0  0  0  0  0  0  0  0  0  0  0
   -0.1727  -10.6729    5.0849 H   0  0  0  0  0  0  0  0  0  0  0  0
    1.2170   -9.8117    6.8052 H   0  0  0  0  0  0  0  0  0  0  0  0
    3.9290  -11.2021    5.9658 H   0  0  0  0  0  0  0  0  0  0  0  0
    3.6489  -10.3117    7.4308 H   0  0  0  0  0  0  0  0  0  0  0  0
    4.9921   -9.8918    6.4124 H   0  0  0  0  0  0  0  0  0  0  0  0
    2.1675   -7.3406    5.7072 H   0  0  0  0  0  0  0  0  0  0  0  0
  1  2  1  0
  1 39  1  0
  1 40  1  0
  1 41  1  0
  2 38  1  0
  2  3  1  0
  2 42  1  1
  3  4  1  0
  3 43  1  0
  3 44  1  0
  4 25  1  0
  4  5  1  1
  4  6  1  0
  5 45  1  0
  5 46  1  0
  5 47  1  0
  6  7  1  0
  6 26  1  0
  6 48  1  1
  7  8  1  0
  7 49  1  0
  7 50  1  0
  8  9  1  0
  8 10  1  0
  8 51  1  6
  9 52  1  0
 10 25  1  0
 10 11  1  0
 10 53  1  1
 11 22  1  0
 11 12  1  0
 11 54  1  6
 12 13  1  0
 12 55  1  0
 12 56  1  0
 13 14  2  0
 13 57  1  0
 14 20  1  0
 14 15  1  0
 15 16  2  0
 15 17  1  0
 17 18  1  0
 17 58  1  0
 17 59  1  0
 18 19  2  0
 18 60  1  0
 19 20  1  0
 19 61  1  0
 20 21  1  1
 20 22  1  0
 21 62  1  0
 21 63  1  0
 21 64  1  0
 22 23  1  0
 22 65  1  1
 23 24  1  0
 23 66  1  0
 23 67  1  0
 24 25  1  0
 25 68  1  6
 26 38  1  0
 26 27  1  0
 26 69  1  6
 27 28  1  0
 27 29  1  0
 27 70  1  6
 28 71  1  0
 29 30  1  0
 30 36  1  0
 30 31  2  0
 31 32  1  0
 31 72  1  0
 32 33  2  0
 32 34  1  0
 34 35  2  0
 34 73  1  0
 35 36  1  0
 35 74  1  0
 36 37  1  1
 36 38  1  0
 37 75  1  0
 37 76  1  0
 37 77  1  0
 38 78  1  6
M  END
>  <i_m_ct_stereo_status>  (443) 
1

>  <s_m_source_file>  (443) 
/var/tmp/pbs.5076255.sched01/tmpt95b3wv2/135g3gtwtb2.sdf

>  <i_m_source_file_index>  (443) 
43

>  <i_lp_mmshare_version>  (443) 
48012

>  <i_f3d_flags>  (443) 
0

>  <s_epik_input>  (443) 
W0NIXTE9W0NIXUMoPU8pW0NIXT1DKE9bQ0BASF0yW09IXSlbQ0BAXTEoW0NIM10pW0NAQEhdKFtDQEhdKFtDSDNdKVtDSDJdMylbQ0BIXTJbQ0BIXShbQ0BdMzRbQ0gzXSlbQ0gyXVtDQEBIXShbT0hdKVtDQEhdNVtDQEBIXTZbQ0BIXShbQ0gyXU9bQ0BIXTQ1KVtDQF03KFtDSDNdKUMoPVtDSF1bQ0gyXTYpQyg9TylbQ0gyXVtDSF09W0NIXTc=

>  <s_epik_cmdline>  (443) 
J2VwaWtfcHl0aG9uJywgJy1waHQnLCAnMi4wJywgJy1waCcsICc3LjAnLCAnLXRuJywgJzgnLCAnLW1hJywgJzIwMCcsICctaW1hZScsICc8aW5maWxlLm1hZT4nLCAnLW9tYWUnLCAnPG91dGZpbGUubWFlPic=

>  <r_lp_tautomer_probability>  (443) 
1

>  <r_epik_Ionization_Penalty>  (443) 
1.10714e-06

>  <r_epik_Ionization_Penalty_Charging>  (443) 
0

>  <r_epik_Ionization_Penalty_Neutral>  (443) 
1.10714e-06

>  <r_epik_State_Penalty>  (443) 
-0

>  <r_epik_Charging_Adjusted_Penalty>  (443) 
0

>  <i_epik_Tot_Q>  (443) 
0

>  <i_epik_Tot_abs_Q>  (443) 
0

>  <s_epik_Chemistry_Notes>  (443) 
This compound contains an acetal/aminal-like group ( X-CH(R)-Y where X, Y are N, S, or O) that may be acid/base labile, releasing an aldehyde.

>  <s_lp_Force_Field>  (443) 
OPLS3e

>  <r_lp_Energy>  (443) 
79.5951

>  <b_lp_Chiralities_Consistent>  (443) 
1

>  <s_lp_Variant>  (443) 
114:0-1

>  <s_i_glide_gridfile>  (443) 
pfpi4k_grid

>  <i_i_glide_lignum>  (443) 
43

>  <i_i_glide_rotatable_bonds>  (443) 
2

>  <r_i_docking_score>  (443) 
-1.48907

>  <r_i_glide_ligand_efficiency>  (443) 
-0.039186

>  <r_i_glide_ligand_efficiency_sa>  (443) 
-0.131742

>  <r_i_glide_ligand_efficiency_ln>  (443) 
-0.321087

>  <r_i_glide_gscore>  (443) 
-1.48907

>  <r_i_glide_lipo>  (443) 
-0.0240498

>  <r_i_glide_hbond>  (443) 
0

>  <r_i_glide_metal>  (443) 
-0

>  <r_i_glide_rewards>  (443) 
-0.154573

>  <r_i_glide_evdw>  (443) 
-25.4187

>  <r_i_glide_ecoul>  (443) 
-0.00924715

>  <r_i_glide_erotb>  (443) 
0

>  <r_i_glide_esite>  (443) 
-0.0381225

>  <r_i_glide_emodel>  (443) 
-27.6481

>  <r_i_glide_energy>  (443) 
-25.428

>  <r_i_glide_einternal>  (443) 
0.0611259

>  <r_i_glide_intrahb_reward>  (443) 
-0

>  <i_i_glide_confnum>  (443) 
2

>  <i_i_glide_posenum>  (443) 
5

>  <r_i_glide_eff_state_penalty>  (443) 
0

>  <ligand_id>  (443) 
114

>  <original_smiles>  (443) 
CC1CC2(C)C(CC(O)C3C4CC=C5C(=O)CC=CC5(C)C4COC32)C2C(O)OC3=CC(=O)C=CC3(C)C12

>  <smiles>  (443) 
[H]OC1([H])OC2=C([H])C(=O)C([H])=C([H])C2(C([H])([H])[H])C2([H])C([H])(C([H])([H])[H])C([H])([H])C3(C([H])([H])[H])C4([H])OC([H])([H])C5([H])C6(C([H])([H])[H])C([H])=C([H])C([H])([H])C(=O)C6=C([H])C([H])([H])C5([H])C4([H])C([H])(O[H])C([H])([H])C3([H])C12[H]

$$$$
114:0:1
     RDKit          3D

 78 84  0  0  1  0  0  0  0  0999 V2000
    0.6793   -7.6645    8.6760 C   0  0  0  0  0  0  0  0  0  0  0  0
    1.8554   -6.8191    8.1406 C   0  0  2  0  0  0  0  0  0  0  0  0
    1.4273   -5.3322    8.1923 C   0  0  0  0  0  0  0  0  0  0  0  0
    2.5102   -4.2804    7.8046 C   0  0  1  0  0  0  0  0  0  0  0  0
    2.9229   -3.5425    9.1118 C   0  0  0  0  0  0  0  0  0  0  0  0
    3.7654   -4.9759    7.1893 C   0  0  2  0  0  0  0  0  0  0  0  0
    4.7675   -3.9191    6.6272 C   0  0  0  0  0  0  0  0  0  0  0  0
    4.1655   -2.9169    5.6248 C   0  0  1  0  0  0  0  0  0  0  0  0
    3.9629   -3.5791    4.3956 O   0  0  0  0  0  0  0  0  0  0  0  0
    2.8965   -2.2441    6.2066 C   0  0  1  0  0  0  0  0  0  0  0  0
    2.2044   -1.1712    5.3175 C   0  0  1  0  0  0  0  0  0  0  0  0
    1.6753   -1.6819    3.9510 C   0  0  0  0  0  0  0  0  0  0  0  0
    0.8106   -0.6603    3.2522 C   0  0  0  0  0  0  0  0  0  0  0  0
    0.2651    0.4024    3.8648 C   0  0  0  0  0  0  0  0  0  0  0  0
   -0.2823    1.4865    3.0267 C   0  0  0  0  0  0  0  0  0  0  0  0
   -1.0864    1.2995    2.1186 O   0  0  0  0  0  0  0  0  0  0  0  0
    0.2210    2.9065    3.3261 C   0  0  0  0  0  0  0  0  0  0  0  0
    1.0921    2.9604    4.5799 C   0  0  0  0  0  0  0  0  0  0  0  0
    1.1508    1.9804    5.5047 C   0  0  0  0  0  0  0  0  0  0  0  0
    0.3641    0.6786    5.3732 C   0  0  1  0  0  0  0  0  0  0  0  0
   -1.0367    0.9761    5.9741 C   0  0  0  0  0  0  0  0  0  0  0  0
    1.0697   -0.5075    6.1338 C   0  0  1  0  0  0  0  0  0  0  0  0
    0.1262   -1.6358    6.6206 C   0  0  0  0  0  0  0  0  0  0  0  0
    0.8200   -2.5809    7.4261 O   0  0  0  0  0  0  0  0  0  0  0  0
    1.8878   -3.2740    6.7784 C   0  0  2  0  0  0  0  0  0  0  0  0
    3.4128   -6.1358    6.1932 C   0  0  1  0  0  0  0  0  0  0  0  0
    4.7164   -6.8561    5.7190 C   0  0  1  0  0  0  0  0  0  0  0  0
    5.5706   -7.2138    6.7799 O   0  0  0  0  0  0  0  0  0  0  0  0
    4.4755   -7.9076    4.8488 O   0  0  0  0  0  0  0  0  0  0  0  0
    3.2957   -8.6054    4.8785 C   0  0  0  0  0  0  0  0  0  0  0  0
    2.8903   -9.1488    3.7165 C   0  0  0  0  0  0  0  0  0  0  0  0
    1.5886   -9.8028    3.5970 C   0  0  0  0  0  0  0  0  0  0  0  0
    1.1974  -10.2504    2.5203 O   0  0  0  0  0  0  0  0  0  0  0  0
    0.7593   -9.8656    4.7994 C   0  0  0  0  0  0  0  0  0  0  0  0
    1.1730   -9.3266    5.9649 C   0  0  0  0  0  0  0  0  0  0  0  0
    2.5211   -8.6216    6.2129 C   0  0  1  0  0  0  0  0  0  0  0  0
    3.2820   -9.5011    7.2360 C   0  0  0  0  0  0  0  0  0  0  0  0
    2.3087   -7.1373    6.6815 C   0  0  1  0  0  0  0  0  0  0  0  0
   -0.1825   -7.6061    8.0122 H   0  0  0  0  0  0  0  0  0  0  0  0
    0.3611   -7.3166    9.6578 H   0  0  0  0  0  0  0  0  0  0  0  0
    0.9386   -8.7121    8.8068 H   0  0  0  0  0  0  0  0  0  0  0  0
    2.6939   -6.9775    8.8226 H   0  0  0  0  0  0  0  0  0  0  0  0
    0.5613   -5.2185    7.5392 H   0  0  0  0  0  0  0  0  0  0  0  0
    1.0358   -5.1122    9.1847 H   0  0  0  0  0  0  0  0  0  0  0  0
    3.6694   -2.7667    8.9543 H   0  0  0  0  0  0  0  0  0  0  0  0
    3.3399   -4.2358    9.8440 H   0  0  0  0  0  0  0  0  0  0  0  0
    2.0715   -3.0535    9.5885 H   0  0  0  0  0  0  0  0  0  0  0  0
    4.2851   -5.4467    8.0228 H   0  0  0  0  0  0  0  0  0  0  0  0
    5.1711   -3.3462    7.4626 H   0  0  0  0  0  0  0  0  0  0  0  0
    5.6549   -4.3864    6.2041 H   0  0  0  0  0  0  0  0  0  0  0  0
    4.9044   -2.1412    5.4255 H   0  0  0  0  0  0  0  0  0  0  0  0
    3.3397   -4.2765    4.5346 H   0  0  0  0  0  0  0  0  0  0  0  0
    3.2613   -1.6768    7.0620 H   0  0  0  0  0  0  0  0  0  0  0  0
    2.9423   -0.3965    5.1029 H   0  0  0  0  0  0  0  0  0  0  0  0
    2.5180   -1.8595    3.2841 H   0  0  0  0  0  0  0  0  0  0  0  0
    1.1232   -2.6176    4.0296 H   0  0  0  0  0  0  0  0  0  0  0  0
    0.7284   -0.7704    2.1796 H   0  0  0  0  0  0  0  0  0  0  0  0
    0.8188    3.2441    2.4806 H   0  0  0  0  0  0  0  0  0  0  0  0
   -0.6228    3.5894    3.4220 H   0  0  0  0  0  0  0  0  0  0  0  0
    1.6575    3.8709    4.7125 H   0  0  0  0  0  0  0  0  0  0  0  0
    1.7799    2.1017    6.3736 H   0  0  0  0  0  0  0  0  0  0  0  0
   -1.4733    1.8845    5.5550 H   0  0  0  0  0  0  0  0  0  0  0  0
   -0.9755    1.1388    7.0511 H   0  0  0  0  0  0  0  0  0  0  0  0
   -1.7479    0.1742    5.7771 H   0  0  0  0  0  0  0  0  0  0  0  0
    1.5063   -0.0853    7.0409 H   0  0  0  0  0  0  0  0  0  0  0  0
   -0.6373   -1.2224    7.2731 H   0  0  0  0  0  0  0  0  0  0  0  0
   -0.3895   -2.1329    5.7964 H   0  0  0  0  0  0  0  0  0  0  0  0
    1.4718   -3.8449    5.9481 H   0  0  0  0  0  0  0  0  0  0  0  0
    2.9908   -5.6987    5.2925 H   0  0  0  0  0  0  0  0  0  0  0  0
    5.3033   -6.1818    5.0976 H   0  0  0  0  0  0  0  0  0  0  0  0
    5.0961   -7.8018    7.3485 H   0  0  0  0  0  0  0  0  0  0  0  0
    3.4950   -9.0566    2.8286 H   0  0  0  0  0  0  0  0  0  0  0  0
   -0.1845  -10.3832    4.7186 H   0  0  0  0  0  0  0  0  0  0  0  0
    0.5140   -9.4599    6.8089 H   0  0  0  0  0  0  0  0  0  0  0  0
    3.5121  -10.4788    6.8058 H   0  0  0  0  0  0  0  0  0  0  0  0
    2.7033   -9.7082    8.1347 H   0  0  0  0  0  0  0  0  0  0  0  0
    4.2217   -9.0797    7.5726 H   0  0  0  0  0  0  0  0  0  0  0  0
    1.4371   -6.8355    6.0944 H   0  0  0  0  0  0  0  0  0  0  0  0
  1  2  1  0
  1 39  1  0
  1 40  1  0
  1 41  1  0
  2 38  1  0
  2  3  1  0
  2 42  1  1
  3  4  1  0
  3 43  1  0
  3 44  1  0
  4 25  1  0
  4  5  1  1
  4  6  1  0
  5 45  1  0
  5 46  1  0
  5 47  1  0
  6  7  1  0
  6 26  1  0
  6 48  1  1
  7  8  1  0
  7 49  1  0
  7 50  1  0
  8  9  1  0
  8 10  1  0
  8 51  1  6
  9 52  1  0
 10 25  1  0
 10 11  1  0
 10 53  1  1
 11 22  1  0
 11 12  1  0
 11 54  1  6
 12 13  1  0
 12 55  1  0
 12 56  1  0
 13 14  2  0
 13 57  1  0
 14 20  1  0
 14 15  1  0
 15 16  2  0
 15 17  1  0
 17 18  1  0
 17 58  1  0
 17 59  1  0
 18 19  2  0
 18 60  1  0
 19 20  1  0
 19 61  1  0
 20 21  1  1
 20 22  1  0
 21 62  1  0
 21 63  1  0
 21 64  1  0
 22 23  1  0
 22 65  1  1
 23 24  1  0
 23 66  1  0
 23 67  1  0
 24 25  1  0
 25 68  1  6
 26 38  1  0
 26 27  1  0
 26 69  1  6
 27 28  1  0
 27 29  1  0
 27 70  1  6
 28 71  1  0
 29 30  1  0
 30 36  1  0
 30 31  2  0
 31 32  1  0
 31 72  1  0
 32 33  2  0
 32 34  1  0
 34 35  2  0
 34 73  1  0
 35 36  1  0
 35 74  1  0
 36 37  1  1
 36 38  1  0
 37 75  1  0
 37 76  1  0
 37 77  1  0
 38 78  1  6
M  END
>  <i_m_ct_stereo_status>  (444) 
1

>  <s_m_source_file>  (444) 
/var/tmp/pbs.5076255.sched01/tmpt95b3wv2/135g3gtwtb2.sdf

>  <i_m_source_file_index>  (444) 
43

>  <i_lp_mmshare_version>  (444) 
48012

>  <i_f3d_flags>  (444) 
0

>  <s_epik_input>  (444) 
W0NIXTE9W0NIXUMoPU8pW0NIXT1DKE9bQ0BASF0yW09IXSlbQ0BAXTEoW0NIM10pW0NAQEhdKFtDQEhdKFtDSDNdKVtDSDJdMylbQ0BIXTJbQ0BIXShbQ0BdMzRbQ0gzXSlbQ0gyXVtDQEBIXShbT0hdKVtDQEhdNVtDQEBIXTZbQ0BIXShbQ0gyXU9bQ0BIXTQ1KVtDQF03KFtDSDNdKUMoPVtDSF1bQ0gyXTYpQyg9TylbQ0gyXVtDSF09W0NIXTc=

>  <s_epik_cmdline>  (444) 
J2VwaWtfcHl0aG9uJywgJy1waHQnLCAnMi4wJywgJy1waCcsICc3LjAnLCAnLXRuJywgJzgnLCAnLW1hJywgJzIwMCcsICctaW1hZScsICc8aW5maWxlLm1hZT4nLCAnLW9tYWUnLCAnPG91dGZpbGUubWFlPic=

>  <r_lp_tautomer_probability>  (444) 
1

>  <r_epik_Ionization_Penalty>  (444) 
1.10714e-06

>  <r_epik_Ionization_Penalty_Charging>  (444) 
0

>  <r_epik_Ionization_Penalty_Neutral>  (444) 
1.10714e-06

>  <r_epik_State_Penalty>  (444) 
-0

>  <r_epik_Charging_Adjusted_Penalty>  (444) 
0

>  <i_epik_Tot_Q>  (444) 
0

>  <i_epik_Tot_abs_Q>  (444) 
0

>  <s_epik_Chemistry_Notes>  (444) 
This compound contains an acetal/aminal-like group ( X-CH(R)-Y where X, Y are N, S, or O) that may be acid/base labile, releasing an aldehyde.

>  <s_lp_Force_Field>  (444) 
OPLS3e

>  <r_lp_Energy>  (444) 
79.5951

>  <b_lp_Chiralities_Consistent>  (444) 
1

>  <s_lp_Variant>  (444) 
114:0-1

>  <s_i_glide_gridfile>  (444) 
pfpi4k_grid

>  <i_i_glide_lignum>  (444) 
43

>  <i_i_glide_rotatable_bonds>  (444) 
2

>  <r_i_docking_score>  (444) 
-1.19411

>  <r_i_glide_ligand_efficiency>  (444) 
-0.0314238

>  <r_i_glide_ligand_efficiency_sa>  (444) 
-0.105646

>  <r_i_glide_ligand_efficiency_ln>  (444) 
-0.257484

>  <r_i_glide_gscore>  (444) 
-1.19411

>  <r_i_glide_lipo>  (444) 
-0.00175989

>  <r_i_glide_hbond>  (444) 
0

>  <r_i_glide_metal>  (444) 
-0

>  <r_i_glide_rewards>  (444) 
-0.00111848

>  <r_i_glide_evdw>  (444) 
-25.2425

>  <r_i_glide_ecoul>  (444) 
0.761761

>  <r_i_glide_erotb>  (444) 
0

>  <r_i_glide_esite>  (444) 
-0.0433693

>  <r_i_glide_emodel>  (444) 
-26.2518

>  <r_i_glide_energy>  (444) 
-24.4807

>  <r_i_glide_einternal>  (444) 
0.00898707

>  <r_i_glide_intrahb_reward>  (444) 
-0

>  <i_i_glide_confnum>  (444) 
1

>  <i_i_glide_posenum>  (444) 
1

>  <r_i_glide_eff_state_penalty>  (444) 
0

>  <ligand_id>  (444) 
114

>  <original_smiles>  (444) 
CC1CC2(C)C(CC(O)C3C4CC=C5C(=O)CC=CC5(C)C4COC32)C2C(O)OC3=CC(=O)C=CC3(C)C12

>  <smiles>  (444) 
[H]OC1([H])OC2=C([H])C(=O)C([H])=C([H])C2(C([H])([H])[H])C2([H])C([H])(C([H])([H])[H])C([H])([H])C3(C([H])([H])[H])C4([H])OC([H])([H])C5([H])C6(C([H])([H])[H])C([H])=C([H])C([H])([H])C(=O)C6=C([H])C([H])([H])C5([H])C4([H])C([H])(O[H])C([H])([H])C3([H])C12[H]

$$$$
114:0:2
     RDKit          3D

 78 84  0  0  1  0  0  0  0  0999 V2000
    0.7061   -7.6516    8.6682 C   0  0  0  0  0  0  0  0  0  0  0  0
    1.8875   -6.8149    8.1323 C   0  0  2  0  0  0  0  0  0  0  0  0
    1.4729   -5.3245    8.1852 C   0  0  0  0  0  0  0  0  0  0  0  0
    2.5638   -4.2820    7.7957 C   0  0  1  0  0  0  0  0  0  0  0  0
    2.9837   -3.5484    9.1039 C   0  0  0  0  0  0  0  0  0  0  0  0
    3.8127   -4.9885    7.1783 C   0  0  2  0  0  0  0  0  0  0  0  0
    4.8238   -3.9384    6.6173 C   0  0  0  0  0  0  0  0  0  0  0  0
    4.2272   -2.9318    5.6153 C   0  0  1  0  0  0  0  0  0  0  0  0
    4.0016   -3.6012    4.3923 O   0  0  0  0  0  0  0  0  0  0  0  0
    2.9649   -2.2483    6.1998 C   0  0  1  0  0  0  0  0  0  0  0  0
    2.2787   -1.1689    5.3126 C   0  0  1  0  0  0  0  0  0  0  0  0
    1.7449   -1.6758    3.9463 C   0  0  0  0  0  0  0  0  0  0  0  0
    0.8873   -0.6471    3.2473 C   0  0  0  0  0  0  0  0  0  0  0  0
    0.3526    0.4202    3.8616 C   0  0  0  0  0  0  0  0  0  0  0  0
   -0.1879    1.5081    3.0255 C   0  0  0  0  0  0  0  0  0  0  0  0
   -0.9985    1.3292    2.1215 O   0  0  0  0  0  0  0  0  0  0  0  0
    0.3289    2.9235    3.3242 C   0  0  0  0  0  0  0  0  0  0  0  0
    1.2014    2.9710    4.5771 C   0  0  0  0  0  0  0  0  0  0  0  0
    1.2528    1.9891    5.5021 C   0  0  0  0  0  0  0  0  0  0  0  0
    0.4548    0.6945    5.3698 C   0  0  1  0  0  0  0  0  0  0  0  0
   -0.9416    1.0037    5.9734 C   0  0  0  0  0  0  0  0  0  0  0  0
    1.1501   -0.4970    6.1316 C   0  0  1  0  0  0  0  0  0  0  0  0
    0.1956   -1.6170    6.6210 C   0  0  0  0  0  0  0  0  0  0  0  0
    0.8867   -2.5695    7.4225 O   0  0  0  0  0  0  0  0  0  0  0  0
    1.9482   -3.2703    6.7702 C   0  0  2  0  0  0  0  0  0  0  0  0
    3.4479   -6.1434    6.1834 C   0  0  1  0  0  0  0  0  0  0  0  0
    4.7439   -6.8736    5.7083 C   0  0  1  0  0  0  0  0  0  0  0  0
    5.5974   -7.2399    6.7670 O   0  0  0  0  0  0  0  0  0  0  0  0
    4.4937   -7.9248    4.8352 O   0  0  0  0  0  0  0  0  0  0  0  0
    3.3109   -8.6119    4.8654 C   0  0  0  0  0  0  0  0  0  0  0  0
    2.8976   -9.1515    3.7048 C   0  0  0  0  0  0  0  0  0  0  0  0
    1.5911   -9.7987    3.5862 C   0  0  0  0  0  0  0  0  0  0  0  0
    1.1968  -10.2470    2.5129 O   0  0  0  0  0  0  0  0  0  0  0  0
    0.7668   -9.8510    4.7917 C   0  0  0  0  0  0  0  0  0  0  0  0
    1.1831   -9.3160    5.9550 C   0  0  0  0  0  0  0  0  0  0  0  0
    2.5381   -8.6212    6.2002 C   0  0  1  0  0  0  0  0  0  0  0  0
    3.2917   -9.5086    7.2233 C   0  0  0  0  0  0  0  0  0  0  0  0
    2.3364   -7.1350    6.6709 C   0  0  1  0  0  0  0  0  0  0  0  0
   -0.1564   -7.5857    8.0055 H   0  0  0  0  0  0  0  0  0  0  0  0
    0.3918   -7.3016    9.6506 H   0  0  0  0  0  0  0  0  0  0  0  0
    0.9565   -8.7016    8.7984 H   0  0  0  0  0  0  0  0  0  0  0  0
    2.7257   -6.9817    8.8119 H   0  0  0  0  0  0  0  0  0  0  0  0
    0.6067   -5.2033    7.5321 H   0  0  0  0  0  0  0  0  0  0  0  0
    1.0848   -5.1036    9.1771 H   0  0  0  0  0  0  0  0  0  0  0  0
    3.7358   -2.7790    8.9455 H   0  0  0  0  0  0  0  0  0  0  0  0
    3.3954   -4.2460    9.8347 H   0  0  0  0  0  0  0  0  0  0  0  0
    2.1364   -3.0532    9.5812 H   0  0  0  0  0  0  0  0  0  0  0  0
    4.3287   -5.4648    8.0122 H   0  0  0  0  0  0  0  0  0  0  0  0
    5.2314   -3.3694    7.4537 H   0  0  0  0  0  0  0  0  0  0  0  0
    5.7076   -4.4158    6.1977 H   0  0  0  0  0  0  0  0  0  0  0  0
    4.9728   -2.1625    5.4141 H   0  0  0  0  0  0  0  0  0  0  0  0
    4.8268   -3.9416    4.0818 H   0  0  0  0  0  0  0  0  0  0  0  0
    3.3357   -1.6853    7.0544 H   0  0  0  0  0  0  0  0  0  0  0  0
    3.0227   -0.4008    5.0972 H   0  0  0  0  0  0  0  0  0  0  0  0
    2.5857   -1.8607    3.2785 H   0  0  0  0  0  0  0  0  0  0  0  0
    1.1869   -2.6080    4.0259 H   0  0  0  0  0  0  0  0  0  0  0  0
    0.8034   -0.7568    2.1763 H   0  0  0  0  0  0  0  0  0  0  0  0
    0.9292    3.2613    2.4822 H   0  0  0  0  0  0  0  0  0  0  0  0
   -0.5092    3.6149    3.4218 H   0  0  0  0  0  0  0  0  0  0  0  0
    1.7746    3.8775    4.7098 H   0  0  0  0  0  0  0  0  0  0  0  0
    1.8825    2.1056    6.3705 H   0  0  0  0  0  0  0  0  0  0  0  0
   -1.3716    1.9168    5.5551 H   0  0  0  0  0  0  0  0  0  0  0  0
   -0.8783    1.1653    7.0509 H   0  0  0  0  0  0  0  0  0  0  0  0
   -1.6609    0.2078    5.7769 H   0  0  0  0  0  0  0  0  0  0  0  0
    1.5926   -0.0785    7.0375 H   0  0  0  0  0  0  0  0  0  0  0  0
   -0.5752   -1.2042    7.2698 H   0  0  0  0  0  0  0  0  0  0  0  0
   -0.3202   -2.1107    5.7949 H   0  0  0  0  0  0  0  0  0  0  0  0
    1.5283   -3.8379    5.9395 H   0  0  0  0  0  0  0  0  0  0  0  0
    3.0313   -5.6938    5.2833 H   0  0  0  0  0  0  0  0  0  0  0  0
    5.3363   -6.2048    5.0857 H   0  0  0  0  0  0  0  0  0  0  0  0
    5.1223   -7.8272    7.3339 H   0  0  0  0  0  0  0  0  0  0  0  0
    3.5018   -9.0643    2.8164 H   0  0  0  0  0  0  0  0  0  0  0  0
   -0.1782  -10.3642    4.7100 H   0  0  0  0  0  0  0  0  0  0  0  0
    0.5233   -9.4426    6.8014 H   0  0  0  0  0  0  0  0  0  0  0  0
    3.5128  -10.4884    6.7928 H   0  0  0  0  0  0  0  0  0  0  0  0
    2.7112   -9.7117    8.1239 H   0  0  0  0  0  0  0  0  0  0  0  0
    4.2348   -9.0951    7.5597 H   0  0  0  0  0  0  0  0  0  0  0  0
    1.4669   -6.8264    6.0845 H   0  0  0  0  0  0  0  0  0  0  0  0
  1  2  1  0
  1 39  1  0
  1 40  1  0
  1 41  1  0
  2 38  1  0
  2  3  1  0
  2 42  1  1
  3  4  1  0
  3 43  1  0
  3 44  1  0
  4 25  1  0
  4  5  1  1
  4  6  1  0
  5 45  1  0
  5 46  1  0
  5 47  1  0
  6  7  1  0
  6 26  1  0
  6 48  1  1
  7  8  1  0
  7 49  1  0
  7 50  1  0
  8  9  1  0
  8 10  1  0
  8 51  1  6
  9 52  1  0
 10 25  1  0
 10 11  1  0
 10 53  1  1
 11 22  1  0
 11 12  1  0
 11 54  1  6
 12 13  1  0
 12 55  1  0
 12 56  1  0
 13 14  2  0
 13 57  1  0
 14 20  1  0
 14 15  1  0
 15 16  2  0
 15 17  1  0
 17 18  1  0
 17 58  1  0
 17 59  1  0
 18 19  2  0
 18 60  1  0
 19 20  1  0
 19 61  1  0
 20 21  1  1
 20 22  1  0
 21 62  1  0
 21 63  1  0
 21 64  1  0
 22 23  1  0
 22 65  1  1
 23 24  1  0
 23 66  1  0
 23 67  1  0
 24 25  1  0
 25 68  1  6
 26 38  1  0
 26 27  1  0
 26 69  1  6
 27 28  1  0
 27 29  1  0
 27 70  1  6
 28 71  1  0
 29 30  1  0
 30 36  1  0
 30 31  2  0
 31 32  1  0
 31 72  1  0
 32 33  2  0
 32 34  1  0
 34 35  2  0
 34 73  1  0
 35 36  1  0
 35 74  1  0
 36 37  1  1
 36 38  1  0
 37 75  1  0
 37 76  1  0
 37 77  1  0
 38 78  1  6
M  END
>  <i_m_ct_stereo_status>  (445) 
1

>  <s_m_source_file>  (445) 
/var/tmp/pbs.5076255.sched01/tmpt95b3wv2/135g3gtwtb2.sdf

>  <i_m_source_file_index>  (445) 
43

>  <i_lp_mmshare_version>  (445) 
48012

>  <i_f3d_flags>  (445) 
0

>  <s_epik_input>  (445) 
W0NIXTE9W0NIXUMoPU8pW0NIXT1DKE9bQ0BASF0yW09IXSlbQ0BAXTEoW0NIM10pW0NAQEhdKFtDQEhdKFtDSDNdKVtDSDJdMylbQ0BIXTJbQ0BIXShbQ0BdMzRbQ0gzXSlbQ0gyXVtDQEBIXShbT0hdKVtDQEhdNVtDQEBIXTZbQ0BIXShbQ0gyXU9bQ0BIXTQ1KVtDQF03KFtDSDNdKUMoPVtDSF1bQ0gyXTYpQyg9TylbQ0gyXVtDSF09W0NIXTc=

>  <s_epik_cmdline>  (445) 
J2VwaWtfcHl0aG9uJywgJy1waHQnLCAnMi4wJywgJy1waCcsICc3LjAnLCAnLXRuJywgJzgnLCAnLW1hJywgJzIwMCcsICctaW1hZScsICc8aW5maWxlLm1hZT4nLCAnLW9tYWUnLCAnPG91dGZpbGUubWFlPic=

>  <r_lp_tautomer_probability>  (445) 
1

>  <r_epik_Ionization_Penalty>  (445) 
1.10714e-06

>  <r_epik_Ionization_Penalty_Charging>  (445) 
0

>  <r_epik_Ionization_Penalty_Neutral>  (445) 
1.10714e-06

>  <r_epik_State_Penalty>  (445) 
-0

>  <r_epik_Charging_Adjusted_Penalty>  (445) 
0

>  <i_epik_Tot_Q>  (445) 
0

>  <i_epik_Tot_abs_Q>  (445) 
0

>  <s_epik_Chemistry_Notes>  (445) 
This compound contains an acetal/aminal-like group ( X-CH(R)-Y where X, Y are N, S, or O) that may be acid/base labile, releasing an aldehyde.

>  <s_lp_Force_Field>  (445) 
OPLS3e

>  <r_lp_Energy>  (445) 
79.5951

>  <b_lp_Chiralities_Consistent>  (445) 
1

>  <s_lp_Variant>  (445) 
114:0-1

>  <s_i_glide_gridfile>  (445) 
pfpi4k_grid

>  <i_i_glide_lignum>  (445) 
43

>  <i_i_glide_rotatable_bonds>  (445) 
2

>  <r_i_docking_score>  (445) 
-1.16556

>  <r_i_glide_ligand_efficiency>  (445) 
-0.0306725

>  <r_i_glide_ligand_efficiency_sa>  (445) 
-0.10312

>  <r_i_glide_ligand_efficiency_ln>  (445) 
-0.251328

>  <r_i_glide_gscore>  (445) 
-1.16556

>  <r_i_glide_lipo>  (445) 
-0.00256352

>  <r_i_glide_hbond>  (445) 
0

>  <r_i_glide_metal>  (445) 
-0

>  <r_i_glide_rewards>  (445) 
-0.00186142

>  <r_i_glide_evdw>  (445) 
-25.2944

>  <r_i_glide_ecoul>  (445) 
0.981632

>  <r_i_glide_erotb>  (445) 
0

>  <r_i_glide_esite>  (445) 
-0.0436588

>  <r_i_glide_emodel>  (445) 
-25.8705

>  <r_i_glide_energy>  (445) 
-24.3127

>  <r_i_glide_einternal>  (445) 
0.334842

>  <r_i_glide_intrahb_reward>  (445) 
-0

>  <i_i_glide_confnum>  (445) 
1

>  <i_i_glide_posenum>  (445) 
10

>  <r_i_glide_eff_state_penalty>  (445) 
0

>  <ligand_id>  (445) 
114

>  <original_smiles>  (445) 
CC1CC2(C)C(CC(O)C3C4CC=C5C(=O)CC=CC5(C)C4COC32)C2C(O)OC3=CC(=O)C=CC3(C)C12

>  <smiles>  (445) 
[H]OC1([H])OC2=C([H])C(=O)C([H])=C([H])C2(C([H])([H])[H])C2([H])C([H])(C([H])([H])[H])C([H])([H])C3(C([H])([H])[H])C4([H])OC([H])([H])C5([H])C6(C([H])([H])[H])C([H])=C([H])C([H])([H])C(=O)C6=C([H])C([H])([H])C5([H])C4([H])C([H])(O[H])C([H])([H])C3([H])C12[H]

$$$$
115:0:0
     RDKit          3D

 59 62  0  0  1  0  0  0  0  0999 V2000
    1.5740   -1.1072    2.6021 C   0  0  0  0  0  0  0  0  0  0  0  0
    1.9113   -2.3888    2.0940 O   0  0  0  0  0  0  0  0  0  0  0  0
    3.0716   -2.9755    2.5986 C   0  0  2  0  0  0  0  0  0  0  0  0
    4.3091   -2.4076    1.8811 C   0  0  0  0  0  0  0  0  0  0  0  0
    4.8317   -3.5132    0.9424 C   0  0  2  0  0  0  0  0  0  0  0  0
    6.4269   -3.4214    0.8435 C   0  0  2  0  0  0  0  0  0  0  0  0
    6.8410   -2.2174   -0.0478 C   0  0  0  0  0  0  0  0  0  0  0  0
    6.2541   -2.2864   -1.4815 C   0  0  0  0  0  0  0  0  0  0  0  0
    4.7207   -2.2372   -1.4573 C   0  0  1  0  0  0  0  0  0  0  0  0
    4.3109   -0.7975   -1.0179 C   0  0  0  0  0  0  0  0  0  0  0  0
    3.9511   -2.4980   -2.8109 C   0  0  1  0  0  0  0  0  0  0  0  0
    3.7698   -1.3138   -3.7911 C   0  0  0  0  0  0  0  0  0  0  0  0
    4.5960   -3.4554   -3.6308 O   0  0  0  0  0  0  0  0  0  0  0  0
    2.5885   -3.0627   -2.3356 C   0  0  0  0  0  0  0  0  0  0  0  0
    2.7244   -3.4120   -0.8238 C   0  0  0  0  0  0  0  0  0  0  0  0
    4.2310   -3.4133   -0.5365 C   0  0  2  0  0  0  0  0  0  0  0  0
    4.6119   -4.6552   -1.1128 O   0  0  0  0  0  0  0  0  0  0  0  0
    7.2198   -4.7344    0.4869 C   0  0  1  0  0  0  0  0  0  0  0  0
    8.6228   -4.4933   -0.1214 C   0  0  0  0  0  0  0  0  0  0  0  0
    7.4362   -5.6656    1.6925 C   0  0  0  0  0  0  0  0  0  0  0  0
    6.1875   -6.3850    2.2084 C   0  0  0  0  0  0  0  0  0  0  0  0
    5.0853   -5.4875    2.7859 C   0  0  1  0  0  0  0  0  0  0  0  0
    5.6254   -4.6347    3.7730 O   0  0  0  0  0  0  0  0  0  0  0  0
    4.2548   -4.7510    1.7083 C   0  0  1  0  0  0  0  0  0  0  0  0
    3.0444   -4.3362    2.3280 O   0  0  0  0  0  0  0  0  0  0  0  0
    0.6529   -0.7755    2.1216 H   0  0  0  0  0  0  0  0  0  0  0  0
    2.3430   -0.3628    2.3870 H   0  0  0  0  0  0  0  0  0  0  0  0
    1.3996   -1.1438    3.6795 H   0  0  0  0  0  0  0  0  0  0  0  0
    3.1333   -2.8555    3.6850 H   0  0  0  0  0  0  0  0  0  0  0  0
    4.0463   -1.4797    1.4049 H   0  0  0  0  0  0  0  0  0  0  0  0
    5.0468   -2.1670    2.6467 H   0  0  0  0  0  0  0  0  0  0  0  0
    6.8089   -3.1584    1.8288 H   0  0  0  0  0  0  0  0  0  0  0  0
    6.5455   -1.3099    0.4686 H   0  0  0  0  0  0  0  0  0  0  0  0
    7.9197   -2.0960   -0.0919 H   0  0  0  0  0  0  0  0  0  0  0  0
    6.6080   -1.4579   -2.0797 H   0  0  0  0  0  0  0  0  0  0  0  0
    6.6116   -3.1809   -1.9887 H   0  0  0  0  0  0  0  0  0  0  0  0
    3.2367   -0.7019   -0.8695 H   0  0  0  0  0  0  0  0  0  0  0  0
    4.6001   -0.0693   -1.7715 H   0  0  0  0  0  0  0  0  0  0  0  0
    4.7973   -0.4062   -0.1354 H   0  0  0  0  0  0  0  0  0  0  0  0
    3.1320   -0.5219   -3.3936 H   0  0  0  0  0  0  0  0  0  0  0  0
    3.2934   -1.6542   -4.7098 H   0  0  0  0  0  0  0  0  0  0  0  0
    4.7275   -0.8723   -4.0607 H   0  0  0  0  0  0  0  0  0  0  0  0
    4.6445   -4.2727   -3.1400 H   0  0  0  0  0  0  0  0  0  0  0  0
    1.8110   -2.3105   -2.4579 H   0  0  0  0  0  0  0  0  0  0  0  0
    2.2804   -3.9101   -2.9468 H   0  0  0  0  0  0  0  0  0  0  0  0
    2.2446   -2.6235   -0.2569 H   0  0  0  0  0  0  0  0  0  0  0  0
    2.2302   -4.3409   -0.5432 H   0  0  0  0  0  0  0  0  0  0  0  0
    3.8621   -5.0065   -1.6063 H   0  0  0  0  0  0  0  0  0  0  0  0
    6.6730   -5.3188   -0.2413 H   0  0  0  0  0  0  0  0  0  0  0  0
    9.2457   -3.9124    0.5601 H   0  0  0  0  0  0  0  0  0  0  0  0
    8.5906   -3.9721   -1.0786 H   0  0  0  0  0  0  0  0  0  0  0  0
    9.1339   -5.4353   -0.3170 H   0  0  0  0  0  0  0  0  0  0  0  0
    8.1293   -6.4565    1.3981 H   0  0  0  0  0  0  0  0  0  0  0  0
    7.9497   -5.1341    2.4958 H   0  0  0  0  0  0  0  0  0  0  0  0
    5.7836   -7.0228    1.4196 H   0  0  0  0  0  0  0  0  0  0  0  0
    6.5123   -7.0651    2.9942 H   0  0  0  0  0  0  0  0  0  0  0  0
    4.3976   -6.1597    3.3027 H   0  0  0  0  0  0  0  0  0  0  0  0
    6.2306   -4.0480    3.3510 H   0  0  0  0  0  0  0  0  0  0  0  0
    3.9414   -5.5314    1.0178 H   0  0  0  0  0  0  0  0  0  0  0  0
  1  2  1  0
  1 26  1  0
  1 27  1  0
  1 28  1  0
  2  3  1  0
  3 25  1  0
  3  4  1  0
  3 29  1  1
  5  4  1  1
  4 30  1  0
  4 31  1  0
  5 16  1  0
  5 24  1  0
  5  6  1  0
  6  7  1  0
  6 18  1  0
  6 32  1  1
  7  8  1  0
  7 33  1  0
  7 34  1  0
  8  9  1  0
  8 35  1  0
  8 36  1  0
  9 16  1  0
  9 10  1  1
  9 11  1  0
 10 37  1  0
 10 38  1  0
 10 39  1  0
 11 12  1  0
 11 13  1  6
 11 14  1  0
 12 40  1  0
 12 41  1  0
 12 42  1  0
 13 43  1  0
 14 15  1  0
 14 44  1  0
 14 45  1  0
 15 16  1  0
 15 46  1  0
 15 47  1  0
 16 17  1  6
 17 48  1  0
 18 19  1  0
 18 20  1  0
 18 49  1  6
 19 50  1  0
 19 51  1  0
 19 52  1  0
 20 21  1  0
 20 53  1  0
 20 54  1  0
 21 22  1  0
 21 55  1  0
 21 56  1  0
 22 23  1  0
 22 24  1  0
 22 57  1  1
 23 58  1  0
 24 25  1  0
 24 59  1  6
M  END
>  <i_m_ct_stereo_status>  (446) 
1

>  <s_m_source_file>  (446) 
/var/tmp/pbs.5076255.sched01/tmpt95b3wv2/135g3gtwtb2.sdf

>  <i_m_source_file_index>  (446) 
44

>  <i_lp_mmshare_version>  (446) 
48012

>  <i_f3d_flags>  (446) 
0

>  <s_epik_input>  (446) 
W0NIM11PW0NASF0oW0NIMl0xKU9bQ0BASF0yW0NASF0oW09IXSlbQ0gyXVtDSDJdW0NASF0oW0NIM10pW0NASF0oW0NAXTEyMylbQ0gyXVtDSDJdW0NAXTQoW0NIM10pW0NAXTMoW09IXSlbQ0gyXVtDSDJdW0NAXTQoW0NIM10pW09IXQ==

>  <s_epik_cmdline>  (446) 
J2VwaWtfcHl0aG9uJywgJy1waHQnLCAnMi4wJywgJy1waCcsICc3LjAnLCAnLXRuJywgJzgnLCAnLW1hJywgJzIwMCcsICctaW1hZScsICc8aW5maWxlLm1hZT4nLCAnLW9tYWUnLCAnPG91dGZpbGUubWFlPic=

>  <r_lp_tautomer_probability>  (446) 
1

>  <r_epik_Ionization_Penalty>  (446) 
2.95335e-06

>  <r_epik_Ionization_Penalty_Charging>  (446) 
0

>  <r_epik_Ionization_Penalty_Neutral>  (446) 
2.95335e-06

>  <r_epik_State_Penalty>  (446) 
-0

>  <r_epik_Charging_Adjusted_Penalty>  (446) 
0

>  <i_epik_Tot_Q>  (446) 
0

>  <i_epik_Tot_abs_Q>  (446) 
0

>  <s_epik_Chemistry_Notes>  (446) 
This compound contains an acetal/aminal-like group ( X-CH(R)-Y where X, Y are N, S, or O) that may be acid/base labile, releasing an aldehyde.

>  <s_lp_Force_Field>  (446) 
OPLS3e

>  <r_lp_Energy>  (446) 
61.0743

>  <b_lp_Chiralities_Consistent>  (446) 
1

>  <s_lp_Variant>  (446) 
115:0-1

>  <s_i_glide_gridfile>  (446) 
pfpi4k_grid

>  <i_i_glide_lignum>  (446) 
44

>  <i_i_glide_rotatable_bonds>  (446) 
4

>  <r_i_docking_score>  (446) 
-3.66258

>  <r_i_glide_ligand_efficiency>  (446) 
-0.146503

>  <r_i_glide_ligand_efficiency_sa>  (446) 
-0.428378

>  <r_i_glide_ligand_efficiency_ln>  (446) 
-0.868142

>  <r_i_glide_gscore>  (446) 
-3.66258

>  <r_i_glide_lipo>  (446) 
-0.655853

>  <r_i_glide_hbond>  (446) 
0

>  <r_i_glide_metal>  (446) 
-0

>  <r_i_glide_rewards>  (446) 
-0.992175

>  <r_i_glide_evdw>  (446) 
-22.7937

>  <r_i_glide_ecoul>  (446) 
-5.83093

>  <r_i_glide_erotb>  (446) 
0

>  <r_i_glide_esite>  (446) 
-0.000233205

>  <r_i_glide_emodel>  (446) 
-32.8495

>  <r_i_glide_energy>  (446) 
-28.6246

>  <r_i_glide_einternal>  (446) 
3.87882

>  <r_i_glide_intrahb_reward>  (446) 
-0

>  <i_i_glide_confnum>  (446) 
1

>  <i_i_glide_posenum>  (446) 
22

>  <r_i_glide_eff_state_penalty>  (446) 
0

>  <ligand_id>  (446) 
115

>  <original_smiles>  (446) 
COC1CC23C(CCC4(C)C(C)(O)CCC24O)C(C)CCC(O)C3O1

>  <smiles>  (446) 
[H]OC1([H])C([H])([H])C([H])([H])C([H])(C([H])([H])[H])C2([H])C([H])([H])C([H])([H])C3(C([H])([H])[H])C(O[H])(C([H])([H])[H])C([H])([H])C([H])([H])C3(O[H])C23C([H])([H])C([H])(OC([H])([H])[H])OC13[H]

$$$$
115:0:1
     RDKit          3D

 59 62  0  0  1  0  0  0  0  0999 V2000
    2.0874   -1.9591    7.8146 C   0  0  0  0  0  0  0  0  0  0  0  0
    1.9024   -0.5557    7.7700 O   0  0  0  0  0  0  0  0  0  0  0  0
    2.5495    0.0510    6.7016 C   0  0  2  0  0  0  0  0  0  0  0  0
    2.3826    1.5679    6.8446 C   0  0  0  0  0  0  0  0  0  0  0  0
    1.4119    2.0314    5.7373 C   0  0  2  0  0  0  0  0  0  0  0  0
    1.8131    3.4972    5.2296 C   0  0  2  0  0  0  0  0  0  0  0  0
    1.3980    4.5672    6.2796 C   0  0  0  0  0  0  0  0  0  0  0  0
   -0.1155    4.5662    6.6125 C   0  0  0  0  0  0  0  0  0  0  0  0
   -0.5378    3.2133    7.2190 C   0  0  1  0  0  0  0  0  0  0  0  0
    0.0744    3.1425    8.6486 C   0  0  0  0  0  0  0  0  0  0  0  0
   -2.0750    2.9226    7.3955 C   0  0  1  0  0  0  0  0  0  0  0  0
   -2.7849    3.5116    8.6390 C   0  0  0  0  0  0  0  0  0  0  0  0
   -2.8092    3.3739    6.2833 O   0  0  0  0  0  0  0  0  0  0  0  0
   -2.1603    1.3776    7.3391 C   0  0  0  0  0  0  0  0  0  0  0  0
   -0.8031    0.8551    6.8253 C   0  0  0  0  0  0  0  0  0  0  0  0
   -0.1098    2.0809    6.2105 C   0  0  2  0  0  0  0  0  0  0  0  0
   -0.8468    2.2543    5.0019 O   0  0  0  0  0  0  0  0  0  0  0  0
    1.4165    3.9137    3.7562 C   0  0  1  0  0  0  0  0  0  0  0  0
    1.3433    5.4407    3.5224 C   0  0  0  0  0  0  0  0  0  0  0  0
    2.4092    3.3738    2.7141 C   0  0  0  0  0  0  0  0  0  0  0  0
    2.3433    1.8632    2.4752 C   0  0  0  0  0  0  0  0  0  0  0  0
    2.7706    0.9839    3.6489 C   0  0  1  0  0  0  0  0  0  0  0  0
    4.0194    1.4189    4.1257 O   0  0  0  0  0  0  0  0  0  0  0  0
    1.6762    0.8629    4.7310 C   0  0  1  0  0  0  0  0  0  0  0  0
    1.9590   -0.2983    5.4983 O   0  0  0  0  0  0  0  0  0  0  0  0
    1.4845   -2.3738    8.6220 H   0  0  0  0  0  0  0  0  0  0  0  0
    3.1339   -2.1912    8.0125 H   0  0  0  0  0  0  0  0  0  0  0  0
    1.7847   -2.4434    6.8840 H   0  0  0  0  0  0  0  0  0  0  0  0
    3.6058   -0.2238    6.6993 H   0  0  0  0  0  0  0  0  0  0  0  0
    2.0878    1.7794    7.8639 H   0  0  0  0  0  0  0  0  0  0  0  0
    3.3663    2.0179    6.6995 H   0  0  0  0  0  0  0  0  0  0  0  0
    2.9005    3.5655    5.2188 H   0  0  0  0  0  0  0  0  0  0  0  0
    1.9970    4.4126    7.1702 H   0  0  0  0  0  0  0  0  0  0  0  0
    1.7035    5.5738    5.9889 H   0  0  0  0  0  0  0  0  0  0  0  0
   -0.3432    5.3756    7.3054 H   0  0  0  0  0  0  0  0  0  0  0  0
   -0.6820    4.7737    5.7021 H   0  0  0  0  0  0  0  0  0  0  0  0
   -0.0998    2.1806    9.1266 H   0  0  0  0  0  0  0  0  0  0  0  0
   -0.3635    3.9023    9.2903 H   0  0  0  0  0  0  0  0  0  0  0  0
    1.1321    3.3553    8.7079 H   0  0  0  0  0  0  0  0  0  0  0  0
   -2.4361    3.0655    9.5737 H   0  0  0  0  0  0  0  0  0  0  0  0
   -3.8549    3.3213    8.5907 H   0  0  0  0  0  0  0  0  0  0  0  0
   -2.6379    4.5893    8.7090 H   0  0  0  0  0  0  0  0  0  0  0  0
   -2.3045    3.0291    5.5338 H   0  0  0  0  0  0  0  0  0  0  0  0
   -2.3454    0.9559    8.3250 H   0  0  0  0  0  0  0  0  0  0  0  0
   -2.9820    1.0709    6.6922 H   0  0  0  0  0  0  0  0  0  0  0  0
   -0.2458    0.5068    7.6905 H   0  0  0  0  0  0  0  0  0  0  0  0
   -0.8798    0.0216    6.1299 H   0  0  0  0  0  0  0  0  0  0  0  0
   -0.5493    1.6139    4.3657 H   0  0  0  0  0  0  0  0  0  0  0  0
    0.4384    3.5311    3.4962 H   0  0  0  0  0  0  0  0  0  0  0  0
    2.2943    5.9197    3.7532 H   0  0  0  0  0  0  0  0  0  0  0  0
    0.5657    5.9112    4.1181 H   0  0  0  0  0  0  0  0  0  0  0  0
    1.1042    5.6698    2.4881 H   0  0  0  0  0  0  0  0  0  0  0  0
    2.2160    3.8406    1.7493 H   0  0  0  0  0  0  0  0  0  0  0  0
    3.4160    3.6976    2.9612 H   0  0  0  0  0  0  0  0  0  0  0  0
    1.3457    1.5932    2.1178 H   0  0  0  0  0  0  0  0  0  0  0  0
    3.0150    1.6273    1.6570 H   0  0  0  0  0  0  0  0  0  0  0  0
    2.9217   -0.0109    3.2247 H   0  0  0  0  0  0  0  0  0  0  0  0
    4.4736    1.8400    3.3986 H   0  0  0  0  0  0  0  0  0  0  0  0
    0.7761    0.6008    4.1751 H   0  0  0  0  0  0  0  0  0  0  0  0
  1  2  1  0
  1 26  1  0
  1 27  1  0
  1 28  1  0
  2  3  1  0
  3 25  1  0
  3  4  1  0
  3 29  1  6
  5  4  1  1
  4 30  1  0
  4 31  1  0
  5 16  1  0
  5 24  1  0
  5  6  1  0
  6  7  1  0
  6 18  1  0
  6 32  1  6
  7  8  1  0
  7 33  1  0
  7 34  1  0
  8  9  1  0
  8 35  1  0
  8 36  1  0
  9 16  1  0
  9 10  1  1
  9 11  1  0
 10 37  1  0
 10 38  1  0
 10 39  1  0
 11 12  1  0
 11 13  1  6
 11 14  1  0
 12 40  1  0
 12 41  1  0
 12 42  1  0
 13 43  1  0
 14 15  1  0
 14 44  1  0
 14 45  1  0
 15 16  1  0
 15 46  1  0
 15 47  1  0
 16 17  1  6
 17 48  1  0
 18 19  1  0
 18 20  1  0
 18 49  1  6
 19 50  1  0
 19 51  1  0
 19 52  1  0
 20 21  1  0
 20 53  1  0
 20 54  1  0
 21 22  1  0
 21 55  1  0
 21 56  1  0
 22 23  1  0
 22 24  1  0
 22 57  1  6
 23 58  1  0
 24 25  1  0
 24 59  1  6
M  END
>  <i_m_ct_stereo_status>  (447) 
1

>  <s_m_source_file>  (447) 
/var/tmp/pbs.5076255.sched01/tmpt95b3wv2/135g3gtwtb2.sdf

>  <i_m_source_file_index>  (447) 
44

>  <i_lp_mmshare_version>  (447) 
48012

>  <i_f3d_flags>  (447) 
0

>  <s_epik_input>  (447) 
W0NIM11PW0NASF0oW0NIMl0xKU9bQ0BASF0yW0NASF0oW09IXSlbQ0gyXVtDSDJdW0NASF0oW0NIM10pW0NASF0oW0NAXTEyMylbQ0gyXVtDSDJdW0NAXTQoW0NIM10pW0NAXTMoW09IXSlbQ0gyXVtDSDJdW0NAXTQoW0NIM10pW09IXQ==

>  <s_epik_cmdline>  (447) 
J2VwaWtfcHl0aG9uJywgJy1waHQnLCAnMi4wJywgJy1waCcsICc3LjAnLCAnLXRuJywgJzgnLCAnLW1hJywgJzIwMCcsICctaW1hZScsICc8aW5maWxlLm1hZT4nLCAnLW9tYWUnLCAnPG91dGZpbGUubWFlPic=

>  <r_lp_tautomer_probability>  (447) 
1

>  <r_epik_Ionization_Penalty>  (447) 
2.95335e-06

>  <r_epik_Ionization_Penalty_Charging>  (447) 
0

>  <r_epik_Ionization_Penalty_Neutral>  (447) 
2.95335e-06

>  <r_epik_State_Penalty>  (447) 
-0

>  <r_epik_Charging_Adjusted_Penalty>  (447) 
0

>  <i_epik_Tot_Q>  (447) 
0

>  <i_epik_Tot_abs_Q>  (447) 
0

>  <s_epik_Chemistry_Notes>  (447) 
This compound contains an acetal/aminal-like group ( X-CH(R)-Y where X, Y are N, S, or O) that may be acid/base labile, releasing an aldehyde.

>  <s_lp_Force_Field>  (447) 
OPLS3e

>  <r_lp_Energy>  (447) 
61.0743

>  <b_lp_Chiralities_Consistent>  (447) 
1

>  <s_lp_Variant>  (447) 
115:0-1

>  <s_i_glide_gridfile>  (447) 
pfpi4k_grid

>  <i_i_glide_lignum>  (447) 
44

>  <i_i_glide_rotatable_bonds>  (447) 
4

>  <r_i_docking_score>  (447) 
-2.96723

>  <r_i_glide_ligand_efficiency>  (447) 
-0.118689

>  <r_i_glide_ligand_efficiency_sa>  (447) 
-0.34705

>  <r_i_glide_ligand_efficiency_ln>  (447) 
-0.703323

>  <r_i_glide_gscore>  (447) 
-2.96723

>  <r_i_glide_lipo>  (447) 
-0.12566

>  <r_i_glide_hbond>  (447) 
0

>  <r_i_glide_metal>  (447) 
-0

>  <r_i_glide_rewards>  (447) 
-1.49218

>  <r_i_glide_evdw>  (447) 
-14.6267

>  <r_i_glide_ecoul>  (447) 
-4.1204

>  <r_i_glide_erotb>  (447) 
0

>  <r_i_glide_esite>  (447) 
0

>  <r_i_glide_emodel>  (447) 
-27.8599

>  <r_i_glide_energy>  (447) 
-18.7471

>  <r_i_glide_einternal>  (447) 
1.22768

>  <r_i_glide_intrahb_reward>  (447) 
-0.5

>  <i_i_glide_confnum>  (447) 
1

>  <i_i_glide_posenum>  (447) 
2

>  <r_i_glide_eff_state_penalty>  (447) 
0

>  <ligand_id>  (447) 
115

>  <original_smiles>  (447) 
COC1CC23C(CCC4(C)C(C)(O)CCC24O)C(C)CCC(O)C3O1

>  <smiles>  (447) 
[H]OC1([H])C([H])([H])C([H])([H])C([H])(C([H])([H])[H])C2([H])C([H])([H])C([H])([H])C3(C([H])([H])[H])C(O[H])(C([H])([H])[H])C([H])([H])C([H])([H])C3(O[H])C23C([H])([H])C([H])(OC([H])([H])[H])OC13[H]

$$$$
