0:0:0
     RDKit          3D

 83 91  0  0  1  0  0  0  0  0999 V2000
    2.8545   -3.1366   -2.4014 C   0  0  0  0  0  0  0  0  0  0  0  0
    3.8127   -2.5182   -1.3826 C   0  0  2  0  0  0  0  0  0  0  0  0
    5.2615   -3.1114   -1.5767 C   0  0  0  0  0  0  0  0  0  0  0  0
    5.7537   -3.8338   -0.3159 C   0  0  1  0  0  0  0  0  0  0  0  0
    5.5817   -2.9481    0.8848 C   0  0  0  0  0  0  0  0  0  0  0  0
    4.1381   -3.5112    1.0145 C   0  0  1  0  0  0  0  0  0  0  0  0
    3.2336   -2.6483    0.0775 C   0  0  1  0  0  0  0  0  0  0  0  0
    3.0490   -1.3335    0.5842 O   0  0  0  0  0  0  0  0  0  0  0  0
    4.7130   -4.7702    0.3467 C   0  0  2  0  0  0  0  0  0  0  0  0
    4.8028   -6.0545    1.2654 C   0  0  2  0  0  0  0  0  0  0  0  0
    3.3511   -6.6787    1.2098 C   0  0  1  0  0  0  0  0  0  0  0  0
    3.0537   -8.1022    1.7268 C   0  0  0  0  0  0  0  0  0  0  0  0
    2.1815   -8.1779    3.0076 C   0  0  1  0  0  0  0  0  0  0  0  0
    2.1513   -9.5418    3.5450 C   0  0  0  0  0  0  0  0  0  0  0  0
    1.9984  -10.6001    2.9199 O   0  0  0  0  0  0  0  0  0  0  0  0
    2.2623   -9.4491    5.0487 C   0  0  0  0  0  0  0  0  0  0  0  0
    1.2892  -10.3771    5.7782 C   0  0  0  0  0  0  0  0  0  0  0  0
    3.7185   -9.7336    5.4612 C   0  0  0  0  0  0  0  0  0  0  0  0
    1.9494   -8.0854    5.3420 O   0  0  0  0  0  0  0  0  0  0  0  0
    2.0375   -7.2241    4.1969 C   0  0  1  0  0  0  0  0  0  0  0  0
    2.1284   -5.7559    4.6370 C   0  0  0  0  0  0  0  0  0  0  0  0
    3.5143   -5.0676    4.7500 C   0  0  1  0  0  0  0  0  0  0  0  0
    4.2602   -5.7557    5.9359 C   0  0  0  0  0  0  0  0  0  0  0  0
    4.3591   -4.7526    3.4303 C   0  0  1  0  0  0  0  0  0  0  0  0
    5.7419   -4.1415    3.7950 C   0  0  0  0  0  0  0  0  0  0  0  0
    6.5810   -5.3125    3.2019 C   0  0  0  0  0  0  0  0  0  0  0  0
    7.6882   -5.1244    2.1290 C   0  0  0  0  0  0  0  0  0  0  0  0
    7.3598   -6.0648    4.3036 C   0  0  0  0  0  0  0  0  0  0  0  0
    5.2161   -5.8764    2.7421 C   0  0  2  0  0  0  0  0  0  0  0  0
    5.1023   -7.1646    3.2853 O   0  0  0  0  0  0  0  0  0  0  0  0
    3.4665   -3.8575    2.4130 C   0  0  1  0  0  0  0  0  0  0  0  0
    3.1680   -2.6328    3.0595 O   0  0  0  0  0  0  0  0  0  0  0  0
    2.2462   -4.5355    2.1563 O   0  0  0  0  0  0  0  0  0  0  0  0
    2.0936   -5.7089    1.3456 C   0  0  1  0  0  0  0  0  0  0  0  0
    1.7590   -5.3375    0.0145 O   0  0  0  0  0  0  0  0  0  0  0  0
    0.7972   -6.3922    1.9350 C   0  0  1  0  0  0  0  0  0  0  0  0
   -0.0136   -7.0134    0.9469 O   0  0  0  0  0  0  0  0  0  0  0  0
    0.9536   -7.3658    3.1148 C   0  0  1  0  0  0  0  0  0  0  0  0
   -0.4052   -7.9213    3.5614 C   0  0  0  0  0  0  0  0  0  0  0  0
    2.7017   -4.1801   -2.1628 H   0  0  0  0  0  0  0  0  0  0  0  0
    3.2234   -3.0680   -3.4287 H   0  0  0  0  0  0  0  0  0  0  0  0
    1.8694   -2.6618   -2.3646 H   0  0  0  0  0  0  0  0  0  0  0  0
    3.8732   -1.4682   -1.6533 H   0  0  0  0  0  0  0  0  0  0  0  0
    5.3119   -3.7820   -2.4224 H   0  0  0  0  0  0  0  0  0  0  0  0
    5.9436   -2.3008   -1.8413 H   0  0  0  0  0  0  0  0  0  0  0  0
    6.7511   -4.2453   -0.4174 H   0  0  0  0  0  0  0  0  0  0  0  0
    6.3503   -3.1625    1.5920 H   0  0  0  0  0  0  0  0  0  0  0  0
    5.6018   -1.8968    0.6181 H   0  0  0  0  0  0  0  0  0  0  0  0
    2.1993   -2.9988    0.0531 H   0  0  0  0  0  0  0  0  0  0  0  0
    2.3544   -0.9403    0.0660 H   0  0  0  0  0  0  0  0  0  0  0  0
    4.1395   -5.0276   -0.5191 H   0  0  0  0  0  0  0  0  0  0  0  0
    5.4788   -6.7616    0.7849 H   0  0  0  0  0  0  0  0  0  0  0  0
    3.3998   -6.9094    0.1531 H   0  0  0  0  0  0  0  0  0  0  0  0
    2.4688   -8.6107    0.9564 H   0  0  0  0  0  0  0  0  0  0  0  0
    3.9280   -8.7335    1.8103 H   0  0  0  0  0  0  0  0  0  0  0  0
    1.5555  -11.4181    5.6023 H   0  0  0  0  0  0  0  0  0  0  0  0
    0.2538  -10.2383    5.4759 H   0  0  0  0  0  0  0  0  0  0  0  0
    1.3594  -10.1985    6.8541 H   0  0  0  0  0  0  0  0  0  0  0  0
    3.9753  -10.7799    5.2830 H   0  0  0  0  0  0  0  0  0  0  0  0
    3.8649   -9.5310    6.5300 H   0  0  0  0  0  0  0  0  0  0  0  0
    4.4284   -9.1203    4.9028 H   0  0  0  0  0  0  0  0  0  0  0  0
    1.3931   -5.1056    4.1764 H   0  0  0  0  0  0  0  0  0  0  0  0
    1.7139   -5.7397    5.6596 H   0  0  0  0  0  0  0  0  0  0  0  0
    3.2803   -4.0894    5.1705 H   0  0  0  0  0  0  0  0  0  0  0  0
    4.5819   -6.7753    5.7170 H   0  0  0  0  0  0  0  0  0  0  0  0
    3.5977   -5.8280    6.8043 H   0  0  0  0  0  0  0  0  0  0  0  0
    5.1135   -5.2025    6.3208 H   0  0  0  0  0  0  0  0  0  0  0  0
    5.8276   -3.1263    3.4496 H   0  0  0  0  0  0  0  0  0  0  0  0
    5.9224   -4.0806    4.8550 H   0  0  0  0  0  0  0  0  0  0  0  0
    8.5895   -5.7021    2.3415 H   0  0  0  0  0  0  0  0  0  0  0  0
    8.0547   -4.1157    2.0384 H   0  0  0  0  0  0  0  0  0  0  0  0
    7.3637   -5.4799    1.1656 H   0  0  0  0  0  0  0  0  0  0  0  0
    7.7564   -7.0127    3.9379 H   0  0  0  0  0  0  0  0  0  0  0  0
    6.7499   -6.2990    5.1656 H   0  0  0  0  0  0  0  0  0  0  0  0
    8.2037   -5.4773    4.6662 H   0  0  0  0  0  0  0  0  0  0  0  0
    4.2597   -7.4627    3.0297 H   0  0  0  0  0  0  0  0  0  0  0  0
    2.9469   -1.9846    2.3981 H   0  0  0  0  0  0  0  0  0  0  0  0
    2.5410   -5.0803   -0.4369 H   0  0  0  0  0  0  0  0  0  0  0  0
    0.1800   -5.5765    2.3330 H   0  0  0  0  0  0  0  0  0  0  0  0
    0.3238   -7.8918    0.7876 H   0  0  0  0  0  0  0  0  0  0  0  0
   -1.2052   -7.1786    3.4826 H   0  0  0  0  0  0  0  0  0  0  0  0
   -0.3997   -8.2516    4.5914 H   0  0  0  0  0  0  0  0  0  0  0  0
   -0.6807   -8.7785    2.9423 H   0  0  0  0  0  0  0  0  0  0  0  0
  1  2  1  0
  1 40  1  0
  1 41  1  0
  1 42  1  0
  2  7  1  0
  2  3  1  0
  2 43  1  6
  3  4  1  0
  3 44  1  0
  3 45  1  0
  4  9  1  0
  4  5  1  0
  4 46  1  6
  6  5  1  1
  5 47  1  0
  5 48  1  0
  6 31  1  0
  6  7  1  0
  6  9  1  0
  7  8  1  0
  7 49  1  6
  8 50  1  0
  9 10  1  0
  9 51  1  6
 10 29  1  0
 10 11  1  0
 10 52  1  6
 11 34  1  0
 11 12  1  0
 11 53  1  6
 12 13  1  0
 12 54  1  0
 12 55  1  0
 13 20  1  0
 13 38  1  0
 13 14  1  1
 14 15  2  0
 14 16  1  0
 16 17  1  0
 16 18  1  0
 16 19  1  0
 17 56  1  0
 17 57  1  0
 17 58  1  0
 18 59  1  0
 18 60  1  0
 18 61  1  0
 20 19  1  1
 20 38  1  0
 20 21  1  0
 21 22  1  0
 21 62  1  0
 21 63  1  0
 22 23  1  0
 22 24  1  0
 22 64  1  1
 23 65  1  0
 23 66  1  0
 23 67  1  0
 24 29  1  0
 24 25  1  1
 24 31  1  0
 25 26  1  0
 25 68  1  0
 25 69  1  0
 26 27  1  0
 26 28  1  0
 26 29  1  0
 27 70  1  0
 27 71  1  0
 27 72  1  0
 28 73  1  0
 28 74  1  0
 28 75  1  0
 29 30  1  1
 30 76  1  0
 31 32  1  1
 31 33  1  0
 32 77  1  0
 33 34  1  0
 34 35  1  6
 34 36  1  0
 35 78  1  0
 36 37  1  0
 36 38  1  0
 36 79  1  1
 37 80  1  0
 38 39  1  1
 39 81  1  0
 39 82  1  0
 39 83  1  0
M  END
>  <i_m_ct_stereo_status>  (1) 
1

>  <s_m_source_file>  (1) 
/var/tmp/pbs.5076255.sched01/tmp7hrp_b9g/014g_j70o.sdf

>  <i_m_source_file_index>  (1) 
1

>  <i_lp_mmshare_version>  (1) 
48012

>  <i_f3d_flags>  (1) 
0

>  <s_epik_input>  (1) 
W09IXVtDQEhdMVtDQEhdKFtDSDNdKVtDSDJdW0NAQEhdKFtDSDJdMilbQ0BIXShbQ0BdMTIzKVtDQEBIXTRbQ0BASF01W0NAXTYoW09IXSlPW0NAQF0zKFtPSF0pW0NAXTcoW0NAXTQoW09IXSlDKFtDSDJdNykoW0NIM10pW0NIM10pW0NASF0oW0NIM10pW0NIMl1bQ0BAXTg5W0NAQF0oW0NIMl01KShDKD1PKUMoTzgpKFtDSDNdKVtDSDNdKVtDQF05KFtDSDNdKVtDQEBIXTZbT0hd

>  <s_epik_cmdline>  (1) 
J2VwaWtfcHl0aG9uJywgJy1waHQnLCAnMi4wJywgJy1waCcsICc3LjAnLCAnLXRuJywgJzgnLCAnLW1hJywgJzIwMCcsICctaW1hZScsICc8aW5maWxlLm1hZT4nLCAnLW9tYWUnLCAnPG91dGZpbGUubWFlPic=

>  <r_lp_tautomer_probability>  (1) 
1

>  <r_epik_Ionization_Penalty>  (1) 
1.91498e-06

>  <r_epik_Ionization_Penalty_Charging>  (1) 
0

>  <r_epik_Ionization_Penalty_Neutral>  (1) 
1.91498e-06

>  <r_epik_State_Penalty>  (1) 
-0

>  <r_epik_Charging_Adjusted_Penalty>  (1) 
0

>  <i_epik_Tot_Q>  (1) 
0

>  <i_epik_Tot_abs_Q>  (1) 
0

>  <s_lp_Force_Field>  (1) 
OPLS3e

>  <r_lp_Energy>  (1) 
234.312

>  <b_lp_Chiralities_Consistent>  (1) 
1

>  <s_lp_Variant>  (1) 
0:0-1

>  <s_i_glide_gridfile>  (1) 
pfpi4k_grid

>  <i_i_glide_lignum>  (1) 
1

>  <i_i_glide_rotatable_bonds>  (1) 
5

>  <r_i_docking_score>  (1) 
-3.46854

>  <r_i_glide_ligand_efficiency>  (1) 
-0.0889368

>  <r_i_glide_ligand_efficiency_sa>  (1) 
-0.301603

>  <r_i_glide_ligand_efficiency_ln>  (1) 
-0.743752

>  <r_i_glide_gscore>  (1) 
-3.46854

>  <r_i_glide_lipo>  (1) 
-0.438339

>  <r_i_glide_hbond>  (1) 
0

>  <r_i_glide_metal>  (1) 
-0

>  <r_i_glide_rewards>  (1) 
-0.500648

>  <r_i_glide_evdw>  (1) 
-21.9984

>  <r_i_glide_ecoul>  (1) 
-9.23296

>  <r_i_glide_erotb>  (1) 
0

>  <r_i_glide_esite>  (1) 
-0.0446845

>  <r_i_glide_emodel>  (1) 
-39.8975

>  <r_i_glide_energy>  (1) 
-31.2314

>  <r_i_glide_einternal>  (1) 
1.94508

>  <r_i_glide_intrahb_reward>  (1) 
-0.5

>  <i_i_glide_confnum>  (1) 
1

>  <i_i_glide_posenum>  (1) 
35

>  <r_i_glide_eff_state_penalty>  (1) 
0

>  <ligand_id>  (1) 
0

>  <original_smiles>  (1) 
CC1CC2CC3(C1O)C2C1C2CC45C(=O)C(C)(C)OC46CC(C)C4(CC(C)(C)C14O)C3(O)OC2(O)C(O)C65C

>  <smiles>  (1) 
[H]OC1([H])C([H])(C([H])([H])[H])C([H])([H])C2([H])C([H])([H])C13C1(O[H])OC4(O[H])C([H])(O[H])C5(C([H])([H])[H])C67OC(C([H])([H])[H])(C([H])([H])[H])C(=O)C65C([H])([H])C4([H])C([H])(C23[H])C2(O[H])C(C([H])([H])[H])(C([H])([H])[H])C([H])([H])C12C([H])(C([H])([H])[H])C7([H])[H]

$$$$
0:0:1
     RDKit          3D

 83 91  0  0  1  0  0  0  0  0999 V2000
    2.9332   -3.1560   -2.4043 C   0  0  0  0  0  0  0  0  0  0  0  0
    3.9201   -2.5788   -1.3826 C   0  0  2  0  0  0  0  0  0  0  0  0
    5.3405   -3.2228   -1.5653 C   0  0  0  0  0  0  0  0  0  0  0  0
    5.7870   -3.9618   -0.2994 C   0  0  1  0  0  0  0  0  0  0  0  0
    5.6483   -3.0647    0.8966 C   0  0  0  0  0  0  0  0  0  0  0  0
    4.1822   -3.5655    1.0253 C   0  0  1  0  0  0  0  0  0  0  0  0
    3.3218   -2.6606    0.0787 C   0  0  1  0  0  0  0  0  0  0  0  0
    3.2114   -1.3355    0.5710 O   0  0  0  0  0  0  0  0  0  0  0  0
    4.7053   -4.8471    0.3710 C   0  0  2  0  0  0  0  0  0  0  0  0
    4.7235   -6.1361    1.2832 C   0  0  2  0  0  0  0  0  0  0  0  0
    3.2488   -6.6952    1.2268 C   0  0  1  0  0  0  0  0  0  0  0  0
    2.8738   -8.1095    1.7311 C   0  0  0  0  0  0  0  0  0  0  0  0
    2.0084   -8.1508    2.9958 C   0  0  1  0  0  0  0  0  0  0  0  0
    1.9200   -9.5066    3.5558 C   0  0  0  0  0  0  0  0  0  0  0  0
    1.6998  -10.5633    2.9226 O   0  0  0  0  0  0  0  0  0  0  0  0
    2.0214   -9.4215    5.0491 C   0  0  0  0  0  0  0  0  0  0  0  0
    1.0085  -10.3003    5.7962 C   0  0  0  0  0  0  0  0  0  0  0  0
    3.4626   -9.7664    5.4778 C   0  0  0  0  0  0  0  0  0  0  0  0
    1.7727   -8.0414    5.3447 O   0  0  0  0  0  0  0  0  0  0  0  0
    1.8852   -7.1863    4.1974 C   0  0  1  0  0  0  0  0  0  0  0  0
    2.0606   -5.7248    4.6373 C   0  0  0  0  0  0  0  0  0  0  0  0
    3.4775   -5.1003    4.7595 C   0  0  1  0  0  0  0  0  0  0  0  0
    4.1798   -5.8112    5.9561 C   0  0  0  0  0  0  0  0  0  0  0  0
    4.3387   -4.8138    3.4404 C   0  0  1  0  0  0  0  0  0  0  0  0
    5.7469   -4.2640    3.8229 C   0  0  0  0  0  0  0  0  0  0  0  0
    6.5350   -5.4627    3.2371 C   0  0  0  0  0  0  0  0  0  0  0  0
    7.6493   -5.3194    2.1733 C   0  0  0  0  0  0  0  0  0  0  0  0
    7.2707   -6.2550    4.3420 C   0  0  0  0  0  0  0  0  0  0  0  0
    5.1364   -5.9674    2.7602 C   0  0  2  0  0  0  0  0  0  0  0  0
    4.9641   -7.2383    3.3194 O   0  0  0  0  0  0  0  0  0  0  0  0
    3.4896   -3.8818    2.4224 C   0  0  1  0  0  0  0  0  0  0  0  0
    3.2557   -2.6453    3.0698 O   0  0  0  0  0  0  0  0  0  0  0  0
    2.2316   -4.5056    2.1697 O   0  0  0  0  0  0  0  0  0  0  0  0
    2.0370   -5.6703    1.3556 C   0  0  1  0  0  0  0  0  0  0  0  0
    1.7320   -5.2895    0.0248 O   0  0  0  0  0  0  0  0  0  0  0  0
    0.7059   -6.3078    1.9399 C   0  0  1  0  0  0  0  0  0  0  0  0
   -0.1054   -6.9026    0.9322 O   0  0  0  0  0  0  0  0  0  0  0  0
    0.8051   -7.2776    3.1203 C   0  0  1  0  0  0  0  0  0  0  0  0
   -0.5778   -7.7839    3.5555 C   0  0  0  0  0  0  0  0  0  0  0  0
    2.7309   -4.1938   -2.1668 H   0  0  0  0  0  0  0  0  0  0  0  0
    3.3044   -3.1018   -3.4324 H   0  0  0  0  0  0  0  0  0  0  0  0
    1.9699   -2.6441   -2.3694 H   0  0  0  0  0  0  0  0  0  0  0  0
    4.0262   -1.5346   -1.6704 H   0  0  0  0  0  0  0  0  0  0  0  0
    5.3753   -3.9053   -2.4090 H   0  0  0  0  0  0  0  0  0  0  0  0
    6.0659   -2.4460   -1.8127 H   0  0  0  0  0  0  0  0  0  0  0  0
    6.7668   -4.4075   -0.3672 H   0  0  0  0  0  0  0  0  0  0  0  0
    6.3987   -3.2798    1.6229 H   0  0  0  0  0  0  0  0  0  0  0  0
    5.7169   -2.0147    0.6275 H   0  0  0  0  0  0  0  0  0  0  0  0
    2.2755   -2.9644    0.0454 H   0  0  0  0  0  0  0  0  0  0  0  0
    2.4892   -0.9298    0.0988 H   0  0  0  0  0  0  0  0  0  0  0  0
    4.1266   -5.0788   -0.5023 H   0  0  0  0  0  0  0  0  0  0  0  0
    5.3650   -6.8802    0.8114 H   0  0  0  0  0  0  0  0  0  0  0  0
    3.2773   -6.9161    0.1719 H   0  0  0  0  0  0  0  0  0  0  0  0
    2.2829   -8.6051    0.9579 H   0  0  0  0  0  0  0  0  0  0  0  0
    3.7392   -8.7541    1.8367 H   0  0  0  0  0  0  0  0  0  0  0  0
    1.2126  -11.3564    5.6218 H   0  0  0  0  0  0  0  0  0  0  0  0
   -0.0189  -10.1139    5.4888 H   0  0  0  0  0  0  0  0  0  0  0  0
    1.0775  -10.1298    6.8707 H   0  0  0  0  0  0  0  0  0  0  0  0
    3.6831  -10.8241    5.3015 H   0  0  0  0  0  0  0  0  0  0  0  0
    3.6226   -9.5685    6.5415 H   0  0  0  0  0  0  0  0  0  0  0  0
    4.2000   -9.1849    4.9146 H   0  0  0  0  0  0  0  0  0  0  0  0
    1.3625   -5.0549    4.1600 H   0  0  0  0  0  0  0  0  0  0  0  0
    1.6384   -5.6907    5.6467 H   0  0  0  0  0  0  0  0  0  0  0  0
    3.2794   -4.1102    5.1783 H   0  0  0  0  0  0  0  0  0  0  0  0
    4.4477   -6.8519    5.7615 H   0  0  0  0  0  0  0  0  0  0  0  0
    3.5088   -5.8465    6.8181 H   0  0  0  0  0  0  0  0  0  0  0  0
    5.0579   -5.2984    6.3504 H   0  0  0  0  0  0  0  0  0  0  0  0
    5.8939   -3.2543    3.4759 H   0  0  0  0  0  0  0  0  0  0  0  0
    5.9288   -4.1963    4.8877 H   0  0  0  0  0  0  0  0  0  0  0  0
    8.5292   -5.9331    2.3750 H   0  0  0  0  0  0  0  0  0  0  0  0
    8.0500   -4.3153    2.0759 H   0  0  0  0  0  0  0  0  0  0  0  0
    7.3067   -5.6655    1.2072 H   0  0  0  0  0  0  0  0  0  0  0  0
    7.6257   -7.2248    3.9857 H   0  0  0  0  0  0  0  0  0  0  0  0
    6.6534   -6.4565    5.2107 H   0  0  0  0  0  0  0  0  0  0  0  0
    8.1408   -5.7125    4.7127 H   0  0  0  0  0  0  0  0  0  0  0  0
    5.1789   -7.1423    4.2276 H   0  0  0  0  0  0  0  0  0  0  0  0
    3.0143   -2.0152    2.4024 H   0  0  0  0  0  0  0  0  0  0  0  0
    2.5275   -5.0320   -0.4168 H   0  0  0  0  0  0  0  0  0  0  0  0
    0.1156   -5.4725    2.3081 H   0  0  0  0  0  0  0  0  0  0  0  0
    0.2413   -7.7619    0.7325 H   0  0  0  0  0  0  0  0  0  0  0  0
   -1.3484   -7.0144    3.4717 H   0  0  0  0  0  0  0  0  0  0  0  0
   -0.5897   -8.1126    4.5892 H   0  0  0  0  0  0  0  0  0  0  0  0
   -0.8883   -8.6360    2.9459 H   0  0  0  0  0  0  0  0  0  0  0  0
  1  2  1  0
  1 40  1  0
  1 41  1  0
  1 42  1  0
  2  7  1  0
  2  3  1  0
  2 43  1  6
  3  4  1  0
  3 44  1  0
  3 45  1  0
  4  9  1  0
  4  5  1  0
  4 46  1  6
  6  5  1  1
  5 47  1  0
  5 48  1  0
  6 31  1  0
  6  7  1  0
  6  9  1  0
  7  8  1  0
  7 49  1  6
  8 50  1  0
  9 10  1  0
  9 51  1  6
 10 29  1  0
 10 11  1  0
 10 52  1  6
 11 34  1  0
 11 12  1  0
 11 53  1  6
 12 13  1  0
 12 54  1  0
 12 55  1  0
 13 20  1  0
 13 38  1  0
 13 14  1  1
 14 15  2  0
 14 16  1  0
 16 17  1  0
 16 18  1  0
 16 19  1  0
 17 56  1  0
 17 57  1  0
 17 58  1  0
 18 59  1  0
 18 60  1  0
 18 61  1  0
 20 19  1  1
 20 38  1  0
 20 21  1  0
 21 22  1  0
 21 62  1  0
 21 63  1  0
 22 23  1  0
 22 24  1  0
 22 64  1  1
 23 65  1  0
 23 66  1  0
 23 67  1  0
 24 29  1  0
 24 25  1  1
 24 31  1  0
 25 26  1  0
 25 68  1  0
 25 69  1  0
 26 27  1  0
 26 28  1  0
 26 29  1  0
 27 70  1  0
 27 71  1  0
 27 72  1  0
 28 73  1  0
 28 74  1  0
 28 75  1  0
 29 30  1  1
 30 76  1  0
 31 32  1  1
 31 33  1  0
 32 77  1  0
 33 34  1  0
 34 35  1  6
 34 36  1  0
 35 78  1  0
 36 37  1  0
 36 38  1  0
 36 79  1  1
 37 80  1  0
 38 39  1  1
 39 81  1  0
 39 82  1  0
 39 83  1  0
M  END
>  <i_m_ct_stereo_status>  (2) 
1

>  <s_m_source_file>  (2) 
/var/tmp/pbs.5076255.sched01/tmp7hrp_b9g/014g_j70o.sdf

>  <i_m_source_file_index>  (2) 
1

>  <i_lp_mmshare_version>  (2) 
48012

>  <i_f3d_flags>  (2) 
0

>  <s_epik_input>  (2) 
W09IXVtDQEhdMVtDQEhdKFtDSDNdKVtDSDJdW0NAQEhdKFtDSDJdMilbQ0BIXShbQ0BdMTIzKVtDQEBIXTRbQ0BASF01W0NAXTYoW09IXSlPW0NAQF0zKFtPSF0pW0NAXTcoW0NAXTQoW09IXSlDKFtDSDJdNykoW0NIM10pW0NIM10pW0NASF0oW0NIM10pW0NIMl1bQ0BAXTg5W0NAQF0oW0NIMl01KShDKD1PKUMoTzgpKFtDSDNdKVtDSDNdKVtDQF05KFtDSDNdKVtDQEBIXTZbT0hd

>  <s_epik_cmdline>  (2) 
J2VwaWtfcHl0aG9uJywgJy1waHQnLCAnMi4wJywgJy1waCcsICc3LjAnLCAnLXRuJywgJzgnLCAnLW1hJywgJzIwMCcsICctaW1hZScsICc8aW5maWxlLm1hZT4nLCAnLW9tYWUnLCAnPG91dGZpbGUubWFlPic=

>  <r_lp_tautomer_probability>  (2) 
1

>  <r_epik_Ionization_Penalty>  (2) 
1.91498e-06

>  <r_epik_Ionization_Penalty_Charging>  (2) 
0

>  <r_epik_Ionization_Penalty_Neutral>  (2) 
1.91498e-06

>  <r_epik_State_Penalty>  (2) 
-0

>  <r_epik_Charging_Adjusted_Penalty>  (2) 
0

>  <i_epik_Tot_Q>  (2) 
0

>  <i_epik_Tot_abs_Q>  (2) 
0

>  <s_lp_Force_Field>  (2) 
OPLS3e

>  <r_lp_Energy>  (2) 
234.312

>  <b_lp_Chiralities_Consistent>  (2) 
1

>  <s_lp_Variant>  (2) 
0:0-1

>  <s_i_glide_gridfile>  (2) 
pfpi4k_grid

>  <i_i_glide_lignum>  (2) 
1

>  <i_i_glide_rotatable_bonds>  (2) 
5

>  <r_i_docking_score>  (2) 
-3.40392

>  <r_i_glide_ligand_efficiency>  (2) 
-0.0872799

>  <r_i_glide_ligand_efficiency_sa>  (2) 
-0.295985

>  <r_i_glide_ligand_efficiency_ln>  (2) 
-0.729896

>  <r_i_glide_gscore>  (2) 
-3.40392

>  <r_i_glide_lipo>  (2) 
-0.461445

>  <r_i_glide_hbond>  (2) 
0

>  <r_i_glide_metal>  (2) 
-0

>  <r_i_glide_rewards>  (2) 
-0.50065

>  <r_i_glide_evdw>  (2) 
-21.8625

>  <r_i_glide_ecoul>  (2) 
-8.64952

>  <r_i_glide_erotb>  (2) 
0

>  <r_i_glide_esite>  (2) 
-0.051267

>  <r_i_glide_emodel>  (2) 
-39.6733

>  <r_i_glide_energy>  (2) 
-30.512

>  <r_i_glide_einternal>  (2) 
0.859834

>  <r_i_glide_intrahb_reward>  (2) 
-0.5

>  <i_i_glide_confnum>  (2) 
2

>  <i_i_glide_posenum>  (2) 
24

>  <r_i_glide_eff_state_penalty>  (2) 
0

>  <ligand_id>  (2) 
0

>  <original_smiles>  (2) 
CC1CC2CC3(C1O)C2C1C2CC45C(=O)C(C)(C)OC46CC(C)C4(CC(C)(C)C14O)C3(O)OC2(O)C(O)C65C

>  <smiles>  (2) 
[H]OC1([H])C([H])(C([H])([H])[H])C([H])([H])C2([H])C([H])([H])C13C1(O[H])OC4(O[H])C([H])(O[H])C5(C([H])([H])[H])C67OC(C([H])([H])[H])(C([H])([H])[H])C(=O)C65C([H])([H])C4([H])C([H])(C23[H])C2(O[H])C(C([H])([H])[H])(C([H])([H])[H])C([H])([H])C12C([H])(C([H])([H])[H])C7([H])[H]

$$$$
0:0:2
     RDKit          3D

 83 91  0  0  1  0  0  0  0  0999 V2000
    2.9263   -3.1406   -2.4319 C   0  0  0  0  0  0  0  0  0  0  0  0
    3.8822   -2.5262   -1.4051 C   0  0  2  0  0  0  0  0  0  0  0  0
    5.3309   -3.1153   -1.5803 C   0  0  0  0  0  0  0  0  0  0  0  0
    5.7975   -3.8401   -0.3107 C   0  0  1  0  0  0  0  0  0  0  0  0
    5.6129   -2.9531    0.8857 C   0  0  0  0  0  0  0  0  0  0  0  0
    4.1638   -3.5044    1.0094 C   0  0  1  0  0  0  0  0  0  0  0  0
    3.2800   -2.6384    0.0515 C   0  0  1  0  0  0  0  0  0  0  0  0
    3.1034   -1.3219    0.5496 O   0  0  0  0  0  0  0  0  0  0  0  0
    4.7446   -4.7645    0.3525 C   0  0  2  0  0  0  0  0  0  0  0  0
    4.8107   -6.0565    1.2607 C   0  0  2  0  0  0  0  0  0  0  0  0
    3.3587   -6.6701    1.1959 C   0  0  1  0  0  0  0  0  0  0  0  0
    3.0428   -8.0976    1.7023 C   0  0  0  0  0  0  0  0  0  0  0  0
    2.1671   -8.1697    2.9746 C   0  0  1  0  0  0  0  0  0  0  0  0
    2.1316   -9.5251    3.5342 C   0  0  0  0  0  0  0  0  0  0  0  0
    1.9711  -10.5906    2.9023 O   0  0  0  0  0  0  0  0  0  0  0  0
    2.2234   -9.4309    5.0279 C   0  0  0  0  0  0  0  0  0  0  0  0
    1.2456  -10.3583    5.7576 C   0  0  0  0  0  0  0  0  0  0  0  0
    3.6744   -9.7198    5.4613 C   0  0  0  0  0  0  0  0  0  0  0  0
    1.9103   -8.0667    5.3197 O   0  0  0  0  0  0  0  0  0  0  0  0
    2.0102   -7.2110    4.1720 C   0  0  1  0  0  0  0  0  0  0  0  0
    2.1116   -5.7382    4.6123 C   0  0  0  0  0  0  0  0  0  0  0  0
    3.5045   -5.0584    4.7362 C   0  0  1  0  0  0  0  0  0  0  0  0
    4.2290   -5.7396    5.9351 C   0  0  0  0  0  0  0  0  0  0  0  0
    4.3573   -4.7433    3.4192 C   0  0  1  0  0  0  0  0  0  0  0  0
    5.7413   -4.1434    3.7999 C   0  0  0  0  0  0  0  0  0  0  0  0
    6.5749   -5.3159    3.2202 C   0  0  0  0  0  0  0  0  0  0  0  0
    7.6917   -5.1380    2.1589 C   0  0  0  0  0  0  0  0  0  0  0  0
    7.3444   -6.0648    4.3315 C   0  0  0  0  0  0  0  0  0  0  0  0
    5.1972   -5.8710    2.7514 C   0  0  2  0  0  0  0  0  0  0  0  0
    5.0592   -7.1452    3.3208 O   0  0  0  0  0  0  0  0  0  0  0  0
    3.4879   -3.8446    2.3986 C   0  0  1  0  0  0  0  0  0  0  0  0
    3.1906   -2.6110    3.0404 O   0  0  0  0  0  0  0  0  0  0  0  0
    2.2583   -4.5141    2.1414 O   0  0  0  0  0  0  0  0  0  0  0  0
    2.1096   -5.6887    1.3298 C   0  0  1  0  0  0  0  0  0  0  0  0
    1.7811   -5.3086    0.0030 O   0  0  0  0  0  0  0  0  0  0  0  0
    0.7988   -6.3676    1.9133 C   0  0  1  0  0  0  0  0  0  0  0  0
    0.0057   -6.9952    0.9121 O   0  0  0  0  0  0  0  0  0  0  0  0
    0.9397   -7.3482    3.0853 C   0  0  1  0  0  0  0  0  0  0  0  0
   -0.4292   -7.9023    3.5164 C   0  0  0  0  0  0  0  0  0  0  0  0
    2.7652   -4.1833   -2.1889 H   0  0  0  0  0  0  0  0  0  0  0  0
    3.3039   -3.0746   -3.4590 H   0  0  0  0  0  0  0  0  0  0  0  0
    1.9430   -2.6685   -2.4050 H   0  0  0  0  0  0  0  0  0  0  0  0
    3.9458   -1.4773   -1.6859 H   0  0  0  0  0  0  0  0  0  0  0  0
    5.3902   -3.7967   -2.4246 H   0  0  0  0  0  0  0  0  0  0  0  0
    6.0242   -2.3068   -1.8322 H   0  0  0  0  0  0  0  0  0  0  0  0
    6.7936   -4.2548   -0.3913 H   0  0  0  0  0  0  0  0  0  0  0  0
    6.3728   -3.1435    1.6077 H   0  0  0  0  0  0  0  0  0  0  0  0
    5.6390   -1.9082    0.6097 H   0  0  0  0  0  0  0  0  0  0  0  0
    2.2422   -2.9790    0.0134 H   0  0  0  0  0  0  0  0  0  0  0  0
    2.3857   -0.9403    0.0520 H   0  0  0  0  0  0  0  0  0  0  0  0
    4.1832   -5.0147   -0.5234 H   0  0  0  0  0  0  0  0  0  0  0  0
    5.4872   -6.7712    0.7878 H   0  0  0  0  0  0  0  0  0  0  0  0
    3.3964   -6.8938    0.1226 H   0  0  0  0  0  0  0  0  0  0  0  0
    2.4699   -8.6156    0.9356 H   0  0  0  0  0  0  0  0  0  0  0  0
    3.9220   -8.7128    1.8178 H   0  0  0  0  0  0  0  0  0  0  0  0
    1.5009  -11.4018    5.5869 H   0  0  0  0  0  0  0  0  0  0  0  0
    0.2140  -10.2199    5.4427 H   0  0  0  0  0  0  0  0  0  0  0  0
    1.2976  -10.1831    6.8315 H   0  0  0  0  0  0  0  0  0  0  0  0
    3.9356  -10.7680    5.2845 H   0  0  0  0  0  0  0  0  0  0  0  0
    3.8177   -9.5168    6.5268 H   0  0  0  0  0  0  0  0  0  0  0  0
    4.3882   -9.1067    4.9037 H   0  0  0  0  0  0  0  0  0  0  0  0
    1.3866   -5.0953    4.1344 H   0  0  0  0  0  0  0  0  0  0  0  0
    1.6862   -5.7216    5.6244 H   0  0  0  0  0  0  0  0  0  0  0  0
    3.2661   -4.0765    5.1482 H   0  0  0  0  0  0  0  0  0  0  0  0
    4.5445   -6.7643    5.7289 H   0  0  0  0  0  0  0  0  0  0  0  0
    3.5552   -5.8085    6.7898 H   0  0  0  0  0  0  0  0  0  0  0  0
    5.0821   -5.1930    6.3323 H   0  0  0  0  0  0  0  0  0  0  0  0
    5.8476   -3.1263    3.4617 H   0  0  0  0  0  0  0  0  0  0  0  0
    5.9141   -4.0769    4.8658 H   0  0  0  0  0  0  0  0  0  0  0  0
    8.6018   -5.7030    2.3765 H   0  0  0  0  0  0  0  0  0  0  0  0
    8.0499   -4.1263    2.0720 H   0  0  0  0  0  0  0  0  0  0  0  0
    7.3765   -5.4988    1.1929 H   0  0  0  0  0  0  0  0  0  0  0  0
    7.7455   -7.0226    3.9830 H   0  0  0  0  0  0  0  0  0  0  0  0
    6.7205   -6.2908    5.1885 H   0  0  0  0  0  0  0  0  0  0  0  0
    8.1871   -5.4814    4.7115 H   0  0  0  0  0  0  0  0  0  0  0  0
    5.5890   -7.7124    2.8112 H   0  0  0  0  0  0  0  0  0  0  0  0
    2.9479   -1.9848    2.3726 H   0  0  0  0  0  0  0  0  0  0  0  0
    2.5706   -5.0548   -0.4471 H   0  0  0  0  0  0  0  0  0  0  0  0
    0.1711   -5.5626    2.2841 H   0  0  0  0  0  0  0  0  0  0  0  0
    0.3450   -7.8685    0.7591 H   0  0  0  0  0  0  0  0  0  0  0  0
   -1.2326   -7.1605    3.4230 H   0  0  0  0  0  0  0  0  0  0  0  0
   -0.4371   -8.2352    4.5499 H   0  0  0  0  0  0  0  0  0  0  0  0
   -0.6926   -8.7640    2.8978 H   0  0  0  0  0  0  0  0  0  0  0  0
  1  2  1  0
  1 40  1  0
  1 41  1  0
  1 42  1  0
  2  7  1  0
  2  3  1  0
  2 43  1  6
  3  4  1  0
  3 44  1  0
  3 45  1  0
  4  9  1  0
  4  5  1  0
  4 46  1  6
  6  5  1  1
  5 47  1  0
  5 48  1  0
  6 31  1  0
  6  7  1  0
  6  9  1  0
  7  8  1  0
  7 49  1  6
  8 50  1  0
  9 10  1  0
  9 51  1  6
 10 29  1  0
 10 11  1  0
 10 52  1  6
 11 34  1  0
 11 12  1  0
 11 53  1  6
 12 13  1  0
 12 54  1  0
 12 55  1  0
 13 20  1  0
 13 38  1  0
 13 14  1  1
 14 15  2  0
 14 16  1  0
 16 17  1  0
 16 18  1  0
 16 19  1  0
 17 56  1  0
 17 57  1  0
 17 58  1  0
 18 59  1  0
 18 60  1  0
 18 61  1  0
 20 19  1  1
 20 38  1  0
 20 21  1  0
 21 22  1  0
 21 62  1  0
 21 63  1  0
 22 23  1  0
 22 24  1  0
 22 64  1  1
 23 65  1  0
 23 66  1  0
 23 67  1  0
 24 29  1  0
 24 25  1  1
 24 31  1  0
 25 26  1  0
 25 68  1  0
 25 69  1  0
 26 27  1  0
 26 28  1  0
 26 29  1  0
 27 70  1  0
 27 71  1  0
 27 72  1  0
 28 73  1  0
 28 74  1  0
 28 75  1  0
 29 30  1  1
 30 76  1  0
 31 32  1  1
 31 33  1  0
 32 77  1  0
 33 34  1  0
 34 35  1  6
 34 36  1  0
 35 78  1  0
 36 37  1  0
 36 38  1  0
 36 79  1  1
 37 80  1  0
 38 39  1  1
 39 81  1  0
 39 82  1  0
 39 83  1  0
M  END
>  <i_m_ct_stereo_status>  (3) 
1

>  <s_m_source_file>  (3) 
/var/tmp/pbs.5076255.sched01/tmp7hrp_b9g/014g_j70o.sdf

>  <i_m_source_file_index>  (3) 
1

>  <i_lp_mmshare_version>  (3) 
48012

>  <i_f3d_flags>  (3) 
0

>  <s_epik_input>  (3) 
W09IXVtDQEhdMVtDQEhdKFtDSDNdKVtDSDJdW0NAQEhdKFtDSDJdMilbQ0BIXShbQ0BdMTIzKVtDQEBIXTRbQ0BASF01W0NAXTYoW09IXSlPW0NAQF0zKFtPSF0pW0NAXTcoW0NAXTQoW09IXSlDKFtDSDJdNykoW0NIM10pW0NIM10pW0NASF0oW0NIM10pW0NIMl1bQ0BAXTg5W0NAQF0oW0NIMl01KShDKD1PKUMoTzgpKFtDSDNdKVtDSDNdKVtDQF05KFtDSDNdKVtDQEBIXTZbT0hd

>  <s_epik_cmdline>  (3) 
J2VwaWtfcHl0aG9uJywgJy1waHQnLCAnMi4wJywgJy1waCcsICc3LjAnLCAnLXRuJywgJzgnLCAnLW1hJywgJzIwMCcsICctaW1hZScsICc8aW5maWxlLm1hZT4nLCAnLW9tYWUnLCAnPG91dGZpbGUubWFlPic=

>  <r_lp_tautomer_probability>  (3) 
1

>  <r_epik_Ionization_Penalty>  (3) 
1.91498e-06

>  <r_epik_Ionization_Penalty_Charging>  (3) 
0

>  <r_epik_Ionization_Penalty_Neutral>  (3) 
1.91498e-06

>  <r_epik_State_Penalty>  (3) 
-0

>  <r_epik_Charging_Adjusted_Penalty>  (3) 
0

>  <i_epik_Tot_Q>  (3) 
0

>  <i_epik_Tot_abs_Q>  (3) 
0

>  <s_lp_Force_Field>  (3) 
OPLS3e

>  <r_lp_Energy>  (3) 
234.312

>  <b_lp_Chiralities_Consistent>  (3) 
1

>  <s_lp_Variant>  (3) 
0:0-1

>  <s_i_glide_gridfile>  (3) 
pfpi4k_grid

>  <i_i_glide_lignum>  (3) 
1

>  <i_i_glide_rotatable_bonds>  (3) 
5

>  <r_i_docking_score>  (3) 
-3.39923

>  <r_i_glide_ligand_efficiency>  (3) 
-0.0871598

>  <r_i_glide_ligand_efficiency_sa>  (3) 
-0.295577

>  <r_i_glide_ligand_efficiency_ln>  (3) 
-0.728892

>  <r_i_glide_gscore>  (3) 
-3.39923

>  <r_i_glide_lipo>  (3) 
-0.442111

>  <r_i_glide_hbond>  (3) 
0

>  <r_i_glide_metal>  (3) 
-0

>  <r_i_glide_rewards>  (3) 
-0.500715

>  <r_i_glide_evdw>  (3) 
-21.7989

>  <r_i_glide_ecoul>  (3) 
-8.81601

>  <r_i_glide_erotb>  (3) 
0

>  <r_i_glide_esite>  (3) 
-0.0440615

>  <r_i_glide_emodel>  (3) 
-39.1046

>  <r_i_glide_energy>  (3) 
-30.6149

>  <r_i_glide_einternal>  (3) 
1.84551

>  <r_i_glide_intrahb_reward>  (3) 
-0.5

>  <i_i_glide_confnum>  (3) 
2

>  <i_i_glide_posenum>  (3) 
22

>  <r_i_glide_eff_state_penalty>  (3) 
0

>  <ligand_id>  (3) 
0

>  <original_smiles>  (3) 
CC1CC2CC3(C1O)C2C1C2CC45C(=O)C(C)(C)OC46CC(C)C4(CC(C)(C)C14O)C3(O)OC2(O)C(O)C65C

>  <smiles>  (3) 
[H]OC1([H])C([H])(C([H])([H])[H])C([H])([H])C2([H])C([H])([H])C13C1(O[H])OC4(O[H])C([H])(O[H])C5(C([H])([H])[H])C67OC(C([H])([H])[H])(C([H])([H])[H])C(=O)C65C([H])([H])C4([H])C([H])(C23[H])C2(O[H])C(C([H])([H])[H])(C([H])([H])[H])C([H])([H])C12C([H])(C([H])([H])[H])C7([H])[H]

$$$$
1:0:0
     RDKit          3D

 55 60  0  0  1  0  0  0  0  0999 V2000
    4.0096   -4.6832    8.4222 C   0  0  0  0  0  0  0  0  0  0  0  0
    3.2036   -4.7227    7.2592 O   0  0  0  0  0  0  0  0  0  0  0  0
    3.8125   -5.0125    6.0585 C   0  0  0  0  0  0  0  0  0  0  0  0
    5.2059   -5.2727    5.8959 C   0  0  0  0  0  0  0  0  0  0  0  0
    5.7603   -5.6013    4.6297 C   0  0  0  0  0  0  0  0  0  0  0  0
    4.9301   -5.6106    3.4919 C   0  0  0  0  0  0  0  0  0  0  0  0
    3.5820   -5.2828    3.7076 C   0  0  0  0  0  0  0  0  0  0  0  0
    2.9755   -5.0572    4.9252 C   0  0  0  0  0  0  0  0  0  0  0  0
    1.6188   -4.9299    4.8410 O   0  0  0  0  0  0  0  0  0  0  0  0
    1.2439   -5.3753    3.5194 C   0  0  2  0  0  0  0  0  0  0  0  0
    0.8297   -6.8425    3.5286 C   0  0  0  0  0  0  0  0  0  0  0  0
    0.2338   -7.2948    4.5802 N   0  0  0  0  0  0  0  0  0  0  0  0
   -0.2114   -8.5705    4.6364 N   0  0  0  0  0  0  0  0  0  0  0  0
    1.0799   -7.6691    2.2824 C   0  0  0  0  0  0  0  0  0  0  0  0
    2.5122   -7.4508    1.7481 C   0  0  0  0  0  0  0  0  0  0  0  0
    2.7887   -5.9618    1.4135 C   0  0  2  0  0  0  0  0  0  0  0  0
    1.8954   -5.6421    0.3477 O   0  0  0  0  0  0  0  0  0  0  0  0
    4.2551   -5.6267    0.9717 C   0  0  2  0  0  0  0  0  0  0  0  0
    5.2810   -6.0236    2.0630 C   0  0  0  0  0  0  0  0  0  0  0  0
    4.4444   -4.1759    0.6203 N   0  0  1  0  0  0  0  0  0  0  0  0
    4.0299   -3.8121   -0.7591 C   0  0  0  0  0  0  0  0  0  0  0  0
    4.8029   -2.6278   -1.3208 C   0  0  0  0  0  0  0  0  0  0  0  0
    4.5727   -2.2051   -2.7586 C   0  0  0  0  0  0  0  0  0  0  0  0
    5.8747   -2.8513   -2.3651 C   0  0  0  0  0  0  0  0  0  0  0  0
    3.9551   -3.2219    1.6539 C   0  0  0  0  0  0  0  0  0  0  0  0
    2.5710   -3.6041    2.2055 C   0  0  0  0  0  0  0  0  0  0  0  0
    2.5194   -5.0908    2.6604 C   0  0  2  0  0  0  0  0  0  0  0  0
    3.3785   -4.4385    9.2747 H   0  0  0  0  0  0  0  0  0  0  0  0
    4.7815   -3.9164    8.3528 H   0  0  0  0  0  0  0  0  0  0  0  0
    4.4714   -5.6506    8.6194 H   0  0  0  0  0  0  0  0  0  0  0  0
    5.8746   -5.2488    6.7369 H   0  0  0  0  0  0  0  0  0  0  0  0
    6.8113   -5.8465    4.5342 H   0  0  0  0  0  0  0  0  0  0  0  0
    0.4001   -4.7905    3.1573 H   0  0  0  0  0  0  0  0  0  0  0  0
   -0.8334   -8.8156    5.4021 H   0  0  0  0  0  0  0  0  0  0  0  0
   -0.2641   -9.0967    3.7697 H   0  0  0  0  0  0  0  0  0  0  0  0
    0.9307   -8.7360    2.4373 H   0  0  0  0  0  0  0  0  0  0  0  0
    0.3500   -7.3815    1.5276 H   0  0  0  0  0  0  0  0  0  0  0  0
    3.2123   -7.8113    2.5095 H   0  0  0  0  0  0  0  0  0  0  0  0
    2.6707   -8.0841    0.8824 H   0  0  0  0  0  0  0  0  0  0  0  0
    2.2874   -5.9011   -0.4784 H   0  0  0  0  0  0  0  0  0  0  0  0
    4.5096   -6.2175    0.0872 H   0  0  0  0  0  0  0  0  0  0  0  0
    6.2711   -5.6393    1.8137 H   0  0  0  0  0  0  0  0  0  0  0  0
    5.3868   -7.1071    2.0573 H   0  0  0  0  0  0  0  0  0  0  0  0
    4.1984   -4.6570   -1.4298 H   0  0  0  0  0  0  0  0  0  0  0  0
    2.9672   -3.5726   -0.7858 H   0  0  0  0  0  0  0  0  0  0  0  0
    4.9486   -1.7895   -0.6378 H   0  0  0  0  0  0  0  0  0  0  0  0
    3.8736   -2.7906   -3.3537 H   0  0  0  0  0  0  0  0  0  0  0  0
    4.5966   -1.1406   -2.9843 H   0  0  0  0  0  0  0  0  0  0  0  0
    6.7610   -2.2254   -2.3075 H   0  0  0  0  0  0  0  0  0  0  0  0
    6.0477   -3.8724   -2.6947 H   0  0  0  0  0  0  0  0  0  0  0  0
    4.6791   -3.1782    2.4695 H   0  0  0  0  0  0  0  0  0  0  0  0
    3.9212   -2.2018    1.2695 H   0  0  0  0  0  0  0  0  0  0  0  0
    2.3293   -2.9360    3.0314 H   0  0  0  0  0  0  0  0  0  0  0  0
    1.8171   -3.3991    1.4440 H   0  0  0  0  0  0  0  0  0  0  0  0
    5.4473   -4.0525    0.5987 H   0  0  0  0  0  0  0  0  0  0  0  0
  1  2  1  0
  1 28  1  0
  1 29  1  0
  1 30  1  0
  2  3  1  0
  3  8  2  0
  3  4  1  0
  4  5  2  0
  4 31  1  0
  5  6  1  0
  5 32  1  0
  6 19  1  0
  6  7  2  0
  7 27  1  0
  7  8  1  0
  8  9  1  0
  9 10  1  0
 10 27  1  0
 10 11  1  0
 10 33  1  6
 11 12  2  3
 11 14  1  0
 12 13  1  0
 13 34  1  0
 13 35  1  0
 14 15  1  0
 14 36  1  0
 14 37  1  0
 15 16  1  0
 15 38  1  0
 15 39  1  0
 16 27  1  0
 16 17  1  6
 16 18  1  0
 17 40  1  0
 18 19  1  0
 18 20  1  0
 18 41  1  6
 19 42  1  0
 19 43  1  0
 20 21  1  0
 20 25  1  0
 20 55  1  6
 21 22  1  0
 21 44  1  0
 21 45  1  0
 22 24  1  0
 22 23  1  0
 22 46  1  0
 23 24  1  0
 23 47  1  0
 23 48  1  0
 24 49  1  0
 24 50  1  0
 25 26  1  0
 25 51  1  0
 25 52  1  0
 27 26  1  6
 26 53  1  0
 26 54  1  0
M  CHG  1  20   1
M  END
>  <i_m_ct_stereo_status>  (4) 
1

>  <s_m_source_file>  (4) 
/var/tmp/pbs.5076255.sched01/tmp7hrp_b9g/014g_j70o.sdf

>  <i_m_source_file_index>  (4) 
2

>  <i_lp_mmshare_version>  (4) 
48012

>  <i_f3d_flags>  (4) 
0

>  <s_epik_input>  (4) 
W0NAQF0xMjNjNGM1W2NIXVtjSF1jKE9bQ0gzXSljNE9bQ0BASF0xL0MoPU4vW05IMl0pW0NIMl1bQ0gyXVtDQF0yKFtPSF0pW0NASF0oW0NIMl01KU4oW0NIMl1bQ0gyXTMpW0NIMl1bQ0hdNltDSDJdW0NIMl02

>  <s_epik_cmdline>  (4) 
J2VwaWtfcHl0aG9uJywgJy1waHQnLCAnMi4wJywgJy1waCcsICc3LjAnLCAnLXRuJywgJzgnLCAnLW1hJywgJzIwMCcsICctaW1hZScsICc8aW5maWxlLm1hZT4nLCAnLW9tYWUnLCAnPG91dGZpbGUubWFlPic=

>  <r_lp_tautomer_probability>  (4) 
1

>  <r_epik_Ionization_Penalty>  (4) 
0.0499191

>  <r_epik_Ionization_Penalty_Charging>  (4) 
0.0499166

>  <r_epik_Ionization_Penalty_Neutral>  (4) 
2.52483e-06

>  <r_epik_State_Penalty>  (4) 
0.0426676

>  <r_epik_Charging_Adjusted_Penalty>  (4) 
0.0925842

>  <i_epik_Tot_Q>  (4) 
1

>  <i_epik_Tot_abs_Q>  (4) 
1

>  <s_epik_Chemistry_Notes>  (4) 
This compound has an imine and may undergo hydrolysis.

>  <s_lp_Force_Field>  (4) 
OPLS3e

>  <r_lp_Energy>  (4) 
74.9036

>  <b_lp_Chiralities_Consistent>  (4) 
1

>  <s_lp_Variant>  (4) 
1:0-1

>  <s_i_glide_gridfile>  (4) 
pfpi4k_grid

>  <i_i_glide_lignum>  (4) 
2

>  <i_i_glide_rotatable_bonds>  (4) 
4

>  <r_i_docking_score>  (4) 
-3.16758

>  <r_i_glide_ligand_efficiency>  (4) 
-0.117318

>  <r_i_glide_ligand_efficiency_sa>  (4) 
-0.351953

>  <r_i_glide_ligand_efficiency_ln>  (4) 
-0.73736

>  <r_i_glide_gscore>  (4) 
-3.16758

>  <r_i_glide_lipo>  (4) 
-0.297707

>  <r_i_glide_hbond>  (4) 
-0.23724

>  <r_i_glide_metal>  (4) 
-0

>  <r_i_glide_rewards>  (4) 
-0.883191

>  <r_i_glide_evdw>  (4) 
-18.5042

>  <r_i_glide_ecoul>  (4) 
-6.79169

>  <r_i_glide_erotb>  (4) 
0.281139

>  <r_i_glide_esite>  (4) 
-0.0866163

>  <r_i_glide_emodel>  (4) 
-30.257

>  <r_i_glide_energy>  (4) 
-25.2959

>  <r_i_glide_einternal>  (4) 
0.850948

>  <r_i_glide_intrahb_reward>  (4) 
-0

>  <i_i_glide_confnum>  (4) 
1

>  <i_i_glide_posenum>  (4) 
36

>  <r_i_glide_eff_state_penalty>  (4) 
0

>  <ligand_id>  (4) 
1

>  <original_smiles>  (4) 
COc1ccc2c3c1OC1C(=NN)CCC4(O)C(C2)N(CC2CC2)CCC314

>  <smiles>  (4) 
[H]OC12C([H])([H])C([H])([H])C(=NN([H])[H])C3([H])Oc4c(OC([H])([H])[H])c([H])c([H])c5c4C31C([H])([H])C([H])([H])[N+]([H])(C([H])([H])C1([H])C([H])([H])C1([H])[H])C2([H])C5([H])[H]

$$$$
1:0:1
     RDKit          3D

 55 60  0  0  1  0  0  0  0  0999 V2000
    3.8334   -4.7513    8.2471 C   0  0  0  0  0  0  0  0  0  0  0  0
    3.0818   -4.8629    7.0519 O   0  0  0  0  0  0  0  0  0  0  0  0
    3.7636   -5.0765    5.8751 C   0  0  0  0  0  0  0  0  0  0  0  0
    5.1811   -5.2040    5.7700 C   0  0  0  0  0  0  0  0  0  0  0  0
    5.8157   -5.4600    4.5255 C   0  0  0  0  0  0  0  0  0  0  0  0
    5.0392   -5.5277    3.3513 C   0  0  0  0  0  0  0  0  0  0  0  0
    3.6589   -5.3294    3.5143 C   0  0  0  0  0  0  0  0  0  0  0  0
    2.9821   -5.1809    4.7065 C   0  0  0  0  0  0  0  0  0  0  0  0
    1.6234   -5.1778    4.5656 O   0  0  0  0  0  0  0  0  0  0  0  0
    1.3469   -5.6350    3.2231 C   0  0  2  0  0  0  0  0  0  0  0  0
    1.0740   -7.1358    3.1952 C   0  0  0  0  0  0  0  0  0  0  0  0
    0.4823   -7.6560    4.2186 N   0  0  0  0  0  0  0  0  0  0  0  0
    0.1567   -8.9689    4.2416 N   0  0  0  0  0  0  0  0  0  0  0  0
    1.4534   -7.9144    1.9498 C   0  0  0  0  0  0  0  0  0  0  0  0
    2.8831   -7.5508    1.4920 C   0  0  0  0  0  0  0  0  0  0  0  0
    3.0254   -6.0389    1.1751 C   0  0  2  0  0  0  0  0  0  0  0  0
    2.1453   -5.7731    0.0834 O   0  0  0  0  0  0  0  0  0  0  0  0
    4.4726   -5.5690    0.8021 C   0  0  2  0  0  0  0  0  0  0  0  0
    5.4847   -5.8834    1.9325 C   0  0  0  0  0  0  0  0  0  0  0  0
    4.5403   -4.1008    0.4761 N   0  0  1  0  0  0  0  0  0  0  0  0
    4.1482   -3.7556   -0.9144 C   0  0  0  0  0  0  0  0  0  0  0  0
    4.7921   -2.4704   -1.4009 C   0  0  0  0  0  0  0  0  0  0  0  0
    4.0331   -1.1577   -1.3643 C   0  0  0  0  0  0  0  0  0  0  0  0
    4.2939   -1.8295   -2.6833 C   0  0  0  0  0  0  0  0  0  0  0  0
    3.9273   -3.2096    1.5023 C   0  0  0  0  0  0  0  0  0  0  0  0
    2.5626   -3.7267    1.9908 C   0  0  0  0  0  0  0  0  0  0  0  0
    2.6279   -5.2200    2.4237 C   0  0  2  0  0  0  0  0  0  0  0  0
    3.1472   -4.5819    9.0740 H   0  0  0  0  0  0  0  0  0  0  0  0
    4.5224   -3.9076    8.2110 H   0  0  0  0  0  0  0  0  0  0  0  0
    4.3856   -5.6669    8.4569 H   0  0  0  0  0  0  0  0  0  0  0  0
    5.8094   -5.1323    6.6383 H   0  0  0  0  0  0  0  0  0  0  0  0
    6.8881   -5.6064    4.4707 H   0  0  0  0  0  0  0  0  0  0  0  0
    0.4703   -5.1270    2.8286 H   0  0  0  0  0  0  0  0  0  0  0  0
   -0.4845   -9.2747    4.9718 H   0  0  0  0  0  0  0  0  0  0  0  0
    0.1797   -9.4743    3.3624 H   0  0  0  0  0  0  0  0  0  0  0  0
    1.3935   -8.9930    2.0867 H   0  0  0  0  0  0  0  0  0  0  0  0
    0.7301   -7.6825    1.1699 H   0  0  0  0  0  0  0  0  0  0  0  0
    3.5748   -7.8562    2.2818 H   0  0  0  0  0  0  0  0  0  0  0  0
    3.1774   -8.1584    0.6387 H   0  0  0  0  0  0  0  0  0  0  0  0
    2.5814   -5.9671   -0.7475 H   0  0  0  0  0  0  0  0  0  0  0  0
    4.8149   -6.1166   -0.0750 H   0  0  0  0  0  0  0  0  0  0  0  0
    6.4445   -5.4050    1.7319 H   0  0  0  0  0  0  0  0  0  0  0  0
    5.6910   -6.9519    1.9198 H   0  0  0  0  0  0  0  0  0  0  0  0
    4.4551   -4.5450   -1.5991 H   0  0  0  0  0  0  0  0  0  0  0  0
    3.0668   -3.6520   -0.9894 H   0  0  0  0  0  0  0  0  0  0  0  0
    5.8738   -2.4197   -1.2598 H   0  0  0  0  0  0  0  0  0  0  0  0
    3.0134   -1.1785   -0.9760 H   0  0  0  0  0  0  0  0  0  0  0  0
    4.6035   -0.2597   -1.1273 H   0  0  0  0  0  0  0  0  0  0  0  0
    5.0147   -1.3497   -3.3365 H   0  0  0  0  0  0  0  0  0  0  0  0
    3.4437   -2.2880   -3.1877 H   0  0  0  0  0  0  0  0  0  0  0  0
    4.6056   -3.1156    2.3469 H   0  0  0  0  0  0  0  0  0  0  0  0
    3.8241   -2.1935    1.1264 H   0  0  0  0  0  0  0  0  0  0  0  0
    2.2220   -3.0959    2.8129 H   0  0  0  0  0  0  0  0  0  0  0  0
    1.8267   -3.5821    1.1979 H   0  0  0  0  0  0  0  0  0  0  0  0
    5.5294   -3.8838    0.5039 H   0  0  0  0  0  0  0  0  0  0  0  0
  1  2  1  0
  1 28  1  0
  1 29  1  0
  1 30  1  0
  2  3  1  0
  3  8  2  0
  3  4  1  0
  4  5  2  0
  4 31  1  0
  5  6  1  0
  5 32  1  0
  6 19  1  0
  6  7  2  0
  7 27  1  0
  7  8  1  0
  8  9  1  0
  9 10  1  0
 10 27  1  0
 10 11  1  0
 10 33  1  6
 11 12  2  3
 11 14  1  0
 12 13  1  0
 13 34  1  0
 13 35  1  0
 14 15  1  0
 14 36  1  0
 14 37  1  0
 15 16  1  0
 15 38  1  0
 15 39  1  0
 16 27  1  0
 16 17  1  6
 16 18  1  0
 17 40  1  0
 18 19  1  0
 18 20  1  0
 18 41  1  6
 19 42  1  0
 19 43  1  0
 20 21  1  0
 20 25  1  0
 20 55  1  6
 21 22  1  0
 21 44  1  0
 21 45  1  0
 22 24  1  0
 22 23  1  0
 22 46  1  0
 23 24  1  0
 23 47  1  0
 23 48  1  0
 24 49  1  0
 24 50  1  0
 25 26  1  0
 25 51  1  0
 25 52  1  0
 27 26  1  6
 26 53  1  0
 26 54  1  0
M  CHG  1  20   1
M  END
>  <i_m_ct_stereo_status>  (5) 
1

>  <s_m_source_file>  (5) 
/var/tmp/pbs.5076255.sched01/tmp7hrp_b9g/014g_j70o.sdf

>  <i_m_source_file_index>  (5) 
2

>  <i_lp_mmshare_version>  (5) 
48012

>  <i_f3d_flags>  (5) 
0

>  <s_epik_input>  (5) 
W0NAQF0xMjNjNGM1W2NIXVtjSF1jKE9bQ0gzXSljNE9bQ0BASF0xL0MoPU4vW05IMl0pW0NIMl1bQ0gyXVtDQF0yKFtPSF0pW0NASF0oW0NIMl01KU4oW0NIMl1bQ0gyXTMpW0NIMl1bQ0hdNltDSDJdW0NIMl02

>  <s_epik_cmdline>  (5) 
J2VwaWtfcHl0aG9uJywgJy1waHQnLCAnMi4wJywgJy1waCcsICc3LjAnLCAnLXRuJywgJzgnLCAnLW1hJywgJzIwMCcsICctaW1hZScsICc8aW5maWxlLm1hZT4nLCAnLW9tYWUnLCAnPG91dGZpbGUubWFlPic=

>  <r_lp_tautomer_probability>  (5) 
1

>  <r_epik_Ionization_Penalty>  (5) 
0.0499191

>  <r_epik_Ionization_Penalty_Charging>  (5) 
0.0499166

>  <r_epik_Ionization_Penalty_Neutral>  (5) 
2.52483e-06

>  <r_epik_State_Penalty>  (5) 
0.0426676

>  <r_epik_Charging_Adjusted_Penalty>  (5) 
0.0925842

>  <i_epik_Tot_Q>  (5) 
1

>  <i_epik_Tot_abs_Q>  (5) 
1

>  <s_epik_Chemistry_Notes>  (5) 
This compound has an imine and may undergo hydrolysis.

>  <s_lp_Force_Field>  (5) 
OPLS3e

>  <r_lp_Energy>  (5) 
74.9036

>  <b_lp_Chiralities_Consistent>  (5) 
1

>  <s_lp_Variant>  (5) 
1:0-1

>  <s_i_glide_gridfile>  (5) 
pfpi4k_grid

>  <i_i_glide_lignum>  (5) 
2

>  <i_i_glide_rotatable_bonds>  (5) 
4

>  <r_i_docking_score>  (5) 
-3.14883

>  <r_i_glide_ligand_efficiency>  (5) 
-0.116623

>  <r_i_glide_ligand_efficiency_sa>  (5) 
-0.34987

>  <r_i_glide_ligand_efficiency_ln>  (5) 
-0.732996

>  <r_i_glide_gscore>  (5) 
-3.14883

>  <r_i_glide_lipo>  (5) 
-0.130316

>  <r_i_glide_hbond>  (5) 
-0.32

>  <r_i_glide_metal>  (5) 
-0

>  <r_i_glide_rewards>  (5) 
-0.883191

>  <r_i_glide_evdw>  (5) 
-17.127

>  <r_i_glide_ecoul>  (5) 
-7.79492

>  <r_i_glide_erotb>  (5) 
0.281139

>  <r_i_glide_esite>  (5) 
-0.0708722

>  <r_i_glide_emodel>  (5) 
-29.9467

>  <r_i_glide_energy>  (5) 
-24.9219

>  <r_i_glide_einternal>  (5) 
0.602251

>  <r_i_glide_intrahb_reward>  (5) 
-0

>  <i_i_glide_confnum>  (5) 
1

>  <i_i_glide_posenum>  (5) 
2

>  <r_i_glide_eff_state_penalty>  (5) 
0

>  <ligand_id>  (5) 
1

>  <original_smiles>  (5) 
COc1ccc2c3c1OC1C(=NN)CCC4(O)C(C2)N(CC2CC2)CCC314

>  <smiles>  (5) 
[H]OC12C([H])([H])C([H])([H])C(=NN([H])[H])C3([H])Oc4c(OC([H])([H])[H])c([H])c([H])c5c4C31C([H])([H])C([H])([H])[N+]([H])(C([H])([H])C1([H])C([H])([H])C1([H])[H])C2([H])C5([H])[H]

$$$$
1:0:2
     RDKit          3D

 55 60  0  0  1  0  0  0  0  0999 V2000
    3.8525   -4.8292    7.0410 C   0  0  0  0  0  0  0  0  0  0  0  0
    3.2359   -4.2555    5.9024 O   0  0  0  0  0  0  0  0  0  0  0  0
    3.4677   -2.9249    5.6410 C   0  0  0  0  0  0  0  0  0  0  0  0
    4.2830   -2.0690    6.4387 C   0  0  0  0  0  0  0  0  0  0  0  0
    4.5039   -0.7123    6.0872 C   0  0  0  0  0  0  0  0  0  0  0  0
    3.8557   -0.1738    4.9620 C   0  0  0  0  0  0  0  0  0  0  0  0
    3.0161   -1.0493    4.2538 C   0  0  0  0  0  0  0  0  0  0  0  0
    2.8475   -2.3957    4.4912 C   0  0  0  0  0  0  0  0  0  0  0  0
    2.0992   -3.0265    3.5368 O   0  0  0  0  0  0  0  0  0  0  0  0
    1.9883   -2.1084    2.4252 C   0  0  2  0  0  0  0  0  0  0  0  0
    3.0711   -2.3746    1.3806 C   0  0  0  0  0  0  0  0  0  0  0  0
    3.4601   -3.5950    1.2155 N   0  0  0  0  0  0  0  0  0  0  0  0
    4.3652   -3.9173    0.2640 N   0  0  0  0  0  0  0  0  0  0  0  0
    3.5937   -1.2090    0.5623 C   0  0  0  0  0  0  0  0  0  0  0  0
    3.9144   -0.0003    1.4627 C   0  0  0  0  0  0  0  0  0  0  0  0
    2.6839    0.4653    2.2766 C   0  0  2  0  0  0  0  0  0  0  0  0
    1.7522    0.9217    1.3062 O   0  0  0  0  0  0  0  0  0  0  0  0
    2.9514    1.6233    3.2988 C   0  0  2  0  0  0  0  0  0  0  0  0
    4.0165    1.2174    4.3484 C   0  0  0  0  0  0  0  0  0  0  0  0
    1.7063    2.0735    4.0176 N   0  0  1  0  0  0  0  0  0  0  0  0
    0.8699    3.0466    3.2623 C   0  0  0  0  0  0  0  0  0  0  0  0
    0.0343    3.9381    4.1731 C   0  0  0  0  0  0  0  0  0  0  0  0
   -1.3177    4.4408    3.6936 C   0  0  0  0  0  0  0  0  0  0  0  0
   -0.1673    5.3961    3.8047 C   0  0  0  0  0  0  0  0  0  0  0  0
    0.9126    0.9698    4.6348 C   0  0  0  0  0  0  0  0  0  0  0  0
    0.7502   -0.2355    3.6888 C   0  0  0  0  0  0  0  0  0  0  0  0
    2.1143   -0.7044    3.1017 C   0  0  2  0  0  0  0  0  0  0  0  0
    3.5644   -5.8766    7.1010 H   0  0  0  0  0  0  0  0  0  0  0  0
    3.5287   -4.3437    7.9613 H   0  0  0  0  0  0  0  0  0  0  0  0
    4.9386   -4.7873    6.9672 H   0  0  0  0  0  0  0  0  0  0  0  0
    4.7703   -2.4366    7.3245 H   0  0  0  0  0  0  0  0  0  0  0  0
    5.1657   -0.0888    6.6781 H   0  0  0  0  0  0  0  0  0  0  0  0
    1.0147   -2.2057    1.9489 H   0  0  0  0  0  0  0  0  0  0  0  0
    4.4185   -4.9025    0.0307 H   0  0  0  0  0  0  0  0  0  0  0  0
    4.5244   -3.2291   -0.4654 H   0  0  0  0  0  0  0  0  0  0  0  0
    4.4777   -1.4543   -0.0241 H   0  0  0  0  0  0  0  0  0  0  0  0
    2.8397   -0.9362   -0.1689 H   0  0  0  0  0  0  0  0  0  0  0  0
    4.7363   -0.2812    2.1264 H   0  0  0  0  0  0  0  0  0  0  0  0
    4.2818    0.8211    0.8451 H   0  0  0  0  0  0  0  0  0  0  0  0
    1.5060    0.2167    0.7125 H   0  0  0  0  0  0  0  0  0  0  0  0
    3.3460    2.4918    2.7766 H   0  0  0  0  0  0  0  0  0  0  0  0
    4.0758    1.9593    5.1453 H   0  0  0  0  0  0  0  0  0  0  0  0
    4.9945    1.2330    3.8729 H   0  0  0  0  0  0  0  0  0  0  0  0
    1.5032    3.6919    2.6542 H   0  0  0  0  0  0  0  0  0  0  0  0
    0.2039    2.5187    2.5833 H   0  0  0  0  0  0  0  0  0  0  0  0
    0.0994    3.7280    5.2440 H   0  0  0  0  0  0  0  0  0  0  0  0
   -1.6384    4.1515    2.6929 H   0  0  0  0  0  0  0  0  0  0  0  0
   -2.1144    4.5233    4.4323 H   0  0  0  0  0  0  0  0  0  0  0  0
   -0.1812    6.1178    4.6206 H   0  0  0  0  0  0  0  0  0  0  0  0
    0.2834    5.7501    2.8778 H   0  0  0  0  0  0  0  0  0  0  0  0
    1.4047    0.6527    5.5527 H   0  0  0  0  0  0  0  0  0  0  0  0
   -0.0633    1.3315    4.9542 H   0  0  0  0  0  0  0  0  0  0  0  0
    0.2677   -1.0466    4.2372 H   0  0  0  0  0  0  0  0  0  0  0  0
    0.0510    0.0285    2.8907 H   0  0  0  0  0  0  0  0  0  0  0  0
    2.0528    2.6189    4.7927 H   0  0  0  0  0  0  0  0  0  0  0  0
  1  2  1  0
  1 28  1  0
  1 29  1  0
  1 30  1  0
  2  3  1  0
  3  8  2  0
  3  4  1  0
  4  5  2  0
  4 31  1  0
  5  6  1  0
  5 32  1  0
  6 19  1  0
  6  7  2  0
  7 27  1  0
  7  8  1  0
  8  9  1  0
  9 10  1  0
 10 27  1  0
 10 11  1  0
 10 33  1  6
 11 12  2  3
 11 14  1  0
 12 13  1  0
 13 34  1  0
 13 35  1  0
 14 15  1  0
 14 36  1  0
 14 37  1  0
 15 16  1  0
 15 38  1  0
 15 39  1  0
 16 27  1  0
 16 17  1  6
 16 18  1  0
 17 40  1  0
 18 19  1  0
 18 20  1  0
 18 41  1  6
 19 42  1  0
 19 43  1  0
 20 21  1  0
 20 25  1  0
 20 55  1  1
 21 22  1  0
 21 44  1  0
 21 45  1  0
 22 24  1  0
 22 23  1  0
 22 46  1  0
 23 24  1  0
 23 47  1  0
 23 48  1  0
 24 49  1  0
 24 50  1  0
 25 26  1  0
 25 51  1  0
 25 52  1  0
 27 26  1  1
 26 53  1  0
 26 54  1  0
M  CHG  1  20   1
M  END
>  <i_m_ct_stereo_status>  (6) 
1

>  <s_m_source_file>  (6) 
/var/tmp/pbs.5076255.sched01/tmp7hrp_b9g/014g_j70o.sdf

>  <i_m_source_file_index>  (6) 
2

>  <i_lp_mmshare_version>  (6) 
48012

>  <i_f3d_flags>  (6) 
0

>  <s_epik_input>  (6) 
W0NAQF0xMjNjNGM1W2NIXVtjSF1jKE9bQ0gzXSljNE9bQ0BASF0xL0MoPU4vW05IMl0pW0NIMl1bQ0gyXVtDQF0yKFtPSF0pW0NASF0oW0NIMl01KU4oW0NIMl1bQ0gyXTMpW0NIMl1bQ0hdNltDSDJdW0NIMl02

>  <s_epik_cmdline>  (6) 
J2VwaWtfcHl0aG9uJywgJy1waHQnLCAnMi4wJywgJy1waCcsICc3LjAnLCAnLXRuJywgJzgnLCAnLW1hJywgJzIwMCcsICctaW1hZScsICc8aW5maWxlLm1hZT4nLCAnLW9tYWUnLCAnPG91dGZpbGUubWFlPic=

>  <r_lp_tautomer_probability>  (6) 
1

>  <r_epik_Ionization_Penalty>  (6) 
0.0499191

>  <r_epik_Ionization_Penalty_Charging>  (6) 
0.0499166

>  <r_epik_Ionization_Penalty_Neutral>  (6) 
2.52483e-06

>  <r_epik_State_Penalty>  (6) 
0.0426676

>  <r_epik_Charging_Adjusted_Penalty>  (6) 
0.0925842

>  <i_epik_Tot_Q>  (6) 
1

>  <i_epik_Tot_abs_Q>  (6) 
1

>  <s_epik_Chemistry_Notes>  (6) 
This compound has an imine and may undergo hydrolysis.

>  <s_lp_Force_Field>  (6) 
OPLS3e

>  <r_lp_Energy>  (6) 
74.9036

>  <b_lp_Chiralities_Consistent>  (6) 
1

>  <s_lp_Variant>  (6) 
1:0-1

>  <s_i_glide_gridfile>  (6) 
pfpi4k_grid

>  <i_i_glide_lignum>  (6) 
2

>  <i_i_glide_rotatable_bonds>  (6) 
4

>  <r_i_docking_score>  (6) 
-2.70662

>  <r_i_glide_ligand_efficiency>  (6) 
-0.100245

>  <r_i_glide_ligand_efficiency_sa>  (6) 
-0.300736

>  <r_i_glide_ligand_efficiency_ln>  (6) 
-0.630057

>  <r_i_glide_gscore>  (6) 
-2.70662

>  <r_i_glide_lipo>  (6) 
-0.0601424

>  <r_i_glide_hbond>  (6) 
-0.151196

>  <r_i_glide_metal>  (6) 
-0

>  <r_i_glide_rewards>  (6) 
-0.883191

>  <r_i_glide_evdw>  (6) 
-16.8497

>  <r_i_glide_ecoul>  (6) 
-6.81142

>  <r_i_glide_erotb>  (6) 
0.281139

>  <r_i_glide_esite>  (6) 
-0.0290339

>  <r_i_glide_emodel>  (6) 
-27.8818

>  <r_i_glide_energy>  (6) 
-23.6611

>  <r_i_glide_einternal>  (6) 
1.0193

>  <r_i_glide_intrahb_reward>  (6) 
-0

>  <i_i_glide_confnum>  (6) 
1

>  <i_i_glide_posenum>  (6) 
22

>  <r_i_glide_eff_state_penalty>  (6) 
0

>  <ligand_id>  (6) 
1

>  <original_smiles>  (6) 
COc1ccc2c3c1OC1C(=NN)CCC4(O)C(C2)N(CC2CC2)CCC314

>  <smiles>  (6) 
[H]OC12C([H])([H])C([H])([H])C(=NN([H])[H])C3([H])Oc4c(OC([H])([H])[H])c([H])c([H])c5c4C31C([H])([H])C([H])([H])[N+]([H])(C([H])([H])C1([H])C([H])([H])C1([H])[H])C2([H])C5([H])[H]

$$$$
1:1:0
     RDKit          3D

 55 60  0  0  1  0  0  0  0  0999 V2000
    8.8102   -6.8884    3.1590 C   0  0  0  0  0  0  0  0  0  0  0  0
    7.6513   -6.9962    3.9765 O   0  0  0  0  0  0  0  0  0  0  0  0
    6.8043   -8.0562    3.7552 C   0  0  0  0  0  0  0  0  0  0  0  0
    6.9767   -9.0484    2.7525 C   0  0  0  0  0  0  0  0  0  0  0  0
    6.0867  -10.1437    2.6047 C   0  0  0  0  0  0  0  0  0  0  0  0
    4.9571  -10.2261    3.4343 C   0  0  0  0  0  0  0  0  0  0  0  0
    4.7977   -9.1766    4.3625 C   0  0  0  0  0  0  0  0  0  0  0  0
    5.6758   -8.1433    4.6094 C   0  0  0  0  0  0  0  0  0  0  0  0
    5.3215   -7.3640    5.6635 O   0  0  0  0  0  0  0  0  0  0  0  0
    4.2738   -8.0600    6.3775 C   0  0  2  0  0  0  0  0  0  0  0  0
    4.8180   -8.8997    7.5343 C   0  0  0  0  0  0  0  0  0  0  0  0
    5.7849   -8.5254    8.3404 N   0  0  0  0  0  0  0  0  0  0  0  0
    6.3484   -7.3111    8.2196 N   0  0  0  0  0  0  0  0  0  0  0  0
    4.1816  -10.2156    7.8693 C   0  0  0  0  0  0  0  0  0  0  0  0
    3.8610  -11.0434    6.6076 C   0  0  0  0  0  0  0  0  0  0  0  0
    2.9372  -10.2781    5.6372 C   0  0  2  0  0  0  0  0  0  0  0  0
    1.7259  -10.0746    6.3492 O   0  0  0  0  0  0  0  0  0  0  0  0
    2.6258  -11.0246    4.2963 C   0  0  2  0  0  0  0  0  0  0  0  0
    3.9129  -11.3463    3.5125 C   0  0  0  0  0  0  0  0  0  0  0  0
    1.7154  -10.2088    3.3911 N   0  0  1  0  0  0  0  0  0  0  0  0
    0.2501  -10.3110    3.7023 C   0  0  0  0  0  0  0  0  0  0  0  0
   -0.6338   -9.8817    2.5502 C   0  0  0  0  0  0  0  0  0  0  0  0
   -0.9257   -8.4272    2.2464 C   0  0  0  0  0  0  0  0  0  0  0  0
   -1.9962   -9.2881    2.8326 C   0  0  0  0  0  0  0  0  0  0  0  0
    2.1950   -8.7919    3.1391 C   0  0  0  0  0  0  0  0  0  0  0  0
    2.5798   -8.1087    4.4613 C   0  0  0  0  0  0  0  0  0  0  0  0
    3.6128   -8.9390    5.2538 C   0  0  2  0  0  0  0  0  0  0  0  0
    9.3659   -6.0029    3.4598 H   0  0  0  0  0  0  0  0  0  0  0  0
    8.5540   -6.7742    2.1050 H   0  0  0  0  0  0  0  0  0  0  0  0
    9.4660   -7.7507    3.2817 H   0  0  0  0  0  0  0  0  0  0  0  0
    7.8020   -8.9953    2.0761 H   0  0  0  0  0  0  0  0  0  0  0  0
    6.2658  -10.9175    1.8548 H   0  0  0  0  0  0  0  0  0  0  0  0
    3.5617   -7.3496    6.7887 H   0  0  0  0  0  0  0  0  0  0  0  0
    5.8838   -6.6422    7.6004 H   0  0  0  0  0  0  0  0  0  0  0  0
    6.8940   -6.9995    9.0131 H   0  0  0  0  0  0  0  0  0  0  0  0
    4.8089  -10.7973    8.5470 H   0  0  0  0  0  0  0  0  0  0  0  0
    3.2669  -10.0187    8.4247 H   0  0  0  0  0  0  0  0  0  0  0  0
    4.8068  -11.3062    6.1261 H   0  0  0  0  0  0  0  0  0  0  0  0
    3.4281  -11.9976    6.9057 H   0  0  0  0  0  0  0  0  0  0  0  0
    1.4894  -10.8924    6.7974 H   0  0  0  0  0  0  0  0  0  0  0  0
    2.1211  -11.9596    4.4952 H   0  0  0  0  0  0  0  0  0  0  0  0
    3.6767  -11.6796    2.5006 H   0  0  0  0  0  0  0  0  0  0  0  0
    4.3927  -12.1875    3.9897 H   0  0  0  0  0  0  0  0  0  0  0  0
    0.0182  -11.3402    3.9563 H   0  0  0  0  0  0  0  0  0  0  0  0
    0.0100   -9.7111    4.5693 H   0  0  0  0  0  0  0  0  0  0  0  0
   -0.6250  -10.5844    1.7150 H   0  0  0  0  0  0  0  0  0  0  0  0
   -0.5398   -7.6505    2.9059 H   0  0  0  0  0  0  0  0  0  0  0  0
   -0.9647   -8.1746    1.1868 H   0  0  0  0  0  0  0  0  0  0  0  0
   -2.8374   -9.4908    2.1658 H   0  0  0  0  0  0  0  0  0  0  0  0
   -2.2616   -9.0620    3.8651 H   0  0  0  0  0  0  0  0  0  0  0  0
    3.0531   -8.8459    2.4768 H   0  0  0  0  0  0  0  0  0  0  0  0
    1.4864   -8.1926    2.6020 H   0  0  0  0  0  0  0  0  0  0  0  0
    2.9728   -7.1273    4.2203 H   0  0  0  0  0  0  0  0  0  0  0  0
    1.6879   -7.9172    5.0615 H   0  0  0  0  0  0  0  0  0  0  0  0
    1.7889  -10.6726    2.4783 H   0  0  0  0  0  0  0  0  0  0  0  0
  1  2  1  0
  1 28  1  0
  1 29  1  0
  1 30  1  0
  2  3  1  0
  3  8  2  0
  3  4  1  0
  4  5  2  0
  4 31  1  0
  5  6  1  0
  5 32  1  0
  6 19  1  0
  6  7  2  0
  7 27  1  0
  7  8  1  0
  8  9  1  0
  9 10  1  0
 10 27  1  0
 10 11  1  0
 10 33  1  1
 11 12  2  3
 11 14  1  0
 12 13  1  0
 13 34  1  0
 13 35  1  0
 14 15  1  0
 14 36  1  0
 14 37  1  0
 15 16  1  0
 15 38  1  0
 15 39  1  0
 16 27  1  0
 16 17  1  1
 16 18  1  0
 17 40  1  0
 18 19  1  0
 18 20  1  0
 18 41  1  1
 19 42  1  0
 19 43  1  0
 20 21  1  0
 20 25  1  0
 20 55  1  6
 21 22  1  0
 21 44  1  0
 21 45  1  0
 22 24  1  0
 22 23  1  0
 22 46  1  0
 23 24  1  0
 23 47  1  0
 23 48  1  0
 24 49  1  0
 24 50  1  0
 25 26  1  0
 25 51  1  0
 25 52  1  0
 27 26  1  6
 26 53  1  0
 26 54  1  0
M  CHG  1  20   1
M  END
>  <i_m_ct_stereo_status>  (7) 
1

>  <s_m_source_file>  (7) 
/var/tmp/pbs.5076255.sched01/tmp7hrp_b9g/014g_j70o.sdf

>  <i_m_source_file_index>  (7) 
3

>  <i_lp_mmshare_version>  (7) 
48012

>  <i_f3d_flags>  (7) 
0

>  <s_epik_input>  (7) 
W0NAQF0xMjNjNGM1W2NIXVtjSF1jKE9bQ0gzXSljNE9bQ0BASF0xL0MoPU4vW05IMl0pW0NIMl1bQ0gyXVtDQF0yKFtPSF0pW0NASF0oW0NIMl01KU4oW0NIMl1bQ0gyXTMpW0NIMl1bQ0hdNltDSDJdW0NIMl02

>  <s_epik_cmdline>  (7) 
J2VwaWtfcHl0aG9uJywgJy1waHQnLCAnMi4wJywgJy1waCcsICc3LjAnLCAnLXRuJywgJzgnLCAnLW1hJywgJzIwMCcsICctaW1hZScsICc8aW5maWxlLm1hZT4nLCAnLW9tYWUnLCAnPG91dGZpbGUubWFlPic=

>  <r_lp_tautomer_probability>  (7) 
1

>  <r_epik_Ionization_Penalty>  (7) 
0.0499191

>  <r_epik_Ionization_Penalty_Charging>  (7) 
0.0499166

>  <r_epik_Ionization_Penalty_Neutral>  (7) 
2.52483e-06

>  <r_epik_State_Penalty>  (7) 
0.0426676

>  <r_epik_Charging_Adjusted_Penalty>  (7) 
0.0925842

>  <i_epik_Tot_Q>  (7) 
1

>  <i_epik_Tot_abs_Q>  (7) 
1

>  <s_epik_Chemistry_Notes>  (7) 
This compound has an imine and may undergo hydrolysis.

>  <s_lp_Force_Field>  (7) 
OPLS3e

>  <r_lp_Energy>  (7) 
74.8134

>  <b_lp_Chiralities_Consistent>  (7) 
1

>  <s_lp_Variant>  (7) 
1:0-2

>  <s_i_glide_gridfile>  (7) 
pfpi4k_grid

>  <i_i_glide_lignum>  (7) 
3

>  <i_i_glide_rotatable_bonds>  (7) 
4

>  <r_i_docking_score>  (7) 
-3.02419

>  <r_i_glide_ligand_efficiency>  (7) 
-0.112007

>  <r_i_glide_ligand_efficiency_sa>  (7) 
-0.336021

>  <r_i_glide_ligand_efficiency_ln>  (7) 
-0.703981

>  <r_i_glide_gscore>  (7) 
-3.02419

>  <r_i_glide_lipo>  (7) 
-0.121647

>  <r_i_glide_hbond>  (7) 
-0.16

>  <r_i_glide_metal>  (7) 
-0

>  <r_i_glide_rewards>  (7) 
-0.883191

>  <r_i_glide_evdw>  (7) 
-16.0217

>  <r_i_glide_ecoul>  (7) 
-8.91592

>  <r_i_glide_erotb>  (7) 
0.281139

>  <r_i_glide_esite>  (7) 
-0.00201357

>  <r_i_glide_emodel>  (7) 
-31.4875

>  <r_i_glide_energy>  (7) 
-24.9376

>  <r_i_glide_einternal>  (7) 
1.22325

>  <r_i_glide_intrahb_reward>  (7) 
-0

>  <i_i_glide_confnum>  (7) 
2

>  <i_i_glide_posenum>  (7) 
25

>  <r_i_glide_eff_state_penalty>  (7) 
0

>  <ligand_id>  (7) 
1

>  <original_smiles>  (7) 
COc1ccc2c3c1OC1C(=NN)CCC4(O)C(C2)N(CC2CC2)CCC314

>  <smiles>  (7) 
[H]OC12C([H])([H])C([H])([H])C(=NN([H])[H])C3([H])Oc4c(OC([H])([H])[H])c([H])c([H])c5c4C31C([H])([H])C([H])([H])[N+]([H])(C([H])([H])C1([H])C([H])([H])C1([H])[H])C2([H])C5([H])[H]

$$$$
1:1:1
     RDKit          3D

 55 60  0  0  1  0  0  0  0  0999 V2000
    8.6029   -3.2700   -1.0984 C   0  0  0  0  0  0  0  0  0  0  0  0
    7.2678   -3.3605   -0.6375 O   0  0  0  0  0  0  0  0  0  0  0  0
    6.9920   -4.2245    0.3976 C   0  0  0  0  0  0  0  0  0  0  0  0
    7.9512   -5.0750    1.0222 C   0  0  0  0  0  0  0  0  0  0  0  0
    7.6008   -5.9146    2.1106 C   0  0  0  0  0  0  0  0  0  0  0  0
    6.2658   -5.9591    2.5526 C   0  0  0  0  0  0  0  0  0  0  0  0
    5.3538   -5.1523    1.8477 C   0  0  0  0  0  0  0  0  0  0  0  0
    5.6576   -4.2537    0.8500 C   0  0  0  0  0  0  0  0  0  0  0  0
    4.5894   -3.4996    0.4547 O   0  0  0  0  0  0  0  0  0  0  0  0
    3.5502   -3.6783    1.4446 C   0  0  2  0  0  0  0  0  0  0  0  0
    3.5734   -2.5779    2.5169 C   0  0  0  0  0  0  0  0  0  0  0  0
    3.8030   -1.3291    2.2897 N   0  0  0  0  0  0  0  0  0  0  0  0
    4.0019   -0.8702    1.0373 N   0  0  0  0  0  0  0  0  0  0  0  0
    3.2223   -2.9315    3.9419 C   0  0  0  0  0  0  0  0  0  0  0  0
    3.8687   -4.2561    4.3975 C   0  0  0  0  0  0  0  0  0  0  0  0
    3.4748   -5.4350    3.4782 C   0  0  2  0  0  0  0  0  0  0  0  0
    2.0707   -5.5648    3.6442 O   0  0  0  0  0  0  0  0  0  0  0  0
    4.1479   -6.8129    3.8123 C   0  0  2  0  0  0  0  0  0  0  0  0
    5.6914   -6.7040    3.7585 C   0  0  0  0  0  0  0  0  0  0  0  0
    3.7002   -7.9252    2.9003 N   0  0  1  0  0  0  0  0  0  0  0  0
    2.4096   -8.5590    3.2825 C   0  0  0  0  0  0  0  0  0  0  0  0
    2.2466   -9.9724    2.7307 C   0  0  0  0  0  0  0  0  0  0  0  0
    1.0931  -10.8325    3.2061 C   0  0  0  0  0  0  0  0  0  0  0  0
    2.5034  -11.1707    3.6135 C   0  0  0  0  0  0  0  0  0  0  0  0
    3.7974   -7.6024    1.4499 C   0  0  0  0  0  0  0  0  0  0  0  0
    3.2383   -6.2084    1.1160 C   0  0  0  0  0  0  0  0  0  0  0  0
    3.8586   -5.1065    2.0198 C   0  0  2  0  0  0  0  0  0  0  0  0
    8.6220   -2.5559   -1.9194 H   0  0  0  0  0  0  0  0  0  0  0  0
    8.9792   -4.2205   -1.4783 H   0  0  0  0  0  0  0  0  0  0  0  0
    9.2652   -2.9030   -0.3143 H   0  0  0  0  0  0  0  0  0  0  0  0
    8.9752   -5.0931    0.6970 H   0  0  0  0  0  0  0  0  0  0  0  0
    8.3549   -6.5160    2.6032 H   0  0  0  0  0  0  0  0  0  0  0  0
    2.5686   -3.6603    0.9665 H   0  0  0  0  0  0  0  0  0  0  0  0
    3.7494   -1.4996    0.2795 H   0  0  0  0  0  0  0  0  0  0  0  0
    3.8885    0.1293    0.9113 H   0  0  0  0  0  0  0  0  0  0  0  0
    3.5075   -2.1269    4.6213 H   0  0  0  0  0  0  0  0  0  0  0  0
    2.1381   -2.9946    4.0214 H   0  0  0  0  0  0  0  0  0  0  0  0
    4.9509   -4.1175    4.4089 H   0  0  0  0  0  0  0  0  0  0  0  0
    3.5801   -4.4683    5.4284 H   0  0  0  0  0  0  0  0  0  0  0  0
    1.6675   -4.7295    3.4626 H   0  0  0  0  0  0  0  0  0  0  0  0
    3.8926   -7.1027    4.8341 H   0  0  0  0  0  0  0  0  0  0  0  0
    6.1476   -7.6930    3.8164 H   0  0  0  0  0  0  0  0  0  0  0  0
    6.0343   -6.1803    4.6505 H   0  0  0  0  0  0  0  0  0  0  0  0
    2.3346   -8.6153    4.3704 H   0  0  0  0  0  0  0  0  0  0  0  0
    1.5718   -7.9591    2.9339 H   0  0  0  0  0  0  0  0  0  0  0  0
    2.4695  -10.1056    1.6716 H   0  0  0  0  0  0  0  0  0  0  0  0
    0.4274  -10.4212    3.9624 H   0  0  0  0  0  0  0  0  0  0  0  0
    0.6198  -11.4930    2.4801 H   0  0  0  0  0  0  0  0  0  0  0  0
    2.9744  -12.0314    3.1401 H   0  0  0  0  0  0  0  0  0  0  0  0
    2.7982  -10.9753    4.6435 H   0  0  0  0  0  0  0  0  0  0  0  0
    4.8392   -7.6755    1.1321 H   0  0  0  0  0  0  0  0  0  0  0  0
    3.2860   -8.3471    0.8484 H   0  0  0  0  0  0  0  0  0  0  0  0
    3.4340   -5.9976    0.0637 H   0  0  0  0  0  0  0  0  0  0  0  0
    2.1496   -6.2241    1.2106 H   0  0  0  0  0  0  0  0  0  0  0  0
    4.3677   -8.6678    3.0505 H   0  0  0  0  0  0  0  0  0  0  0  0
  1  2  1  0
  1 28  1  0
  1 29  1  0
  1 30  1  0
  2  3  1  0
  3  8  2  0
  3  4  1  0
  4  5  2  0
  4 31  1  0
  5  6  1  0
  5 32  1  0
  6 19  1  0
  6  7  2  0
  7 27  1  0
  7  8  1  0
  8  9  1  0
  9 10  1  0
 10 27  1  0
 10 11  1  0
 10 33  1  6
 11 12  2  3
 11 14  1  0
 12 13  1  0
 13 34  1  0
 13 35  1  0
 14 15  1  0
 14 36  1  0
 14 37  1  0
 15 16  1  0
 15 38  1  0
 15 39  1  0
 16 27  1  0
 16 17  1  6
 16 18  1  0
 17 40  1  0
 18 19  1  0
 18 20  1  0
 18 41  1  1
 19 42  1  0
 19 43  1  0
 20 21  1  0
 20 25  1  0
 20 55  1  6
 21 22  1  0
 21 44  1  0
 21 45  1  0
 22 24  1  0
 22 23  1  0
 22 46  1  0
 23 24  1  0
 23 47  1  0
 23 48  1  0
 24 49  1  0
 24 50  1  0
 25 26  1  0
 25 51  1  0
 25 52  1  0
 27 26  1  6
 26 53  1  0
 26 54  1  0
M  CHG  1  20   1
M  END
>  <i_m_ct_stereo_status>  (8) 
1

>  <s_m_source_file>  (8) 
/var/tmp/pbs.5076255.sched01/tmp7hrp_b9g/014g_j70o.sdf

>  <i_m_source_file_index>  (8) 
3

>  <i_lp_mmshare_version>  (8) 
48012

>  <i_f3d_flags>  (8) 
0

>  <s_epik_input>  (8) 
W0NAQF0xMjNjNGM1W2NIXVtjSF1jKE9bQ0gzXSljNE9bQ0BASF0xL0MoPU4vW05IMl0pW0NIMl1bQ0gyXVtDQF0yKFtPSF0pW0NASF0oW0NIMl01KU4oW0NIMl1bQ0gyXTMpW0NIMl1bQ0hdNltDSDJdW0NIMl02

>  <s_epik_cmdline>  (8) 
J2VwaWtfcHl0aG9uJywgJy1waHQnLCAnMi4wJywgJy1waCcsICc3LjAnLCAnLXRuJywgJzgnLCAnLW1hJywgJzIwMCcsICctaW1hZScsICc8aW5maWxlLm1hZT4nLCAnLW9tYWUnLCAnPG91dGZpbGUubWFlPic=

>  <r_lp_tautomer_probability>  (8) 
1

>  <r_epik_Ionization_Penalty>  (8) 
0.0499191

>  <r_epik_Ionization_Penalty_Charging>  (8) 
0.0499166

>  <r_epik_Ionization_Penalty_Neutral>  (8) 
2.52483e-06

>  <r_epik_State_Penalty>  (8) 
0.0426676

>  <r_epik_Charging_Adjusted_Penalty>  (8) 
0.0925842

>  <i_epik_Tot_Q>  (8) 
1

>  <i_epik_Tot_abs_Q>  (8) 
1

>  <s_epik_Chemistry_Notes>  (8) 
This compound has an imine and may undergo hydrolysis.

>  <s_lp_Force_Field>  (8) 
OPLS3e

>  <r_lp_Energy>  (8) 
74.8134

>  <b_lp_Chiralities_Consistent>  (8) 
1

>  <s_lp_Variant>  (8) 
1:0-2

>  <s_i_glide_gridfile>  (8) 
pfpi4k_grid

>  <i_i_glide_lignum>  (8) 
3

>  <i_i_glide_rotatable_bonds>  (8) 
4

>  <r_i_docking_score>  (8) 
-2.8718

>  <r_i_glide_ligand_efficiency>  (8) 
-0.106363

>  <r_i_glide_ligand_efficiency_sa>  (8) 
-0.319089

>  <r_i_glide_ligand_efficiency_ln>  (8) 
-0.668507

>  <r_i_glide_gscore>  (8) 
-2.8718

>  <r_i_glide_lipo>  (8) 
-0.702983

>  <r_i_glide_hbond>  (8) 
0

>  <r_i_glide_metal>  (8) 
-0

>  <r_i_glide_rewards>  (8) 
-0.883527

>  <r_i_glide_evdw>  (8) 
-22.7572

>  <r_i_glide_ecoul>  (8) 
-2.84509

>  <r_i_glide_erotb>  (8) 
0.281139

>  <r_i_glide_esite>  (8) 
-0.00180479

>  <r_i_glide_emodel>  (8) 
-32.8915

>  <r_i_glide_energy>  (8) 
-25.6023

>  <r_i_glide_einternal>  (8) 
0.380965

>  <r_i_glide_intrahb_reward>  (8) 
-0

>  <i_i_glide_confnum>  (8) 
1

>  <i_i_glide_posenum>  (8) 
12

>  <r_i_glide_eff_state_penalty>  (8) 
0

>  <ligand_id>  (8) 
1

>  <original_smiles>  (8) 
COc1ccc2c3c1OC1C(=NN)CCC4(O)C(C2)N(CC2CC2)CCC314

>  <smiles>  (8) 
[H]OC12C([H])([H])C([H])([H])C(=NN([H])[H])C3([H])Oc4c(OC([H])([H])[H])c([H])c([H])c5c4C31C([H])([H])C([H])([H])[N+]([H])(C([H])([H])C1([H])C([H])([H])C1([H])[H])C2([H])C5([H])[H]

$$$$
1:1:2
     RDKit          3D

 55 60  0  0  1  0  0  0  0  0999 V2000
    8.4444   -3.2973   -0.9205 C   0  0  0  0  0  0  0  0  0  0  0  0
    7.0830   -3.4446   -0.5573 O   0  0  0  0  0  0  0  0  0  0  0  0
    6.7721   -4.2969    0.4797 C   0  0  0  0  0  0  0  0  0  0  0  0
    7.7300   -5.0304    1.2403 C   0  0  0  0  0  0  0  0  0  0  0  0
    7.3408   -5.8594    2.3239 C   0  0  0  0  0  0  0  0  0  0  0  0
    5.9747   -6.0158    2.6239 C   0  0  0  0  0  0  0  0  0  0  0  0
    5.0755   -5.3261    1.7912 C   0  0  0  0  0  0  0  0  0  0  0  0
    5.4040   -4.4389    0.7906 C   0  0  0  0  0  0  0  0  0  0  0  0
    4.3194   -3.8084    0.2503 O   0  0  0  0  0  0  0  0  0  0  0  0
    3.1985   -4.0501    1.1324 C   0  0  2  0  0  0  0  0  0  0  0  0
    3.0042   -2.9153    2.1479 C   0  0  0  0  0  0  0  0  0  0  0  0
    3.1464   -1.6602    1.8899 N   0  0  0  0  0  0  0  0  0  0  0  0
    3.4470   -1.2294    0.6486 N   0  0  0  0  0  0  0  0  0  0  0  0
    2.5297   -3.2474    3.5404 C   0  0  0  0  0  0  0  0  0  0  0  0
    3.2379   -4.4855    4.1248 C   0  0  0  0  0  0  0  0  0  0  0  0
    3.0542   -5.7316    3.2259 C   0  0  2  0  0  0  0  0  0  0  0  0
    1.6561   -6.0020    3.2368 O   0  0  0  0  0  0  0  0  0  0  0  0
    3.8186   -7.0192    3.6911 C   0  0  2  0  0  0  0  0  0  0  0  0
    5.3415   -6.7655    3.7954 C   0  0  0  0  0  0  0  0  0  0  0  0
    3.5732   -8.2035    2.7939 N   0  0  1  0  0  0  0  0  0  0  0  0
    2.3084   -8.9341    3.0706 C   0  0  0  0  0  0  0  0  0  0  0  0
    2.4073  -10.4144    2.7424 C   0  0  0  0  0  0  0  0  0  0  0  0
    1.3600  -11.3690    3.2842 C   0  0  0  0  0  0  0  0  0  0  0  0
    2.7660  -11.4097    3.8230 C   0  0  0  0  0  0  0  0  0  0  0  0
    3.7931   -7.9367    1.3458 C   0  0  0  0  0  0  0  0  0  0  0  0
    3.1594   -6.6075    0.8918 C   0  0  0  0  0  0  0  0  0  0  0  0
    3.5712   -5.4196    1.8033 C   0  0  2  0  0  0  0  0  0  0  0  0
    8.5116   -2.6127   -1.7645 H   0  0  0  0  0  0  0  0  0  0  0  0
    8.8902   -4.2419   -1.2323 H   0  0  0  0  0  0  0  0  0  0  0  0
    9.0245   -2.8723   -0.1022 H   0  0  0  0  0  0  0  0  0  0  0  0
    8.7808   -4.9577    1.0295 H   0  0  0  0  0  0  0  0  0  0  0  0
    8.0870   -6.3650    2.9242 H   0  0  0  0  0  0  0  0  0  0  0  0
    2.2772   -4.1431    0.5538 H   0  0  0  0  0  0  0  0  0  0  0  0
    3.3178   -1.9022   -0.1021 H   0  0  0  0  0  0  0  0  0  0  0  0
    3.2255   -0.2575    0.4633 H   0  0  0  0  0  0  0  0  0  0  0  0
    2.6631   -2.3924    4.2052 H   0  0  0  0  0  0  0  0  0  0  0  0
    1.4550   -3.4179    3.5025 H   0  0  0  0  0  0  0  0  0  0  0  0
    4.2955   -4.2418    4.2415 H   0  0  0  0  0  0  0  0  0  0  0  0
    2.8614   -4.6795    5.1303 H   0  0  0  0  0  0  0  0  0  0  0  0
    1.4011   -6.2631    4.1103 H   0  0  0  0  0  0  0  0  0  0  0  0
    3.4895   -7.2945    4.6950 H   0  0  0  0  0  0  0  0  0  0  0  0
    5.8758   -7.7038    3.9500 H   0  0  0  0  0  0  0  0  0  0  0  0
    5.5321   -6.1777    4.6929 H   0  0  0  0  0  0  0  0  0  0  0  0
    2.0443   -8.8501    4.1262 H   0  0  0  0  0  0  0  0  0  0  0  0
    1.4870   -8.5089    2.4961 H   0  0  0  0  0  0  0  0  0  0  0  0
    2.7536  -10.6474    1.7339 H   0  0  0  0  0  0  0  0  0  0  0  0
    0.5802  -10.9637    3.9270 H   0  0  0  0  0  0  0  0  0  0  0  0
    1.0543  -12.2119    2.6677 H   0  0  0  0  0  0  0  0  0  0  0  0
    3.3902  -12.2536    3.5320 H   0  0  0  0  0  0  0  0  0  0  0  0
    2.9369  -11.0191    4.8249 H   0  0  0  0  0  0  0  0  0  0  0  0
    4.8653   -7.9214    1.1420 H   0  0  0  0  0  0  0  0  0  0  0  0
    3.4147   -8.7598    0.7385 H   0  0  0  0  0  0  0  0  0  0  0  0
    3.4553   -6.4060   -0.1389 H   0  0  0  0  0  0  0  0  0  0  0  0
    2.0720   -6.7151    0.8716 H   0  0  0  0  0  0  0  0  0  0  0  0
    4.2850   -8.8738    3.0487 H   0  0  0  0  0  0  0  0  0  0  0  0
  1  2  1  0
  1 28  1  0
  1 29  1  0
  1 30  1  0
  2  3  1  0
  3  8  2  0
  3  4  1  0
  4  5  2  0
  4 31  1  0
  5  6  1  0
  5 32  1  0
  6 19  1  0
  6  7  2  0
  7 27  1  0
  7  8  1  0
  8  9  1  0
  9 10  1  0
 10 27  1  0
 10 11  1  0
 10 33  1  6
 11 12  2  3
 11 14  1  0
 12 13  1  0
 13 34  1  0
 13 35  1  0
 14 15  1  0
 14 36  1  0
 14 37  1  0
 15 16  1  0
 15 38  1  0
 15 39  1  0
 16 27  1  0
 16 17  1  6
 16 18  1  0
 17 40  1  0
 18 19  1  0
 18 20  1  0
 18 41  1  1
 19 42  1  0
 19 43  1  0
 20 21  1  0
 20 25  1  0
 20 55  1  1
 21 22  1  0
 21 44  1  0
 21 45  1  0
 22 24  1  0
 22 23  1  0
 22 46  1  0
 23 24  1  0
 23 47  1  0
 23 48  1  0
 24 49  1  0
 24 50  1  0
 25 26  1  0
 25 51  1  0
 25 52  1  0
 27 26  1  6
 26 53  1  0
 26 54  1  0
M  CHG  1  20   1
M  END
>  <i_m_ct_stereo_status>  (9) 
1

>  <s_m_source_file>  (9) 
/var/tmp/pbs.5076255.sched01/tmp7hrp_b9g/014g_j70o.sdf

>  <i_m_source_file_index>  (9) 
3

>  <i_lp_mmshare_version>  (9) 
48012

>  <i_f3d_flags>  (9) 
0

>  <s_epik_input>  (9) 
W0NAQF0xMjNjNGM1W2NIXVtjSF1jKE9bQ0gzXSljNE9bQ0BASF0xL0MoPU4vW05IMl0pW0NIMl1bQ0gyXVtDQF0yKFtPSF0pW0NASF0oW0NIMl01KU4oW0NIMl1bQ0gyXTMpW0NIMl1bQ0hdNltDSDJdW0NIMl02

>  <s_epik_cmdline>  (9) 
J2VwaWtfcHl0aG9uJywgJy1waHQnLCAnMi4wJywgJy1waCcsICc3LjAnLCAnLXRuJywgJzgnLCAnLW1hJywgJzIwMCcsICctaW1hZScsICc8aW5maWxlLm1hZT4nLCAnLW9tYWUnLCAnPG91dGZpbGUubWFlPic=

>  <r_lp_tautomer_probability>  (9) 
1

>  <r_epik_Ionization_Penalty>  (9) 
0.0499191

>  <r_epik_Ionization_Penalty_Charging>  (9) 
0.0499166

>  <r_epik_Ionization_Penalty_Neutral>  (9) 
2.52483e-06

>  <r_epik_State_Penalty>  (9) 
0.0426676

>  <r_epik_Charging_Adjusted_Penalty>  (9) 
0.0925842

>  <i_epik_Tot_Q>  (9) 
1

>  <i_epik_Tot_abs_Q>  (9) 
1

>  <s_epik_Chemistry_Notes>  (9) 
This compound has an imine and may undergo hydrolysis.

>  <s_lp_Force_Field>  (9) 
OPLS3e

>  <r_lp_Energy>  (9) 
74.8134

>  <b_lp_Chiralities_Consistent>  (9) 
1

>  <s_lp_Variant>  (9) 
1:0-2

>  <s_i_glide_gridfile>  (9) 
pfpi4k_grid

>  <i_i_glide_lignum>  (9) 
3

>  <i_i_glide_rotatable_bonds>  (9) 
4

>  <r_i_docking_score>  (9) 
-2.73903

>  <r_i_glide_ligand_efficiency>  (9) 
-0.101446

>  <r_i_glide_ligand_efficiency_sa>  (9) 
-0.304337

>  <r_i_glide_ligand_efficiency_ln>  (9) 
-0.637601

>  <r_i_glide_gscore>  (9) 
-2.73903

>  <r_i_glide_lipo>  (9) 
-0.606737

>  <r_i_glide_hbond>  (9) 
0

>  <r_i_glide_metal>  (9) 
-0

>  <r_i_glide_rewards>  (9) 
-0.883191

>  <r_i_glide_evdw>  (9) 
-22.7371

>  <r_i_glide_ecoul>  (9) 
-2.19475

>  <r_i_glide_erotb>  (9) 
0.281139

>  <r_i_glide_esite>  (9) 
-0.0641728

>  <r_i_glide_emodel>  (9) 
-31.9516

>  <r_i_glide_energy>  (9) 
-24.9319

>  <r_i_glide_einternal>  (9) 
0.311806

>  <r_i_glide_intrahb_reward>  (9) 
-0

>  <i_i_glide_confnum>  (9) 
1

>  <i_i_glide_posenum>  (9) 
14

>  <r_i_glide_eff_state_penalty>  (9) 
0

>  <ligand_id>  (9) 
1

>  <original_smiles>  (9) 
COc1ccc2c3c1OC1C(=NN)CCC4(O)C(C2)N(CC2CC2)CCC314

>  <smiles>  (9) 
[H]OC12C([H])([H])C([H])([H])C(=NN([H])[H])C3([H])Oc4c(OC([H])([H])[H])c([H])c([H])c5c4C31C([H])([H])C([H])([H])[N+]([H])(C([H])([H])C1([H])C([H])([H])C1([H])[H])C2([H])C5([H])[H]

$$$$
1:2:0
     RDKit          3D

 54 59  0  0  1  0  0  0  0  0999 V2000
   -1.5142    7.7362    9.4318 C   0  0  0  0  0  0  0  0  0  0  0  0
   -0.7549    6.9230    8.5573 O   0  0  0  0  0  0  0  0  0  0  0  0
   -1.1667    5.6246    8.3555 C   0  0  0  0  0  0  0  0  0  0  0  0
   -2.3271    5.0491    8.9445 C   0  0  0  0  0  0  0  0  0  0  0  0
   -2.7201    3.7198    8.6489 C   0  0  0  0  0  0  0  0  0  0  0  0
   -1.9162    2.9311    7.8040 C   0  0  0  0  0  0  0  0  0  0  0  0
   -0.7588    3.5350    7.2999 C   0  0  0  0  0  0  0  0  0  0  0  0
   -0.3832    4.8470    7.4739 C   0  0  0  0  0  0  0  0  0  0  0  0
    0.6974    5.2107    6.7114 O   0  0  0  0  0  0  0  0  0  0  0  0
    0.8846    4.1586    5.7335 C   0  0  2  0  0  0  0  0  0  0  0  0
    0.1621    4.4979    4.4249 C   0  0  0  0  0  0  0  0  0  0  0  0
    0.0858    5.7464    4.0844 N   0  0  0  0  0  0  0  0  0  0  0  0
   -0.4621    6.1370    2.9025 N   0  0  0  0  0  0  0  0  0  0  0  0
   -0.3946    3.3537    3.5881 C   0  0  0  0  0  0  0  0  0  0  0  0
   -1.1710    2.3468    4.4640 C   0  0  0  0  0  0  0  0  0  0  0  0
   -0.2904    1.7527    5.5865 C   0  0  2  0  0  0  0  0  0  0  0  0
    0.6959    1.0002    4.8959 O   0  0  0  0  0  0  0  0  0  0  0  0
   -1.0248    0.8011    6.5882 C   0  0  2  0  0  0  0  0  0  0  0  0
   -2.1942    1.5286    7.2856 C   0  0  0  0  0  0  0  0  0  0  0  0
   -0.1561    0.1976    7.6270 N   0  0  0  0  0  0  0  0  0  0  0  0
    0.5399   -1.0185    7.2132 C   0  0  0  0  0  0  0  0  0  0  0  0
    1.0192   -1.8899    8.3689 C   0  0  0  0  0  0  0  0  0  0  0  0
    1.6221   -3.2471    8.0833 C   0  0  0  0  0  0  0  0  0  0  0  0
    0.2702   -3.1530    8.7452 C   0  0  0  0  0  0  0  0  0  0  0  0
    0.6871    1.1921    8.3198 C   0  0  0  0  0  0  0  0  0  0  0  0
    1.3466    2.2357    7.3931 C   0  0  0  0  0  0  0  0  0  0  0  0
    0.3028    2.8899    6.4466 C   0  0  2  0  0  0  0  0  0  0  0  0
   -1.0441    8.7130    9.4867 H   0  0  0  0  0  0  0  0  0  0  0  0
   -1.5430    7.3206   10.4366 H   0  0  0  0  0  0  0  0  0  0  0  0
   -2.5268    7.8695    9.0593 H   0  0  0  0  0  0  0  0  0  0  0  0
   -2.9537    5.6128    9.6161 H   0  0  0  0  0  0  0  0  0  0  0  0
   -3.6333    3.3174    9.0602 H   0  0  0  0  0  0  0  0  0  0  0  0
    1.9414    4.0143    5.5136 H   0  0  0  0  0  0  0  0  0  0  0  0
   -0.1900    7.0959    2.6106 H   0  0  0  0  0  0  0  0  0  0  0  0
   -0.4662    5.4325    2.1600 H   0  0  0  0  0  0  0  0  0  0  0  0
   -1.0643    3.7017    2.8025 H   0  0  0  0  0  0  0  0  0  0  0  0
    0.4307    2.8587    3.0784 H   0  0  0  0  0  0  0  0  0  0  0  0
   -2.0404    2.8569    4.8878 H   0  0  0  0  0  0  0  0  0  0  0  0
   -1.5626    1.5447    3.8372 H   0  0  0  0  0  0  0  0  0  0  0  0
    1.1643    1.5777    4.3106 H   0  0  0  0  0  0  0  0  0  0  0  0
   -1.4704   -0.0054    6.0083 H   0  0  0  0  0  0  0  0  0  0  0  0
   -2.5451    0.9524    8.1290 H   0  0  0  0  0  0  0  0  0  0  0  0
   -3.0072    1.6011    6.5786 H   0  0  0  0  0  0  0  0  0  0  0  0
   -0.1316   -1.6343    6.6120 H   0  0  0  0  0  0  0  0  0  0  0  0
    1.3920   -0.7775    6.5767 H   0  0  0  0  0  0  0  0  0  0  0  0
    1.4917   -1.3584    9.1956 H   0  0  0  0  0  0  0  0  0  0  0  0
    1.6718   -3.5550    7.0390 H   0  0  0  0  0  0  0  0  0  0  0  0
    2.4694   -3.5391    8.7020 H   0  0  0  0  0  0  0  0  0  0  0  0
    0.2112   -3.3848    9.8081 H   0  0  0  0  0  0  0  0  0  0  0  0
   -0.6088   -3.4160    8.1562 H   0  0  0  0  0  0  0  0  0  0  0  0
    0.0765    1.7178    9.0589 H   0  0  0  0  0  0  0  0  0  0  0  0
    1.4742    0.7103    8.8943 H   0  0  0  0  0  0  0  0  0  0  0  0
    1.8446    2.9860    8.0143 H   0  0  0  0  0  0  0  0  0  0  0  0
    2.1423    1.7545    6.8205 H   0  0  0  0  0  0  0  0  0  0  0  0
  1  2  1  0
  1 28  1  0
  1 29  1  0
  1 30  1  0
  2  3  1  0
  3  8  2  0
  3  4  1  0
  4  5  2  0
  4 31  1  0
  5  6  1  0
  5 32  1  0
  6 19  1  0
  6  7  2  0
  7 27  1  0
  7  8  1  0
  8  9  1  0
  9 10  1  0
 10 27  1  0
 10 11  1  0
 10 33  1  6
 11 12  2  3
 11 14  1  0
 12 13  1  0
 13 34  1  0
 13 35  1  0
 14 15  1  0
 14 36  1  0
 14 37  1  0
 15 16  1  0
 15 38  1  0
 15 39  1  0
 16 27  1  0
 16 17  1  6
 16 18  1  0
 17 40  1  0
 18 19  1  0
 18 20  1  0
 18 41  1  6
 19 42  1  0
 19 43  1  0
 20 21  1  0
 20 25  1  0
 21 22  1  0
 21 44  1  0
 21 45  1  0
 22 24  1  0
 22 23  1  0
 22 46  1  0
 23 24  1  0
 23 47  1  0
 23 48  1  0
 24 49  1  0
 24 50  1  0
 25 26  1  0
 25 51  1  0
 25 52  1  0
 27 26  1  1
 26 53  1  0
 26 54  1  0
M  END
>  <i_m_ct_stereo_status>  (10) 
1

>  <s_m_source_file>  (10) 
/var/tmp/pbs.5076255.sched01/tmp7hrp_b9g/014g_j70o.sdf

>  <i_m_source_file_index>  (10) 
4

>  <i_lp_mmshare_version>  (10) 
48012

>  <i_f3d_flags>  (10) 
0

>  <s_epik_input>  (10) 
W0NAQF0xMjNjNGM1W2NIXVtjSF1jKE9bQ0gzXSljNE9bQ0BASF0xL0MoPU4vW05IMl0pW0NIMl1bQ0gyXVtDQF0yKFtPSF0pW0NASF0oW0NIMl01KU4oW0NIMl1bQ0gyXTMpW0NIMl1bQ0hdNltDSDJdW0NIMl02

>  <s_epik_cmdline>  (10) 
J2VwaWtfcHl0aG9uJywgJy1waHQnLCAnMi4wJywgJy1waCcsICc3LjAnLCAnLXRuJywgJzgnLCAnLW1hJywgJzIwMCcsICctaW1hZScsICc8aW5maWxlLm1hZT4nLCAnLW9tYWUnLCAnPG91dGZpbGUubWFlPic=

>  <r_lp_tautomer_probability>  (10) 
1

>  <r_epik_Ionization_Penalty>  (10) 
1.49059

>  <r_epik_Ionization_Penalty_Charging>  (10) 
0

>  <r_epik_Ionization_Penalty_Neutral>  (10) 
1.49059

>  <r_epik_State_Penalty>  (10) 
1.57997

>  <r_epik_Charging_Adjusted_Penalty>  (10) 
1.57997

>  <i_epik_Tot_Q>  (10) 
0

>  <i_epik_Tot_abs_Q>  (10) 
0

>  <s_epik_Chemistry_Notes>  (10) 
This compound has an imine and may undergo hydrolysis.

>  <s_lp_Force_Field>  (10) 
OPLS3e

>  <r_lp_Energy>  (10) 
80.0452

>  <b_lp_Chiralities_Consistent>  (10) 
1

>  <s_lp_Variant>  (10) 
1:0-3

>  <s_i_glide_gridfile>  (10) 
pfpi4k_grid

>  <i_i_glide_lignum>  (10) 
4

>  <i_i_glide_rotatable_bonds>  (10) 
4

>  <r_i_docking_score>  (10) 
-3.50493

>  <r_i_glide_ligand_efficiency>  (10) 
-0.129812

>  <r_i_glide_ligand_efficiency_sa>  (10) 
-0.389437

>  <r_i_glide_ligand_efficiency_ln>  (10) 
-0.81589

>  <r_i_glide_gscore>  (10) 
-3.50493

>  <r_i_glide_lipo>  (10) 
-0.082432

>  <r_i_glide_hbond>  (10) 
-0.283245

>  <r_i_glide_metal>  (10) 
-0

>  <r_i_glide_rewards>  (10) 
-0.890063

>  <r_i_glide_evdw>  (10) 
-12.0358

>  <r_i_glide_ecoul>  (10) 
-11.8962

>  <r_i_glide_erotb>  (10) 
0.282511

>  <r_i_glide_esite>  (10) 
-0.145482

>  <r_i_glide_emodel>  (10) 
-30.3733

>  <r_i_glide_energy>  (10) 
-23.932

>  <r_i_glide_einternal>  (10) 
0.266498

>  <r_i_glide_intrahb_reward>  (10) 
-0

>  <i_i_glide_confnum>  (10) 
2

>  <i_i_glide_posenum>  (10) 
6

>  <r_i_glide_eff_state_penalty>  (10) 
0

>  <ligand_id>  (10) 
1

>  <original_smiles>  (10) 
COc1ccc2c3c1OC1C(=NN)CCC4(O)C(C2)N(CC2CC2)CCC314

>  <smiles>  (10) 
[H]OC12C([H])([H])C([H])([H])C(=NN([H])[H])C3([H])Oc4c(OC([H])([H])[H])c([H])c([H])c5c4C31C([H])([H])C([H])([H])N(C([H])([H])C1([H])C([H])([H])C1([H])[H])C2([H])C5([H])[H]

$$$$
1:2:1
     RDKit          3D

 54 59  0  0  1  0  0  0  0  0999 V2000
    8.6523   -3.3489   -0.2959 C   0  0  0  0  0  0  0  0  0  0  0  0
    8.8275   -4.7035    0.0992 O   0  0  0  0  0  0  0  0  0  0  0  0
    7.8854   -5.1625    0.9873 C   0  0  0  0  0  0  0  0  0  0  0  0
    8.3575   -5.8491    2.1309 C   0  0  0  0  0  0  0  0  0  0  0  0
    7.4738   -6.2924    3.1532 C   0  0  0  0  0  0  0  0  0  0  0  0
    6.0847   -6.1432    2.9786 C   0  0  0  0  0  0  0  0  0  0  0  0
    5.6776   -5.5497    1.7715 C   0  0  0  0  0  0  0  0  0  0  0  0
    6.4878   -5.0004    0.7927 C   0  0  0  0  0  0  0  0  0  0  0  0
    5.7953   -4.3538   -0.2029 O   0  0  0  0  0  0  0  0  0  0  0  0
    4.4628   -4.1538    0.2948 C   0  0  2  0  0  0  0  0  0  0  0  0
    4.3281   -2.8062    0.9897 C   0  0  0  0  0  0  0  0  0  0  0  0
    5.0364   -1.8133    0.5256 N   0  0  0  0  0  0  0  0  0  0  0  0
    4.9034   -0.5729    1.0282 N   0  0  0  0  0  0  0  0  0  0  0  0
    3.3618   -2.6648    2.1420 C   0  0  0  0  0  0  0  0  0  0  0  0
    3.5052   -3.8362    3.1383 C   0  0  0  0  0  0  0  0  0  0  0  0
    3.2929   -5.2048    2.4538 C   0  0  2  0  0  0  0  0  0  0  0  0
    1.9327   -5.1827    2.0463 O   0  0  0  0  0  0  0  0  0  0  0  0
    3.5214   -6.4610    3.3637 C   0  0  2  0  0  0  0  0  0  0  0  0
    4.9500   -6.4755    3.9477 C   0  0  0  0  0  0  0  0  0  0  0  0
    3.2650   -7.7539    2.6905 N   0  0  0  0  0  0  0  0  0  0  0  0
    1.8773   -8.2044    2.7214 C   0  0  0  0  0  0  0  0  0  0  0  0
    1.6721   -9.6763    2.4042 C   0  0  0  0  0  0  0  0  0  0  0  0
    0.3493  -10.3357    2.7036 C   0  0  0  0  0  0  0  0  0  0  0  0
    1.5740  -10.7028    3.5048 C   0  0  0  0  0  0  0  0  0  0  0  0
    3.9579   -7.8780    1.3945 C   0  0  0  0  0  0  0  0  0  0  0  0
    3.8555   -6.6328    0.4994 C   0  0  0  0  0  0  0  0  0  0  0  0
    4.2721   -5.3611    1.2742 C   0  0  2  0  0  0  0  0  0  0  0  0
    9.3422   -3.1300   -1.1055 H   0  0  0  0  0  0  0  0  0  0  0  0
    8.8837   -2.6980    0.5527 H   0  0  0  0  0  0  0  0  0  0  0  0
    7.6666   -3.0649   -0.6756 H   0  0  0  0  0  0  0  0  0  0  0  0
    9.4241   -5.9856    2.2670 H   0  0  0  0  0  0  0  0  0  0  0  0
    7.8583   -6.7362    4.0628 H   0  0  0  0  0  0  0  0  0  0  0  0
    3.7432   -4.1923   -0.5228 H   0  0  0  0  0  0  0  0  0  0  0  0
    5.2632    0.1785    0.4442 H   0  0  0  0  0  0  0  0  0  0  0  0
    4.0907   -0.4017    1.6075 H   0  0  0  0  0  0  0  0  0  0  0  0
    3.4775   -1.7319    2.6922 H   0  0  0  0  0  0  0  0  0  0  0  0
    2.3536   -2.6452    1.7309 H   0  0  0  0  0  0  0  0  0  0  0  0
    4.5006   -3.7845    3.5822 H   0  0  0  0  0  0  0  0  0  0  0  0
    2.7928   -3.7068    3.9570 H   0  0  0  0  0  0  0  0  0  0  0  0
    1.3994   -5.1384    2.8290 H   0  0  0  0  0  0  0  0  0  0  0  0
    2.8651   -6.3967    4.2304 H   0  0  0  0  0  0  0  0  0  0  0  0
    5.1558   -7.4438    4.3937 H   0  0  0  0  0  0  0  0  0  0  0  0
    5.0140   -5.7639    4.7611 H   0  0  0  0  0  0  0  0  0  0  0  0
    1.4847   -8.0448    3.7240 H   0  0  0  0  0  0  0  0  0  0  0  0
    1.2677   -7.6174    2.0419 H   0  0  0  0  0  0  0  0  0  0  0  0
    2.1082  -10.0298    1.4746 H   0  0  0  0  0  0  0  0  0  0  0  0
   -0.4157   -9.7241    3.1732 H   0  0  0  0  0  0  0  0  0  0  0  0
   -0.0076  -11.0526    1.9655 H   0  0  0  0  0  0  0  0  0  0  0  0
    2.0436  -11.6673    3.3097 H   0  0  0  0  0  0  0  0  0  0  0  0
    1.6518  -10.3418    4.5282 H   0  0  0  0  0  0  0  0  0  0  0  0
    5.0140   -8.1030    1.5673 H   0  0  0  0  0  0  0  0  0  0  0  0
    3.6029   -8.7218    0.8168 H   0  0  0  0  0  0  0  0  0  0  0  0
    4.4782   -6.7815   -0.3881 H   0  0  0  0  0  0  0  0  0  0  0  0
    2.8371   -6.5213    0.1259 H   0  0  0  0  0  0  0  0  0  0  0  0
  1  2  1  0
  1 28  1  0
  1 29  1  0
  1 30  1  0
  2  3  1  0
  3  8  2  0
  3  4  1  0
  4  5  2  0
  4 31  1  0
  5  6  1  0
  5 32  1  0
  6 19  1  0
  6  7  2  0
  7 27  1  0
  7  8  1  0
  8  9  1  0
  9 10  1  0
 10 27  1  0
 10 11  1  0
 10 33  1  6
 11 12  2  3
 11 14  1  0
 12 13  1  0
 13 34  1  0
 13 35  1  0
 14 15  1  0
 14 36  1  0
 14 37  1  0
 15 16  1  0
 15 38  1  0
 15 39  1  0
 16 27  1  0
 16 17  1  6
 16 18  1  0
 17 40  1  0
 18 19  1  0
 18 20  1  0
 18 41  1  1
 19 42  1  0
 19 43  1  0
 20 21  1  0
 20 25  1  0
 21 22  1  0
 21 44  1  0
 21 45  1  0
 22 24  1  0
 22 23  1  0
 22 46  1  0
 23 24  1  0
 23 47  1  0
 23 48  1  0
 24 49  1  0
 24 50  1  0
 25 26  1  0
 25 51  1  0
 25 52  1  0
 27 26  1  6
 26 53  1  0
 26 54  1  0
M  END
>  <i_m_ct_stereo_status>  (11) 
1

>  <s_m_source_file>  (11) 
/var/tmp/pbs.5076255.sched01/tmp7hrp_b9g/014g_j70o.sdf

>  <i_m_source_file_index>  (11) 
4

>  <i_lp_mmshare_version>  (11) 
48012

>  <i_f3d_flags>  (11) 
0

>  <s_epik_input>  (11) 
W0NAQF0xMjNjNGM1W2NIXVtjSF1jKE9bQ0gzXSljNE9bQ0BASF0xL0MoPU4vW05IMl0pW0NIMl1bQ0gyXVtDQF0yKFtPSF0pW0NASF0oW0NIMl01KU4oW0NIMl1bQ0gyXTMpW0NIMl1bQ0hdNltDSDJdW0NIMl02

>  <s_epik_cmdline>  (11) 
J2VwaWtfcHl0aG9uJywgJy1waHQnLCAnMi4wJywgJy1waCcsICc3LjAnLCAnLXRuJywgJzgnLCAnLW1hJywgJzIwMCcsICctaW1hZScsICc8aW5maWxlLm1hZT4nLCAnLW9tYWUnLCAnPG91dGZpbGUubWFlPic=

>  <r_lp_tautomer_probability>  (11) 
1

>  <r_epik_Ionization_Penalty>  (11) 
1.49059

>  <r_epik_Ionization_Penalty_Charging>  (11) 
0

>  <r_epik_Ionization_Penalty_Neutral>  (11) 
1.49059

>  <r_epik_State_Penalty>  (11) 
1.57997

>  <r_epik_Charging_Adjusted_Penalty>  (11) 
1.57997

>  <i_epik_Tot_Q>  (11) 
0

>  <i_epik_Tot_abs_Q>  (11) 
0

>  <s_epik_Chemistry_Notes>  (11) 
This compound has an imine and may undergo hydrolysis.

>  <s_lp_Force_Field>  (11) 
OPLS3e

>  <r_lp_Energy>  (11) 
80.0452

>  <b_lp_Chiralities_Consistent>  (11) 
1

>  <s_lp_Variant>  (11) 
1:0-3

>  <s_i_glide_gridfile>  (11) 
pfpi4k_grid

>  <i_i_glide_lignum>  (11) 
4

>  <i_i_glide_rotatable_bonds>  (11) 
4

>  <r_i_docking_score>  (11) 
-3.24267

>  <r_i_glide_ligand_efficiency>  (11) 
-0.120099

>  <r_i_glide_ligand_efficiency_sa>  (11) 
-0.360297

>  <r_i_glide_ligand_efficiency_ln>  (11) 
-0.754841

>  <r_i_glide_gscore>  (11) 
-3.24267

>  <r_i_glide_lipo>  (11) 
-0.869531

>  <r_i_glide_hbond>  (11) 
-0.0535743

>  <r_i_glide_metal>  (11) 
-0

>  <r_i_glide_rewards>  (11) 
-0.899603

>  <r_i_glide_evdw>  (11) 
-24.0387

>  <r_i_glide_ecoul>  (11) 
-3.33694

>  <r_i_glide_erotb>  (11) 
0.282511

>  <r_i_glide_esite>  (11) 
0

>  <r_i_glide_emodel>  (11) 
-30.0855

>  <r_i_glide_energy>  (11) 
-27.3756

>  <r_i_glide_einternal>  (11) 
6.36401

>  <r_i_glide_intrahb_reward>  (11) 
-0

>  <i_i_glide_confnum>  (11) 
3

>  <i_i_glide_posenum>  (11) 
10

>  <r_i_glide_eff_state_penalty>  (11) 
0

>  <ligand_id>  (11) 
1

>  <original_smiles>  (11) 
COc1ccc2c3c1OC1C(=NN)CCC4(O)C(C2)N(CC2CC2)CCC314

>  <smiles>  (11) 
[H]OC12C([H])([H])C([H])([H])C(=NN([H])[H])C3([H])Oc4c(OC([H])([H])[H])c([H])c([H])c5c4C31C([H])([H])C([H])([H])N(C([H])([H])C1([H])C([H])([H])C1([H])[H])C2([H])C5([H])[H]

$$$$
1:2:2
     RDKit          3D

 54 59  0  0  1  0  0  0  0  0999 V2000
   -2.9624    4.3840    9.2088 C   0  0  0  0  0  0  0  0  0  0  0  0
   -2.2480    4.4271    7.9882 O   0  0  0  0  0  0  0  0  0  0  0  0
   -1.5079    3.3267    7.6245 C   0  0  0  0  0  0  0  0  0  0  0  0
   -1.3891    2.1469    8.4095 C   0  0  0  0  0  0  0  0  0  0  0  0
   -0.6238    1.0399    7.9608 C   0  0  0  0  0  0  0  0  0  0  0  0
    0.0744    1.1145    6.7427 C   0  0  0  0  0  0  0  0  0  0  0  0
   -0.0359    2.3273    6.0424 C   0  0  0  0  0  0  0  0  0  0  0  0
   -0.8358    3.3955    6.3851 C   0  0  0  0  0  0  0  0  0  0  0  0
   -0.8793    4.3722    5.4241 O   0  0  0  0  0  0  0  0  0  0  0  0
   -0.3070    3.7923    4.2250 C   0  0  2  0  0  0  0  0  0  0  0  0
   -1.4030    3.2047    3.3310 C   0  0  0  0  0  0  0  0  0  0  0  0
   -2.5400    3.8162    3.2972 N   0  0  0  0  0  0  0  0  0  0  0  0
   -3.5311    3.3835    2.4887 N   0  0  0  0  0  0  0  0  0  0  0  0
   -1.0788    1.9725    2.4959 C   0  0  0  0  0  0  0  0  0  0  0  0
   -0.3312    0.9077    3.3180 C   0  0  0  0  0  0  0  0  0  0  0  0
    0.9815    1.4610    3.9180 C   0  0  2  0  0  0  0  0  0  0  0  0
    1.7913    1.7541    2.7853 O   0  0  0  0  0  0  0  0  0  0  0  0
    1.7562    0.4721    4.8623 C   0  0  2  0  0  0  0  0  0  0  0  0
    0.8747    0.0147    6.0438 C   0  0  0  0  0  0  0  0  0  0  0  0
    3.0329    1.0113    5.3954 N   0  0  0  0  0  0  0  0  0  0  0  0
    4.1859    0.8235    4.5194 C   0  0  0  0  0  0  0  0  0  0  0  0
    5.5325    0.9601    5.2152 C   0  0  0  0  0  0  0  0  0  0  0  0
    6.7857    0.5359    4.4944 C   0  0  0  0  0  0  0  0  0  0  0  0
    6.2838   -0.2665    5.6757 C   0  0  0  0  0  0  0  0  0  0  0  0
    2.9022    2.3568    5.9839 C   0  0  0  0  0  0  0  0  0  0  0  0
    2.0544    3.3385    5.1547 C   0  0  0  0  0  0  0  0  0  0  0  0
    0.6846    2.7103    4.7756 C   0  0  2  0  0  0  0  0  0  0  0  0
   -3.4770    5.3321    9.3235 H   0  0  0  0  0  0  0  0  0  0  0  0
   -2.2960    4.2650   10.0616 H   0  0  0  0  0  0  0  0  0  0  0  0
   -3.7073    3.5893    9.2061 H   0  0  0  0  0  0  0  0  0  0  0  0
   -1.8858    2.0600    9.3613 H   0  0  0  0  0  0  0  0  0  0  0  0
   -0.5730    0.1394    8.5535 H   0  0  0  0  0  0  0  0  0  0  0  0
    0.2319    4.5461    3.6481 H   0  0  0  0  0  0  0  0  0  0  0  0
   -4.2887    4.0354    2.3319 H   0  0  0  0  0  0  0  0  0  0  0  0
   -3.2659    2.7386    1.7497 H   0  0  0  0  0  0  0  0  0  0  0  0
   -1.9596    1.5134    2.0543 H   0  0  0  0  0  0  0  0  0  0  0  0
   -0.4581    2.2829    1.6631 H   0  0  0  0  0  0  0  0  0  0  0  0
   -0.9988    0.5492    4.1039 H   0  0  0  0  0  0  0  0  0  0  0  0
   -0.1106    0.0503    2.6821 H   0  0  0  0  0  0  0  0  0  0  0  0
    1.3483    2.3981    2.2477 H   0  0  0  0  0  0  0  0  0  0  0  0
    1.9837   -0.4278    4.2917 H   0  0  0  0  0  0  0  0  0  0  0  0
    1.4994   -0.4840    6.7848 H   0  0  0  0  0  0  0  0  0  0  0  0
    0.1735   -0.7357    5.6891 H   0  0  0  0  0  0  0  0  0  0  0  0
    4.1469   -0.1805    4.0891 H   0  0  0  0  0  0  0  0  0  0  0  0
    4.1495    1.5195    3.6811 H   0  0  0  0  0  0  0  0  0  0  0  0
    5.6609    1.8527    5.8242 H   0  0  0  0  0  0  0  0  0  0  0  0
    6.6637    0.1117    3.4983 H   0  0  0  0  0  0  0  0  0  0  0  0
    7.6809    1.1388    4.6439 H   0  0  0  0  0  0  0  0  0  0  0  0
    6.8272   -0.1872    6.6156 H   0  0  0  0  0  0  0  0  0  0  0  0
    5.8191   -1.2355    5.4867 H   0  0  0  0  0  0  0  0  0  0  0  0
    2.4583    2.2597    6.9765 H   0  0  0  0  0  0  0  0  0  0  0  0
    3.8746    2.8106    6.1601 H   0  0  0  0  0  0  0  0  0  0  0  0
    1.9230    4.2563    5.7311 H   0  0  0  0  0  0  0  0  0  0  0  0
    2.6116    3.6322    4.2628 H   0  0  0  0  0  0  0  0  0  0  0  0
  1  2  1  0
  1 28  1  0
  1 29  1  0
  1 30  1  0
  2  3  1  0
  3  8  2  0
  3  4  1  0
  4  5  2  0
  4 31  1  0
  5  6  1  0
  5 32  1  0
  6 19  1  0
  6  7  2  0
  7 27  1  0
  7  8  1  0
  8  9  1  0
  9 10  1  0
 10 27  1  0
 10 11  1  0
 10 33  1  6
 11 12  2  3
 11 14  1  0
 12 13  1  0
 13 34  1  0
 13 35  1  0
 14 15  1  0
 14 36  1  0
 14 37  1  0
 15 16  1  0
 15 38  1  0
 15 39  1  0
 16 27  1  0
 16 17  1  6
 16 18  1  0
 17 40  1  0
 18 19  1  0
 18 20  1  0
 18 41  1  6
 19 42  1  0
 19 43  1  0
 20 21  1  0
 20 25  1  0
 21 22  1  0
 21 44  1  0
 21 45  1  0
 22 24  1  0
 22 23  1  0
 22 46  1  0
 23 24  1  0
 23 47  1  0
 23 48  1  0
 24 49  1  0
 24 50  1  0
 25 26  1  0
 25 51  1  0
 25 52  1  0
 27 26  1  1
 26 53  1  0
 26 54  1  0
M  END
>  <i_m_ct_stereo_status>  (12) 
1

>  <s_m_source_file>  (12) 
/var/tmp/pbs.5076255.sched01/tmp7hrp_b9g/014g_j70o.sdf

>  <i_m_source_file_index>  (12) 
4

>  <i_lp_mmshare_version>  (12) 
48012

>  <i_f3d_flags>  (12) 
0

>  <s_epik_input>  (12) 
W0NAQF0xMjNjNGM1W2NIXVtjSF1jKE9bQ0gzXSljNE9bQ0BASF0xL0MoPU4vW05IMl0pW0NIMl1bQ0gyXVtDQF0yKFtPSF0pW0NASF0oW0NIMl01KU4oW0NIMl1bQ0gyXTMpW0NIMl1bQ0hdNltDSDJdW0NIMl02

>  <s_epik_cmdline>  (12) 
J2VwaWtfcHl0aG9uJywgJy1waHQnLCAnMi4wJywgJy1waCcsICc3LjAnLCAnLXRuJywgJzgnLCAnLW1hJywgJzIwMCcsICctaW1hZScsICc8aW5maWxlLm1hZT4nLCAnLW9tYWUnLCAnPG91dGZpbGUubWFlPic=

>  <r_lp_tautomer_probability>  (12) 
1

>  <r_epik_Ionization_Penalty>  (12) 
1.49059

>  <r_epik_Ionization_Penalty_Charging>  (12) 
0

>  <r_epik_Ionization_Penalty_Neutral>  (12) 
1.49059

>  <r_epik_State_Penalty>  (12) 
1.57997

>  <r_epik_Charging_Adjusted_Penalty>  (12) 
1.57997

>  <i_epik_Tot_Q>  (12) 
0

>  <i_epik_Tot_abs_Q>  (12) 
0

>  <s_epik_Chemistry_Notes>  (12) 
This compound has an imine and may undergo hydrolysis.

>  <s_lp_Force_Field>  (12) 
OPLS3e

>  <r_lp_Energy>  (12) 
80.0452

>  <b_lp_Chiralities_Consistent>  (12) 
1

>  <s_lp_Variant>  (12) 
1:0-3

>  <s_i_glide_gridfile>  (12) 
pfpi4k_grid

>  <i_i_glide_lignum>  (12) 
4

>  <i_i_glide_rotatable_bonds>  (12) 
4

>  <r_i_docking_score>  (12) 
-2.93364

>  <r_i_glide_ligand_efficiency>  (12) 
-0.108653

>  <r_i_glide_ligand_efficiency_sa>  (12) 
-0.32596

>  <r_i_glide_ligand_efficiency_ln>  (12) 
-0.682902

>  <r_i_glide_gscore>  (12) 
-2.93364

>  <r_i_glide_lipo>  (12) 
-0.401633

>  <r_i_glide_hbond>  (12) 
0

>  <r_i_glide_metal>  (12) 
-0

>  <r_i_glide_rewards>  (12) 
-0.890063

>  <r_i_glide_evdw>  (12) 
-23.4439

>  <r_i_glide_ecoul>  (12) 
-4.54017

>  <r_i_glide_erotb>  (12) 
0.282511

>  <r_i_glide_esite>  (12) 
-0.0712312

>  <r_i_glide_emodel>  (12) 
-33.3893

>  <r_i_glide_energy>  (12) 
-27.9841

>  <r_i_glide_einternal>  (12) 
0.183947

>  <r_i_glide_intrahb_reward>  (12) 
-0

>  <i_i_glide_confnum>  (12) 
2

>  <i_i_glide_posenum>  (12) 
34

>  <r_i_glide_eff_state_penalty>  (12) 
0

>  <ligand_id>  (12) 
1

>  <original_smiles>  (12) 
COc1ccc2c3c1OC1C(=NN)CCC4(O)C(C2)N(CC2CC2)CCC314

>  <smiles>  (12) 
[H]OC12C([H])([H])C([H])([H])C(=NN([H])[H])C3([H])Oc4c(OC([H])([H])[H])c([H])c([H])c5c4C31C([H])([H])C([H])([H])N(C([H])([H])C1([H])C([H])([H])C1([H])[H])C2([H])C5([H])[H]

$$$$
1:3:0
     RDKit          3D

 54 59  0  0  1  0  0  0  0  0999 V2000
    5.2556   -0.8715   -0.9472 C   0  0  0  0  0  0  0  0  0  0  0  0
    5.9253   -2.0887   -1.2523 O   0  0  0  0  0  0  0  0  0  0  0  0
    5.9388   -3.0311   -0.2518 C   0  0  0  0  0  0  0  0  0  0  0  0
    7.1670   -3.6679    0.0365 C   0  0  0  0  0  0  0  0  0  0  0  0
    7.2941   -4.6031    1.0971 C   0  0  0  0  0  0  0  0  0  0  0  0
    6.1574   -4.9723    1.8420 C   0  0  0  0  0  0  0  0  0  0  0  0
    4.9471   -4.3768    1.4483 C   0  0  0  0  0  0  0  0  0  0  0  0
    4.7823   -3.3992    0.4859 C   0  0  0  0  0  0  0  0  0  0  0  0
    3.5056   -2.9143    0.4258 O   0  0  0  0  0  0  0  0  0  0  0  0
    2.8542   -3.3237    1.6416 C   0  0  2  0  0  0  0  0  0  0  0  0
    2.9371   -2.2656    2.7456 C   0  0  0  0  0  0  0  0  0  0  0  0
    2.8096   -0.9886    2.5625 N   0  0  0  0  0  0  0  0  0  0  0  0
    2.5711   -0.4642    1.3479 N   0  0  0  0  0  0  0  0  0  0  0  0
    3.0924   -2.6968    4.1828 C   0  0  0  0  0  0  0  0  0  0  0  0
    4.0843   -3.8676    4.3422 C   0  0  0  0  0  0  0  0  0  0  0  0
    3.6721   -5.0813    3.4815 C   0  0  2  0  0  0  0  0  0  0  0  0
    2.4128   -5.4815    4.0031 O   0  0  0  0  0  0  0  0  0  0  0  0
    4.6633   -6.2961    3.5160 C   0  0  2  0  0  0  0  0  0  0  0  0
    6.0800   -5.8767    3.0714 C   0  0  0  0  0  0  0  0  0  0  0  0
    4.2312   -7.4555    2.7016 N   0  0  0  0  0  0  0  0  0  0  0  0
    3.3216   -8.3778    3.3745 C   0  0  0  0  0  0  0  0  0  0  0  0
    3.2265   -9.7587    2.7384 C   0  0  0  0  0  0  0  0  0  0  0  0
    2.5390  -10.8792    3.4828 C   0  0  0  0  0  0  0  0  0  0  0  0
    4.0349  -10.9128    3.2862 C   0  0  0  0  0  0  0  0  0  0  0  0
    3.8557   -7.0931    1.3247 C   0  0  0  0  0  0  0  0  0  0  0  0
    2.9618   -5.8468    1.2187 C   0  0  0  0  0  0  0  0  0  0  0  0
    3.5779   -4.6594    2.0030 C   0  0  2  0  0  0  0  0  0  0  0  0
    5.1875   -0.2548   -1.8421 H   0  0  0  0  0  0  0  0  0  0  0  0
    5.8212   -0.3392   -0.1778 H   0  0  0  0  0  0  0  0  0  0  0  0
    4.2307   -0.9871   -0.5998 H   0  0  0  0  0  0  0  0  0  0  0  0
    8.0343   -3.3999   -0.5454 H   0  0  0  0  0  0  0  0  0  0  0  0
    8.2627   -5.0203    1.3459 H   0  0  0  0  0  0  0  0  0  0  0  0
    1.8183   -3.5206    1.4474 H   0  0  0  0  0  0  0  0  0  0  0  0
    2.2459   -1.0922    0.6118 H   0  0  0  0  0  0  0  0  0  0  0  0
    2.2038    0.4769    1.3510 H   0  0  0  0  0  0  0  0  0  0  0  0
    3.4039   -1.8536    4.8056 H   0  0  0  0  0  0  0  0  0  0  0  0
    2.1097   -2.9911    4.5531 H   0  0  0  0  0  0  0  0  0  0  0  0
    5.0772   -3.5102    4.0638 H   0  0  0  0  0  0  0  0  0  0  0  0
    4.1414   -4.1493    5.3953 H   0  0  0  0  0  0  0  0  0  0  0  0
    2.5389   -5.8114    4.8817 H   0  0  0  0  0  0  0  0  0  0  0  0
    4.7707   -6.6294    4.5486 H   0  0  0  0  0  0  0  0  0  0  0  0
    6.6829   -6.7646    2.8881 H   0  0  0  0  0  0  0  0  0  0  0  0
    6.5671   -5.3522    3.8875 H   0  0  0  0  0  0  0  0  0  0  0  0
    3.6686   -8.5261    4.3975 H   0  0  0  0  0  0  0  0  0  0  0  0
    2.3198   -7.9561    3.4418 H   0  0  0  0  0  0  0  0  0  0  0  0
    3.0493   -9.7786    1.6644 H   0  0  0  0  0  0  0  0  0  0  0  0
    2.1483  -10.6511    4.4734 H   0  0  0  0  0  0  0  0  0  0  0  0
    1.9378  -11.5641    2.8871 H   0  0  0  0  0  0  0  0  0  0  0  0
    4.4389  -11.6068    2.5508 H   0  0  0  0  0  0  0  0  0  0  0  0
    4.6761  -10.7102    4.1438 H   0  0  0  0  0  0  0  0  0  0  0  0
    4.7603   -6.9262    0.7355 H   0  0  0  0  0  0  0  0  0  0  0  0
    3.3456   -7.9116    0.8300 H   0  0  0  0  0  0  0  0  0  0  0  0
    2.8326   -5.5953    0.1617 H   0  0  0  0  0  0  0  0  0  0  0  0
    1.9609   -6.0817    1.5886 H   0  0  0  0  0  0  0  0  0  0  0  0
  1  2  1  0
  1 28  1  0
  1 29  1  0
  1 30  1  0
  2  3  1  0
  3  8  2  0
  3  4  1  0
  4  5  2  0
  4 31  1  0
  5  6  1  0
  5 32  1  0
  6 19  1  0
  6  7  2  0
  7 27  1  0
  7  8  1  0
  8  9  1  0
  9 10  1  0
 10 27  1  0
 10 11  1  0
 10 33  1  6
 11 12  2  3
 11 14  1  0
 12 13  1  0
 13 34  1  0
 13 35  1  0
 14 15  1  0
 14 36  1  0
 14 37  1  0
 15 16  1  0
 15 38  1  0
 15 39  1  0
 16 27  1  0
 16 17  1  1
 16 18  1  0
 17 40  1  0
 18 19  1  0
 18 20  1  0
 18 41  1  1
 19 42  1  0
 19 43  1  0
 20 21  1  0
 20 25  1  0
 21 22  1  0
 21 44  1  0
 21 45  1  0
 22 24  1  0
 22 23  1  0
 22 46  1  0
 23 24  1  0
 23 47  1  0
 23 48  1  0
 24 49  1  0
 24 50  1  0
 25 26  1  0
 25 51  1  0
 25 52  1  0
 27 26  1  6
 26 53  1  0
 26 54  1  0
M  END
>  <i_m_ct_stereo_status>  (13) 
1

>  <s_m_source_file>  (13) 
/var/tmp/pbs.5076255.sched01/tmp7hrp_b9g/014g_j70o.sdf

>  <i_m_source_file_index>  (13) 
5

>  <i_lp_mmshare_version>  (13) 
48012

>  <i_f3d_flags>  (13) 
0

>  <s_epik_input>  (13) 
W0NAQF0xMjNjNGM1W2NIXVtjSF1jKE9bQ0gzXSljNE9bQ0BASF0xL0MoPU4vW05IMl0pW0NIMl1bQ0gyXVtDQF0yKFtPSF0pW0NASF0oW0NIMl01KU4oW0NIMl1bQ0gyXTMpW0NIMl1bQ0hdNltDSDJdW0NIMl02

>  <s_epik_cmdline>  (13) 
J2VwaWtfcHl0aG9uJywgJy1waHQnLCAnMi4wJywgJy1waCcsICc3LjAnLCAnLXRuJywgJzgnLCAnLW1hJywgJzIwMCcsICctaW1hZScsICc8aW5maWxlLm1hZT4nLCAnLW9tYWUnLCAnPG91dGZpbGUubWFlPic=

>  <r_lp_tautomer_probability>  (13) 
1

>  <r_epik_Ionization_Penalty>  (13) 
1.49059

>  <r_epik_Ionization_Penalty_Charging>  (13) 
0

>  <r_epik_Ionization_Penalty_Neutral>  (13) 
1.49059

>  <r_epik_State_Penalty>  (13) 
1.57997

>  <r_epik_Charging_Adjusted_Penalty>  (13) 
1.57997

>  <i_epik_Tot_Q>  (13) 
0

>  <i_epik_Tot_abs_Q>  (13) 
0

>  <s_epik_Chemistry_Notes>  (13) 
This compound has an imine and may undergo hydrolysis.

>  <s_lp_Force_Field>  (13) 
OPLS3e

>  <r_lp_Energy>  (13) 
80.2559

>  <b_lp_Chiralities_Consistent>  (13) 
1

>  <s_lp_Variant>  (13) 
1:0-4

>  <s_i_glide_gridfile>  (13) 
pfpi4k_grid

>  <i_i_glide_lignum>  (13) 
5

>  <i_i_glide_rotatable_bonds>  (13) 
4

>  <r_i_docking_score>  (13) 
-2.69457

>  <r_i_glide_ligand_efficiency>  (13) 
-0.099799

>  <r_i_glide_ligand_efficiency_sa>  (13) 
-0.299397

>  <r_i_glide_ligand_efficiency_ln>  (13) 
-0.627252

>  <r_i_glide_gscore>  (13) 
-2.69457

>  <r_i_glide_lipo>  (13) 
-0.522185

>  <r_i_glide_hbond>  (13) 
-0.110878

>  <r_i_glide_metal>  (13) 
-0

>  <r_i_glide_rewards>  (13) 
-0.890063

>  <r_i_glide_evdw>  (13) 
-20.6182

>  <r_i_glide_ecoul>  (13) 
-2.32923

>  <r_i_glide_erotb>  (13) 
0.282511

>  <r_i_glide_esite>  (13) 
-0.0736636

>  <r_i_glide_emodel>  (13) 
-23.6353

>  <r_i_glide_energy>  (13) 
-22.9474

>  <r_i_glide_einternal>  (13) 
6.41671

>  <r_i_glide_intrahb_reward>  (13) 
-0

>  <i_i_glide_confnum>  (13) 
1

>  <i_i_glide_posenum>  (13) 
35

>  <r_i_glide_eff_state_penalty>  (13) 
0

>  <ligand_id>  (13) 
1

>  <original_smiles>  (13) 
COc1ccc2c3c1OC1C(=NN)CCC4(O)C(C2)N(CC2CC2)CCC314

>  <smiles>  (13) 
[H]OC12C([H])([H])C([H])([H])C(=NN([H])[H])C3([H])Oc4c(OC([H])([H])[H])c([H])c([H])c5c4C31C([H])([H])C([H])([H])N(C([H])([H])C1([H])C([H])([H])C1([H])[H])C2([H])C5([H])[H]

$$$$
1:3:1
     RDKit          3D

 54 59  0  0  1  0  0  0  0  0999 V2000
    2.2635    7.4676    5.4044 C   0  0  0  0  0  0  0  0  0  0  0  0
    1.8212    6.3399    4.6733 O   0  0  0  0  0  0  0  0  0  0  0  0
    2.0745    5.0899    5.1907 C   0  0  0  0  0  0  0  0  0  0  0  0
    2.7398    4.8412    6.4302 C   0  0  0  0  0  0  0  0  0  0  0  0
    2.9233    3.5244    6.9236 C   0  0  0  0  0  0  0  0  0  0  0  0
    2.5030    2.4280    6.1442 C   0  0  0  0  0  0  0  0  0  0  0  0
    1.9112    2.7377    4.9046 C   0  0  0  0  0  0  0  0  0  0  0  0
    1.6193    3.9936    4.4336 C   0  0  0  0  0  0  0  0  0  0  0  0
    0.8849    3.9843    3.2850 O   0  0  0  0  0  0  0  0  0  0  0  0
    0.3789    2.6410    3.1066 C   0  0  2  0  0  0  0  0  0  0  0  0
   -1.0406    2.4928    3.6766 C   0  0  0  0  0  0  0  0  0  0  0  0
   -1.9771    3.3787    3.5663 N   0  0  0  0  0  0  0  0  0  0  0  0
   -1.7877    4.5232    2.8863 N   0  0  0  0  0  0  0  0  0  0  0  0
   -1.4288    1.2061    4.3604 C   0  0  0  0  0  0  0  0  0  0  0  0
   -0.3186    0.6591    5.2785 C   0  0  0  0  0  0  0  0  0  0  0  0
    0.9972    0.4383    4.5105 C   0  0  2  0  0  0  0  0  0  0  0  0
    0.6820   -0.5610    3.5541 O   0  0  0  0  0  0  0  0  0  0  0  0
    2.2076   -0.0473    5.3771 C   0  0  2  0  0  0  0  0  0  0  0  0
    2.5155    0.9482    6.5159 C   0  0  0  0  0  0  0  0  0  0  0  0
    3.4456   -0.2848    4.6045 N   0  0  0  0  0  0  0  0  0  0  0  0
    3.5543   -1.6110    4.0046 C   0  0  0  0  0  0  0  0  0  0  0  0
    4.9545   -1.9636    3.5461 C   0  0  0  0  0  0  0  0  0  0  0  0
    5.3584   -1.7696    2.1017 C   0  0  0  0  0  0  0  0  0  0  0  0
    5.1695   -3.1610    2.6491 C   0  0  0  0  0  0  0  0  0  0  0  0
    3.8119    0.8375    3.7245 C   0  0  0  0  0  0  0  0  0  0  0  0
    2.6408    1.4249    2.9200 C   0  0  0  0  0  0  0  0  0  0  0  0
    1.4445    1.7603    3.8510 C   0  0  2  0  0  0  0  0  0  0  0  0
    1.9944    8.3673    4.8542 H   0  0  0  0  0  0  0  0  0  0  0  0
    3.3464    7.4685    5.5278 H   0  0  0  0  0  0  0  0  0  0  0  0
    1.7862    7.5192    6.3798 H   0  0  0  0  0  0  0  0  0  0  0  0
    3.1004    5.6590    7.0334 H   0  0  0  0  0  0  0  0  0  0  0  0
    3.3833    3.3547    7.8879 H   0  0  0  0  0  0  0  0  0  0  0  0
    0.3436    2.3772    2.0511 H   0  0  0  0  0  0  0  0  0  0  0  0
   -0.9491    4.5394    2.2841 H   0  0  0  0  0  0  0  0  0  0  0  0
   -2.6342    4.9157    2.4863 H   0  0  0  0  0  0  0  0  0  0  0  0
   -2.3433    1.3472    4.9328 H   0  0  0  0  0  0  0  0  0  0  0  0
   -1.6716    0.4698    3.5945 H   0  0  0  0  0  0  0  0  0  0  0  0
   -0.1749    1.3661    6.0953 H   0  0  0  0  0  0  0  0  0  0  0  0
   -0.6483   -0.2785    5.7268 H   0  0  0  0  0  0  0  0  0  0  0  0
    1.3835   -0.5777    2.9200 H   0  0  0  0  0  0  0  0  0  0  0  0
    1.9335   -0.9837    5.8625 H   0  0  0  0  0  0  0  0  0  0  0  0
    3.4830    0.7068    6.9527 H   0  0  0  0  0  0  0  0  0  0  0  0
    1.7895    0.7977    7.3083 H   0  0  0  0  0  0  0  0  0  0  0  0
    3.2709   -2.3654    4.7423 H   0  0  0  0  0  0  0  0  0  0  0  0
    2.8832   -1.7127    3.1544 H   0  0  0  0  0  0  0  0  0  0  0  0
    5.7245   -1.7929    4.2974 H   0  0  0  0  0  0  0  0  0  0  0  0
    4.5957   -1.3645    1.4404 H   0  0  0  0  0  0  0  0  0  0  0  0
    6.3727   -1.4194    1.9183 H   0  0  0  0  0  0  0  0  0  0  0  0
    6.0662   -3.7605    2.8011 H   0  0  0  0  0  0  0  0  0  0  0  0
    4.2828   -3.7120    2.3410 H   0  0  0  0  0  0  0  0  0  0  0  0
    4.2569    1.6360    4.3215 H   0  0  0  0  0  0  0  0  0  0  0  0
    4.6002    0.5467    3.0393 H   0  0  0  0  0  0  0  0  0  0  0  0
    2.9861    2.3192    2.3969 H   0  0  0  0  0  0  0  0  0  0  0  0
    2.3492    0.7334    2.1290 H   0  0  0  0  0  0  0  0  0  0  0  0
  1  2  1  0
  1 28  1  0
  1 29  1  0
  1 30  1  0
  2  3  1  0
  3  8  2  0
  3  4  1  0
  4  5  2  0
  4 31  1  0
  5  6  1  0
  5 32  1  0
  6 19  1  0
  6  7  2  0
  7 27  1  0
  7  8  1  0
  8  9  1  0
  9 10  1  0
 10 27  1  0
 10 11  1  0
 10 33  1  6
 11 12  2  3
 11 14  1  0
 12 13  1  0
 13 34  1  0
 13 35  1  0
 14 15  1  0
 14 36  1  0
 14 37  1  0
 15 16  1  0
 15 38  1  0
 15 39  1  0
 16 27  1  0
 16 17  1  6
 16 18  1  0
 17 40  1  0
 18 19  1  0
 18 20  1  0
 18 41  1  1
 19 42  1  0
 19 43  1  0
 20 21  1  0
 20 25  1  0
 21 22  1  0
 21 44  1  0
 21 45  1  0
 22 24  1  0
 22 23  1  0
 22 46  1  0
 23 24  1  0
 23 47  1  0
 23 48  1  0
 24 49  1  0
 24 50  1  0
 25 26  1  0
 25 51  1  0
 25 52  1  0
 27 26  1  6
 26 53  1  0
 26 54  1  0
M  END
>  <i_m_ct_stereo_status>  (14) 
1

>  <s_m_source_file>  (14) 
/var/tmp/pbs.5076255.sched01/tmp7hrp_b9g/014g_j70o.sdf

>  <i_m_source_file_index>  (14) 
5

>  <i_lp_mmshare_version>  (14) 
48012

>  <i_f3d_flags>  (14) 
0

>  <s_epik_input>  (14) 
W0NAQF0xMjNjNGM1W2NIXVtjSF1jKE9bQ0gzXSljNE9bQ0BASF0xL0MoPU4vW05IMl0pW0NIMl1bQ0gyXVtDQF0yKFtPSF0pW0NASF0oW0NIMl01KU4oW0NIMl1bQ0gyXTMpW0NIMl1bQ0hdNltDSDJdW0NIMl02

>  <s_epik_cmdline>  (14) 
J2VwaWtfcHl0aG9uJywgJy1waHQnLCAnMi4wJywgJy1waCcsICc3LjAnLCAnLXRuJywgJzgnLCAnLW1hJywgJzIwMCcsICctaW1hZScsICc8aW5maWxlLm1hZT4nLCAnLW9tYWUnLCAnPG91dGZpbGUubWFlPic=

>  <r_lp_tautomer_probability>  (14) 
1

>  <r_epik_Ionization_Penalty>  (14) 
1.49059

>  <r_epik_Ionization_Penalty_Charging>  (14) 
0

>  <r_epik_Ionization_Penalty_Neutral>  (14) 
1.49059

>  <r_epik_State_Penalty>  (14) 
1.57997

>  <r_epik_Charging_Adjusted_Penalty>  (14) 
1.57997

>  <i_epik_Tot_Q>  (14) 
0

>  <i_epik_Tot_abs_Q>  (14) 
0

>  <s_epik_Chemistry_Notes>  (14) 
This compound has an imine and may undergo hydrolysis.

>  <s_lp_Force_Field>  (14) 
OPLS3e

>  <r_lp_Energy>  (14) 
80.2559

>  <b_lp_Chiralities_Consistent>  (14) 
1

>  <s_lp_Variant>  (14) 
1:0-4

>  <s_i_glide_gridfile>  (14) 
pfpi4k_grid

>  <i_i_glide_lignum>  (14) 
5

>  <i_i_glide_rotatable_bonds>  (14) 
4

>  <r_i_docking_score>  (14) 
-2.40754

>  <r_i_glide_ligand_efficiency>  (14) 
-0.0891683

>  <r_i_glide_ligand_efficiency_sa>  (14) 
-0.267505

>  <r_i_glide_ligand_efficiency_ln>  (14) 
-0.560436

>  <r_i_glide_gscore>  (14) 
-2.40754

>  <r_i_glide_lipo>  (14) 
-0.198475

>  <r_i_glide_hbond>  (14) 
-0.16

>  <r_i_glide_metal>  (14) 
-0

>  <r_i_glide_rewards>  (14) 
-0.890063

>  <r_i_glide_evdw>  (14) 
-17.9589

>  <r_i_glide_ecoul>  (14) 
-2.68163

>  <r_i_glide_erotb>  (14) 
0.282511

>  <r_i_glide_esite>  (14) 
-0.14133

>  <r_i_glide_emodel>  (14) 
-24.1557

>  <r_i_glide_energy>  (14) 
-20.6405

>  <r_i_glide_einternal>  (14) 
0.207432

>  <r_i_glide_intrahb_reward>  (14) 
-0

>  <i_i_glide_confnum>  (14) 
2

>  <i_i_glide_posenum>  (14) 
22

>  <r_i_glide_eff_state_penalty>  (14) 
0

>  <ligand_id>  (14) 
1

>  <original_smiles>  (14) 
COc1ccc2c3c1OC1C(=NN)CCC4(O)C(C2)N(CC2CC2)CCC314

>  <smiles>  (14) 
[H]OC12C([H])([H])C([H])([H])C(=NN([H])[H])C3([H])Oc4c(OC([H])([H])[H])c([H])c([H])c5c4C31C([H])([H])C([H])([H])N(C([H])([H])C1([H])C([H])([H])C1([H])[H])C2([H])C5([H])[H]

$$$$
1:3:2
     RDKit          3D

 54 59  0  0  1  0  0  0  0  0999 V2000
    8.8744   -5.8172    0.2788 C   0  0  0  0  0  0  0  0  0  0  0  0
    7.5204   -5.4718    0.4843 O   0  0  0  0  0  0  0  0  0  0  0  0
    6.8940   -5.9735    1.5991 C   0  0  0  0  0  0  0  0  0  0  0  0
    7.5687   -6.3623    2.7906 C   0  0  0  0  0  0  0  0  0  0  0  0
    6.8508   -6.8070    3.9281 C   0  0  0  0  0  0  0  0  0  0  0  0
    5.4511   -6.9385    3.8693 C   0  0  0  0  0  0  0  0  0  0  0  0
    4.8537   -6.6034    2.6390 C   0  0  0  0  0  0  0  0  0  0  0  0
    5.4893   -6.0700    1.5421 C   0  0  0  0  0  0  0  0  0  0  0  0
    4.6312   -5.6909    0.5475 O   0  0  0  0  0  0  0  0  0  0  0  0
    3.3004   -5.6730    1.1196 C   0  0  2  0  0  0  0  0  0  0  0  0
    2.9116   -4.2759    1.6299 C   0  0  0  0  0  0  0  0  0  0  0  0
    3.1609   -3.1739    1.0080 N   0  0  0  0  0  0  0  0  0  0  0  0
    3.7712   -3.1726   -0.1920 N   0  0  0  0  0  0  0  0  0  0  0  0
    2.0982   -4.1369    2.8942 C   0  0  0  0  0  0  0  0  0  0  0  0
    2.5544   -5.1034    4.0034 C   0  0  0  0  0  0  0  0  0  0  0  0
    2.5156   -6.5685    3.5286 C   0  0  2  0  0  0  0  0  0  0  0  0
    1.1465   -6.8224    3.2534 O   0  0  0  0  0  0  0  0  0  0  0  0
    3.0366   -7.6212    4.5668 C   0  0  2  0  0  0  0  0  0  0  0  0
    4.4899   -7.3167    4.9919 C   0  0  0  0  0  0  0  0  0  0  0  0
    2.9535   -9.0200    4.0870 N   0  0  0  0  0  0  0  0  0  0  0  0
    1.6781   -9.6838    4.3292 C   0  0  0  0  0  0  0  0  0  0  0  0
    1.6839  -11.1720    4.0435 C   0  0  0  0  0  0  0  0  0  0  0  0
    0.6219  -11.7461    3.1435 C   0  0  0  0  0  0  0  0  0  0  0  0
    0.6037  -12.0494    4.6143 C   0  0  0  0  0  0  0  0  0  0  0  0
    3.5390   -9.2319    2.7521 C   0  0  0  0  0  0  0  0  0  0  0  0
    3.1493   -8.1674    1.7180 C   0  0  0  0  0  0  0  0  0  0  0  0
    3.3953   -6.7361    2.2692 C   0  0  2  0  0  0  0  0  0  0  0  0
    9.2012   -5.3678   -0.6570 H   0  0  0  0  0  0  0  0  0  0  0  0
    9.0009   -6.8960    0.1832 H   0  0  0  0  0  0  0  0  0  0  0  0
    9.5139   -5.4368    1.0697 H   0  0  0  0  0  0  0  0  0  0  0  0
    8.6417   -6.2909    2.8679 H   0  0  0  0  0  0  0  0  0  0  0  0
    7.3731   -7.0409    4.8477 H   0  0  0  0  0  0  0  0  0  0  0  0
    2.5641   -5.9764    0.3752 H   0  0  0  0  0  0  0  0  0  0  0  0
    3.8641   -4.0665   -0.6638 H   0  0  0  0  0  0  0  0  0  0  0  0
    3.6735   -2.3193   -0.7266 H   0  0  0  0  0  0  0  0  0  0  0  0
    2.1255   -3.1085    3.2577 H   0  0  0  0  0  0  0  0  0  0  0  0
    1.0538   -4.3326    2.6528 H   0  0  0  0  0  0  0  0  0  0  0  0
    3.5617   -4.8190    4.3090 H   0  0  0  0  0  0  0  0  0  0  0  0
    1.9165   -4.9766    4.8801 H   0  0  0  0  0  0  0  0  0  0  0  0
    1.0800   -7.7392    3.0277 H   0  0  0  0  0  0  0  0  0  0  0  0
    2.4353   -7.5453    5.4720 H   0  0  0  0  0  0  0  0  0  0  0  0
    4.8990   -8.1764    5.5226 H   0  0  0  0  0  0  0  0  0  0  0  0
    4.4814   -6.5040    5.7114 H   0  0  0  0  0  0  0  0  0  0  0  0
    1.4084   -9.5567    5.3793 H   0  0  0  0  0  0  0  0  0  0  0  0
    0.8794   -9.2365    3.7411 H   0  0  0  0  0  0  0  0  0  0  0  0
    2.6680  -11.6438    4.0150 H   0  0  0  0  0  0  0  0  0  0  0  0
   -0.1294  -11.0530    2.7528 H   0  0  0  0  0  0  0  0  0  0  0  0
    0.8892  -12.5615    2.4775 H   0  0  0  0  0  0  0  0  0  0  0  0
    0.8755  -13.0631    4.8814 H   0  0  0  0  0  0  0  0  0  0  0  0
   -0.1258  -11.5655    5.2609 H   0  0  0  0  0  0  0  0  0  0  0  0
    4.6275   -9.2516    2.8422 H   0  0  0  0  0  0  0  0  0  0  0  0
    3.2847  -10.2121    2.3556 H   0  0  0  0  0  0  0  0  0  0  0  0
    3.7294   -8.3413    0.8075 H   0  0  0  0  0  0  0  0  0  0  0  0
    2.1064   -8.3074    1.4287 H   0  0  0  0  0  0  0  0  0  0  0  0
  1  2  1  0
  1 28  1  0
  1 29  1  0
  1 30  1  0
  2  3  1  0
  3  8  2  0
  3  4  1  0
  4  5  2  0
  4 31  1  0
  5  6  1  0
  5 32  1  0
  6 19  1  0
  6  7  2  0
  7 27  1  0
  7  8  1  0
  8  9  1  0
  9 10  1  0
 10 27  1  0
 10 11  1  0
 10 33  1  6
 11 12  2  3
 11 14  1  0
 12 13  1  0
 13 34  1  0
 13 35  1  0
 14 15  1  0
 14 36  1  0
 14 37  1  0
 15 16  1  0
 15 38  1  0
 15 39  1  0
 16 27  1  0
 16 17  1  6
 16 18  1  0
 17 40  1  0
 18 19  1  0
 18 20  1  0
 18 41  1  1
 19 42  1  0
 19 43  1  0
 20 21  1  0
 20 25  1  0
 21 22  1  0
 21 44  1  0
 21 45  1  0
 22 24  1  0
 22 23  1  0
 22 46  1  0
 23 24  1  0
 23 47  1  0
 23 48  1  0
 24 49  1  0
 24 50  1  0
 25 26  1  0
 25 51  1  0
 25 52  1  0
 27 26  1  6
 26 53  1  0
 26 54  1  0
M  END
>  <i_m_ct_stereo_status>  (15) 
1

>  <s_m_source_file>  (15) 
/var/tmp/pbs.5076255.sched01/tmp7hrp_b9g/014g_j70o.sdf

>  <i_m_source_file_index>  (15) 
5

>  <i_lp_mmshare_version>  (15) 
48012

>  <i_f3d_flags>  (15) 
0

>  <s_epik_input>  (15) 
W0NAQF0xMjNjNGM1W2NIXVtjSF1jKE9bQ0gzXSljNE9bQ0BASF0xL0MoPU4vW05IMl0pW0NIMl1bQ0gyXVtDQF0yKFtPSF0pW0NASF0oW0NIMl01KU4oW0NIMl1bQ0gyXTMpW0NIMl1bQ0hdNltDSDJdW0NIMl02

>  <s_epik_cmdline>  (15) 
J2VwaWtfcHl0aG9uJywgJy1waHQnLCAnMi4wJywgJy1waCcsICc3LjAnLCAnLXRuJywgJzgnLCAnLW1hJywgJzIwMCcsICctaW1hZScsICc8aW5maWxlLm1hZT4nLCAnLW9tYWUnLCAnPG91dGZpbGUubWFlPic=

>  <r_lp_tautomer_probability>  (15) 
1

>  <r_epik_Ionization_Penalty>  (15) 
1.49059

>  <r_epik_Ionization_Penalty_Charging>  (15) 
0

>  <r_epik_Ionization_Penalty_Neutral>  (15) 
1.49059

>  <r_epik_State_Penalty>  (15) 
1.57997

>  <r_epik_Charging_Adjusted_Penalty>  (15) 
1.57997

>  <i_epik_Tot_Q>  (15) 
0

>  <i_epik_Tot_abs_Q>  (15) 
0

>  <s_epik_Chemistry_Notes>  (15) 
This compound has an imine and may undergo hydrolysis.

>  <s_lp_Force_Field>  (15) 
OPLS3e

>  <r_lp_Energy>  (15) 
80.2559

>  <b_lp_Chiralities_Consistent>  (15) 
1

>  <s_lp_Variant>  (15) 
1:0-4

>  <s_i_glide_gridfile>  (15) 
pfpi4k_grid

>  <i_i_glide_lignum>  (15) 
5

>  <i_i_glide_rotatable_bonds>  (15) 
4

>  <r_i_docking_score>  (15) 
-2.12221

>  <r_i_glide_ligand_efficiency>  (15) 
-0.0786004

>  <r_i_glide_ligand_efficiency_sa>  (15) 
-0.235801

>  <r_i_glide_ligand_efficiency_ln>  (15) 
-0.494016

>  <r_i_glide_gscore>  (15) 
-2.12221

>  <r_i_glide_lipo>  (15) 
-0.236521

>  <r_i_glide_hbond>  (15) 
0

>  <r_i_glide_metal>  (15) 
-0

>  <r_i_glide_rewards>  (15) 
-0.890063

>  <r_i_glide_evdw>  (15) 
-21.2014

>  <r_i_glide_ecoul>  (15) 
-1.41706

>  <r_i_glide_erotb>  (15) 
0.282511

>  <r_i_glide_esite>  (15) 
-0.00550834

>  <r_i_glide_emodel>  (15) 
-24.7731

>  <r_i_glide_energy>  (15) 
-22.6184

>  <r_i_glide_einternal>  (15) 
1.89851

>  <r_i_glide_intrahb_reward>  (15) 
-0

>  <i_i_glide_confnum>  (15) 
2

>  <i_i_glide_posenum>  (15) 
13

>  <r_i_glide_eff_state_penalty>  (15) 
0

>  <ligand_id>  (15) 
1

>  <original_smiles>  (15) 
COc1ccc2c3c1OC1C(=NN)CCC4(O)C(C2)N(CC2CC2)CCC314

>  <smiles>  (15) 
[H]OC12C([H])([H])C([H])([H])C(=NN([H])[H])C3([H])Oc4c(OC([H])([H])[H])c([H])c([H])c5c4C31C([H])([H])C([H])([H])N(C([H])([H])C1([H])C([H])([H])C1([H])[H])C2([H])C5([H])[H]

$$$$
3:0:0
     RDKit          3D

 51 55  0  0  1  0  0  0  0  0999 V2000
    2.2466   -3.3223   -2.4164 C   0  0  0  0  0  0  0  0  0  0  0  0
    3.1496   -2.5223   -1.4833 C   0  0  2  0  0  0  0  0  0  0  0  0
    3.5839   -1.2055   -2.1078 C   0  0  0  0  0  0  0  0  0  0  0  0
    4.8380   -0.7880   -1.3394 C   0  0  0  0  0  0  0  0  0  0  0  0
    5.2709   -1.9947   -0.4954 C   0  0  1  0  0  0  0  0  0  0  0  0
    5.1358   -1.9371    1.0506 C   0  0  1  0  0  0  0  0  0  0  0  0
    6.3678   -1.1987    1.5720 C   0  0  0  0  0  0  0  0  0  0  0  0
    3.8560   -1.2007    1.5820 C   0  0  0  0  0  0  0  0  0  0  0  0
    2.7489   -2.0613    2.2320 C   0  0  1  0  0  0  0  0  0  0  0  0
    1.4807   -1.7533    1.6922 O   0  0  0  0  0  0  0  0  0  0  0  0
    3.0403   -3.5797    2.3255 C   0  0  1  0  0  0  0  0  0  0  0  0
    2.9655   -4.3183    0.9727 C   0  0  2  0  0  0  0  0  0  0  0  0
    2.8087   -5.8002    1.3094 C   0  0  0  0  0  0  0  0  0  0  0  0
    1.8220   -6.4221    0.9261 O   0  0  0  0  0  0  0  0  0  0  0  0
    3.9014   -6.4379    2.1834 C   0  0  0  0  0  0  0  0  0  0  0  0
    4.6809   -5.3863    3.0082 C   0  0  0  0  0  0  0  0  0  0  0  0
    5.4998   -5.7771    3.8432 O   0  0  0  0  0  0  0  0  0  0  0  0
    4.4929   -3.8603    2.7462 C   0  0  2  0  0  0  0  0  0  0  0  0
    4.9459   -3.0910    4.0102 C   0  0  0  0  0  0  0  0  0  0  0  0
    5.1826   -3.4497    1.4172 C   0  0  1  0  0  0  0  0  0  0  0  0
    4.3426   -4.0985    0.2883 C   0  0  2  0  0  0  0  0  0  0  0  0
    4.4367   -3.1789   -0.9668 C   0  0  1  0  0  0  0  0  0  0  0  0
    5.1765   -3.8554   -2.1177 C   0  0  0  0  0  0  0  0  0  0  0  0
    2.7317   -3.5602   -3.3635 H   0  0  0  0  0  0  0  0  0  0  0  0
    1.3536   -2.7568   -2.6624 H   0  0  0  0  0  0  0  0  0  0  0  0
    1.9274   -4.2445   -1.9462 H   0  0  0  0  0  0  0  0  0  0  0  0
    2.5743   -2.2563   -0.6128 H   0  0  0  0  0  0  0  0  0  0  0  0
    3.8122   -1.3029   -3.1673 H   0  0  0  0  0  0  0  0  0  0  0  0
    2.7668   -0.4995   -2.0319 H   0  0  0  0  0  0  0  0  0  0  0  0
    5.6214   -0.5449   -2.0572 H   0  0  0  0  0  0  0  0  0  0  0  0
    4.6756    0.0955   -0.7266 H   0  0  0  0  0  0  0  0  0  0  0  0
    6.3235   -2.2037   -0.7105 H   0  0  0  0  0  0  0  0  0  0  0  0
    6.3927   -1.1162    2.6600 H   0  0  0  0  0  0  0  0  0  0  0  0
    6.3451   -0.1952    1.1602 H   0  0  0  0  0  0  0  0  0  0  0  0
    7.3076   -1.6659    1.2554 H   0  0  0  0  0  0  0  0  0  0  0  0
    4.1650   -0.4678    2.3243 H   0  0  0  0  0  0  0  0  0  0  0  0
    3.4035   -0.5777    0.8131 H   0  0  0  0  0  0  0  0  0  0  0  0
    2.6663   -1.7186    3.2671 H   0  0  0  0  0  0  0  0  0  0  0  0
    1.5297   -1.4720    0.7700 H   0  0  0  0  0  0  0  0  0  0  0  0
    2.3361   -4.0040    3.0431 H   0  0  0  0  0  0  0  0  0  0  0  0
    2.1107   -4.0202    0.3700 H   0  0  0  0  0  0  0  0  0  0  0  0
    3.4411   -7.1528    2.8687 H   0  0  0  0  0  0  0  0  0  0  0  0
    4.5965   -7.0093    1.5674 H   0  0  0  0  0  0  0  0  0  0  0  0
    4.7754   -2.0175    3.9820 H   0  0  0  0  0  0  0  0  0  0  0  0
    6.0056   -3.2239    4.1866 H   0  0  0  0  0  0  0  0  0  0  0  0
    4.4426   -3.4634    4.9049 H   0  0  0  0  0  0  0  0  0  0  0  0
    6.2122   -3.8137    1.3688 H   0  0  0  0  0  0  0  0  0  0  0  0
    4.7990   -5.0544    0.0243 H   0  0  0  0  0  0  0  0  0  0  0  0
    6.1705   -4.1472   -1.7887 H   0  0  0  0  0  0  0  0  0  0  0  0
    5.2817   -3.2251   -3.0000 H   0  0  0  0  0  0  0  0  0  0  0  0
    4.6508   -4.7548   -2.4206 H   0  0  0  0  0  0  0  0  0  0  0  0
  1  2  1  0
  1 24  1  0
  1 25  1  0
  1 26  1  0
  2 22  1  0
  2  3  1  0
  2 27  1  1
  3  4  1  0
  3 28  1  0
  3 29  1  0
  4  5  1  0
  4 30  1  0
  4 31  1  0
  5 22  1  0
  5  6  1  0
  5 32  1  1
  6 20  1  0
  6  7  1  1
  6  8  1  0
  7 33  1  0
  7 34  1  0
  7 35  1  0
  8  9  1  0
  8 36  1  0
  8 37  1  0
  9 10  1  0
  9 11  1  0
  9 38  1  1
 10 39  1  0
 11 18  1  0
 11 12  1  0
 11 40  1  1
 12 21  1  0
 12 13  1  0
 12 41  1  6
 13 14  2  0
 13 15  1  0
 15 16  1  0
 15 42  1  0
 15 43  1  0
 16 17  2  0
 16 18  1  0
 18 19  1  1
 18 20  1  0
 19 44  1  0
 19 45  1  0
 19 46  1  0
 20 21  1  0
 20 47  1  1
 21 22  1  0
 21 48  1  6
 22 23  1  6
 23 49  1  0
 23 50  1  0
 23 51  1  0
M  END
>  <i_m_ct_stereo_status>  (16) 
1

>  <s_m_source_file>  (16) 
/var/tmp/pbs.5076255.sched01/tmp7hrp_b9g/014g_j70o.sdf

>  <i_m_source_file_index>  (16) 
8

>  <i_lp_mmshare_version>  (16) 
48012

>  <i_f3d_flags>  (16) 
0

>  <s_epik_input>  (16) 
W0NIMl0xW0NIMl1bQ0BASF0oW0NIM10pW0NAQF0oW0NIM10pKFtDQEBIXTFbQ0BAXTIzW0NIM10pW0NAQEhdNFtDQEBIXTVbQ0BIXShbQ0BASF0oW0NIMl0yKVtPSF0pW0NAXShbQ0gzXSkoW0NASF0zNClDKD1PKVtDSDJdQzU9Tw==

>  <s_epik_cmdline>  (16) 
J2VwaWtfcHl0aG9uJywgJy1waHQnLCAnMi4wJywgJy1waCcsICc3LjAnLCAnLXRuJywgJzgnLCAnLW1hJywgJzIwMCcsICctaW1hZScsICc8aW5maWxlLm1hZT4nLCAnLW9tYWUnLCAnPG91dGZpbGUubWFlPic=

>  <r_lp_tautomer_probability>  (16) 
1

>  <r_epik_Ionization_Penalty>  (16) 
1.94005

>  <r_epik_Ionization_Penalty_Charging>  (16) 
0

>  <r_epik_Ionization_Penalty_Neutral>  (16) 
1.94005

>  <r_epik_State_Penalty>  (16) 
0.0373116

>  <r_epik_Charging_Adjusted_Penalty>  (16) 
0.0373116

>  <i_epik_Tot_Q>  (16) 
0

>  <i_epik_Tot_abs_Q>  (16) 
0

>  <s_lp_Force_Field>  (16) 
OPLS3e

>  <r_lp_Energy>  (16) 
59.4482

>  <b_lp_Chiralities_Consistent>  (16) 
1

>  <s_lp_Variant>  (16) 
3:0-1

>  <s_i_glide_gridfile>  (16) 
pfpi4k_grid

>  <i_i_glide_lignum>  (16) 
8

>  <i_i_glide_rotatable_bonds>  (16) 
1

>  <r_i_docking_score>  (16) 
-3.18952

>  <r_i_glide_ligand_efficiency>  (16) 
-0.138675

>  <r_i_glide_ligand_efficiency_sa>  (16) 
-0.394372

>  <r_i_glide_ligand_efficiency_ln>  (16) 
-0.771254

>  <r_i_glide_gscore>  (16) 
-3.18952

>  <r_i_glide_lipo>  (16) 
-0.543292

>  <r_i_glide_hbond>  (16) 
-0.158803

>  <r_i_glide_metal>  (16) 
-0

>  <r_i_glide_rewards>  (16) 
-1.25158

>  <r_i_glide_evdw>  (16) 
-16.9557

>  <r_i_glide_ecoul>  (16) 
-2.54058

>  <r_i_glide_erotb>  (16) 
0

>  <r_i_glide_esite>  (16) 
-0.00696665

>  <r_i_glide_emodel>  (16) 
-21.7827

>  <r_i_glide_energy>  (16) 
-19.4963

>  <r_i_glide_einternal>  (16) 
1.12218

>  <r_i_glide_intrahb_reward>  (16) 
-0

>  <i_i_glide_confnum>  (16) 
1

>  <i_i_glide_posenum>  (16) 
35

>  <r_i_glide_eff_state_penalty>  (16) 
0

>  <ligand_id>  (16) 
3

>  <original_smiles>  (16) 
CC1CCC2C3(C)CC(O)C4C5C(=O)CC(=O)C4(C)C3C5C12C

>  <smiles>  (16) 
[H]OC1([H])C([H])([H])C2(C([H])([H])[H])C3([H])C([H])(C4([H])C(=O)C([H])([H])C(=O)C3(C([H])([H])[H])C14[H])C1(C([H])([H])[H])C([H])(C([H])([H])[H])C([H])([H])C([H])([H])C21[H]

$$$$
3:0:1
     RDKit          3D

 51 55  0  0  1  0  0  0  0  0999 V2000
    2.7983   -0.9556   -2.8054 C   0  0  0  0  0  0  0  0  0  0  0  0
    3.7307   -2.0014   -2.2080 C   0  0  2  0  0  0  0  0  0  0  0  0
    4.3166   -2.8153   -3.3361 C   0  0  0  0  0  0  0  0  0  0  0  0
    4.8253   -4.0738   -2.6724 C   0  0  0  0  0  0  0  0  0  0  0  0
    4.1566   -4.1243   -1.2416 C   0  0  1  0  0  0  0  0  0  0  0  0
    5.0460   -4.0436    0.0083 C   0  0  1  0  0  0  0  0  0  0  0  0
    5.5974   -5.4523    0.3162 C   0  0  0  0  0  0  0  0  0  0  0  0
    6.2413   -3.0683   -0.1786 C   0  0  0  0  0  0  0  0  0  0  0  0
    6.1610   -1.7232    0.5655 C   0  0  1  0  0  0  0  0  0  0  0  0
    6.1630   -0.6536   -0.3482 O   0  0  0  0  0  0  0  0  0  0  0  0
    4.9545   -1.5288    1.5132 C   0  0  1  0  0  0  0  0  0  0  0  0
    3.6265   -1.2262    0.7670 C   0  0  2  0  0  0  0  0  0  0  0  0
    2.6924   -0.5914    1.8064 C   0  0  0  0  0  0  0  0  0  0  0  0
    2.2395    0.5470    1.6482 O   0  0  0  0  0  0  0  0  0  0  0  0
    2.4094   -1.4168    3.0682 C   0  0  0  0  0  0  0  0  0  0  0  0
    3.4853   -2.4981    3.3455 C   0  0  0  0  0  0  0  0  0  0  0  0
    3.4540   -3.0841    4.4328 O   0  0  0  0  0  0  0  0  0  0  0  0
    4.5731   -2.8103    2.2659 C   0  0  2  0  0  0  0  0  0  0  0  0
    5.7630   -3.5102    2.9903 C   0  0  0  0  0  0  0  0  0  0  0  0
    4.0129   -3.6055    1.0798 C   0  0  1  0  0  0  0  0  0  0  0  0
    3.0856   -2.6198    0.3251 C   0  0  2  0  0  0  0  0  0  0  0  0
    3.1139   -3.0108   -1.1875 C   0  0  1  0  0  0  0  0  0  0  0  0
    1.7442   -3.6131   -1.6314 C   0  0  0  0  0  0  0  0  0  0  0  0
    2.0491   -1.4310   -3.4202 H   0  0  0  0  0  0  0  0  0  0  0  0
    3.2973   -0.2919   -3.5294 H   0  0  0  0  0  0  0  0  0  0  0  0
    2.2186   -0.3819   -2.0853 H   0  0  0  0  0  0  0  0  0  0  0  0
    4.5459   -1.4720   -1.7578 H   0  0  0  0  0  0  0  0  0  0  0  0
    3.5359   -3.0812   -4.0583 H   0  0  0  0  0  0  0  0  0  0  0  0
    5.1141   -2.2888   -3.8557 H   0  0  0  0  0  0  0  0  0  0  0  0
    4.4984   -4.8258   -3.4021 H   0  0  0  0  0  0  0  0  0  0  0  0
    5.9155   -4.1638   -2.6663 H   0  0  0  0  0  0  0  0  0  0  0  0
    3.6013   -5.0278   -1.0537 H   0  0  0  0  0  0  0  0  0  0  0  0
    6.2819   -5.4842    1.1669 H   0  0  0  0  0  0  0  0  0  0  0  0
    6.1661   -5.8030   -0.5348 H   0  0  0  0  0  0  0  0  0  0  0  0
    4.8013   -6.1870    0.4832 H   0  0  0  0  0  0  0  0  0  0  0  0
    7.1818   -3.5809    0.0620 H   0  0  0  0  0  0  0  0  0  0  0  0
    6.3894   -2.8184   -1.2228 H   0  0  0  0  0  0  0  0  0  0  0  0
    7.0641   -1.6714    1.1722 H   0  0  0  0  0  0  0  0  0  0  0  0
    5.3223   -0.2178   -0.2310 H   0  0  0  0  0  0  0  0  0  0  0  0
    5.2066   -0.7116    2.1871 H   0  0  0  0  0  0  0  0  0  0  0  0
    3.7271   -0.5255   -0.0569 H   0  0  0  0  0  0  0  0  0  0  0  0
    2.3867   -0.7376    3.9212 H   0  0  0  0  0  0  0  0  0  0  0  0
    1.4415   -1.9096    3.0069 H   0  0  0  0  0  0  0  0  0  0  0  0
    6.5637   -3.6616    2.2722 H   0  0  0  0  0  0  0  0  0  0  0  0
    5.4056   -4.4861    3.3648 H   0  0  0  0  0  0  0  0  0  0  0  0
    6.0212   -2.8479    3.8215 H   0  0  0  0  0  0  0  0  0  0  0  0
    3.4386   -4.4749    1.4185 H   0  0  0  0  0  0  0  0  0  0  0  0
    2.0691   -2.7446    0.7095 H   0  0  0  0  0  0  0  0  0  0  0  0
    1.4270   -4.4105   -0.9496 H   0  0  0  0  0  0  0  0  0  0  0  0
    1.8056   -4.0162   -2.6425 H   0  0  0  0  0  0  0  0  0  0  0  0
    0.9248   -2.9124   -1.6811 H   0  0  0  0  0  0  0  0  0  0  0  0
  1  2  1  0
  1 24  1  0
  1 25  1  0
  1 26  1  0
  2 22  1  0
  2  3  1  0
  2 27  1  1
  3  4  1  0
  3 28  1  0
  3 29  1  0
  4  5  1  0
  4 30  1  0
  4 31  1  0
  5 22  1  0
  5  6  1  0
  5 32  1  1
  6 20  1  0
  6  7  1  1
  6  8  1  0
  7 33  1  0
  7 34  1  0
  7 35  1  0
  8  9  1  0
  8 36  1  0
  8 37  1  0
  9 10  1  0
  9 11  1  0
  9 38  1  1
 10 39  1  0
 11 18  1  0
 11 12  1  0
 11 40  1  1
 12 21  1  0
 12 13  1  0
 12 41  1  6
 13 14  2  0
 13 15  1  0
 15 16  1  0
 15 42  1  0
 15 43  1  0
 16 17  2  0
 16 18  1  0
 18 19  1  1
 18 20  1  0
 19 44  1  0
 19 45  1  0
 19 46  1  0
 20 21  1  0
 20 47  1  1
 21 22  1  0
 21 48  1  1
 22 23  1  6
 23 49  1  0
 23 50  1  0
 23 51  1  0
M  END
>  <i_m_ct_stereo_status>  (17) 
1

>  <s_m_source_file>  (17) 
/var/tmp/pbs.5076255.sched01/tmp7hrp_b9g/014g_j70o.sdf

>  <i_m_source_file_index>  (17) 
8

>  <i_lp_mmshare_version>  (17) 
48012

>  <i_f3d_flags>  (17) 
0

>  <s_epik_input>  (17) 
W0NIMl0xW0NIMl1bQ0BASF0oW0NIM10pW0NAQF0oW0NIM10pKFtDQEBIXTFbQ0BAXTIzW0NIM10pW0NAQEhdNFtDQEBIXTVbQ0BIXShbQ0BASF0oW0NIMl0yKVtPSF0pW0NAXShbQ0gzXSkoW0NASF0zNClDKD1PKVtDSDJdQzU9Tw==

>  <s_epik_cmdline>  (17) 
J2VwaWtfcHl0aG9uJywgJy1waHQnLCAnMi4wJywgJy1waCcsICc3LjAnLCAnLXRuJywgJzgnLCAnLW1hJywgJzIwMCcsICctaW1hZScsICc8aW5maWxlLm1hZT4nLCAnLW9tYWUnLCAnPG91dGZpbGUubWFlPic=

>  <r_lp_tautomer_probability>  (17) 
1

>  <r_epik_Ionization_Penalty>  (17) 
1.94005

>  <r_epik_Ionization_Penalty_Charging>  (17) 
0

>  <r_epik_Ionization_Penalty_Neutral>  (17) 
1.94005

>  <r_epik_State_Penalty>  (17) 
0.0373116

>  <r_epik_Charging_Adjusted_Penalty>  (17) 
0.0373116

>  <i_epik_Tot_Q>  (17) 
0

>  <i_epik_Tot_abs_Q>  (17) 
0

>  <s_lp_Force_Field>  (17) 
OPLS3e

>  <r_lp_Energy>  (17) 
59.4482

>  <b_lp_Chiralities_Consistent>  (17) 
1

>  <s_lp_Variant>  (17) 
3:0-1

>  <s_i_glide_gridfile>  (17) 
pfpi4k_grid

>  <i_i_glide_lignum>  (17) 
8

>  <i_i_glide_rotatable_bonds>  (17) 
1

>  <r_i_docking_score>  (17) 
-1.90193

>  <r_i_glide_ligand_efficiency>  (17) 
-0.0826925

>  <r_i_glide_ligand_efficiency_sa>  (17) 
-0.235167

>  <r_i_glide_ligand_efficiency_ln>  (17) 
-0.459903

>  <r_i_glide_gscore>  (17) 
-1.90193

>  <r_i_glide_lipo>  (17) 
-0.582244

>  <r_i_glide_hbond>  (17) 
-0.0431379

>  <r_i_glide_metal>  (17) 
-0

>  <r_i_glide_rewards>  (17) 
-1.25159

>  <r_i_glide_evdw>  (17) 
1.51181

>  <r_i_glide_ecoul>  (17) 
-3.09287

>  <r_i_glide_erotb>  (17) 
0

>  <r_i_glide_esite>  (17) 
-0.0429374

>  <r_i_glide_emodel>  (17) 
2.15104

>  <r_i_glide_energy>  (17) 
-1.58106

>  <r_i_glide_einternal>  (17) 
1.04745

>  <r_i_glide_intrahb_reward>  (17) 
-0

>  <i_i_glide_confnum>  (17) 
1

>  <i_i_glide_posenum>  (17) 
1

>  <r_i_glide_eff_state_penalty>  (17) 
0

>  <ligand_id>  (17) 
3

>  <original_smiles>  (17) 
CC1CCC2C3(C)CC(O)C4C5C(=O)CC(=O)C4(C)C3C5C12C

>  <smiles>  (17) 
[H]OC1([H])C([H])([H])C2(C([H])([H])[H])C3([H])C([H])(C4([H])C(=O)C([H])([H])C(=O)C3(C([H])([H])[H])C14[H])C1(C([H])([H])[H])C([H])(C([H])([H])[H])C([H])([H])C([H])([H])C21[H]

$$$$
3:1:0
     RDKit          3D

 50 54  0  0  1  0  0  0  0  0999 V2000
    2.8619   -2.3461   -3.9314 C   0  0  0  0  0  0  0  0  0  0  0  0
    3.1178   -2.4300   -2.4195 C   0  0  2  0  0  0  0  0  0  0  0  0
    3.4147   -1.0398   -1.9331 C   0  0  0  0  0  0  0  0  0  0  0  0
    4.9210   -0.8954   -1.9222 C   0  0  0  0  0  0  0  0  0  0  0  0
    5.4290   -2.2525   -1.4776 C   0  0  1  0  0  0  0  0  0  0  0  0
    5.7305   -2.5038    0.0335 C   0  0  1  0  0  0  0  0  0  0  0  0
    7.2453   -2.2824    0.2584 C   0  0  0  0  0  0  0  0  0  0  0  0
    4.9588   -1.5758    1.0384 C   0  0  0  0  0  0  0  0  0  0  0  0
    3.7303   -2.1735    1.7633 C   0  0  1  0  0  0  0  0  0  0  0  0
    2.5500   -1.4228    1.5512 O   0  0  0  0  0  0  0  0  0  0  0  0
    3.5137   -3.6930    1.6001 C   0  0  1  0  0  0  0  0  0  0  0  0
    2.9140   -4.1347    0.2328 C   0  0  2  0  0  0  0  0  0  0  0  0
    2.3745   -5.5750    0.4425 C   0  0  0  0  0  0  0  0  0  0  0  0
    1.2279   -5.7336   -0.0457 O   0  0  0  0  0  0  0  0  0  0  0  0
    3.2212   -6.4324    1.1123 C   0  0  0  0  0  0  0  0  0  0  0  0
    4.5312   -6.0018    1.6330 C   0  0  0  0  0  0  0  0  0  0  0  0
    5.3454   -6.7915    2.0885 O   0  0  0  0  0  0  0  0  0  0  0  0
    4.8442   -4.4736    1.5934 C   0  0  2  0  0  0  0  0  0  0  0  0
    5.8006   -4.1929    2.7692 C   0  0  0  0  0  0  0  0  0  0  0  0
    5.3636   -4.0118    0.2036 C   0  0  1  0  0  0  0  0  0  0  0  0
    4.1615   -4.2010   -0.7302 C   0  0  2  0  0  0  0  0  0  0  0  0
    4.3596   -3.2458   -1.9502 C   0  0  1  0  0  0  0  0  0  0  0  0
    4.9719   -4.0132   -3.1341 C   0  0  0  0  0  0  0  0  0  0  0  0
    3.6961   -1.9063   -4.4867 H   0  0  0  0  0  0  0  0  0  0  0  0
    2.0044   -1.7115   -4.1536 H   0  0  0  0  0  0  0  0  0  0  0  0
    2.6204   -3.3211   -4.3540 H   0  0  0  0  0  0  0  0  0  0  0  0
    2.1809   -2.7698   -1.9947 H   0  0  0  0  0  0  0  0  0  0  0  0
    2.9403   -0.2780   -2.5634 H   0  0  0  0  0  0  0  0  0  0  0  0
    3.0349   -0.9040   -0.9223 H   0  0  0  0  0  0  0  0  0  0  0  0
    5.2365   -0.6785   -2.9426 H   0  0  0  0  0  0  0  0  0  0  0  0
    5.2838   -0.0856   -1.3027 H   0  0  0  0  0  0  0  0  0  0  0  0
    6.3533   -2.4154   -2.0315 H   0  0  0  0  0  0  0  0  0  0  0  0
    7.5216   -2.5243    1.2798 H   0  0  0  0  0  0  0  0  0  0  0  0
    7.5219   -1.2375    0.0839 H   0  0  0  0  0  0  0  0  0  0  0  0
    7.8516   -2.9080   -0.4049 H   0  0  0  0  0  0  0  0  0  0  0  0
    5.6632   -1.2845    1.8225 H   0  0  0  0  0  0  0  0  0  0  0  0
    4.6989   -0.6019    0.6396 H   0  0  0  0  0  0  0  0  0  0  0  0
    3.9207   -2.0209    2.8235 H   0  0  0  0  0  0  0  0  0  0  0  0
    2.2870   -1.4610    0.6377 H   0  0  0  0  0  0  0  0  0  0  0  0
    2.8601   -4.0222    2.4140 H   0  0  0  0  0  0  0  0  0  0  0  0
    2.1176   -3.4552   -0.0742 H   0  0  0  0  0  0  0  0  0  0  0  0
    2.9337   -7.4540    1.2995 H   0  0  0  0  0  0  0  0  0  0  0  0
    5.9914   -3.1365    2.9298 H   0  0  0  0  0  0  0  0  0  0  0  0
    6.7645   -4.6717    2.5898 H   0  0  0  0  0  0  0  0  0  0  0  0
    5.4099   -4.5876    3.7091 H   0  0  0  0  0  0  0  0  0  0  0  0
    6.1836   -4.6349   -0.1490 H   0  0  0  0  0  0  0  0  0  0  0  0
    4.2226   -5.2243   -1.1055 H   0  0  0  0  0  0  0  0  0  0  0  0
    5.8077   -4.5972   -2.7828 H   0  0  0  0  0  0  0  0  0  0  0  0
    5.3203   -3.3836   -3.9517 H   0  0  0  0  0  0  0  0  0  0  0  0
    4.2367   -4.6800   -3.5746 H   0  0  0  0  0  0  0  0  0  0  0  0
  1  2  1  0
  1 24  1  0
  1 25  1  0
  1 26  1  0
  2 22  1  0
  2  3  1  0
  2 27  1  1
  3  4  1  0
  3 28  1  0
  3 29  1  0
  4  5  1  0
  4 30  1  0
  4 31  1  0
  5 22  1  0
  5  6  1  0
  5 32  1  6
  6 20  1  0
  6  7  1  6
  6  8  1  0
  7 33  1  0
  7 34  1  0
  7 35  1  0
  8  9  1  0
  8 36  1  0
  8 37  1  0
  9 10  1  0
  9 11  1  0
  9 38  1  1
 10 39  1  0
 11 18  1  0
 11 12  1  0
 11 40  1  1
 12 21  1  0
 12 13  1  0
 12 41  1  6
 13 14  1  0
 13 15  2  0
 15 16  1  0
 15 42  1  0
 16 17  2  0
 16 18  1  0
 18 19  1  1
 18 20  1  0
 19 43  1  0
 19 44  1  0
 19 45  1  0
 20 21  1  0
 20 46  1  6
 21 22  1  0
 21 47  1  6
 22 23  1  6
 23 48  1  0
 23 49  1  0
 23 50  1  0
M  CHG  1  14  -1
M  END
>  <i_m_ct_stereo_status>  (18) 
1

>  <s_m_source_file>  (18) 
/var/tmp/pbs.5076255.sched01/tmp7hrp_b9g/014g_j70o.sdf

>  <i_m_source_file_index>  (18) 
9

>  <i_lp_mmshare_version>  (18) 
48012

>  <i_f3d_flags>  (18) 
0

>  <s_epik_input>  (18) 
W0NIMl0xW0NIMl1bQ0BASF0oW0NIM10pW0NAQF0oW0NIM10pKFtDQEBIXTFbQ0BAXTIzW0NIM10pW0NAQEhdNFtDQEBIXTVbQ0BIXShbQ0BASF0oW0NIMl0yKVtPSF0pW0NAXShbQ0gzXSkoW0NASF0zNClDKD1PKVtDSDJdQzU9Tw==

>  <s_epik_cmdline>  (18) 
J2VwaWtfcHl0aG9uJywgJy1waHQnLCAnMi4wJywgJy1waCcsICc3LjAnLCAnLXRuJywgJzgnLCAnLW1hJywgJzIwMCcsICctaW1hZScsICc8aW5maWxlLm1hZT4nLCAnLW9tYWUnLCAnPG91dGZpbGUubWFlPic=

>  <r_epik_Ionization_Penalty>  (18) 
0.0311282

>  <r_epik_Ionization_Penalty_Charging>  (18) 
0.00827341

>  <r_epik_Ionization_Penalty_Neutral>  (18) 
0.0228548

>  <r_epik_State_Penalty>  (18) 
1.65681

>  <r_epik_Charging_Adjusted_Penalty>  (18) 
1.66508

>  <i_epik_Tot_Q>  (18) 
-1

>  <i_epik_Tot_abs_Q>  (18) 
1

>  <s_lp_Force_Field>  (18) 
OPLS3e

>  <r_lp_Energy>  (18) 
59.2117

>  <b_lp_Chiralities_Consistent>  (18) 
1

>  <s_lp_Variant>  (18) 
3:0-2

>  <s_i_glide_gridfile>  (18) 
pfpi4k_grid

>  <i_i_glide_lignum>  (18) 
9

>  <i_i_glide_rotatable_bonds>  (18) 
1

>  <r_i_docking_score>  (18) 
-3.24462

>  <r_i_glide_ligand_efficiency>  (18) 
-0.14107

>  <r_i_glide_ligand_efficiency_sa>  (18) 
-0.401185

>  <r_i_glide_ligand_efficiency_ln>  (18) 
-0.784577

>  <r_i_glide_gscore>  (18) 
-3.24462

>  <r_i_glide_lipo>  (18) 
-0.419825

>  <r_i_glide_hbond>  (18) 
-0.36637

>  <r_i_glide_metal>  (18) 
-0

>  <r_i_glide_rewards>  (18) 
-1.31863

>  <r_i_glide_evdw>  (18) 
-18.1757

>  <r_i_glide_ecoul>  (18) 
-1.54002

>  <r_i_glide_erotb>  (18) 
0

>  <r_i_glide_esite>  (18) 
0

>  <r_i_glide_emodel>  (18) 
-23.8249

>  <r_i_glide_energy>  (18) 
-19.7157

>  <r_i_glide_einternal>  (18) 
0.0366337

>  <r_i_glide_intrahb_reward>  (18) 
-0

>  <i_i_glide_confnum>  (18) 
2

>  <i_i_glide_posenum>  (18) 
35

>  <r_i_glide_eff_state_penalty>  (18) 
0

>  <ligand_id>  (18) 
3

>  <original_smiles>  (18) 
CC1CCC2C3(C)CC(O)C4C5C(=O)CC(=O)C4(C)C3C5C12C

>  <smiles>  (18) 
[H]OC1([H])C([H])([H])C2(C([H])([H])[H])C3([H])C([H])(C4([H])C([O-])=C([H])C(=O)C3(C([H])([H])[H])C14[H])C1(C([H])([H])[H])C([H])(C([H])([H])[H])C([H])([H])C([H])([H])C21[H]

$$$$
3:1:1
     RDKit          3D

 50 54  0  0  1  0  0  0  0  0999 V2000
    5.7026   -3.3952   -2.2300 C   0  0  0  0  0  0  0  0  0  0  0  0
    4.9227   -3.7887   -0.9544 C   0  0  2  0  0  0  0  0  0  0  0  0
    3.5074   -3.1980   -1.0361 C   0  0  0  0  0  0  0  0  0  0  0  0
    3.5794   -1.8847   -0.2564 C   0  0  0  0  0  0  0  0  0  0  0  0
    4.5297   -2.1830    0.9111 C   0  0  1  0  0  0  0  0  0  0  0  0
    3.9320   -2.6178    2.2880 C   0  0  1  0  0  0  0  0  0  0  0  0
    3.7942   -1.3518    3.1701 C   0  0  0  0  0  0  0  0  0  0  0  0
    2.5162   -3.2941    2.2120 C   0  0  0  0  0  0  0  0  0  0  0  0
    2.4433   -4.8339    2.3465 C   0  0  1  0  0  0  0  0  0  0  0  0
    1.8242   -5.4667    1.2388 O   0  0  0  0  0  0  0  0  0  0  0  0
    3.7512   -5.5275    2.7621 C   0  0  1  0  0  0  0  0  0  0  0  0
    4.8117   -5.6649    1.6312 C   0  0  2  0  0  0  0  0  0  0  0  0
    5.7938   -6.7362    2.1339 C   0  0  0  0  0  0  0  0  0  0  0  0
    6.0146   -7.5875    1.2436 O   0  0  0  0  0  0  0  0  0  0  0  0
    6.2344   -6.6242    3.4229 C   0  0  0  0  0  0  0  0  0  0  0  0
    5.7265   -5.5773    4.3288 C   0  0  0  0  0  0  0  0  0  0  0  0
    6.2031   -5.3830    5.4396 O   0  0  0  0  0  0  0  0  0  0  0  0
    4.5384   -4.7108    3.8061 C   0  0  2  0  0  0  0  0  0  0  0  0
    3.7402   -4.2528    5.0548 C   0  0  0  0  0  0  0  0  0  0  0  0
    5.0211   -3.5735    2.8599 C   0  0  1  0  0  0  0  0  0  0  0  0
    5.5705   -4.2894    1.6082 C   0  0  2  0  0  0  0  0  0  0  0  0
    5.5048   -3.2784    0.4149 C   0  0  1  0  0  0  0  0  0  0  0  0
    6.9154   -2.6558    0.2490 C   0  0  0  0  0  0  0  0  0  0  0  0
    5.7731   -2.3154   -2.3681 H   0  0  0  0  0  0  0  0  0  0  0  0
    5.2047   -3.7996   -3.1121 H   0  0  0  0  0  0  0  0  0  0  0  0
    6.7115   -3.8061   -2.2318 H   0  0  0  0  0  0  0  0  0  0  0  0
    4.8726   -4.8735   -0.9900 H   0  0  0  0  0  0  0  0  0  0  0  0
    3.1506   -3.0609   -2.0594 H   0  0  0  0  0  0  0  0  0  0  0  0
    2.8087   -3.8759   -0.5558 H   0  0  0  0  0  0  0  0  0  0  0  0
    4.0421   -1.1387   -0.9092 H   0  0  0  0  0  0  0  0  0  0  0  0
    2.6189   -1.4800    0.0448 H   0  0  0  0  0  0  0  0  0  0  0  0
    5.0941   -1.2651    1.0797 H   0  0  0  0  0  0  0  0  0  0  0  0
    3.4266   -1.5852    4.1682 H   0  0  0  0  0  0  0  0  0  0  0  0
    3.0963   -0.6389    2.7272 H   0  0  0  0  0  0  0  0  0  0  0  0
    4.7464   -0.8360    3.2948 H   0  0  0  0  0  0  0  0  0  0  0  0
    1.9143   -2.8908    3.0304 H   0  0  0  0  0  0  0  0  0  0  0  0
    1.9261   -2.9758    1.3633 H   0  0  0  0  0  0  0  0  0  0  0  0
    1.7404   -5.0230    3.1535 H   0  0  0  0  0  0  0  0  0  0  0  0
    1.9000   -6.4017    1.3644 H   0  0  0  0  0  0  0  0  0  0  0  0
    3.4930   -6.5219    3.1405 H   0  0  0  0  0  0  0  0  0  0  0  0
    4.3465   -5.9573    0.6907 H   0  0  0  0  0  0  0  0  0  0  0  0
    6.9187   -7.3519    3.8369 H   0  0  0  0  0  0  0  0  0  0  0  0
    2.8047   -3.7520    4.8305 H   0  0  0  0  0  0  0  0  0  0  0  0
    4.3348   -3.5640    5.6571 H   0  0  0  0  0  0  0  0  0  0  0  0
    3.4948   -5.1025    5.6947 H   0  0  0  0  0  0  0  0  0  0  0  0
    5.8116   -2.9837    3.3221 H   0  0  0  0  0  0  0  0  0  0  0  0
    6.6273   -4.5160    1.7747 H   0  0  0  0  0  0  0  0  0  0  0  0
    7.2922   -2.2767    1.1986 H   0  0  0  0  0  0  0  0  0  0  0  0
    6.9187   -1.8134   -0.4385 H   0  0  0  0  0  0  0  0  0  0  0  0
    7.6374   -3.3893   -0.1107 H   0  0  0  0  0  0  0  0  0  0  0  0
  1  2  1  0
  1 24  1  0
  1 25  1  0
  1 26  1  0
  2 22  1  0
  2  3  1  0
  2 27  1  1
  3  4  1  0
  3 28  1  0
  3 29  1  0
  4  5  1  0
  4 30  1  0
  4 31  1  0
  5 22  1  0
  5  6  1  0
  5 32  1  1
  6 20  1  0
  6  7  1  1
  6  8  1  0
  7 33  1  0
  7 34  1  0
  7 35  1  0
  8  9  1  0
  8 36  1  0
  8 37  1  0
  9 10  1  0
  9 11  1  0
  9 38  1  1
 10 39  1  0
 11 18  1  0
 11 12  1  0
 11 40  1  1
 12 21  1  0
 12 13  1  0
 12 41  1  6
 13 14  1  0
 13 15  2  0
 15 16  1  0
 15 42  1  0
 16 17  2  0
 16 18  1  0
 18 19  1  1
 18 20  1  0
 19 43  1  0
 19 44  1  0
 19 45  1  0
 20 21  1  0
 20 46  1  1
 21 22  1  0
 21 47  1  1
 22 23  1  6
 23 48  1  0
 23 49  1  0
 23 50  1  0
M  CHG  1  14  -1
M  END
>  <i_m_ct_stereo_status>  (19) 
1

>  <s_m_source_file>  (19) 
/var/tmp/pbs.5076255.sched01/tmp7hrp_b9g/014g_j70o.sdf

>  <i_m_source_file_index>  (19) 
9

>  <i_lp_mmshare_version>  (19) 
48012

>  <i_f3d_flags>  (19) 
0

>  <s_epik_input>  (19) 
W0NIMl0xW0NIMl1bQ0BASF0oW0NIM10pW0NAQF0oW0NIM10pKFtDQEBIXTFbQ0BAXTIzW0NIM10pW0NAQEhdNFtDQEBIXTVbQ0BIXShbQ0BASF0oW0NIMl0yKVtPSF0pW0NAXShbQ0gzXSkoW0NASF0zNClDKD1PKVtDSDJdQzU9Tw==

>  <s_epik_cmdline>  (19) 
J2VwaWtfcHl0aG9uJywgJy1waHQnLCAnMi4wJywgJy1waCcsICc3LjAnLCAnLXRuJywgJzgnLCAnLW1hJywgJzIwMCcsICctaW1hZScsICc8aW5maWxlLm1hZT4nLCAnLW9tYWUnLCAnPG91dGZpbGUubWFlPic=

>  <r_epik_Ionization_Penalty>  (19) 
0.0311282

>  <r_epik_Ionization_Penalty_Charging>  (19) 
0.00827341

>  <r_epik_Ionization_Penalty_Neutral>  (19) 
0.0228548

>  <r_epik_State_Penalty>  (19) 
1.65681

>  <r_epik_Charging_Adjusted_Penalty>  (19) 
1.66508

>  <i_epik_Tot_Q>  (19) 
-1

>  <i_epik_Tot_abs_Q>  (19) 
1

>  <s_lp_Force_Field>  (19) 
OPLS3e

>  <r_lp_Energy>  (19) 
59.2117

>  <b_lp_Chiralities_Consistent>  (19) 
1

>  <s_lp_Variant>  (19) 
3:0-2

>  <s_i_glide_gridfile>  (19) 
pfpi4k_grid

>  <i_i_glide_lignum>  (19) 
9

>  <i_i_glide_rotatable_bonds>  (19) 
1

>  <r_i_docking_score>  (19) 
-2.99953

>  <r_i_glide_ligand_efficiency>  (19) 
-0.130414

>  <r_i_glide_ligand_efficiency_sa>  (19) 
-0.370881

>  <r_i_glide_ligand_efficiency_ln>  (19) 
-0.725314

>  <r_i_glide_gscore>  (19) 
-2.99953

>  <r_i_glide_lipo>  (19) 
-0.579388

>  <r_i_glide_hbond>  (19) 
-0.0782818

>  <r_i_glide_metal>  (19) 
-0

>  <r_i_glide_rewards>  (19) 
-1.25871

>  <r_i_glide_evdw>  (19) 
-19.1474

>  <r_i_glide_ecoul>  (19) 
-0.838522

>  <r_i_glide_erotb>  (19) 
0

>  <r_i_glide_esite>  (19) 
0

>  <r_i_glide_emodel>  (19) 
-23.7095

>  <r_i_glide_energy>  (19) 
-19.986

>  <r_i_glide_einternal>  (19) 
0.456636

>  <r_i_glide_intrahb_reward>  (19) 
-0

>  <i_i_glide_confnum>  (19) 
2

>  <i_i_glide_posenum>  (19) 
9

>  <r_i_glide_eff_state_penalty>  (19) 
0

>  <ligand_id>  (19) 
3

>  <original_smiles>  (19) 
CC1CCC2C3(C)CC(O)C4C5C(=O)CC(=O)C4(C)C3C5C12C

>  <smiles>  (19) 
[H]OC1([H])C([H])([H])C2(C([H])([H])[H])C3([H])C([H])(C4([H])C([O-])=C([H])C(=O)C3(C([H])([H])[H])C14[H])C1(C([H])([H])[H])C([H])(C([H])([H])[H])C([H])([H])C([H])([H])C21[H]

$$$$
3:1:2
     RDKit          3D

 50 54  0  0  1  0  0  0  0  0999 V2000
    5.1261   -3.6227   -2.8189 C   0  0  0  0  0  0  0  0  0  0  0  0
    4.6071   -3.8057   -1.3754 C   0  0  2  0  0  0  0  0  0  0  0  0
    3.3282   -2.9766   -1.2080 C   0  0  0  0  0  0  0  0  0  0  0  0
    3.8061   -1.6673   -0.5861 C   0  0  0  0  0  0  0  0  0  0  0  0
    4.9168   -2.0815    0.3826 C   0  0  1  0  0  0  0  0  0  0  0  0
    4.5632   -2.3391    1.8854 C   0  0  1  0  0  0  0  0  0  0  0  0
    4.8562   -1.0341    2.6702 C   0  0  0  0  0  0  0  0  0  0  0  0
    3.0735   -2.7501    2.1624 C   0  0  0  0  0  0  0  0  0  0  0  0
    2.7787   -4.2475    2.4571 C   0  0  1  0  0  0  0  0  0  0  0  0
    1.8857   -4.8750    1.5670 O   0  0  0  0  0  0  0  0  0  0  0  0
    4.0126   -5.1371    2.6440 C   0  0  1  0  0  0  0  0  0  0  0  0
    4.7395   -5.5240    1.3305 C   0  0  2  0  0  0  0  0  0  0  0  0
    5.5667   -6.7578    1.6787 C   0  0  0  0  0  0  0  0  0  0  0  0
    5.3801   -7.6887    0.8486 O   0  0  0  0  0  0  0  0  0  0  0  0
    6.3397   -6.6635    2.8433 C   0  0  0  0  0  0  0  0  0  0  0  0
    6.2381   -5.5268    3.7532 C   0  0  0  0  0  0  0  0  0  0  0  0
    6.9157   -5.4544    4.7654 O   0  0  0  0  0  0  0  0  0  0  0  0
    5.1455   -4.4382    3.4209 C   0  0  2  0  0  0  0  0  0  0  0  0
    4.7330   -3.7839    4.7651 C   0  0  0  0  0  0  0  0  0  0  0  0
    5.5783   -3.4582    2.2820 C   0  0  1  0  0  0  0  0  0  0  0  0
    5.6999   -4.3267    1.0157 C   0  0  2  0  0  0  0  0  0  0  0  0
    5.5545   -3.3556   -0.2102 C   0  0  1  0  0  0  0  0  0  0  0  0
    6.9805   -2.9979   -0.7164 C   0  0  0  0  0  0  0  0  0  0  0  0
    5.3547   -2.5857   -3.0629 H   0  0  0  0  0  0  0  0  0  0  0  0
    4.3840   -3.9736   -3.5361 H   0  0  0  0  0  0  0  0  0  0  0  0
    6.0187   -4.2181   -2.9909 H   0  0  0  0  0  0  0  0  0  0  0  0
    4.3810   -4.8646   -1.2961 H   0  0  0  0  0  0  0  0  0  0  0  0
    2.7823   -2.8207   -2.1414 H   0  0  0  0  0  0  0  0  0  0  0  0
    2.6462   -3.4864   -0.5364 H   0  0  0  0  0  0  0  0  0  0  0  0
    4.2284   -1.0480   -1.3791 H   0  0  0  0  0  0  0  0  0  0  0  0
    3.0222   -1.0653   -0.1319 H   0  0  0  0  0  0  0  0  0  0  0  0
    5.6504   -1.2749    0.3577 H   0  0  0  0  0  0  0  0  0  0  0  0
    4.6864   -1.1492    3.7407 H   0  0  0  0  0  0  0  0  0  0  0  0
    4.2121   -0.2196    2.3308 H   0  0  0  0  0  0  0  0  0  0  0  0
    5.8858   -0.6993    2.5500 H   0  0  0  0  0  0  0  0  0  0  0  0
    2.7559   -2.2081    3.0540 H   0  0  0  0  0  0  0  0  0  0  0  0
    2.3617   -2.3595    1.4389 H   0  0  0  0  0  0  0  0  0  0  0  0
    2.2373   -4.2537    3.4034 H   0  0  0  0  0  0  0  0  0  0  0  0
    2.3071   -4.9292    0.7126 H   0  0  0  0  0  0  0  0  0  0  0  0
    3.6665   -6.0474    3.1475 H   0  0  0  0  0  0  0  0  0  0  0  0
    4.0407   -5.7672    0.5286 H   0  0  0  0  0  0  0  0  0  0  0  0
    6.9536   -7.4852    3.1656 H   0  0  0  0  0  0  0  0  0  0  0  0
    3.8663   -3.1315    4.6987 H   0  0  0  0  0  0  0  0  0  0  0  0
    5.5528   -3.1933    5.1667 H   0  0  0  0  0  0  0  0  0  0  0  0
    4.4877   -4.5444    5.5082 H   0  0  0  0  0  0  0  0  0  0  0  0
    6.5469   -3.0021    2.4646 H   0  0  0  0  0  0  0  0  0  0  0  0
    6.7143   -4.7308    0.9769 H   0  0  0  0  0  0  0  0  0  0  0  0
    7.6195   -2.6591    0.0994 H   0  0  0  0  0  0  0  0  0  0  0  0
    6.9699   -2.2136   -1.4665 H   0  0  0  0  0  0  0  0  0  0  0  0
    7.4837   -3.8583   -1.1625 H   0  0  0  0  0  0  0  0  0  0  0  0
  1  2  1  0
  1 24  1  0
  1 25  1  0
  1 26  1  0
  2 22  1  0
  2  3  1  0
  2 27  1  1
  3  4  1  0
  3 28  1  0
  3 29  1  0
  4  5  1  0
  4 30  1  0
  4 31  1  0
  5 22  1  0
  5  6  1  0
  5 32  1  1
  6 20  1  0
  6  7  1  1
  6  8  1  0
  7 33  1  0
  7 34  1  0
  7 35  1  0
  8  9  1  0
  8 36  1  0
  8 37  1  0
  9 10  1  0
  9 11  1  0
  9 38  1  1
 10 39  1  0
 11 18  1  0
 11 12  1  0
 11 40  1  1
 12 21  1  0
 12 13  1  0
 12 41  1  6
 13 14  1  0
 13 15  2  0
 15 16  1  0
 15 42  1  0
 16 17  2  0
 16 18  1  0
 18 19  1  1
 18 20  1  0
 19 43  1  0
 19 44  1  0
 19 45  1  0
 20 21  1  0
 20 46  1  1
 21 22  1  0
 21 47  1  6
 22 23  1  6
 23 48  1  0
 23 49  1  0
 23 50  1  0
M  CHG  1  14  -1
M  END
>  <i_m_ct_stereo_status>  (20) 
1

>  <s_m_source_file>  (20) 
/var/tmp/pbs.5076255.sched01/tmp7hrp_b9g/014g_j70o.sdf

>  <i_m_source_file_index>  (20) 
9

>  <i_lp_mmshare_version>  (20) 
48012

>  <i_f3d_flags>  (20) 
0

>  <s_epik_input>  (20) 
W0NIMl0xW0NIMl1bQ0BASF0oW0NIM10pW0NAQF0oW0NIM10pKFtDQEBIXTFbQ0BAXTIzW0NIM10pW0NAQEhdNFtDQEBIXTVbQ0BIXShbQ0BASF0oW0NIMl0yKVtPSF0pW0NAXShbQ0gzXSkoW0NASF0zNClDKD1PKVtDSDJdQzU9Tw==

>  <s_epik_cmdline>  (20) 
J2VwaWtfcHl0aG9uJywgJy1waHQnLCAnMi4wJywgJy1waCcsICc3LjAnLCAnLXRuJywgJzgnLCAnLW1hJywgJzIwMCcsICctaW1hZScsICc8aW5maWxlLm1hZT4nLCAnLW9tYWUnLCAnPG91dGZpbGUubWFlPic=

>  <r_epik_Ionization_Penalty>  (20) 
0.0311282

>  <r_epik_Ionization_Penalty_Charging>  (20) 
0.00827341

>  <r_epik_Ionization_Penalty_Neutral>  (20) 
0.0228548

>  <r_epik_State_Penalty>  (20) 
1.65681

>  <r_epik_Charging_Adjusted_Penalty>  (20) 
1.66508

>  <i_epik_Tot_Q>  (20) 
-1

>  <i_epik_Tot_abs_Q>  (20) 
1

>  <s_lp_Force_Field>  (20) 
OPLS3e

>  <r_lp_Energy>  (20) 
59.2117

>  <b_lp_Chiralities_Consistent>  (20) 
1

>  <s_lp_Variant>  (20) 
3:0-2

>  <s_i_glide_gridfile>  (20) 
pfpi4k_grid

>  <i_i_glide_lignum>  (20) 
9

>  <i_i_glide_rotatable_bonds>  (20) 
1

>  <r_i_docking_score>  (20) 
-2.80864

>  <r_i_glide_ligand_efficiency>  (20) 
-0.122115

>  <r_i_glide_ligand_efficiency_sa>  (20) 
-0.347278

>  <r_i_glide_ligand_efficiency_ln>  (20) 
-0.679155

>  <r_i_glide_gscore>  (20) 
-2.80864

>  <r_i_glide_lipo>  (20) 
-0.609284

>  <r_i_glide_hbond>  (20) 
-0.0352172

>  <r_i_glide_metal>  (20) 
-0

>  <r_i_glide_rewards>  (20) 
-1.26333

>  <r_i_glide_evdw>  (20) 
-17.4689

>  <r_i_glide_ecoul>  (20) 
-0.18243

>  <r_i_glide_erotb>  (20) 
0

>  <r_i_glide_esite>  (20) 
0

>  <r_i_glide_emodel>  (20) 
-21.237

>  <r_i_glide_energy>  (20) 
-17.6514

>  <r_i_glide_einternal>  (20) 
0.0355822

>  <r_i_glide_intrahb_reward>  (20) 
-0

>  <i_i_glide_confnum>  (20) 
2

>  <i_i_glide_posenum>  (20) 
1

>  <r_i_glide_eff_state_penalty>  (20) 
0

>  <ligand_id>  (20) 
3

>  <original_smiles>  (20) 
CC1CCC2C3(C)CC(O)C4C5C(=O)CC(=O)C4(C)C3C5C12C

>  <smiles>  (20) 
[H]OC1([H])C([H])([H])C2(C([H])([H])[H])C3([H])C([H])(C4([H])C([O-])=C([H])C(=O)C3(C([H])([H])[H])C14[H])C1(C([H])([H])[H])C([H])(C([H])([H])[H])C([H])([H])C([H])([H])C21[H]

$$$$
5:0:0
     RDKit          3D

 51 55  0  0  1  0  0  0  0  0999 V2000
    5.3957   -0.7810    2.3917 C   0  0  0  0  0  0  0  0  0  0  0  0
    4.3224   -1.8781    2.4112 C   0  0  2  0  0  0  0  0  0  0  0  0
    4.3090   -2.7594    3.7014 C   0  0  0  0  0  0  0  0  0  0  0  0
    4.6198   -4.0303    2.9690 C   0  0  2  0  0  0  0  0  0  0  0  0
    3.7163   -3.9317    1.8870 O   0  0  0  0  0  0  0  0  0  0  0  0
    4.2688   -2.8792    1.1796 C   0  0  1  0  0  0  0  0  0  0  0  0
    3.3297   -2.4441    0.0864 C   0  0  0  0  0  0  0  0  0  0  0  0
    3.7875   -2.6641   -1.1428 C   0  0  0  0  0  0  0  0  0  0  0  0
    5.0960   -3.2902   -1.0464 C   0  0  0  0  0  0  0  0  0  0  0  0
    5.8399   -3.5174   -1.9977 O   0  0  0  0  0  0  0  0  0  0  0  0
    5.4837   -3.5992    0.4136 C   0  0  1  0  0  0  0  0  0  0  0  0
    6.9035   -3.0181    0.6233 C   0  0  0  0  0  0  0  0  0  0  0  0
    5.4709   -5.1954    0.5924 C   0  0  0  0  0  0  0  0  0  0  0  0
    5.6950   -5.9339    2.0019 C   0  0  2  0  0  0  0  0  0  0  0  0
    5.5800   -7.4477    1.7749 C   0  0  0  0  0  0  0  0  0  0  0  0
    4.1243   -7.8208    1.6255 C   0  0  0  0  0  0  0  0  0  0  0  0
    3.1679   -7.3159    2.4210 C   0  0  0  0  0  0  0  0  0  0  0  0
    1.7145   -7.7547    2.2603 C   0  0  0  0  0  0  0  0  0  0  0  0
    0.7189   -6.6364    2.5490 C   0  0  0  0  0  0  0  0  0  0  0  0
   -0.3820   -6.6565    1.9976 O   0  0  0  0  0  0  0  0  0  0  0  0
    1.0833   -5.5970    3.5175 C   0  0  0  0  0  0  0  0  0  0  0  0
    2.3380   -5.5043    3.9922 C   0  0  0  0  0  0  0  0  0  0  0  0
    3.5307   -6.3710    3.5855 C   0  0  1  0  0  0  0  0  0  0  0  0
    3.7765   -7.3069    4.7909 C   0  0  0  0  0  0  0  0  0  0  0  0
    4.8265   -5.5002    3.2726 C   0  0  2  0  0  0  0  0  0  0  0  0
    5.6411   -5.5471    4.3308 F   0  0  0  0  0  0  0  0  0  0  0  0
    6.3951   -1.1741    2.5635 H   0  0  0  0  0  0  0  0  0  0  0  0
    5.2048   -0.0435    3.1735 H   0  0  0  0  0  0  0  0  0  0  0  0
    5.3916   -0.2513    1.4386 H   0  0  0  0  0  0  0  0  0  0  0  0
    3.3691   -1.3501    2.4258 H   0  0  0  0  0  0  0  0  0  0  0  0
    5.0640   -2.4741    4.4338 H   0  0  0  0  0  0  0  0  0  0  0  0
    3.3267   -2.7672    4.1692 H   0  0  0  0  0  0  0  0  0  0  0  0
    5.6682   -3.7797    2.8032 H   0  0  0  0  0  0  0  0  0  0  0  0
    2.3679   -2.0061    0.3077 H   0  0  0  0  0  0  0  0  0  0  0  0
    3.2843   -2.4447   -2.0751 H   0  0  0  0  0  0  0  0  0  0  0  0
    7.2783   -3.1237    1.6372 H   0  0  0  0  0  0  0  0  0  0  0  0
    6.9452   -1.9607    0.3634 H   0  0  0  0  0  0  0  0  0  0  0  0
    7.6307   -3.5221   -0.0128 H   0  0  0  0  0  0  0  0  0  0  0  0
    4.5250   -5.5573    0.1839 H   0  0  0  0  0  0  0  0  0  0  0  0
    6.2184   -5.5981   -0.0924 H   0  0  0  0  0  0  0  0  0  0  0  0
    6.7383   -5.7336    2.2531 H   0  0  0  0  0  0  0  0  0  0  0  0
    6.1267   -7.7480    0.8814 H   0  0  0  0  0  0  0  0  0  0  0  0
    6.0045   -7.9973    2.6169 H   0  0  0  0  0  0  0  0  0  0  0  0
    3.8885   -8.5429    0.8558 H   0  0  0  0  0  0  0  0  0  0  0  0
    1.5512   -8.1194    1.2463 H   0  0  0  0  0  0  0  0  0  0  0  0
    1.5129   -8.5824    2.9391 H   0  0  0  0  0  0  0  0  0  0  0  0
    0.3076   -4.9371    3.8744 H   0  0  0  0  0  0  0  0  0  0  0  0
    2.5458   -4.7597    4.7470 H   0  0  0  0  0  0  0  0  0  0  0  0
    2.9057   -7.9394    4.9809 H   0  0  0  0  0  0  0  0  0  0  0  0
    3.9714   -6.7492    5.7079 H   0  0  0  0  0  0  0  0  0  0  0  0
    4.6227   -7.9728    4.6161 H   0  0  0  0  0  0  0  0  0  0  0  0
  1  2  1  0
  1 27  1  0
  1 28  1  0
  1 29  1  0
  2  6  1  0
  2  3  1  0
  2 30  1  1
  3  4  1  0
  3 31  1  0
  3 32  1  0
  4 25  1  0
  4  5  1  0
  4 33  1  6
  5  6  1  0
  6 11  1  0
  6  7  1  6
  7  8  2  0
  7 34  1  0
  8  9  1  0
  8 35  1  0
  9 10  2  0
  9 11  1  0
 11 12  1  1
 11 13  1  0
 12 36  1  0
 12 37  1  0
 12 38  1  0
 13 14  1  0
 13 39  1  0
 13 40  1  0
 14 25  1  0
 14 15  1  0
 14 41  1  1
 15 16  1  0
 15 42  1  0
 15 43  1  0
 16 17  2  0
 16 44  1  0
 17 23  1  0
 17 18  1  0
 18 19  1  0
 18 45  1  0
 18 46  1  0
 19 20  2  0
 19 21  1  0
 21 22  2  0
 21 47  1  0
 22 23  1  0
 22 48  1  0
 23 24  1  1
 23 25  1  0
 24 49  1  0
 24 50  1  0
 24 51  1  0
 25 26  1  1
M  END
>  <i_m_ct_stereo_status>  (21) 
1

>  <s_m_source_file>  (21) 
/var/tmp/pbs.5076255.sched01/tmp7hrp_b9g/014g_j70o.sdf

>  <i_m_source_file_index>  (21) 
11

>  <i_lp_mmshare_version>  (21) 
48012

>  <i_f3d_flags>  (21) 
0

>  <s_epik_input>  (21) 
W0NIXTE9W0NIXUMoPU8pW0NIMl1DKD1bQ0hdW0NIMl0yKVtDQEBdMShbQ0gzXSlbQ0BdKEYpKFtDQEBIXShPMylbQ0gyXVtDQEhdNFtDSDNdKVtDQEBIXTJbQ0gyXVtDQEBdKFtDQEBdMzQ1KShbQ0gzXSlDKD1PKVtDSF09W0NIXTU=

>  <s_epik_cmdline>  (21) 
J2VwaWtfcHl0aG9uJywgJy1waHQnLCAnMi4wJywgJy1waCcsICc3LjAnLCAnLXRuJywgJzgnLCAnLW1hJywgJzIwMCcsICctaW1hZScsICc8aW5maWxlLm1hZT4nLCAnLW9tYWUnLCAnPG91dGZpbGUubWFlPic=

>  <r_lp_tautomer_probability>  (21) 
1

>  <r_epik_Ionization_Penalty>  (21) 
7.8935e-15

>  <r_epik_Ionization_Penalty_Charging>  (21) 
0

>  <r_epik_Ionization_Penalty_Neutral>  (21) 
7.8935e-15

>  <r_epik_State_Penalty>  (21) 
-0

>  <r_epik_Charging_Adjusted_Penalty>  (21) 
0

>  <i_epik_Tot_Q>  (21) 
0

>  <i_epik_Tot_abs_Q>  (21) 
0

>  <s_lp_Force_Field>  (21) 
OPLS3e

>  <r_lp_Energy>  (21) 
91.7625

>  <b_lp_Chiralities_Consistent>  (21) 
1

>  <s_lp_Variant>  (21) 
5:0-1

>  <s_i_glide_gridfile>  (21) 
pfpi4k_grid

>  <i_i_glide_lignum>  (21) 
11

>  <i_i_glide_rotatable_bonds>  (21) 
0

>  <r_i_docking_score>  (21) 
-3.58314

>  <r_i_glide_ligand_efficiency>  (21) 
-0.137813

>  <r_i_glide_ligand_efficiency_sa>  (21) 
-0.408271

>  <r_i_glide_ligand_efficiency_ln>  (21) 
-0.841489

>  <r_i_glide_gscore>  (21) 
-3.58314

>  <r_i_glide_lipo>  (21) 
-0.521369

>  <r_i_glide_hbond>  (21) 
-0.176946

>  <r_i_glide_metal>  (21) 
-0

>  <r_i_glide_rewards>  (21) 
-1.06114

>  <r_i_glide_evdw>  (21) 
-24.5662

>  <r_i_glide_ecoul>  (21) 
-3.56369

>  <r_i_glide_erotb>  (21) 
0

>  <r_i_glide_esite>  (21) 
-0.0608212

>  <r_i_glide_emodel>  (21) 
-34.4576

>  <r_i_glide_energy>  (21) 
-28.1299

>  <r_i_glide_einternal>  (21) 
0

>  <r_i_glide_intrahb_reward>  (21) 
-0

>  <i_i_glide_confnum>  (21) 
1

>  <i_i_glide_posenum>  (21) 
39

>  <r_i_glide_eff_state_penalty>  (21) 
0

>  <ligand_id>  (21) 
5

>  <original_smiles>  (21) 
CC1CC2OC13C=CC(=O)C3(C)CC1CC=C3CC(=O)C=CC3(C)C12F

>  <smiles>  (21) 
[H]C1=C([H])C23OC([H])(C([H])([H])C2([H])C([H])([H])[H])C2(F)C4(C([H])([H])[H])C([H])=C([H])C(=O)C([H])([H])C4=C([H])C([H])([H])C2([H])C([H])([H])C3(C([H])([H])[H])C1=O

$$$$
5:0:1
     RDKit          3D

 51 55  0  0  1  0  0  0  0  0999 V2000
    1.1429   -0.1087    4.8638 C   0  0  0  0  0  0  0  0  0  0  0  0
    2.0958   -0.4667    3.7138 C   0  0  2  0  0  0  0  0  0  0  0  0
    1.5592   -1.5618    2.7386 C   0  0  0  0  0  0  0  0  0  0  0  0
    2.6570   -2.5336    3.0480 C   0  0  2  0  0  0  0  0  0  0  0  0
    3.7821   -1.6820    2.9803 O   0  0  0  0  0  0  0  0  0  0  0  0
    3.5801   -0.8883    4.0939 C   0  0  1  0  0  0  0  0  0  0  0  0
    4.5571    0.2582    4.0970 C   0  0  0  0  0  0  0  0  0  0  0  0
    5.4408    0.2139    5.0914 C   0  0  0  0  0  0  0  0  0  0  0  0
    5.1994   -0.9877    5.8785 C   0  0  0  0  0  0  0  0  0  0  0  0
    5.8073   -1.3023    6.9016 O   0  0  0  0  0  0  0  0  0  0  0  0
    4.0784   -1.8568    5.2750 C   0  0  1  0  0  0  0  0  0  0  0  0
    3.0842   -2.1538    6.4251 C   0  0  0  0  0  0  0  0  0  0  0  0
    4.7672   -3.2019    4.7321 C   0  0  0  0  0  0  0  0  0  0  0  0
    3.9769   -4.3330    3.9113 C   0  0  2  0  0  0  0  0  0  0  0  0
    4.9734   -5.4370    3.5350 C   0  0  0  0  0  0  0  0  0  0  0  0
    5.8230   -4.9680    2.3769 C   0  0  0  0  0  0  0  0  0  0  0  0
    5.3085   -4.3095    1.3260 C   0  0  0  0  0  0  0  0  0  0  0  0
    6.2025   -3.8855    0.1632 C   0  0  0  0  0  0  0  0  0  0  0  0
    5.7759   -2.5630   -0.4736 C   0  0  0  0  0  0  0  0  0  0  0  0
    6.6190   -1.8765   -1.0520 O   0  0  0  0  0  0  0  0  0  0  0  0
    4.3611   -2.1939   -0.4449 C   0  0  0  0  0  0  0  0  0  0  0  0
    3.4781   -2.8921    0.2900 C   0  0  0  0  0  0  0  0  0  0  0  0
    3.7894   -4.0730    1.2132 C   0  0  1  0  0  0  0  0  0  0  0  0
    3.2529   -5.3217    0.4817 C   0  0  0  0  0  0  0  0  0  0  0  0
    3.0988   -3.9228    2.6382 C   0  0  2  0  0  0  0  0  0  0  0  0
    1.9998   -4.6837    2.6666 F   0  0  0  0  0  0  0  0  0  0  0  0
    0.8360   -0.9827    5.4337 H   0  0  0  0  0  0  0  0  0  0  0  0
    0.2343    0.3546    4.4759 H   0  0  0  0  0  0  0  0  0  0  0  0
    1.6055    0.6078    5.5423 H   0  0  0  0  0  0  0  0  0  0  0  0
    2.1706    0.4347    3.1052 H   0  0  0  0  0  0  0  0  0  0  0  0
    0.5659   -1.9277    2.9958 H   0  0  0  0  0  0  0  0  0  0  0  0
    1.5654   -1.2207    1.7047 H   0  0  0  0  0  0  0  0  0  0  0  0
    2.2612   -2.8042    4.0273 H   0  0  0  0  0  0  0  0  0  0  0  0
    4.5235    1.0223    3.3372 H   0  0  0  0  0  0  0  0  0  0  0  0
    6.2366    0.9183    5.2887 H   0  0  0  0  0  0  0  0  0  0  0  0
    2.2100   -2.7267    6.1247 H   0  0  0  0  0  0  0  0  0  0  0  0
    2.7357   -1.2360    6.8974 H   0  0  0  0  0  0  0  0  0  0  0  0
    3.5643   -2.7392    7.2083 H   0  0  0  0  0  0  0  0  0  0  0  0
    5.6216   -2.8992    4.1228 H   0  0  0  0  0  0  0  0  0  0  0  0
    5.2253   -3.6963    5.5923 H   0  0  0  0  0  0  0  0  0  0  0  0
    3.2913   -4.7665    4.6408 H   0  0  0  0  0  0  0  0  0  0  0  0
    5.6161   -5.6861    4.3809 H   0  0  0  0  0  0  0  0  0  0  0  0
    4.4523   -6.3522    3.2512 H   0  0  0  0  0  0  0  0  0  0  0  0
    6.8778   -5.2039    2.4274 H   0  0  0  0  0  0  0  0  0  0  0  0
    7.2341   -3.8046    0.5063 H   0  0  0  0  0  0  0  0  0  0  0  0
    6.1735   -4.6604   -0.6008 H   0  0  0  0  0  0  0  0  0  0  0  0
    4.0392   -1.3748   -1.0707 H   0  0  0  0  0  0  0  0  0  0  0  0
    2.4395   -2.6088    0.2217 H   0  0  0  0  0  0  0  0  0  0  0  0
    3.7666   -5.4515   -0.4733 H   0  0  0  0  0  0  0  0  0  0  0  0
    2.1888   -5.2419    0.2576 H   0  0  0  0  0  0  0  0  0  0  0  0
    3.4124   -6.2361    1.0537 H   0  0  0  0  0  0  0  0  0  0  0  0
  1  2  1  0
  1 27  1  0
  1 28  1  0
  1 29  1  0
  2  6  1  0
  2  3  1  0
  2 30  1  6
  3  4  1  0
  3 31  1  0
  3 32  1  0
  4 25  1  0
  4  5  1  0
  4 33  1  1
  5  6  1  0
  6 11  1  0
  6  7  1  6
  7  8  2  0
  7 34  1  0
  8  9  1  0
  8 35  1  0
  9 10  2  0
  9 11  1  0
 11 12  1  1
 11 13  1  0
 12 36  1  0
 12 37  1  0
 12 38  1  0
 13 14  1  0
 13 39  1  0
 13 40  1  0
 14 25  1  0
 14 15  1  0
 14 41  1  1
 15 16  1  0
 15 42  1  0
 15 43  1  0
 16 17  2  0
 16 44  1  0
 17 23  1  0
 17 18  1  0
 18 19  1  0
 18 45  1  0
 18 46  1  0
 19 20  2  0
 19 21  1  0
 21 22  2  0
 21 47  1  0
 22 23  1  0
 22 48  1  0
 23 24  1  6
 23 25  1  0
 24 49  1  0
 24 50  1  0
 24 51  1  0
 25 26  1  6
M  END
>  <i_m_ct_stereo_status>  (22) 
1

>  <s_m_source_file>  (22) 
/var/tmp/pbs.5076255.sched01/tmp7hrp_b9g/014g_j70o.sdf

>  <i_m_source_file_index>  (22) 
11

>  <i_lp_mmshare_version>  (22) 
48012

>  <i_f3d_flags>  (22) 
0

>  <s_epik_input>  (22) 
W0NIXTE9W0NIXUMoPU8pW0NIMl1DKD1bQ0hdW0NIMl0yKVtDQEBdMShbQ0gzXSlbQ0BdKEYpKFtDQEBIXShPMylbQ0gyXVtDQEhdNFtDSDNdKVtDQEBIXTJbQ0gyXVtDQEBdKFtDQEBdMzQ1KShbQ0gzXSlDKD1PKVtDSF09W0NIXTU=

>  <s_epik_cmdline>  (22) 
J2VwaWtfcHl0aG9uJywgJy1waHQnLCAnMi4wJywgJy1waCcsICc3LjAnLCAnLXRuJywgJzgnLCAnLW1hJywgJzIwMCcsICctaW1hZScsICc8aW5maWxlLm1hZT4nLCAnLW9tYWUnLCAnPG91dGZpbGUubWFlPic=

>  <r_lp_tautomer_probability>  (22) 
1

>  <r_epik_Ionization_Penalty>  (22) 
7.8935e-15

>  <r_epik_Ionization_Penalty_Charging>  (22) 
0

>  <r_epik_Ionization_Penalty_Neutral>  (22) 
7.8935e-15

>  <r_epik_State_Penalty>  (22) 
-0

>  <r_epik_Charging_Adjusted_Penalty>  (22) 
0

>  <i_epik_Tot_Q>  (22) 
0

>  <i_epik_Tot_abs_Q>  (22) 
0

>  <s_lp_Force_Field>  (22) 
OPLS3e

>  <r_lp_Energy>  (22) 
91.7625

>  <b_lp_Chiralities_Consistent>  (22) 
1

>  <s_lp_Variant>  (22) 
5:0-1

>  <s_i_glide_gridfile>  (22) 
pfpi4k_grid

>  <i_i_glide_lignum>  (22) 
11

>  <i_i_glide_rotatable_bonds>  (22) 
0

>  <r_i_docking_score>  (22) 
-3.06577

>  <r_i_glide_ligand_efficiency>  (22) 
-0.117914

>  <r_i_glide_ligand_efficiency_sa>  (22) 
-0.349321

>  <r_i_glide_ligand_efficiency_ln>  (22) 
-0.719986

>  <r_i_glide_gscore>  (22) 
-3.06577

>  <r_i_glide_lipo>  (22) 
-0.295524

>  <r_i_glide_hbond>  (22) 
-0.16

>  <r_i_glide_metal>  (22) 
-0

>  <r_i_glide_rewards>  (22) 
-1.00302

>  <r_i_glide_evdw>  (22) 
-19.9014

>  <r_i_glide_ecoul>  (22) 
-3.95798

>  <r_i_glide_erotb>  (22) 
0

>  <r_i_glide_esite>  (22) 
-0.0184633

>  <r_i_glide_emodel>  (22) 
-29.2373

>  <r_i_glide_energy>  (22) 
-23.8594

>  <r_i_glide_einternal>  (22) 
0

>  <r_i_glide_intrahb_reward>  (22) 
-0

>  <i_i_glide_confnum>  (22) 
2

>  <i_i_glide_posenum>  (22) 
21

>  <r_i_glide_eff_state_penalty>  (22) 
0

>  <ligand_id>  (22) 
5

>  <original_smiles>  (22) 
CC1CC2OC13C=CC(=O)C3(C)CC1CC=C3CC(=O)C=CC3(C)C12F

>  <smiles>  (22) 
[H]C1=C([H])C23OC([H])(C([H])([H])C2([H])C([H])([H])[H])C2(F)C4(C([H])([H])[H])C([H])=C([H])C(=O)C([H])([H])C4=C([H])C([H])([H])C2([H])C([H])([H])C3(C([H])([H])[H])C1=O

$$$$
5:0:2
     RDKit          3D

 51 55  0  0  1  0  0  0  0  0999 V2000
    0.6906   -1.9155    5.1688 C   0  0  0  0  0  0  0  0  0  0  0  0
    0.9910   -2.1350    3.6797 C   0  0  2  0  0  0  0  0  0  0  0  0
    1.7541   -3.4565    3.3417 C   0  0  0  0  0  0  0  0  0  0  0  0
    2.9348   -2.7458    2.7645 C   0  0  2  0  0  0  0  0  0  0  0  0
    2.3050   -1.7920    1.9358 O   0  0  0  0  0  0  0  0  0  0  0  0
    1.7237   -0.9640    2.8837 C   0  0  1  0  0  0  0  0  0  0  0  0
    0.7760    0.0275    2.2212 C   0  0  0  0  0  0  0  0  0  0  0  0
    1.1727    1.2937    2.2907 C   0  0  0  0  0  0  0  0  0  0  0  0
    2.4364    1.3254    3.0130 C   0  0  0  0  0  0  0  0  0  0  0  0
    3.0075    2.3383    3.3955 O   0  0  0  0  0  0  0  0  0  0  0  0
    2.9672   -0.0829    3.3567 C   0  0  1  0  0  0  0  0  0  0  0  0
    3.3143   -0.0752    4.8739 C   0  0  0  0  0  0  0  0  0  0  0  0
    4.2785   -0.3360    2.4630 C   0  0  0  0  0  0  0  0  0  0  0  0
    5.0577   -1.7385    2.4173 C   0  0  2  0  0  0  0  0  0  0  0  0
    6.2164   -1.6083    1.4288 C   0  0  0  0  0  0  0  0  0  0  0  0
    5.6892   -1.6628    0.0228 C   0  0  0  0  0  0  0  0  0  0  0  0
    4.7928   -2.5719   -0.3712 C   0  0  0  0  0  0  0  0  0  0  0  0
    4.3238   -2.6259   -1.8086 C   0  0  0  0  0  0  0  0  0  0  0  0
    2.8526   -3.0053   -1.9539 C   0  0  0  0  0  0  0  0  0  0  0  0
    2.2880   -2.6652   -2.9834 O   0  0  0  0  0  0  0  0  0  0  0  0
    2.2290   -3.8466   -0.9187 C   0  0  0  0  0  0  0  0  0  0  0  0
    2.8872   -4.1439    0.2139 C   0  0  0  0  0  0  0  0  0  0  0  0
    4.2567   -3.6196    0.6303 C   0  0  1  0  0  0  0  0  0  0  0  0
    5.2136   -4.8183    0.4685 C   0  0  0  0  0  0  0  0  0  0  0  0
    4.2616   -3.0898    2.1310 C   0  0  2  0  0  0  0  0  0  0  0  0
    4.8173   -4.0254    2.9116 F   0  0  0  0  0  0  0  0  0  0  0  0
    1.5881   -1.9758    5.7780 H   0  0  0  0  0  0  0  0  0  0  0  0
    0.0013   -2.6823    5.5269 H   0  0  0  0  0  0  0  0  0  0  0  0
    0.2135   -0.9493    5.3249 H   0  0  0  0  0  0  0  0  0  0  0  0
    0.0074   -2.2551    3.2446 H   0  0  0  0  0  0  0  0  0  0  0  0
    1.9733   -4.0665    4.2217 H   0  0  0  0  0  0  0  0  0  0  0  0
    1.2116   -4.0431    2.5999 H   0  0  0  0  0  0  0  0  0  0  0  0
    3.3185   -2.4240    3.7292 H   0  0  0  0  0  0  0  0  0  0  0  0
   -0.1054   -0.2550    1.6908 H   0  0  0  0  0  0  0  0  0  0  0  0
    0.6822    2.1556    1.8646 H   0  0  0  0  0  0  0  0  0  0  0  0
    3.6478   -1.0311    5.2586 H   0  0  0  0  0  0  0  0  0  0  0  0
    2.4577    0.2476    5.4570 H   0  0  0  0  0  0  0  0  0  0  0  0
    4.1117    0.6311    5.0760 H   0  0  0  0  0  0  0  0  0  0  0  0
    4.0248   -0.0694    1.4311 H   0  0  0  0  0  0  0  0  0  0  0  0
    5.0064    0.4148    2.7587 H   0  0  0  0  0  0  0  0  0  0  0  0
    5.5060   -1.8330    3.4089 H   0  0  0  0  0  0  0  0  0  0  0  0
    6.7631   -0.6836    1.5831 H   0  0  0  0  0  0  0  0  0  0  0  0
    6.9275   -2.4230    1.5728 H   0  0  0  0  0  0  0  0  0  0  0  0
    6.1196   -0.9595   -0.6796 H   0  0  0  0  0  0  0  0  0  0  0  0
    4.4778   -1.6482   -2.2813 H   0  0  0  0  0  0  0  0  0  0  0  0
    4.9136   -3.3630   -2.3499 H   0  0  0  0  0  0  0  0  0  0  0  0
    1.2651   -4.2692   -1.1612 H   0  0  0  0  0  0  0  0  0  0  0  0
    2.4327   -4.8250    0.9100 H   0  0  0  0  0  0  0  0  0  0  0  0
    5.2453   -5.1585   -0.5710 H   0  0  0  0  0  0  0  0  0  0  0  0
    4.9041   -5.6775    1.0699 H   0  0  0  0  0  0  0  0  0  0  0  0
    6.2390   -4.5658    0.7515 H   0  0  0  0  0  0  0  0  0  0  0  0
  1  2  1  0
  1 27  1  0
  1 28  1  0
  1 29  1  0
  2  6  1  0
  2  3  1  0
  2 30  1  6
  3  4  1  0
  3 31  1  0
  3 32  1  0
  4 25  1  0
  4  5  1  0
  4 33  1  1
  5  6  1  0
  6 11  1  0
  6  7  1  6
  7  8  2  0
  7 34  1  0
  8  9  1  0
  8 35  1  0
  9 10  2  0
  9 11  1  0
 11 12  1  1
 11 13  1  0
 12 36  1  0
 12 37  1  0
 12 38  1  0
 13 14  1  0
 13 39  1  0
 13 40  1  0
 14 25  1  0
 14 15  1  0
 14 41  1  1
 15 16  1  0
 15 42  1  0
 15 43  1  0
 16 17  2  0
 16 44  1  0
 17 23  1  0
 17 18  1  0
 18 19  1  0
 18 45  1  0
 18 46  1  0
 19 20  2  0
 19 21  1  0
 21 22  2  0
 21 47  1  0
 22 23  1  0
 22 48  1  0
 23 24  1  1
 23 25  1  0
 24 49  1  0
 24 50  1  0
 24 51  1  0
 25 26  1  1
M  END
>  <i_m_ct_stereo_status>  (23) 
1

>  <s_m_source_file>  (23) 
/var/tmp/pbs.5076255.sched01/tmp7hrp_b9g/014g_j70o.sdf

>  <i_m_source_file_index>  (23) 
11

>  <i_lp_mmshare_version>  (23) 
48012

>  <i_f3d_flags>  (23) 
0

>  <s_epik_input>  (23) 
W0NIXTE9W0NIXUMoPU8pW0NIMl1DKD1bQ0hdW0NIMl0yKVtDQEBdMShbQ0gzXSlbQ0BdKEYpKFtDQEBIXShPMylbQ0gyXVtDQEhdNFtDSDNdKVtDQEBIXTJbQ0gyXVtDQEBdKFtDQEBdMzQ1KShbQ0gzXSlDKD1PKVtDSF09W0NIXTU=

>  <s_epik_cmdline>  (23) 
J2VwaWtfcHl0aG9uJywgJy1waHQnLCAnMi4wJywgJy1waCcsICc3LjAnLCAnLXRuJywgJzgnLCAnLW1hJywgJzIwMCcsICctaW1hZScsICc8aW5maWxlLm1hZT4nLCAnLW9tYWUnLCAnPG91dGZpbGUubWFlPic=

>  <r_lp_tautomer_probability>  (23) 
1

>  <r_epik_Ionization_Penalty>  (23) 
7.8935e-15

>  <r_epik_Ionization_Penalty_Charging>  (23) 
0

>  <r_epik_Ionization_Penalty_Neutral>  (23) 
7.8935e-15

>  <r_epik_State_Penalty>  (23) 
-0

>  <r_epik_Charging_Adjusted_Penalty>  (23) 
0

>  <i_epik_Tot_Q>  (23) 
0

>  <i_epik_Tot_abs_Q>  (23) 
0

>  <s_lp_Force_Field>  (23) 
OPLS3e

>  <r_lp_Energy>  (23) 
91.7625

>  <b_lp_Chiralities_Consistent>  (23) 
1

>  <s_lp_Variant>  (23) 
5:0-1

>  <s_i_glide_gridfile>  (23) 
pfpi4k_grid

>  <i_i_glide_lignum>  (23) 
11

>  <i_i_glide_rotatable_bonds>  (23) 
0

>  <r_i_docking_score>  (23) 
-2.63188

>  <r_i_glide_ligand_efficiency>  (23) 
-0.101226

>  <r_i_glide_ligand_efficiency_sa>  (23) 
-0.299882

>  <r_i_glide_ligand_efficiency_ln>  (23) 
-0.618089

>  <r_i_glide_gscore>  (23) 
-2.63188

>  <r_i_glide_lipo>  (23) 
-0.4811

>  <r_i_glide_hbond>  (23) 
0

>  <r_i_glide_metal>  (23) 
-0

>  <r_i_glide_rewards>  (23) 
-1.00691

>  <r_i_glide_evdw>  (23) 
-27.2799

>  <r_i_glide_ecoul>  (23) 
1.53504

>  <r_i_glide_erotb>  (23) 
0

>  <r_i_glide_esite>  (23) 
-0.0101345

>  <r_i_glide_emodel>  (23) 
-30.1029

>  <r_i_glide_energy>  (23) 
-25.7449

>  <r_i_glide_einternal>  (23) 
0

>  <r_i_glide_intrahb_reward>  (23) 
-0

>  <i_i_glide_confnum>  (23) 
1

>  <i_i_glide_posenum>  (23) 
19

>  <r_i_glide_eff_state_penalty>  (23) 
0

>  <ligand_id>  (23) 
5

>  <original_smiles>  (23) 
CC1CC2OC13C=CC(=O)C3(C)CC1CC=C3CC(=O)C=CC3(C)C12F

>  <smiles>  (23) 
[H]C1=C([H])C23OC([H])(C([H])([H])C2([H])C([H])([H])[H])C2(F)C4(C([H])([H])[H])C([H])=C([H])C(=O)C([H])([H])C4=C([H])C([H])([H])C2([H])C([H])([H])C3(C([H])([H])[H])C1=O

$$$$
6:0:0
     RDKit          3D

 53 56  0  0  1  0  0  0  0  0999 V2000
    2.9527    2.4239    6.1563 C   0  0  0  0  0  0  0  0  0  0  0  0
    2.3548    2.2207    4.7231 C   0  0  0  0  0  0  0  0  0  0  0  0
    2.7804    3.5730    4.0818 C   0  0  0  0  0  0  0  0  0  0  0  0
    3.0800    1.0294    3.9535 C   0  0  1  0  0  0  0  0  0  0  0  0
    3.7577    0.0462    4.9361 C   0  0  0  0  0  0  0  0  0  0  0  0
    2.6026   -0.8486    5.4012 C   0  0  0  0  0  0  0  0  0  0  0  0
    1.4177   -0.5887    4.4215 C   0  0  1  0  0  0  0  0  0  0  0  0
    0.7438   -1.9586    4.1385 C   0  0  0  0  0  0  0  0  0  0  0  0
    0.4254    0.4673    5.0564 C   0  0  2  0  0  0  0  0  0  0  0  0
   -1.0632    0.3520    4.6457 C   0  0  0  0  0  0  0  0  0  0  0  0
   -1.3737    1.4862    3.6594 C   0  0  1  0  0  0  0  0  0  0  0  0
   -2.5710    2.1450    4.0694 O   0  0  0  0  0  0  0  0  0  0  0  0
   -0.0999    2.3792    3.5685 C   0  0  2  0  0  0  0  0  0  0  0  0
   -0.4527    3.8990    3.3846 C   0  0  0  0  0  0  0  0  0  0  0  0
   -1.3148    4.5003    4.3372 O   0  0  0  0  0  0  0  0  0  0  0  0
    0.5921    1.9782    2.2355 C   0  0  0  0  0  0  0  0  0  0  0  0
    1.1829    0.5751    2.1015 C   0  0  0  0  0  0  0  0  0  0  0  0
    2.1399    0.0269    3.1951 C   0  0  1  0  0  0  0  0  0  0  0  0
    2.9687   -1.0497    2.4138 C   0  0  0  0  0  0  0  0  0  0  0  0
    0.7751    1.9870    4.8351 C   0  0  2  0  0  0  0  0  0  0  0  0
    0.2001    2.7266    6.0810 C   0  0  0  0  0  0  0  0  0  0  0  0
    4.0394    2.5236    6.1418 H   0  0  0  0  0  0  0  0  0  0  0  0
    2.6918    1.6170    6.8405 H   0  0  0  0  0  0  0  0  0  0  0  0
    2.6104    3.3503    6.6191 H   0  0  0  0  0  0  0  0  0  0  0  0
    2.6695    3.6495    3.0090 H   0  0  0  0  0  0  0  0  0  0  0  0
    3.8440    3.7489    4.2341 H   0  0  0  0  0  0  0  0  0  0  0  0
    2.2611    4.4156    4.5353 H   0  0  0  0  0  0  0  0  0  0  0  0
    3.8279    1.4329    3.2746 H   0  0  0  0  0  0  0  0  0  0  0  0
    4.5137   -0.5421    4.4153 H   0  0  0  0  0  0  0  0  0  0  0  0
    4.3319    0.4591    5.7586 H   0  0  0  0  0  0  0  0  0  0  0  0
    2.9413   -1.8846    5.3802 H   0  0  0  0  0  0  0  0  0  0  0  0
    2.3415   -0.6490    6.4395 H   0  0  0  0  0  0  0  0  0  0  0  0
    0.0727   -1.9237    3.2826 H   0  0  0  0  0  0  0  0  0  0  0  0
    0.1758   -2.2994    5.0056 H   0  0  0  0  0  0  0  0  0  0  0  0
    1.4688   -2.7434    3.9135 H   0  0  0  0  0  0  0  0  0  0  0  0
    0.4363    0.2531    6.1240 H   0  0  0  0  0  0  0  0  0  0  0  0
   -1.3766   -0.6122    4.2563 H   0  0  0  0  0  0  0  0  0  0  0  0
   -1.6643    0.4903    5.5419 H   0  0  0  0  0  0  0  0  0  0  0  0
   -1.6170    1.0548    2.6881 H   0  0  0  0  0  0  0  0  0  0  0  0
   -3.2835    1.6140    3.7385 H   0  0  0  0  0  0  0  0  0  0  0  0
    0.4090    4.5416    3.2531 H   0  0  0  0  0  0  0  0  0  0  0  0
   -1.0423    3.9887    2.4832 H   0  0  0  0  0  0  0  0  0  0  0  0
   -1.9420    3.8217    4.5621 H   0  0  0  0  0  0  0  0  0  0  0  0
   -0.1378    2.0859    1.4332 H   0  0  0  0  0  0  0  0  0  0  0  0
    1.3484    2.6817    1.9291 H   0  0  0  0  0  0  0  0  0  0  0  0
    0.3812   -0.1394    1.9313 H   0  0  0  0  0  0  0  0  0  0  0  0
    1.7143    0.5896    1.1490 H   0  0  0  0  0  0  0  0  0  0  0  0
    2.3326   -1.6428    1.7544 H   0  0  0  0  0  0  0  0  0  0  0  0
    3.4807   -1.7800    3.0388 H   0  0  0  0  0  0  0  0  0  0  0  0
    3.7278   -0.5806    1.7840 H   0  0  0  0  0  0  0  0  0  0  0  0
   -0.8892    2.6752    6.1255 H   0  0  0  0  0  0  0  0  0  0  0  0
    0.4668    3.7852    6.0657 H   0  0  0  0  0  0  0  0  0  0  0  0
    0.5425    2.3180    7.0262 H   0  0  0  0  0  0  0  0  0  0  0  0
  1  2  1  0
  1 22  1  0
  1 23  1  0
  1 24  1  0
  2 20  1  0
  2  3  1  0
  2  4  1  0
  3 25  1  0
  3 26  1  0
  3 27  1  0
  4 18  1  0
  4  5  1  0
  4 28  1  6
  5  6  1  0
  5 29  1  0
  5 30  1  0
  6  7  1  0
  6 31  1  0
  6 32  1  0
  7 18  1  0
  7  8  1  6
  7  9  1  0
  8 33  1  0
  8 34  1  0
  8 35  1  0
  9 20  1  0
  9 10  1  0
  9 36  1  1
 10 11  1  0
 10 37  1  0
 10 38  1  0
 11 12  1  0
 11 13  1  0
 11 39  1  6
 12 40  1  0
 13 14  1  6
 13 16  1  0
 13 20  1  0
 14 15  1  0
 14 41  1  0
 14 42  1  0
 15 43  1  0
 16 17  1  0
 16 44  1  0
 16 45  1  0
 17 18  1  0
 17 46  1  0
 17 47  1  0
 18 19  1  6
 19 48  1  0
 19 49  1  0
 19 50  1  0
 20 21  1  1
 21 51  1  0
 21 52  1  0
 21 53  1  0
M  END
>  <i_m_ct_stereo_status>  (24) 
1

>  <s_m_source_file>  (24) 
/var/tmp/pbs.5076255.sched01/tmp7hrp_b9g/014g_j70o.sdf

>  <i_m_source_file_index>  (24) 
12

>  <i_lp_mmshare_version>  (24) 
48012

>  <i_f3d_flags>  (24) 
0

>  <s_epik_input>  (24) 
W0NIM11DMShbQ0gzXSlbQ0BASF0oW0NIMl1bQ0gyXTIpW0NAXTMoW0NIM10pW0NIMl1bQ0gyXVtDQF0oW0NAQEhdKFtDSDJdNClbT0hdKShbQ0gyXVtPSF0pW0NAQF0xKFtDSDNdKVtDQEBIXTRbQ0BdMjNbQ0gzXQ==

>  <s_epik_cmdline>  (24) 
J2VwaWtfcHl0aG9uJywgJy1waHQnLCAnMi4wJywgJy1waCcsICc3LjAnLCAnLXRuJywgJzgnLCAnLW1hJywgJzIwMCcsICctaW1hZScsICc8aW5maWxlLm1hZT4nLCAnLW9tYWUnLCAnPG91dGZpbGUubWFlPic=

>  <r_lp_tautomer_probability>  (24) 
1

>  <r_epik_Ionization_Penalty>  (24) 
2.05141e-06

>  <r_epik_Ionization_Penalty_Charging>  (24) 
0

>  <r_epik_Ionization_Penalty_Neutral>  (24) 
2.05141e-06

>  <r_epik_State_Penalty>  (24) 
-0

>  <r_epik_Charging_Adjusted_Penalty>  (24) 
0

>  <i_epik_Tot_Q>  (24) 
0

>  <i_epik_Tot_abs_Q>  (24) 
0

>  <s_lp_Force_Field>  (24) 
OPLS3e

>  <r_lp_Energy>  (24) 
100.535

>  <b_lp_Chiralities_Consistent>  (24) 
1

>  <s_lp_Variant>  (24) 
6:0-1

>  <s_i_glide_gridfile>  (24) 
pfpi4k_grid

>  <i_i_glide_lignum>  (24) 
12

>  <i_i_glide_rotatable_bonds>  (24) 
3

>  <r_i_docking_score>  (24) 
-3.4084

>  <r_i_glide_ligand_efficiency>  (24) 
-0.162305

>  <r_i_glide_ligand_efficiency_sa>  (24) 
-0.447787

>  <r_i_glide_ligand_efficiency_ln>  (24) 
-0.84272

>  <r_i_glide_gscore>  (24) 
-3.4084

>  <r_i_glide_lipo>  (24) 
-0.0162247

>  <r_i_glide_hbond>  (24) 
0

>  <r_i_glide_metal>  (24) 
-0

>  <r_i_glide_rewards>  (24) 
-1.91507

>  <r_i_glide_evdw>  (24) 
-12.61

>  <r_i_glide_ecoul>  (24) 
-7.06711

>  <r_i_glide_erotb>  (24) 
0.213459

>  <r_i_glide_esite>  (24) 
0

>  <r_i_glide_emodel>  (24) 
-27.704

>  <r_i_glide_energy>  (24) 
-19.6771

>  <r_i_glide_einternal>  (24) 
4.09732

>  <r_i_glide_intrahb_reward>  (24) 
-0.5

>  <i_i_glide_confnum>  (24) 
2

>  <i_i_glide_posenum>  (24) 
10

>  <r_i_glide_eff_state_penalty>  (24) 
0

>  <ligand_id>  (24) 
6

>  <original_smiles>  (24) 
CC1(C)C2CCC3(C)C4CC(O)C(CO)(CCC23C)C41C

>  <smiles>  (24) 
[H]OC([H])([H])C12C([H])([H])C([H])([H])C3(C([H])([H])[H])C4([H])C([H])([H])C([H])([H])C3(C([H])([H])[H])C([H])(C([H])([H])C1([H])O[H])C2(C([H])([H])[H])C4(C([H])([H])[H])C([H])([H])[H]

$$$$
6:0:1
     RDKit          3D

 53 56  0  0  1  0  0  0  0  0999 V2000
    3.1671    2.4456    5.9828 C   0  0  0  0  0  0  0  0  0  0  0  0
    2.2211    2.2660    4.7445 C   0  0  0  0  0  0  0  0  0  0  0  0
    2.7633    3.4102    3.8428 C   0  0  0  0  0  0  0  0  0  0  0  0
    2.4658    0.8667    4.0197 C   0  0  1  0  0  0  0  0  0  0  0  0
    3.1215   -0.1611    4.9742 C   0  0  0  0  0  0  0  0  0  0  0  0
    1.9435   -0.6959    5.7976 C   0  0  0  0  0  0  0  0  0  0  0  0
    0.6458   -0.2409    5.0615 C   0  0  1  0  0  0  0  0  0  0  0  0
   -0.3680   -1.4168    5.1309 C   0  0  0  0  0  0  0  0  0  0  0  0
    0.0976    1.0826    5.7304 C   0  0  2  0  0  0  0  0  0  0  0  0
   -1.4310    1.2936    5.6729 C   0  0  0  0  0  0  0  0  0  0  0  0
   -1.7230    2.3576    4.6138 C   0  0  1  0  0  0  0  0  0  0  0  0
   -2.5533    3.3310    5.2213 O   0  0  0  0  0  0  0  0  0  0  0  0
   -0.3522    2.8920    4.0907 C   0  0  2  0  0  0  0  0  0  0  0  0
   -0.3978    4.4404    3.8155 C   0  0  0  0  0  0  0  0  0  0  0  0
   -1.3866    4.8263    2.8807 O   0  0  0  0  0  0  0  0  0  0  0  0
   -0.0935    2.2164    2.7223 C   0  0  0  0  0  0  0  0  0  0  0  0
    0.1296    0.7130    2.6884 C   0  0  0  0  0  0  0  0  0  0  0  0
    1.1754    0.0594    3.6328 C   0  0  1  0  0  0  0  0  0  0  0  0
    1.5324   -1.2571    2.8625 C   0  0  0  0  0  0  0  0  0  0  0  0
    0.6946    2.4397    5.2012 C   0  0  2  0  0  0  0  0  0  0  0  0
    0.5938    3.4597    6.3851 C   0  0  0  0  0  0  0  0  0  0  0  0
    4.2144    2.2699    5.7291 H   0  0  0  0  0  0  0  0  0  0  0  0
    2.9089    1.7928    6.8175 H   0  0  0  0  0  0  0  0  0  0  0  0
    3.1616    3.4645    6.3738 H   0  0  0  0  0  0  0  0  0  0  0  0
    2.4219    3.4153    2.8166 H   0  0  0  0  0  0  0  0  0  0  0  0
    3.8434    3.3284    3.7428 H   0  0  0  0  0  0  0  0  0  0  0  0
    2.5749    4.3969    4.2681 H   0  0  0  0  0  0  0  0  0  0  0  0
    3.1093    1.0075    3.1498 H   0  0  0  0  0  0  0  0  0  0  0  0
    3.5792   -0.9639    4.3995 H   0  0  0  0  0  0  0  0  0  0  0  0
    3.9535    0.1678    5.5897 H   0  0  0  0  0  0  0  0  0  0  0  0
    2.0283   -1.7818    5.8567 H   0  0  0  0  0  0  0  0  0  0  0  0
    1.9904   -0.3467    6.8284 H   0  0  0  0  0  0  0  0  0  0  0  0
   -1.2068   -1.2899    4.4479 H   0  0  0  0  0  0  0  0  0  0  0  0
   -0.7657   -1.5277    6.1398 H   0  0  0  0  0  0  0  0  0  0  0  0
    0.0869   -2.3729    4.8709 H   0  0  0  0  0  0  0  0  0  0  0  0
    0.3276    0.9925    6.7916 H   0  0  0  0  0  0  0  0  0  0  0  0
   -2.0360    0.4081    5.5034 H   0  0  0  0  0  0  0  0  0  0  0  0
   -1.7471    1.6569    6.6525 H   0  0  0  0  0  0  0  0  0  0  0  0
   -2.3112    1.9244    3.8020 H   0  0  0  0  0  0  0  0  0  0  0  0
   -3.4054    2.9456    5.3602 H   0  0  0  0  0  0  0  0  0  0  0  0
   -0.5854    5.0189    4.7171 H   0  0  0  0  0  0  0  0  0  0  0  0
    0.5463    4.7974    3.4140 H   0  0  0  0  0  0  0  0  0  0  0  0
   -1.0274    4.6018    2.0100 H   0  0  0  0  0  0  0  0  0  0  0  0
   -0.9496    2.4118    2.0770 H   0  0  0  0  0  0  0  0  0  0  0  0
    0.7136    2.6743    2.1719 H   0  0  0  0  0  0  0  0  0  0  0  0
   -0.8322    0.2157    2.8137 H   0  0  0  0  0  0  0  0  0  0  0  0
    0.4079    0.5050    1.6515 H   0  0  0  0  0  0  0  0  0  0  0  0
    0.6408   -1.7314    2.4493 H   0  0  0  0  0  0  0  0  0  0  0  0
    2.0051   -2.0319    3.4643 H   0  0  0  0  0  0  0  0  0  0  0  0
    2.1971   -1.0507    2.0215 H   0  0  0  0  0  0  0  0  0  0  0  0
   -0.4341    3.7009    6.6472 H   0  0  0  0  0  0  0  0  0  0  0  0
    1.0861    4.4054    6.1582 H   0  0  0  0  0  0  0  0  0  0  0  0
    1.0351    3.0828    7.3068 H   0  0  0  0  0  0  0  0  0  0  0  0
  1  2  1  0
  1 22  1  0
  1 23  1  0
  1 24  1  0
  2 20  1  0
  2  3  1  0
  2  4  1  0
  3 25  1  0
  3 26  1  0
  3 27  1  0
  4 18  1  0
  4  5  1  0
  4 28  1  6
  5  6  1  0
  5 29  1  0
  5 30  1  0
  6  7  1  0
  6 31  1  0
  6 32  1  0
  7 18  1  0
  7  8  1  6
  7  9  1  0
  8 33  1  0
  8 34  1  0
  8 35  1  0
  9 20  1  0
  9 10  1  0
  9 36  1  1
 10 11  1  0
 10 37  1  0
 10 38  1  0
 11 12  1  0
 11 13  1  0
 11 39  1  6
 12 40  1  0
 13 14  1  6
 13 16  1  0
 13 20  1  0
 14 15  1  0
 14 41  1  0
 14 42  1  0
 15 43  1  0
 16 17  1  0
 16 44  1  0
 16 45  1  0
 17 18  1  0
 17 46  1  0
 17 47  1  0
 18 19  1  6
 19 48  1  0
 19 49  1  0
 19 50  1  0
 20 21  1  1
 21 51  1  0
 21 52  1  0
 21 53  1  0
M  END
>  <i_m_ct_stereo_status>  (25) 
1

>  <s_m_source_file>  (25) 
/var/tmp/pbs.5076255.sched01/tmp7hrp_b9g/014g_j70o.sdf

>  <i_m_source_file_index>  (25) 
12

>  <i_lp_mmshare_version>  (25) 
48012

>  <i_f3d_flags>  (25) 
0

>  <s_epik_input>  (25) 
W0NIM11DMShbQ0gzXSlbQ0BASF0oW0NIMl1bQ0gyXTIpW0NAXTMoW0NIM10pW0NIMl1bQ0gyXVtDQF0oW0NAQEhdKFtDSDJdNClbT0hdKShbQ0gyXVtPSF0pW0NAQF0xKFtDSDNdKVtDQEBIXTRbQ0BdMjNbQ0gzXQ==

>  <s_epik_cmdline>  (25) 
J2VwaWtfcHl0aG9uJywgJy1waHQnLCAnMi4wJywgJy1waCcsICc3LjAnLCAnLXRuJywgJzgnLCAnLW1hJywgJzIwMCcsICctaW1hZScsICc8aW5maWxlLm1hZT4nLCAnLW9tYWUnLCAnPG91dGZpbGUubWFlPic=

>  <r_lp_tautomer_probability>  (25) 
1

>  <r_epik_Ionization_Penalty>  (25) 
2.05141e-06

>  <r_epik_Ionization_Penalty_Charging>  (25) 
0

>  <r_epik_Ionization_Penalty_Neutral>  (25) 
2.05141e-06

>  <r_epik_State_Penalty>  (25) 
-0

>  <r_epik_Charging_Adjusted_Penalty>  (25) 
0

>  <i_epik_Tot_Q>  (25) 
0

>  <i_epik_Tot_abs_Q>  (25) 
0

>  <s_lp_Force_Field>  (25) 
OPLS3e

>  <r_lp_Energy>  (25) 
100.535

>  <b_lp_Chiralities_Consistent>  (25) 
1

>  <s_lp_Variant>  (25) 
6:0-1

>  <s_i_glide_gridfile>  (25) 
pfpi4k_grid

>  <i_i_glide_lignum>  (25) 
12

>  <i_i_glide_rotatable_bonds>  (25) 
3

>  <r_i_docking_score>  (25) 
-3.0439

>  <r_i_glide_ligand_efficiency>  (25) 
-0.144948

>  <r_i_glide_ligand_efficiency_sa>  (25) 
-0.399899

>  <r_i_glide_ligand_efficiency_ln>  (25) 
-0.752598

>  <r_i_glide_gscore>  (25) 
-3.0439

>  <r_i_glide_lipo>  (25) 
-4.99025e-06

>  <r_i_glide_hbond>  (25) 
0

>  <r_i_glide_metal>  (25) 
-0

>  <r_i_glide_rewards>  (25) 
-1.41507

>  <r_i_glide_evdw>  (25) 
-13.6648

>  <r_i_glide_ecoul>  (25) 
-7.72693

>  <r_i_glide_erotb>  (25) 
0.213459

>  <r_i_glide_esite>  (25) 
0

>  <r_i_glide_emodel>  (25) 
-25.8337

>  <r_i_glide_energy>  (25) 
-21.3918

>  <r_i_glide_einternal>  (25) 
0.520497

>  <r_i_glide_intrahb_reward>  (25) 
-0

>  <i_i_glide_confnum>  (25) 
2

>  <i_i_glide_posenum>  (25) 
39

>  <r_i_glide_eff_state_penalty>  (25) 
0

>  <ligand_id>  (25) 
6

>  <original_smiles>  (25) 
CC1(C)C2CCC3(C)C4CC(O)C(CO)(CCC23C)C41C

>  <smiles>  (25) 
[H]OC([H])([H])C12C([H])([H])C([H])([H])C3(C([H])([H])[H])C4([H])C([H])([H])C([H])([H])C3(C([H])([H])[H])C([H])(C([H])([H])C1([H])O[H])C2(C([H])([H])[H])C4(C([H])([H])[H])C([H])([H])[H]

$$$$
6:0:2
     RDKit          3D

 53 56  0  0  1  0  0  0  0  0999 V2000
    0.2224   -0.1559    7.1121 C   0  0  0  0  0  0  0  0  0  0  0  0
   -0.2875    0.2274    5.6841 C   0  0  0  0  0  0  0  0  0  0  0  0
   -0.9070   -1.1315    5.2519 C   0  0  0  0  0  0  0  0  0  0  0  0
   -1.4440    1.3267    5.7499 C   0  0  1  0  0  0  0  0  0  0  0  0
   -1.4075    2.1201    7.0809 C   0  0  0  0  0  0  0  0  0  0  0  0
   -0.3141    3.1681    6.8421 C   0  0  0  0  0  0  0  0  0  0  0  0
   -0.0334    3.1776    5.3067 C   0  0  1  0  0  0  0  0  0  0  0  0
    0.1694    4.6588    4.8791 C   0  0  0  0  0  0  0  0  0  0  0  0
    1.2245    2.2724    4.9867 C   0  0  2  0  0  0  0  0  0  0  0  0
    2.0714    2.6723    3.7605 C   0  0  0  0  0  0  0  0  0  0  0  0
    1.7699    1.6908    2.6263 C   0  0  1  0  0  0  0  0  0  0  0  0
    3.0124    1.2201    2.1194 O   0  0  0  0  0  0  0  0  0  0  0  0
    0.8178    0.5918    3.2109 C   0  0  2  0  0  0  0  0  0  0  0  0
    1.0877   -0.8343    2.5942 C   0  0  0  0  0  0  0  0  0  0  0  0
    2.4033   -1.3381    2.7280 O   0  0  0  0  0  0  0  0  0  0  0  0
   -0.6016    0.9454    2.7068 C   0  0  0  0  0  0  0  0  0  0  0  0
   -1.2628    2.2176    3.2127 C   0  0  0  0  0  0  0  0  0  0  0  0
   -1.3209    2.5228    4.7356 C   0  0  1  0  0  0  0  0  0  0  0  0
   -2.5495    3.4860    4.8408 C   0  0  0  0  0  0  0  0  0  0  0  0
    0.9516    0.7310    4.7912 C   0  0  2  0  0  0  0  0  0  0  0  0
    2.2657    0.0068    5.2284 C   0  0  0  0  0  0  0  0  0  0  0  0
   -0.5853   -0.4348    7.7850 H   0  0  0  0  0  0  0  0  0  0  0  0
    0.7888    0.6420    7.5891 H   0  0  0  0  0  0  0  0  0  0  0  0
    0.8637   -1.0359    7.1010 H   0  0  0  0  0  0  0  0  0  0  0  0
   -1.5079   -1.1130    4.3554 H   0  0  0  0  0  0  0  0  0  0  0  0
   -1.5940   -1.5013    6.0123 H   0  0  0  0  0  0  0  0  0  0  0  0
   -0.1423   -1.8975    5.1316 H   0  0  0  0  0  0  0  0  0  0  0  0
   -2.4160    0.8397    5.6521 H   0  0  0  0  0  0  0  0  0  0  0  0
   -2.3676    2.6007    7.2590 H   0  0  0  0  0  0  0  0  0  0  0  0
   -1.2639    1.5669    8.0036 H   0  0  0  0  0  0  0  0  0  0  0  0
   -0.6737    4.1313    7.2050 H   0  0  0  0  0  0  0  0  0  0  0  0
    0.5766    2.9541    7.4298 H   0  0  0  0  0  0  0  0  0  0  0  0
    0.1348    4.7947    3.7982 H   0  0  0  0  0  0  0  0  0  0  0  0
    1.1301    5.0346    5.2321 H   0  0  0  0  0  0  0  0  0  0  0  0
   -0.5905    5.3221    5.2911 H   0  0  0  0  0  0  0  0  0  0  0  0
    1.8906    2.4062    5.8390 H   0  0  0  0  0  0  0  0  0  0  0  0
    1.9698    3.6990    3.4238 H   0  0  0  0  0  0  0  0  0  0  0  0
    3.1190    2.5869    4.0444 H   0  0  0  0  0  0  0  0  0  0  0  0
    1.2929    2.2331    1.8052 H   0  0  0  0  0  0  0  0  0  0  0  0
    3.6065    1.9607    2.0407 H   0  0  0  0  0  0  0  0  0  0  0  0
    0.4238   -1.5925    2.9994 H   0  0  0  0  0  0  0  0  0  0  0  0
    0.8771   -0.8032    1.5259 H   0  0  0  0  0  0  0  0  0  0  0  0
    2.9904   -0.6595    2.4003 H   0  0  0  0  0  0  0  0  0  0  0  0
   -0.5660    1.0162    1.6200 H   0  0  0  0  0  0  0  0  0  0  0  0
   -1.3061    0.1426    2.8473 H   0  0  0  0  0  0  0  0  0  0  0  0
   -0.8249    3.0680    2.6957 H   0  0  0  0  0  0  0  0  0  0  0  0
   -2.2801    2.1698    2.8262 H   0  0  0  0  0  0  0  0  0  0  0  0
   -2.5544    4.2146    4.0319 H   0  0  0  0  0  0  0  0  0  0  0  0
   -2.5905    4.0740    5.7540 H   0  0  0  0  0  0  0  0  0  0  0  0
   -3.4891    2.9429    4.7689 H   0  0  0  0  0  0  0  0  0  0  0  0
    3.1034    0.2354    4.5780 H   0  0  0  0  0  0  0  0  0  0  0  0
    2.1494   -1.0738    5.2260 H   0  0  0  0  0  0  0  0  0  0  0  0
    2.5926    0.2958    6.2305 H   0  0  0  0  0  0  0  0  0  0  0  0
  1  2  1  0
  1 22  1  0
  1 23  1  0
  1 24  1  0
  2 20  1  0
  2  3  1  0
  2  4  1  0
  3 25  1  0
  3 26  1  0
  3 27  1  0
  4 18  1  0
  4  5  1  0
  4 28  1  6
  5  6  1  0
  5 29  1  0
  5 30  1  0
  6  7  1  0
  6 31  1  0
  6 32  1  0
  7 18  1  0
  7  8  1  6
  7  9  1  0
  8 33  1  0
  8 34  1  0
  8 35  1  0
  9 20  1  0
  9 10  1  0
  9 36  1  1
 10 11  1  0
 10 37  1  0
 10 38  1  0
 11 12  1  0
 11 13  1  0
 11 39  1  6
 12 40  1  0
 13 14  1  6
 13 16  1  0
 13 20  1  0
 14 15  1  0
 14 41  1  0
 14 42  1  0
 15 43  1  0
 16 17  1  0
 16 44  1  0
 16 45  1  0
 17 18  1  0
 17 46  1  0
 17 47  1  0
 18 19  1  6
 19 48  1  0
 19 49  1  0
 19 50  1  0
 20 21  1  1
 21 51  1  0
 21 52  1  0
 21 53  1  0
M  END
>  <i_m_ct_stereo_status>  (26) 
1

>  <s_m_source_file>  (26) 
/var/tmp/pbs.5076255.sched01/tmp7hrp_b9g/014g_j70o.sdf

>  <i_m_source_file_index>  (26) 
12

>  <i_lp_mmshare_version>  (26) 
48012

>  <i_f3d_flags>  (26) 
0

>  <s_epik_input>  (26) 
W0NIM11DMShbQ0gzXSlbQ0BASF0oW0NIMl1bQ0gyXTIpW0NAXTMoW0NIM10pW0NIMl1bQ0gyXVtDQF0oW0NAQEhdKFtDSDJdNClbT0hdKShbQ0gyXVtPSF0pW0NAQF0xKFtDSDNdKVtDQEBIXTRbQ0BdMjNbQ0gzXQ==

>  <s_epik_cmdline>  (26) 
J2VwaWtfcHl0aG9uJywgJy1waHQnLCAnMi4wJywgJy1waCcsICc3LjAnLCAnLXRuJywgJzgnLCAnLW1hJywgJzIwMCcsICctaW1hZScsICc8aW5maWxlLm1hZT4nLCAnLW9tYWUnLCAnPG91dGZpbGUubWFlPic=

>  <r_lp_tautomer_probability>  (26) 
1

>  <r_epik_Ionization_Penalty>  (26) 
2.05141e-06

>  <r_epik_Ionization_Penalty_Charging>  (26) 
0

>  <r_epik_Ionization_Penalty_Neutral>  (26) 
2.05141e-06

>  <r_epik_State_Penalty>  (26) 
-0

>  <r_epik_Charging_Adjusted_Penalty>  (26) 
0

>  <i_epik_Tot_Q>  (26) 
0

>  <i_epik_Tot_abs_Q>  (26) 
0

>  <s_lp_Force_Field>  (26) 
OPLS3e

>  <r_lp_Energy>  (26) 
100.535

>  <b_lp_Chiralities_Consistent>  (26) 
1

>  <s_lp_Variant>  (26) 
6:0-1

>  <s_i_glide_gridfile>  (26) 
pfpi4k_grid

>  <i_i_glide_lignum>  (26) 
12

>  <i_i_glide_rotatable_bonds>  (26) 
3

>  <r_i_docking_score>  (26) 
-2.93228

>  <r_i_glide_ligand_efficiency>  (26) 
-0.139633

>  <r_i_glide_ligand_efficiency_sa>  (26) 
-0.385235

>  <r_i_glide_ligand_efficiency_ln>  (26) 
-0.725001

>  <r_i_glide_gscore>  (26) 
-2.93228

>  <r_i_glide_lipo>  (26) 
0

>  <r_i_glide_hbond>  (26) 
0

>  <r_i_glide_metal>  (26) 
-0

>  <r_i_glide_rewards>  (26) 
-1.91507

>  <r_i_glide_evdw>  (26) 
-15.7112

>  <r_i_glide_ecoul>  (26) 
-2.96739

>  <r_i_glide_erotb>  (26) 
0.213459

>  <r_i_glide_esite>  (26) 
0

>  <r_i_glide_emodel>  (26) 
-26.2702

>  <r_i_glide_energy>  (26) 
-18.6786

>  <r_i_glide_einternal>  (26) 
3.81884

>  <r_i_glide_intrahb_reward>  (26) 
-0.5

>  <i_i_glide_confnum>  (26) 
2

>  <i_i_glide_posenum>  (26) 
19

>  <r_i_glide_eff_state_penalty>  (26) 
0

>  <ligand_id>  (26) 
6

>  <original_smiles>  (26) 
CC1(C)C2CCC3(C)C4CC(O)C(CO)(CCC23C)C41C

>  <smiles>  (26) 
[H]OC([H])([H])C12C([H])([H])C([H])([H])C3(C([H])([H])[H])C4([H])C([H])([H])C([H])([H])C3(C([H])([H])[H])C([H])(C([H])([H])C1([H])O[H])C2(C([H])([H])[H])C4(C([H])([H])[H])C([H])([H])[H]

$$$$
7:0:0
     RDKit          3D

 70 77  0  0  1  0  0  0  0  0999 V2000
    3.5960    0.9813   -4.7427 C   0  0  0  0  0  0  0  0  0  0  0  0
    2.6527   -0.1271   -4.2510 C   0  0  0  0  0  0  0  0  0  0  0  0
    3.3139   -1.5047   -4.1389 C   0  0  0  0  0  0  0  0  0  0  0  0
    4.4228   -1.5984   -3.0701 C   0  0  0  0  0  0  0  0  0  0  0  0
    3.9213   -2.0684   -1.6884 C   0  0  0  0  0  0  0  0  0  0  0  0
    5.0375   -2.2202   -0.6118 C   0  0  2  0  0  0  0  0  0  0  0  0
    6.2749   -3.0564   -1.1304 C   0  0  1  0  0  0  0  0  0  0  0  0
    7.1641   -2.2536   -1.8739 O   0  0  0  0  0  0  0  0  0  0  0  0
    7.0650   -3.7676   -0.0287 C   0  0  0  0  0  0  0  0  0  0  0  0
    6.8029   -3.6084    1.2906 C   0  0  0  0  0  0  0  0  0  0  0  0
    5.7248   -2.6546    1.7436 C   0  0  2  0  0  0  0  0  0  0  0  0
    6.2798   -1.3593    1.6927 O   0  0  0  0  0  0  0  0  0  0  0  0
    5.1158   -2.7815    3.1977 C   0  0  1  0  0  0  0  0  0  0  0  0
    4.7643   -1.6148    4.0946 C   0  0  2  0  0  0  0  0  0  0  0  0
    5.6566   -0.5407    4.2969 O   0  0  0  0  0  0  0  0  0  0  0  0
    4.8334   -2.4788    5.4772 C   0  0  0  0  0  0  0  0  0  0  0  0
    4.3286   -4.0308    5.3934 C   0  0  0  0  0  0  0  0  0  0  0  0
    3.8710   -4.5632    3.9470 C   0  0  1  0  0  0  0  0  0  0  0  0
    2.7410   -5.4050    4.0521 O   0  0  0  0  0  0  0  0  0  0  0  0
    3.5790   -3.2433    3.2350 C   0  0  1  0  0  0  0  0  0  0  0  0
    2.4504   -2.4244    4.3066 C   0  0  2  0  0  0  0  0  0  0  0  0
    2.0662   -1.8370    3.2778 O   0  0  0  0  0  0  0  0  0  0  0  0
    3.3360   -0.9637    3.5042 C   0  0  1  0  0  0  0  0  0  0  0  0
    2.4101   -0.7984    4.6250 C   0  0  1  0  0  0  0  0  0  0  0  0
    1.3520    0.2794    4.1335 C   0  0  1  0  0  0  0  0  0  0  0  0
    1.3677    1.3803    5.0202 O   0  0  0  0  0  0  0  0  0  0  0  0
    1.6291    0.8332    2.6563 C   0  0  0  0  0  0  0  0  0  0  0  0
    2.1701   -0.2038    1.5746 C   0  0  0  0  0  0  0  0  0  0  0  0
    3.3223   -1.0263    2.0309 N   0  0  0  0  0  0  0  0  0  0  0  0
    3.4434   -2.5721    1.7045 C   0  0  2  0  0  0  0  0  0  0  0  0
    2.5678   -3.4513    0.8089 C   0  0  0  0  0  0  0  0  0  0  0  0
    3.8691   -4.2107    0.5453 C   0  0  0  0  0  0  0  0  0  0  0  0
    4.6004   -2.8558    0.7617 C   0  0  1  0  0  0  0  0  0  0  0  0
    3.0611    1.9264   -4.8230 H   0  0  0  0  0  0  0  0  0  0  0  0
    4.0055    0.7430   -5.7230 H   0  0  0  0  0  0  0  0  0  0  0  0
    4.4201    1.1618   -4.0529 H   0  0  0  0  0  0  0  0  0  0  0  0
    2.2273    0.1452   -3.2832 H   0  0  0  0  0  0  0  0  0  0  0  0
    1.8190   -0.2020   -4.9520 H   0  0  0  0  0  0  0  0  0  0  0  0
    2.5494   -2.2674   -3.9492 H   0  0  0  0  0  0  0  0  0  0  0  0
    3.7287   -1.7487   -5.1064 H   0  0  0  0  0  0  0  0  0  0  0  0
    5.1409   -2.3149   -3.4631 H   0  0  0  0  0  0  0  0  0  0  0  0
    4.9679   -0.6633   -2.9394 H   0  0  0  0  0  0  0  0  0  0  0  0
    3.1818   -1.3535   -1.3243 H   0  0  0  0  0  0  0  0  0  0  0  0
    3.3991   -3.0074   -1.8473 H   0  0  0  0  0  0  0  0  0  0  0  0
    5.3803   -1.2001   -0.4679 H   0  0  0  0  0  0  0  0  0  0  0  0
    5.8940   -3.8555   -1.7722 H   0  0  0  0  0  0  0  0  0  0  0  0
    7.6551   -2.8084   -2.4705 H   0  0  0  0  0  0  0  0  0  0  0  0
    7.8562   -4.4290   -0.3345 H   0  0  0  0  0  0  0  0  0  0  0  0
    7.3724   -4.1334    2.0357 H   0  0  0  0  0  0  0  0  0  0  0  0
    5.5539   -0.7568    1.6226 H   0  0  0  0  0  0  0  0  0  0  0  0
    5.8677   -3.4149    3.6726 H   0  0  0  0  0  0  0  0  0  0  0  0
    5.8914   -0.2050    3.4468 H   0  0  0  0  0  0  0  0  0  0  0  0
    5.8708   -2.5013    5.8086 H   0  0  0  0  0  0  0  0  0  0  0  0
    4.3160   -1.9736    6.2903 H   0  0  0  0  0  0  0  0  0  0  0  0
    5.1328   -4.6706    5.7498 H   0  0  0  0  0  0  0  0  0  0  0  0
    3.5285   -4.1729    6.1213 H   0  0  0  0  0  0  0  0  0  0  0  0
    4.6599   -5.1450    3.4660 H   0  0  0  0  0  0  0  0  0  0  0  0
    2.0643   -4.9516    4.5334 H   0  0  0  0  0  0  0  0  0  0  0  0
    1.6305   -3.0004    4.7333 H   0  0  0  0  0  0  0  0  0  0  0  0
    2.9037   -0.5437    5.5598 H   0  0  0  0  0  0  0  0  0  0  0  0
    0.3460   -0.1480    4.1603 H   0  0  0  0  0  0  0  0  0  0  0  0
    0.8118    2.0627    4.6681 H   0  0  0  0  0  0  0  0  0  0  0  0
    0.7098    1.2649    2.2653 H   0  0  0  0  0  0  0  0  0  0  0  0
    2.3505    1.6503    2.7156 H   0  0  0  0  0  0  0  0  0  0  0  0
    1.3496   -0.8767    1.3327 H   0  0  0  0  0  0  0  0  0  0  0  0
    2.4586    0.3214    0.6675 H   0  0  0  0  0  0  0  0  0  0  0  0
    1.8313   -4.0588    1.3408 H   0  0  0  0  0  0  0  0  0  0  0  0
    2.1316   -2.9329   -0.0395 H   0  0  0  0  0  0  0  0  0  0  0  0
    4.1120   -4.9762    1.2786 H   0  0  0  0  0  0  0  0  0  0  0  0
    3.9389   -4.6271   -0.4582 H   0  0  0  0  0  0  0  0  0  0  0  0
  1  2  1  0
  1 34  1  0
  1 35  1  0
  1 36  1  0
  2  3  1  0
  2 37  1  0
  2 38  1  0
  3  4  1  0
  3 39  1  0
  3 40  1  0
  4  5  1  0
  4 41  1  0
  4 42  1  0
  5  6  1  0
  5 43  1  0
  5 44  1  0
  6 33  1  0
  6  7  1  0
  6 45  1  1
  7  8  1  0
  7  9  1  0
  7 46  1  6
  8 47  1  0
  9 10  2  0
  9 48  1  0
 10 11  1  0
 10 49  1  0
 11 33  1  0
 11 12  1  1
 11 13  1  0
 12 50  1  0
 13 20  1  0
 13 14  1  0
 13 51  1  1
 14 23  1  0
 14 15  1  1
 14 16  1  0
 15 52  1  0
 16 17  1  0
 16 53  1  0
 16 54  1  0
 17 18  1  0
 17 55  1  0
 17 56  1  0
 18 19  1  0
 18 20  1  0
 18 57  1  6
 19 58  1  0
 20 30  1  6
 20 21  1  0
 21 24  1  0
 21 22  1  0
 21 59  1  1
 23 22  1  1
 23 29  1  0
 23 24  1  0
 24 25  1  0
 24 60  1  1
 25 26  1  0
 25 27  1  0
 25 61  1  6
 26 62  1  0
 27 28  1  0
 27 63  1  0
 27 64  1  0
 28 29  1  0
 28 65  1  0
 28 66  1  0
 29 30  1  0
 30 33  1  0
 30 31  1  6
 31 32  1  0
 31 67  1  0
 31 68  1  0
 33 32  1  6
 32 69  1  0
 32 70  1  0
M  END
>  <i_m_ct_stereo_status>  (27) 
1

>  <s_m_source_file>  (27) 
/var/tmp/pbs.5076255.sched01/tmp7hrp_b9g/014g_j70o.sdf

>  <i_m_source_file_index>  (27) 
13

>  <i_lp_mmshare_version>  (27) 
48012

>  <i_f3d_flags>  (27) 
0

>  <s_epik_input>  (27) 
W0NIM11bQ0gyXVtDSDJdW0NIMl1bQ0gyXVtDQEBIXTFbQ0BASF0oW09IXSlbQ0hdPVtDSF1bQ0BAXShbT0hdKShbQ0BdMShbQ0BAXTIzW0NAXTQ1NilbQ0gyXVtDSDJdMylbQ0BIXTRbQ0BdKFtPSF0pKFtDSDJdW0NIMl1bQ0BIXTVbT0hdKUM3OFtDSF0oW0NASF02TzcpW0NAQEhdKFtPSF0pW0NIMl1bQ0gyXU4yOA==

>  <s_epik_cmdline>  (27) 
J2VwaWtfcHl0aG9uJywgJy1waHQnLCAnMi4wJywgJy1waCcsICc3LjAnLCAnLXRuJywgJzgnLCAnLW1hJywgJzIwMCcsICctaW1hZScsICc8aW5maWxlLm1hZT4nLCAnLW9tYWUnLCAnPG91dGZpbGUubWFlPic=

>  <r_epik_Ionization_Penalty>  (27) 
0.00957423

>  <r_epik_Ionization_Penalty_Charging>  (27) 
0

>  <r_epik_Ionization_Penalty_Neutral>  (27) 
0.00957423

>  <r_epik_State_Penalty>  (27) 
0.00727738

>  <r_epik_Charging_Adjusted_Penalty>  (27) 
0.00727738

>  <i_epik_Tot_Q>  (27) 
0

>  <i_epik_Tot_abs_Q>  (27) 
0

>  <s_lp_Force_Field>  (27) 
OPLS3e

>  <r_lp_Energy>  (27) 
463.406

>  <b_lp_Chiralities_Consistent>  (27) 
1

>  <s_lp_Variant>  (27) 
7:0-1

>  <s_i_glide_gridfile>  (27) 
pfpi4k_grid

>  <i_i_glide_lignum>  (27) 
13

>  <i_i_glide_rotatable_bonds>  (27) 
9

>  <r_i_docking_score>  (27) 
-3.28797

>  <r_i_glide_ligand_efficiency>  (27) 
-0.0996353

>  <r_i_glide_ligand_efficiency_sa>  (27) 
-0.319584

>  <r_i_glide_ligand_efficiency_ln>  (27) 
-0.731227

>  <r_i_glide_gscore>  (27) 
-3.28797

>  <r_i_glide_lipo>  (27) 
-0.577091

>  <r_i_glide_hbond>  (27) 
-0.354986

>  <r_i_glide_metal>  (27) 
-0

>  <r_i_glide_rewards>  (27) 
-0.778784

>  <r_i_glide_evdw>  (27) 
-23.0761

>  <r_i_glide_ecoul>  (27) 
-4.72739

>  <r_i_glide_erotb>  (27) 
0.285807

>  <r_i_glide_esite>  (27) 
0

>  <r_i_glide_emodel>  (27) 
-36.5325

>  <r_i_glide_energy>  (27) 
-27.8035

>  <r_i_glide_einternal>  (27) 
5.11173

>  <r_i_glide_intrahb_reward>  (27) 
-0.5

>  <i_i_glide_confnum>  (27) 
3

>  <i_i_glide_posenum>  (27) 
17

>  <r_i_glide_eff_state_penalty>  (27) 
0

>  <ligand_id>  (27) 
7

>  <original_smiles>  (27) 
CCCCCC1C(O)C=CC2(O)C3C4(O)CCC(O)C35C3OC46C3C(O)CCN6C53CCC123

>  <smiles>  (27) 
[H]OC1([H])C([H])=C([H])C2(O[H])C3([H])C4(O[H])C([H])([H])C([H])([H])C([H])(O[H])C35C3([H])OC46N(C([H])([H])C([H])([H])C([H])(O[H])C36[H])C53C([H])([H])C([H])([H])C23C1([H])C([H])([H])C([H])([H])C([H])([H])C([H])([H])C([H])([H])[H]

$$$$
7:0:1
     RDKit          3D

 70 77  0  0  1  0  0  0  0  0999 V2000
    2.2246    0.4412   -5.1199 C   0  0  0  0  0  0  0  0  0  0  0  0
    3.0324    0.0580   -3.8833 C   0  0  0  0  0  0  0  0  0  0  0  0
    3.6479   -1.3407   -3.9799 C   0  0  0  0  0  0  0  0  0  0  0  0
    4.6593   -1.6241   -2.8584 C   0  0  0  0  0  0  0  0  0  0  0  0
    4.0600   -2.3315   -1.6249 C   0  0  0  0  0  0  0  0  0  0  0  0
    5.0695   -2.6310   -0.4680 C   0  0  2  0  0  0  0  0  0  0  0  0
    6.4331   -3.2443   -0.9727 C   0  0  1  0  0  0  0  0  0  0  0  0
    7.3137   -2.2666   -1.4725 O   0  0  0  0  0  0  0  0  0  0  0  0
    7.1686   -4.0993    0.0743 C   0  0  0  0  0  0  0  0  0  0  0  0
    6.7594   -4.2389    1.3487 C   0  0  0  0  0  0  0  0  0  0  0  0
    5.5425   -3.4820    1.8327 C   0  0  2  0  0  0  0  0  0  0  0  0
    5.9694   -2.1635    2.0973 O   0  0  0  0  0  0  0  0  0  0  0  0
    4.8108   -3.9589    3.1474 C   0  0  1  0  0  0  0  0  0  0  0  0
    4.2526   -3.0312    4.2003 C   0  0  2  0  0  0  0  0  0  0  0  0
    5.0376   -1.9837    4.7141 O   0  0  0  0  0  0  0  0  0  0  0  0
    4.2508   -4.1491    5.3855 C   0  0  0  0  0  0  0  0  0  0  0  0
    3.9087   -5.6818    4.9410 C   0  0  0  0  0  0  0  0  0  0  0  0
    3.6570   -5.9400    3.3727 C   0  0  1  0  0  0  0  0  0  0  0  0
    2.5831   -6.8331    3.1907 O   0  0  0  0  0  0  0  0  0  0  0  0
    3.3227   -4.5210    2.9069 C   0  0  1  0  0  0  0  0  0  0  0  0
    2.0095   -4.0251    3.9616 C   0  0  2  0  0  0  0  0  0  0  0  0
    1.6824   -3.2606    3.0284 O   0  0  0  0  0  0  0  0  0  0  0  0
    2.8371   -2.3739    3.5768 C   0  0  1  0  0  0  0  0  0  0  0  0
    1.7850   -2.5025    4.5913 C   0  0  1  0  0  0  0  0  0  0  0  0
    0.6899   -1.4266    4.1950 C   0  0  1  0  0  0  0  0  0  0  0  0
    0.4814   -0.5300    5.2699 O   0  0  0  0  0  0  0  0  0  0  0  0
    1.0585   -0.5635    2.8911 C   0  0  0  0  0  0  0  0  0  0  0  0
    1.8244   -1.2993    1.6918 C   0  0  0  0  0  0  0  0  0  0  0  0
    2.9806   -2.1367    2.1299 N   0  0  0  0  0  0  0  0  0  0  0  0
    3.2780   -3.5763    1.5228 C   0  0  2  0  0  0  0  0  0  0  0  0
    2.5851   -4.3083    0.3707 C   0  0  0  0  0  0  0  0  0  0  0  0
    3.9790   -4.8931    0.1288 C   0  0  0  0  0  0  0  0  0  0  0  0
    4.5480   -3.5621    0.6953 C   0  0  1  0  0  0  0  0  0  0  0  0
    1.7944    1.4346   -5.0134 H   0  0  0  0  0  0  0  0  0  0  0  0
    1.4082   -0.2529   -5.2840 H   0  0  0  0  0  0  0  0  0  0  0  0
    2.8526    0.4395   -6.0126 H   0  0  0  0  0  0  0  0  0  0  0  0
    3.8203    0.8006   -3.7401 H   0  0  0  0  0  0  0  0  0  0  0  0
    2.3989    0.1053   -2.9945 H   0  0  0  0  0  0  0  0  0  0  0  0
    2.8660   -2.1052   -4.0041 H   0  0  0  0  0  0  0  0  0  0  0  0
    4.1675   -1.4183   -4.9329 H   0  0  0  0  0  0  0  0  0  0  0  0
    5.4115   -2.2756   -3.2963 H   0  0  0  0  0  0  0  0  0  0  0  0
    5.1735   -0.7094   -2.5576 H   0  0  0  0  0  0  0  0  0  0  0  0
    3.2476   -1.7157   -1.2265 H   0  0  0  0  0  0  0  0  0  0  0  0
    3.6062   -3.2463   -2.0005 H   0  0  0  0  0  0  0  0  0  0  0  0
    5.2903   -1.6358   -0.0881 H   0  0  0  0  0  0  0  0  0  0  0  0
    6.1963   -3.9185   -1.7930 H   0  0  0  0  0  0  0  0  0  0  0  0
    7.9602   -2.6817   -2.0204 H   0  0  0  0  0  0  0  0  0  0  0  0
    8.0409   -4.6267   -0.2754 H   0  0  0  0  0  0  0  0  0  0  0  0
    7.2892   -4.8649    2.0559 H   0  0  0  0  0  0  0  0  0  0  0  0
    5.1974   -1.6149    2.0576 H   0  0  0  0  0  0  0  0  0  0  0  0
    5.5881   -4.6014    3.5838 H   0  0  0  0  0  0  0  0  0  0  0  0
    5.2565   -1.4166    3.9911 H   0  0  0  0  0  0  0  0  0  0  0  0
    5.2434   -4.1670    5.8355 H   0  0  0  0  0  0  0  0  0  0  0  0
    3.6029   -3.8583    6.2106 H   0  0  0  0  0  0  0  0  0  0  0  0
    4.7271   -6.3250    5.2683 H   0  0  0  0  0  0  0  0  0  0  0  0
    3.0460   -6.0230    5.5204 H   0  0  0  0  0  0  0  0  0  0  0  0
    4.5391   -6.3607    2.8896 H   0  0  0  0  0  0  0  0  0  0  0  0
    2.8472   -7.6900    3.5004 H   0  0  0  0  0  0  0  0  0  0  0  0
    1.2084   -4.7393    4.1592 H   0  0  0  0  0  0  0  0  0  0  0  0
    2.1515   -2.4130    5.6132 H   0  0  0  0  0  0  0  0  0  0  0  0
   -0.2662   -1.9230    4.0179 H   0  0  0  0  0  0  0  0  0  0  0  0
    1.2723   -0.0202    5.3959 H   0  0  0  0  0  0  0  0  0  0  0  0
    0.1476   -0.1270    2.4872 H   0  0  0  0  0  0  0  0  0  0  0  0
    1.6864    0.2774    3.1914 H   0  0  0  0  0  0  0  0  0  0  0  0
    1.1018   -1.9318    1.1864 H   0  0  0  0  0  0  0  0  0  0  0  0
    2.1834   -0.5631    0.9670 H   0  0  0  0  0  0  0  0  0  0  0  0
    1.8509   -5.0603    0.6762 H   0  0  0  0  0  0  0  0  0  0  0  0
    2.1839   -3.6542   -0.3977 H   0  0  0  0  0  0  0  0  0  0  0  0
    4.2084   -5.7782    0.7189 H   0  0  0  0  0  0  0  0  0  0  0  0
    4.2096   -5.0821   -0.9160 H   0  0  0  0  0  0  0  0  0  0  0  0
  1  2  1  0
  1 34  1  0
  1 35  1  0
  1 36  1  0
  2  3  1  0
  2 37  1  0
  2 38  1  0
  3  4  1  0
  3 39  1  0
  3 40  1  0
  4  5  1  0
  4 41  1  0
  4 42  1  0
  5  6  1  0
  5 43  1  0
  5 44  1  0
  6 33  1  0
  6  7  1  0
  6 45  1  1
  7  8  1  0
  7  9  1  0
  7 46  1  6
  8 47  1  0
  9 10  2  0
  9 48  1  0
 10 11  1  0
 10 49  1  0
 11 33  1  0
 11 12  1  1
 11 13  1  0
 12 50  1  0
 13 20  1  0
 13 14  1  0
 13 51  1  1
 14 23  1  0
 14 15  1  1
 14 16  1  0
 15 52  1  0
 16 17  1  0
 16 53  1  0
 16 54  1  0
 17 18  1  0
 17 55  1  0
 17 56  1  0
 18 19  1  0
 18 20  1  0
 18 57  1  6
 19 58  1  0
 20 30  1  6
 20 21  1  0
 21 24  1  0
 21 22  1  0
 21 59  1  1
 23 22  1  6
 23 29  1  0
 23 24  1  0
 24 25  1  0
 24 60  1  1
 25 26  1  0
 25 27  1  0
 25 61  1  6
 26 62  1  0
 27 28  1  0
 27 63  1  0
 27 64  1  0
 28 29  1  0
 28 65  1  0
 28 66  1  0
 29 30  1  0
 30 33  1  0
 30 31  1  6
 31 32  1  0
 31 67  1  0
 31 68  1  0
 33 32  1  6
 32 69  1  0
 32 70  1  0
M  END
>  <i_m_ct_stereo_status>  (28) 
1

>  <s_m_source_file>  (28) 
/var/tmp/pbs.5076255.sched01/tmp7hrp_b9g/014g_j70o.sdf

>  <i_m_source_file_index>  (28) 
13

>  <i_lp_mmshare_version>  (28) 
48012

>  <i_f3d_flags>  (28) 
0

>  <s_epik_input>  (28) 
W0NIM11bQ0gyXVtDSDJdW0NIMl1bQ0gyXVtDQEBIXTFbQ0BASF0oW09IXSlbQ0hdPVtDSF1bQ0BAXShbT0hdKShbQ0BdMShbQ0BAXTIzW0NAXTQ1NilbQ0gyXVtDSDJdMylbQ0BIXTRbQ0BdKFtPSF0pKFtDSDJdW0NIMl1bQ0BIXTVbT0hdKUM3OFtDSF0oW0NASF02TzcpW0NAQEhdKFtPSF0pW0NIMl1bQ0gyXU4yOA==

>  <s_epik_cmdline>  (28) 
J2VwaWtfcHl0aG9uJywgJy1waHQnLCAnMi4wJywgJy1waCcsICc3LjAnLCAnLXRuJywgJzgnLCAnLW1hJywgJzIwMCcsICctaW1hZScsICc8aW5maWxlLm1hZT4nLCAnLW9tYWUnLCAnPG91dGZpbGUubWFlPic=

>  <r_epik_Ionization_Penalty>  (28) 
0.00957423

>  <r_epik_Ionization_Penalty_Charging>  (28) 
0

>  <r_epik_Ionization_Penalty_Neutral>  (28) 
0.00957423

>  <r_epik_State_Penalty>  (28) 
0.00727738

>  <r_epik_Charging_Adjusted_Penalty>  (28) 
0.00727738

>  <i_epik_Tot_Q>  (28) 
0

>  <i_epik_Tot_abs_Q>  (28) 
0

>  <s_lp_Force_Field>  (28) 
OPLS3e

>  <r_lp_Energy>  (28) 
463.406

>  <b_lp_Chiralities_Consistent>  (28) 
1

>  <s_lp_Variant>  (28) 
7:0-1

>  <s_i_glide_gridfile>  (28) 
pfpi4k_grid

>  <i_i_glide_lignum>  (28) 
13

>  <i_i_glide_rotatable_bonds>  (28) 
9

>  <r_i_docking_score>  (28) 
-3.16644

>  <r_i_glide_ligand_efficiency>  (28) 
-0.0959527

>  <r_i_glide_ligand_efficiency_sa>  (28) 
-0.307772

>  <r_i_glide_ligand_efficiency_ln>  (28) 
-0.7042

>  <r_i_glide_gscore>  (28) 
-3.16644

>  <r_i_glide_lipo>  (28) 
-0.551048

>  <r_i_glide_hbond>  (28) 
-0.16

>  <r_i_glide_metal>  (28) 
-0

>  <r_i_glide_rewards>  (28) 
-0.775647

>  <r_i_glide_evdw>  (28) 
-24.6524

>  <r_i_glide_ecoul>  (28) 
-4.88621

>  <r_i_glide_erotb>  (28) 
0.285807

>  <r_i_glide_esite>  (28) 
0

>  <r_i_glide_emodel>  (28) 
-38.2856

>  <r_i_glide_energy>  (28) 
-29.5386

>  <r_i_glide_einternal>  (28) 
4.70834

>  <r_i_glide_intrahb_reward>  (28) 
-0.5

>  <i_i_glide_confnum>  (28) 
3

>  <i_i_glide_posenum>  (28) 
35

>  <r_i_glide_eff_state_penalty>  (28) 
0

>  <ligand_id>  (28) 
7

>  <original_smiles>  (28) 
CCCCCC1C(O)C=CC2(O)C3C4(O)CCC(O)C35C3OC46C3C(O)CCN6C53CCC123

>  <smiles>  (28) 
[H]OC1([H])C([H])=C([H])C2(O[H])C3([H])C4(O[H])C([H])([H])C([H])([H])C([H])(O[H])C35C3([H])OC46N(C([H])([H])C([H])([H])C([H])(O[H])C36[H])C53C([H])([H])C([H])([H])C23C1([H])C([H])([H])C([H])([H])C([H])([H])C([H])([H])C([H])([H])[H]

$$$$
7:0:2
     RDKit          3D

 70 77  0  0  1  0  0  0  0  0999 V2000
    2.2143    0.4516   -5.1212 C   0  0  0  0  0  0  0  0  0  0  0  0
    3.0241    0.0833   -3.8796 C   0  0  0  0  0  0  0  0  0  0  0  0
    3.6254   -1.3203   -3.9575 C   0  0  0  0  0  0  0  0  0  0  0  0
    4.6594   -1.5868   -2.8509 C   0  0  0  0  0  0  0  0  0  0  0  0
    4.0710   -2.2241   -1.5740 C   0  0  0  0  0  0  0  0  0  0  0  0
    5.1032   -2.5157   -0.4373 C   0  0  2  0  0  0  0  0  0  0  0  0
    6.4273   -3.1967   -0.9620 C   0  0  1  0  0  0  0  0  0  0  0  0
    7.3261   -2.2709   -1.5093 O   0  0  0  0  0  0  0  0  0  0  0  0
    7.1585   -4.0456    0.0865 C   0  0  0  0  0  0  0  0  0  0  0  0
    6.7863   -4.1168    1.3795 C   0  0  0  0  0  0  0  0  0  0  0  0
    5.6142   -3.2961    1.8770 C   0  0  2  0  0  0  0  0  0  0  0  0
    6.1010   -1.9813    2.0798 O   0  0  0  0  0  0  0  0  0  0  0  0
    4.9052   -3.6932    3.2338 C   0  0  1  0  0  0  0  0  0  0  0  0
    4.4075   -2.7082    4.2655 C   0  0  2  0  0  0  0  0  0  0  0  0
    5.2490   -1.6723    4.7128 O   0  0  0  0  0  0  0  0  0  0  0  0
    4.4030   -3.7773    5.4950 C   0  0  0  0  0  0  0  0  0  0  0  0
    3.9979   -5.3149    5.1204 C   0  0  0  0  0  0  0  0  0  0  0  0
    3.6916   -5.6202    3.5701 C   0  0  1  0  0  0  0  0  0  0  0  0
    2.5866   -6.4877    3.4517 O   0  0  0  0  0  0  0  0  0  0  0  0
    3.3939   -4.2142    3.0611 C   0  0  1  0  0  0  0  0  0  0  0  0
    2.1251   -3.6323    4.1290 C   0  0  2  0  0  0  0  0  0  0  0  0
    1.8016   -2.8986    3.1741 O   0  0  0  0  0  0  0  0  0  0  0  0
    2.9969   -2.0275    3.6578 C   0  0  1  0  0  0  0  0  0  0  0  0
    1.9701   -2.0798    4.7036 C   0  0  1  0  0  0  0  0  0  0  0  0
    0.9008   -0.9810    4.2921 C   0  0  1  0  0  0  0  0  0  0  0  0
    0.7765   -0.0376    5.3396 O   0  0  0  0  0  0  0  0  0  0  0  0
    1.2630   -0.1835    2.9509 C   0  0  0  0  0  0  0  0  0  0  0  0
    1.9513   -1.0016    1.7624 C   0  0  0  0  0  0  0  0  0  0  0  0
    3.1062   -1.8467    2.1997 N   0  0  0  0  0  0  0  0  0  0  0  0
    3.3353   -3.3201    1.6431 C   0  0  2  0  0  0  0  0  0  0  0  0
    2.5886   -4.0706    0.5419 C   0  0  0  0  0  0  0  0  0  0  0  0
    3.9556   -4.7152    0.2822 C   0  0  0  0  0  0  0  0  0  0  0  0
    4.5808   -3.3844    0.7763 C   0  0  1  0  0  0  0  0  0  0  0  0
    1.7881    1.4498   -5.0285 H   0  0  0  0  0  0  0  0  0  0  0  0
    1.3963   -0.2507   -5.2713 H   0  0  0  0  0  0  0  0  0  0  0  0
    2.8381    0.4353   -6.0156 H   0  0  0  0  0  0  0  0  0  0  0  0
    3.8170    0.8216   -3.7519 H   0  0  0  0  0  0  0  0  0  0  0  0
    2.3913    0.1312   -2.9947 H   0  0  0  0  0  0  0  0  0  0  0  0
    2.8376   -2.0788   -3.9459 H   0  0  0  0  0  0  0  0  0  0  0  0
    4.1245   -1.4247   -4.9184 H   0  0  0  0  0  0  0  0  0  0  0  0
    5.3914   -2.2703   -3.2799 H   0  0  0  0  0  0  0  0  0  0  0  0
    5.2009   -0.6731   -2.5986 H   0  0  0  0  0  0  0  0  0  0  0  0
    3.2922   -1.5643   -1.1773 H   0  0  0  0  0  0  0  0  0  0  0  0
    3.5738   -3.1363   -1.8999 H   0  0  0  0  0  0  0  0  0  0  0  0
    5.3685   -1.5167   -0.1004 H   0  0  0  0  0  0  0  0  0  0  0  0
    6.1444   -3.8906   -1.7512 H   0  0  0  0  0  0  0  0  0  0  0  0
    7.9634   -2.7225   -2.0384 H   0  0  0  0  0  0  0  0  0  0  0  0
    8.0025   -4.6156   -0.2620 H   0  0  0  0  0  0  0  0  0  0  0  0
    7.3185   -4.7265    2.0940 H   0  0  0  0  0  0  0  0  0  0  0  0
    5.3506   -1.4035    2.0184 H   0  0  0  0  0  0  0  0  0  0  0  0
    5.6713   -4.3455    3.6760 H   0  0  0  0  0  0  0  0  0  0  0  0
    5.4773   -1.1556    3.9550 H   0  0  0  0  0  0  0  0  0  0  0  0
    5.4077   -3.8134    5.9199 H   0  0  0  0  0  0  0  0  0  0  0  0
    3.7895   -3.4336    6.3272 H   0  0  0  0  0  0  0  0  0  0  0  0
    4.8054   -5.9726    5.4510 H   0  0  0  0  0  0  0  0  0  0  0  0
    3.1435   -5.6058    5.7396 H   0  0  0  0  0  0  0  0  0  0  0  0
    4.5464   -6.0923    3.0820 H   0  0  0  0  0  0  0  0  0  0  0  0
    2.8376   -7.3466    3.7694 H   0  0  0  0  0  0  0  0  0  0  0  0
    1.3091   -4.3098    4.3758 H   0  0  0  0  0  0  0  0  0  0  0  0
    2.3686   -1.9583    5.7096 H   0  0  0  0  0  0  0  0  0  0  0  0
   -0.0795   -1.4436    4.1606 H   0  0  0  0  0  0  0  0  0  0  0  0
    0.2412    0.6877    5.0413 H   0  0  0  0  0  0  0  0  0  0  0  0
    0.3551    0.2708    2.5525 H   0  0  0  0  0  0  0  0  0  0  0  0
    1.9290    0.6483    3.2005 H   0  0  0  0  0  0  0  0  0  0  0  0
    1.1931   -1.6393    1.2981 H   0  0  0  0  0  0  0  0  0  0  0  0
    2.2987   -0.3104    0.9889 H   0  0  0  0  0  0  0  0  0  0  0  0
    1.8440   -4.7848    0.8980 H   0  0  0  0  0  0  0  0  0  0  0  0
    2.1910   -3.4349   -0.2422 H   0  0  0  0  0  0  0  0  0  0  0  0
    4.1743   -5.5844    0.9014 H   0  0  0  0  0  0  0  0  0  0  0  0
    4.1351   -4.9606   -0.7618 H   0  0  0  0  0  0  0  0  0  0  0  0
  1  2  1  0
  1 34  1  0
  1 35  1  0
  1 36  1  0
  2  3  1  0
  2 37  1  0
  2 38  1  0
  3  4  1  0
  3 39  1  0
  3 40  1  0
  4  5  1  0
  4 41  1  0
  4 42  1  0
  5  6  1  0
  5 43  1  0
  5 44  1  0
  6 33  1  0
  6  7  1  0
  6 45  1  1
  7  8  1  0
  7  9  1  0
  7 46  1  6
  8 47  1  0
  9 10  2  0
  9 48  1  0
 10 11  1  0
 10 49  1  0
 11 33  1  0
 11 12  1  1
 11 13  1  0
 12 50  1  0
 13 20  1  0
 13 14  1  0
 13 51  1  1
 14 23  1  0
 14 15  1  1
 14 16  1  0
 15 52  1  0
 16 17  1  0
 16 53  1  0
 16 54  1  0
 17 18  1  0
 17 55  1  0
 17 56  1  0
 18 19  1  0
 18 20  1  0
 18 57  1  6
 19 58  1  0
 20 30  1  6
 20 21  1  0
 21 24  1  0
 21 22  1  0
 21 59  1  1
 23 22  1  6
 23 29  1  0
 23 24  1  0
 24 25  1  0
 24 60  1  1
 25 26  1  0
 25 27  1  0
 25 61  1  6
 26 62  1  0
 27 28  1  0
 27 63  1  0
 27 64  1  0
 28 29  1  0
 28 65  1  0
 28 66  1  0
 29 30  1  0
 30 33  1  0
 30 31  1  6
 31 32  1  0
 31 67  1  0
 31 68  1  0
 33 32  1  6
 32 69  1  0
 32 70  1  0
M  END
>  <i_m_ct_stereo_status>  (29) 
1

>  <s_m_source_file>  (29) 
/var/tmp/pbs.5076255.sched01/tmp7hrp_b9g/014g_j70o.sdf

>  <i_m_source_file_index>  (29) 
13

>  <i_lp_mmshare_version>  (29) 
48012

>  <i_f3d_flags>  (29) 
0

>  <s_epik_input>  (29) 
W0NIM11bQ0gyXVtDSDJdW0NIMl1bQ0gyXVtDQEBIXTFbQ0BASF0oW09IXSlbQ0hdPVtDSF1bQ0BAXShbT0hdKShbQ0BdMShbQ0BAXTIzW0NAXTQ1NilbQ0gyXVtDSDJdMylbQ0BIXTRbQ0BdKFtPSF0pKFtDSDJdW0NIMl1bQ0BIXTVbT0hdKUM3OFtDSF0oW0NASF02TzcpW0NAQEhdKFtPSF0pW0NIMl1bQ0gyXU4yOA==

>  <s_epik_cmdline>  (29) 
J2VwaWtfcHl0aG9uJywgJy1waHQnLCAnMi4wJywgJy1waCcsICc3LjAnLCAnLXRuJywgJzgnLCAnLW1hJywgJzIwMCcsICctaW1hZScsICc8aW5maWxlLm1hZT4nLCAnLW9tYWUnLCAnPG91dGZpbGUubWFlPic=

>  <r_epik_Ionization_Penalty>  (29) 
0.00957423

>  <r_epik_Ionization_Penalty_Charging>  (29) 
0

>  <r_epik_Ionization_Penalty_Neutral>  (29) 
0.00957423

>  <r_epik_State_Penalty>  (29) 
0.00727738

>  <r_epik_Charging_Adjusted_Penalty>  (29) 
0.00727738

>  <i_epik_Tot_Q>  (29) 
0

>  <i_epik_Tot_abs_Q>  (29) 
0

>  <s_lp_Force_Field>  (29) 
OPLS3e

>  <r_lp_Energy>  (29) 
463.406

>  <b_lp_Chiralities_Consistent>  (29) 
1

>  <s_lp_Variant>  (29) 
7:0-1

>  <s_i_glide_gridfile>  (29) 
pfpi4k_grid

>  <i_i_glide_lignum>  (29) 
13

>  <i_i_glide_rotatable_bonds>  (29) 
9

>  <r_i_docking_score>  (29) 
-3.12796

>  <r_i_glide_ligand_efficiency>  (29) 
-0.0947867

>  <r_i_glide_ligand_efficiency_sa>  (29) 
-0.304032

>  <r_i_glide_ligand_efficiency_ln>  (29) 
-0.695642

>  <r_i_glide_gscore>  (29) 
-3.12796

>  <r_i_glide_lipo>  (29) 
-0.553896

>  <r_i_glide_hbond>  (29) 
-0.16

>  <r_i_glide_metal>  (29) 
-0

>  <r_i_glide_rewards>  (29) 
-0.775624

>  <r_i_glide_evdw>  (29) 
-23.8321

>  <r_i_glide_ecoul>  (29) 
-4.88427

>  <r_i_glide_erotb>  (29) 
0.285807

>  <r_i_glide_esite>  (29) 
0

>  <r_i_glide_emodel>  (29) 
-37.2223

>  <r_i_glide_energy>  (29) 
-28.7164

>  <r_i_glide_einternal>  (29) 
5.03948

>  <r_i_glide_intrahb_reward>  (29) 
-0.5

>  <i_i_glide_confnum>  (29) 
3

>  <i_i_glide_posenum>  (29) 
1

>  <r_i_glide_eff_state_penalty>  (29) 
0

>  <ligand_id>  (29) 
7

>  <original_smiles>  (29) 
CCCCCC1C(O)C=CC2(O)C3C4(O)CCC(O)C35C3OC46C3C(O)CCN6C53CCC123

>  <smiles>  (29) 
[H]OC1([H])C([H])=C([H])C2(O[H])C3([H])C4(O[H])C([H])([H])C([H])([H])C([H])(O[H])C35C3([H])OC46N(C([H])([H])C([H])([H])C([H])(O[H])C36[H])C53C([H])([H])C([H])([H])C23C1([H])C([H])([H])C([H])([H])C([H])([H])C([H])([H])C([H])([H])[H]

$$$$
7:1:0
     RDKit          3D

 71 78  0  0  1  0  0  0  0  0999 V2000
    5.4471   -0.7442    0.8481 C   0  0  0  0  0  0  0  0  0  0  0  0
    5.7108   -1.8808    1.8285 C   0  0  0  0  0  0  0  0  0  0  0  0
    4.4696   -2.1978    2.6831 C   0  0  0  0  0  0  0  0  0  0  0  0
    4.7768   -3.3938    3.5725 C   0  0  0  0  0  0  0  0  0  0  0  0
    3.5641   -3.9340    4.4125 C   0  0  0  0  0  0  0  0  0  0  0  0
    3.7320   -5.2252    5.2946 C   0  0  2  0  0  0  0  0  0  0  0  0
    4.8893   -5.0989    6.3433 C   0  0  1  0  0  0  0  0  0  0  0  0
    4.4916   -4.2814    7.4211 O   0  0  0  0  0  0  0  0  0  0  0  0
    5.4395   -6.4330    6.8575 C   0  0  0  0  0  0  0  0  0  0  0  0
    4.9216   -7.6357    6.5315 C   0  0  0  0  0  0  0  0  0  0  0  0
    3.6950   -7.7179    5.6509 C   0  0  2  0  0  0  0  0  0  0  0  0
    2.6068   -7.4494    6.5111 O   0  0  0  0  0  0  0  0  0  0  0  0
    3.3919   -9.0591    4.8498 C   0  0  1  0  0  0  0  0  0  0  0  0
    2.0306   -9.6720    4.8435 C   0  0  2  0  0  0  0  0  0  0  0  0
    1.4105   -9.8275    6.1086 O   0  0  0  0  0  0  0  0  0  0  0  0
    2.5003  -11.1573    4.3901 C   0  0  0  0  0  0  0  0  0  0  0  0
    3.7461  -11.2371    3.3471 C   0  0  0  0  0  0  0  0  0  0  0  0
    4.4226   -9.8611    2.9107 C   0  0  1  0  0  0  0  0  0  0  0  0
    4.7297   -9.8193    1.5319 O   0  0  0  0  0  0  0  0  0  0  0  0
    3.3147   -8.8985    3.2456 C   0  0  1  0  0  0  0  0  0  0  0  0
    1.9236   -9.5139    2.3445 C   0  0  2  0  0  0  0  0  0  0  0  0
    1.4427   -8.3516    2.4258 O   0  0  0  0  0  0  0  0  0  0  0  0
    1.0696   -8.7441    3.8773 C   0  0  1  0  0  0  0  0  0  0  0  0
    0.3673   -9.5696    2.9020 C   0  0  1  0  0  0  0  0  0  0  0  0
   -0.9016   -8.6958    2.5183 C   0  0  1  0  0  0  0  0  0  0  0  0
   -2.0812   -9.3858    2.8603 O   0  0  0  0  0  0  0  0  0  0  0  0
   -0.9659   -7.2523    3.2296 C   0  0  0  0  0  0  0  0  0  0  0  0
    0.3756   -6.4182    3.6272 C   0  0  0  0  0  0  0  0  0  0  0  0
    1.5442   -7.3440    3.7793 N   0  0  1  0  0  0  0  0  0  0  0  0
    3.0952   -7.2914    3.4875 C   0  0  2  0  0  0  0  0  0  0  0  0
    3.8681   -6.4587    2.4882 C   0  0  0  0  0  0  0  0  0  0  0  0
    4.9783   -6.6821    3.5635 C   0  0  0  0  0  0  0  0  0  0  0  0
    3.8500   -6.6466    4.6087 C   0  0  1  0  0  0  0  0  0  0  0  0
    6.3442   -0.5023    0.2759 H   0  0  0  0  0  0  0  0  0  0  0  0
    5.1343    0.1449    1.3942 H   0  0  0  0  0  0  0  0  0  0  0  0
    4.6513   -1.0160    0.1523 H   0  0  0  0  0  0  0  0  0  0  0  0
    6.0457   -2.7588    1.2652 H   0  0  0  0  0  0  0  0  0  0  0  0
    6.5493   -1.6186    2.4735 H   0  0  0  0  0  0  0  0  0  0  0  0
    4.1470   -1.3335    3.2649 H   0  0  0  0  0  0  0  0  0  0  0  0
    3.6573   -2.4872    2.0178 H   0  0  0  0  0  0  0  0  0  0  0  0
    5.1373   -4.1205    2.8234 H   0  0  0  0  0  0  0  0  0  0  0  0
    5.6323   -3.1499    4.2120 H   0  0  0  0  0  0  0  0  0  0  0  0
    3.2511   -3.1304    5.0817 H   0  0  0  0  0  0  0  0  0  0  0  0
    2.6889   -4.0682    3.7753 H   0  0  0  0  0  0  0  0  0  0  0  0
    2.8032   -5.1992    5.8640 H   0  0  0  0  0  0  0  0  0  0  0  0
    5.7566   -4.6300    5.8886 H   0  0  0  0  0  0  0  0  0  0  0  0
    3.8146   -4.7367    7.9090 H   0  0  0  0  0  0  0  0  0  0  0  0
    6.3306   -6.3598    7.4589 H   0  0  0  0  0  0  0  0  0  0  0  0
    5.3565   -8.5695    6.8681 H   0  0  0  0  0  0  0  0  0  0  0  0
    2.3588   -8.2765    6.9181 H   0  0  0  0  0  0  0  0  0  0  0  0
    4.1262   -9.7659    5.2785 H   0  0  0  0  0  0  0  0  0  0  0  0
    1.4812  -10.7436    6.3807 H   0  0  0  0  0  0  0  0  0  0  0  0
    2.8083  -11.6928    5.2912 H   0  0  0  0  0  0  0  0  0  0  0  0
    1.6694  -11.7626    4.0269 H   0  0  0  0  0  0  0  0  0  0  0  0
    4.5222  -11.8610    3.7790 H   0  0  0  0  0  0  0  0  0  0  0  0
    3.4062  -11.7796    2.4711 H   0  0  0  0  0  0  0  0  0  0  0  0
    5.3432   -9.6749    3.4777 H   0  0  0  0  0  0  0  0  0  0  0  0
    4.5839  -10.7128    1.1449 H   0  0  0  0  0  0  0  0  0  0  0  0
    2.0569   -9.8292    1.3001 H   0  0  0  0  0  0  0  0  0  0  0  0
    0.0983  -10.5410    3.2915 H   0  0  0  0  0  0  0  0  0  0  0  0
   -0.9483   -8.5293    1.4395 H   0  0  0  0  0  0  0  0  0  0  0  0
   -2.0060   -9.8188    3.7234 H   0  0  0  0  0  0  0  0  0  0  0  0
   -1.6140   -6.6422    2.5978 H   0  0  0  0  0  0  0  0  0  0  0  0
   -1.5301   -7.3579    4.1695 H   0  0  0  0  0  0  0  0  0  0  0  0
    0.5962   -5.6151    2.9170 H   0  0  0  0  0  0  0  0  0  0  0  0
    0.2128   -5.9429    4.5988 H   0  0  0  0  0  0  0  0  0  0  0  0
    4.1166   -6.9602    1.5512 H   0  0  0  0  0  0  0  0  0  0  0  0
    3.4589   -5.4662    2.3077 H   0  0  0  0  0  0  0  0  0  0  0  0
    5.4718   -7.6568    3.4772 H   0  0  0  0  0  0  0  0  0  0  0  0
    5.7452   -5.9248    3.7355 H   0  0  0  0  0  0  0  0  0  0  0  0
    1.4781   -7.4909    2.7958 H   0  0  0  0  0  0  0  0  0  0  0  0
  1  2  1  0
  1 34  1  0
  1 35  1  0
  1 36  1  0
  2  3  1  0
  2 37  1  0
  2 38  1  0
  3  4  1  0
  3 39  1  0
  3 40  1  0
  4  5  1  0
  4 41  1  0
  4 42  1  0
  5  6  1  0
  5 43  1  0
  5 44  1  0
  6 33  1  0
  6  7  1  0
  6 45  1  1
  7  8  1  0
  7  9  1  0
  7 46  1  6
  8 47  1  0
  9 10  2  0
  9 48  1  0
 10 11  1  0
 10 49  1  0
 11 33  1  0
 11 12  1  1
 11 13  1  0
 12 50  1  0
 13 20  1  0
 13 14  1  0
 13 51  1  6
 14 23  1  0
 14 15  1  1
 14 16  1  0
 15 52  1  0
 16 17  1  0
 16 53  1  0
 16 54  1  0
 17 18  1  0
 17 55  1  0
 17 56  1  0
 18 19  1  0
 18 20  1  0
 18 57  1  1
 19 58  1  0
 20 30  1  1
 20 21  1  0
 21 24  1  0
 21 22  1  0
 21 59  1  6
 23 22  1  6
 23 29  1  0
 23 24  1  0
 24 25  1  0
 24 60  1  1
 25 26  1  0
 25 27  1  0
 25 61  1  6
 26 62  1  0
 27 28  1  0
 27 63  1  0
 27 64  1  0
 28 29  1  0
 28 65  1  0
 28 66  1  0
 29 30  1  0
 29 71  1  1
 30 33  1  0
 30 31  1  6
 31 32  1  0
 31 67  1  0
 31 68  1  0
 33 32  1  6
 32 69  1  0
 32 70  1  0
M  CHG  1  29   1
M  END
>  <i_m_ct_stereo_status>  (30) 
1

>  <s_m_source_file>  (30) 
/var/tmp/pbs.5076255.sched01/tmp7hrp_b9g/014g_j70o.sdf

>  <i_m_source_file_index>  (30) 
14

>  <i_lp_mmshare_version>  (30) 
48012

>  <i_f3d_flags>  (30) 
0

>  <s_epik_input>  (30) 
W0NIM11bQ0gyXVtDSDJdW0NIMl1bQ0gyXVtDQEBIXTFbQ0BASF0oW09IXSlbQ0hdPVtDSF1bQ0BAXShbT0hdKShbQ0BdMShbQ0BAXTIzW0NAXTQ1NilbQ0gyXVtDSDJdMylbQ0BIXTRbQ0BdKFtPSF0pKFtDSDJdW0NIMl1bQ0BIXTVbT0hdKUM3OFtDSF0oW0NASF02TzcpW0NAQEhdKFtPSF0pW0NIMl1bQ0gyXU4yOA==

>  <s_epik_cmdline>  (30) 
J2VwaWtfcHl0aG9uJywgJy1waHQnLCAnMi4wJywgJy1waCcsICc3LjAnLCAnLXRuJywgJzgnLCAnLW1hJywgJzIwMCcsICctaW1hZScsICc8aW5maWxlLm1hZT4nLCAnLW9tYWUnLCAnPG91dGZpbGUubWFlPic=

>  <r_epik_Ionization_Penalty>  (30) 
2.44897

>  <r_epik_Ionization_Penalty_Charging>  (30) 
2.44897

>  <r_epik_Ionization_Penalty_Neutral>  (30) 
2.40606e-06

>  <r_epik_State_Penalty>  (30) 
2.61031

>  <r_epik_Charging_Adjusted_Penalty>  (30) 
5.05928

>  <i_epik_Tot_Q>  (30) 
1

>  <i_epik_Tot_abs_Q>  (30) 
1

>  <s_lp_Force_Field>  (30) 
OPLS3e

>  <r_lp_Energy>  (30) 
426.517

>  <b_lp_Chiralities_Consistent>  (30) 
1

>  <s_lp_Variant>  (30) 
7:0-2

>  <s_i_glide_gridfile>  (30) 
pfpi4k_grid

>  <i_i_glide_lignum>  (30) 
14

>  <i_i_glide_rotatable_bonds>  (30) 
9

>  <r_i_docking_score>  (30) 
-3.80968

>  <r_i_glide_ligand_efficiency>  (30) 
-0.115445

>  <r_i_glide_ligand_efficiency_sa>  (30) 
-0.370293

>  <r_i_glide_ligand_efficiency_ln>  (30) 
-0.847253

>  <r_i_glide_gscore>  (30) 
-3.80968

>  <r_i_glide_lipo>  (30) 
-0.366119

>  <r_i_glide_hbond>  (30) 
-0.288351

>  <r_i_glide_metal>  (30) 
-0

>  <r_i_glide_rewards>  (30) 
-0.768752

>  <r_i_glide_evdw>  (30) 
-19.4178

>  <r_i_glide_ecoul>  (30) 
-11.1581

>  <r_i_glide_erotb>  (30) 
0.284669

>  <r_i_glide_esite>  (30) 
-0.0265191

>  <r_i_glide_emodel>  (30) 
-39.5516

>  <r_i_glide_energy>  (30) 
-30.5759

>  <r_i_glide_einternal>  (30) 
6.99248

>  <r_i_glide_intrahb_reward>  (30) 
-0.5

>  <i_i_glide_confnum>  (30) 
4

>  <i_i_glide_posenum>  (30) 
26

>  <r_i_glide_eff_state_penalty>  (30) 
0

>  <ligand_id>  (30) 
7

>  <original_smiles>  (30) 
CCCCCC1C(O)C=CC2(O)C3C4(O)CCC(O)C35C3OC46C3C(O)CCN6C53CCC123

>  <smiles>  (30) 
[H]OC1([H])C([H])=C([H])C2(O[H])C3([H])C4(O[H])C([H])([H])C([H])([H])C([H])(O[H])C35C3([H])OC46C3([H])C([H])(O[H])C([H])([H])C([H])([H])[N+]6([H])C53C([H])([H])C([H])([H])C23C1([H])C([H])([H])C([H])([H])C([H])([H])C([H])([H])C([H])([H])[H]

$$$$
7:1:1
     RDKit          3D

 71 78  0  0  1  0  0  0  0  0999 V2000
    5.7584   -0.2983    3.5370 C   0  0  0  0  0  0  0  0  0  0  0  0
    5.5637   -1.4175    2.5066 C   0  0  0  0  0  0  0  0  0  0  0  0
    4.3278   -2.2666    2.8437 C   0  0  0  0  0  0  0  0  0  0  0  0
    4.6572   -3.2954    3.9229 C   0  0  0  0  0  0  0  0  0  0  0  0
    3.4039   -3.9157    4.6046 C   0  0  0  0  0  0  0  0  0  0  0  0
    3.5771   -5.2174    5.4621 C   0  0  2  0  0  0  0  0  0  0  0  0
    4.7314   -5.0989    6.5182 C   0  0  1  0  0  0  0  0  0  0  0  0
    4.3263   -4.3195    7.6231 O   0  0  0  0  0  0  0  0  0  0  0  0
    5.2960   -6.4392    7.0082 C   0  0  0  0  0  0  0  0  0  0  0  0
    4.7916   -7.6418    6.6466 C   0  0  0  0  0  0  0  0  0  0  0  0
    3.5683   -7.7176    5.7610 C   0  0  2  0  0  0  0  0  0  0  0  0
    2.4667   -7.4779    6.6245 O   0  0  0  0  0  0  0  0  0  0  0  0
    3.2858   -9.0408    4.9226 C   0  0  1  0  0  0  0  0  0  0  0  0
    1.9336   -9.6785    4.9002 C   0  0  2  0  0  0  0  0  0  0  0  0
    1.2925   -9.8489    6.1534 O   0  0  0  0  0  0  0  0  0  0  0  0
    2.4220  -11.1441    4.4107 C   0  0  0  0  0  0  0  0  0  0  0  0
    3.6808  -11.1952    3.3848 C   0  0  0  0  0  0  0  0  0  0  0  0
    4.3528   -9.8066    2.9769 C   0  0  1  0  0  0  0  0  0  0  0  0
    4.6822   -9.7646    1.6013 O   0  0  0  0  0  0  0  0  0  0  0  0
    3.2170   -8.8406    3.3184 C   0  0  1  0  0  0  0  0  0  0  0  0
    1.8532   -9.4421    2.4007 C   0  0  2  0  0  0  0  0  0  0  0  0
    1.3432   -8.2903    2.4972 O   0  0  0  0  0  0  0  0  0  0  0  0
    0.9753   -8.7276    3.9291 C   0  0  1  0  0  0  0  0  0  0  0  0
    0.2888   -9.5470    2.9332 C   0  0  1  0  0  0  0  0  0  0  0  0
   -0.9903   -8.6759    2.5695 C   0  0  1  0  0  0  0  0  0  0  0  0
   -2.1604   -9.4135    2.8684 O   0  0  0  0  0  0  0  0  0  0  0  0
   -1.0855   -7.2453    3.3104 C   0  0  0  0  0  0  0  0  0  0  0  0
    0.2343   -6.4041    3.7409 C   0  0  0  0  0  0  0  0  0  0  0  0
    1.4195   -7.3151    3.8627 N   0  0  1  0  0  0  0  0  0  0  0  0
    2.9952   -7.2464    3.5924 C   0  0  2  0  0  0  0  0  0  0  0  0
    3.7950   -6.3676    2.6230 C   0  0  0  0  0  0  0  0  0  0  0  0
    4.8847   -6.6067    3.7061 C   0  0  0  0  0  0  0  0  0  0  0  0
    3.7408   -6.6133    4.7463 C   0  0  1  0  0  0  0  0  0  0  0  0
    6.6193    0.3117    3.2833 H   0  0  0  0  0  0  0  0  0  0  0  0
    5.9069   -0.6819    4.5476 H   0  0  0  0  0  0  0  0  0  0  0  0
    4.8822    0.3493    3.5616 H   0  0  0  0  0  0  0  0  0  0  0  0
    5.4550   -0.9794    1.5116 H   0  0  0  0  0  0  0  0  0  0  0  0
    6.4607   -2.0423    2.4472 H   0  0  0  0  0  0  0  0  0  0  0  0
    3.4727   -1.6328    3.0951 H   0  0  0  0  0  0  0  0  0  0  0  0
    4.0484   -2.8268    1.9488 H   0  0  0  0  0  0  0  0  0  0  0  0
    5.2678   -3.9972    3.3512 H   0  0  0  0  0  0  0  0  0  0  0  0
    5.3028   -2.8585    4.6854 H   0  0  0  0  0  0  0  0  0  0  0  0
    2.9911   -3.1486    5.2611 H   0  0  0  0  0  0  0  0  0  0  0  0
    2.5940   -4.0705    3.8953 H   0  0  0  0  0  0  0  0  0  0  0  0
    2.6414   -5.2183    6.0296 H   0  0  0  0  0  0  0  0  0  0  0  0
    5.5903   -4.5999    6.0811 H   0  0  0  0  0  0  0  0  0  0  0  0
    3.6601   -4.7922    8.0968 H   0  0  0  0  0  0  0  0  0  0  0  0
    6.1801   -6.3848    7.6273 H   0  0  0  0  0  0  0  0  0  0  0  0
    5.2321   -8.5668    6.9816 H   0  0  0  0  0  0  0  0  0  0  0  0
    2.2467   -8.3070    7.0289 H   0  0  0  0  0  0  0  0  0  0  0  0
    4.0219   -9.7399    5.3350 H   0  0  0  0  0  0  0  0  0  0  0  0
    1.4486  -10.7319    6.4692 H   0  0  0  0  0  0  0  0  0  0  0  0
    2.7181  -11.7058    5.2939 H   0  0  0  0  0  0  0  0  0  0  0  0
    1.6070  -11.7460    4.0172 H   0  0  0  0  0  0  0  0  0  0  0  0
    4.4588  -11.8211    3.8174 H   0  0  0  0  0  0  0  0  0  0  0  0
    3.3664  -11.7324    2.4917 H   0  0  0  0  0  0  0  0  0  0  0  0
    5.2529   -9.6173    3.5574 H   0  0  0  0  0  0  0  0  0  0  0  0
    4.4331  -10.5900    1.1887 H   0  0  0  0  0  0  0  0  0  0  0  0
    2.0009   -9.6951    1.3362 H   0  0  0  0  0  0  0  0  0  0  0  0
    0.0307  -10.5312    3.2780 H   0  0  0  0  0  0  0  0  0  0  0  0
   -1.0267   -8.4997    1.4919 H   0  0  0  0  0  0  0  0  0  0  0  0
   -2.0841   -9.8620    3.7136 H   0  0  0  0  0  0  0  0  0  0  0  0
   -1.7213   -6.6510    2.6783 H   0  0  0  0  0  0  0  0  0  0  0  0
   -1.6736   -7.3659    4.2183 H   0  0  0  0  0  0  0  0  0  0  0  0
    0.4458   -5.5791    3.0592 H   0  0  0  0  0  0  0  0  0  0  0  0
    0.0737   -5.9577    4.7259 H   0  0  0  0  0  0  0  0  0  0  0  0
    4.0535   -6.8509    1.6813 H   0  0  0  0  0  0  0  0  0  0  0  0
    3.4409   -5.3591    2.4536 H   0  0  0  0  0  0  0  0  0  0  0  0
    5.3948   -7.5593    3.6176 H   0  0  0  0  0  0  0  0  0  0  0  0
    5.6306   -5.8496    3.8988 H   0  0  0  0  0  0  0  0  0  0  0  0
    1.3646   -7.4239    2.8613 H   0  0  0  0  0  0  0  0  0  0  0  0
  1  2  1  0
  1 34  1  0
  1 35  1  0
  1 36  1  0
  2  3  1  0
  2 37  1  0
  2 38  1  0
  3  4  1  0
  3 39  1  0
  3 40  1  0
  4  5  1  0
  4 41  1  0
  4 42  1  0
  5  6  1  0
  5 43  1  0
  5 44  1  0
  6 33  1  0
  6  7  1  0
  6 45  1  1
  7  8  1  0
  7  9  1  0
  7 46  1  6
  8 47  1  0
  9 10  2  0
  9 48  1  0
 10 11  1  0
 10 49  1  0
 11 33  1  0
 11 12  1  1
 11 13  1  0
 12 50  1  0
 13 20  1  0
 13 14  1  0
 13 51  1  6
 14 23  1  0
 14 15  1  1
 14 16  1  0
 15 52  1  0
 16 17  1  0
 16 53  1  0
 16 54  1  0
 17 18  1  0
 17 55  1  0
 17 56  1  0
 18 19  1  0
 18 20  1  0
 18 57  1  1
 19 58  1  0
 20 30  1  1
 20 21  1  0
 21 24  1  0
 21 22  1  0
 21 59  1  6
 23 22  1  6
 23 29  1  0
 23 24  1  0
 24 25  1  0
 24 60  1  1
 25 26  1  0
 25 27  1  0
 25 61  1  6
 26 62  1  0
 27 28  1  0
 27 63  1  0
 27 64  1  0
 28 29  1  0
 28 65  1  0
 28 66  1  0
 29 30  1  0
 29 71  1  1
 30 33  1  0
 30 31  1  6
 31 32  1  0
 31 67  1  0
 31 68  1  0
 33 32  1  6
 32 69  1  0
 32 70  1  0
M  CHG  1  29   1
M  END
>  <i_m_ct_stereo_status>  (31) 
1

>  <s_m_source_file>  (31) 
/var/tmp/pbs.5076255.sched01/tmp7hrp_b9g/014g_j70o.sdf

>  <i_m_source_file_index>  (31) 
14

>  <i_lp_mmshare_version>  (31) 
48012

>  <i_f3d_flags>  (31) 
0

>  <s_epik_input>  (31) 
W0NIM11bQ0gyXVtDSDJdW0NIMl1bQ0gyXVtDQEBIXTFbQ0BASF0oW09IXSlbQ0hdPVtDSF1bQ0BAXShbT0hdKShbQ0BdMShbQ0BAXTIzW0NAXTQ1NilbQ0gyXVtDSDJdMylbQ0BIXTRbQ0BdKFtPSF0pKFtDSDJdW0NIMl1bQ0BIXTVbT0hdKUM3OFtDSF0oW0NASF02TzcpW0NAQEhdKFtPSF0pW0NIMl1bQ0gyXU4yOA==

>  <s_epik_cmdline>  (31) 
J2VwaWtfcHl0aG9uJywgJy1waHQnLCAnMi4wJywgJy1waCcsICc3LjAnLCAnLXRuJywgJzgnLCAnLW1hJywgJzIwMCcsICctaW1hZScsICc8aW5maWxlLm1hZT4nLCAnLW9tYWUnLCAnPG91dGZpbGUubWFlPic=

>  <r_epik_Ionization_Penalty>  (31) 
2.44897

>  <r_epik_Ionization_Penalty_Charging>  (31) 
2.44897

>  <r_epik_Ionization_Penalty_Neutral>  (31) 
2.40606e-06

>  <r_epik_State_Penalty>  (31) 
2.61031

>  <r_epik_Charging_Adjusted_Penalty>  (31) 
5.05928

>  <i_epik_Tot_Q>  (31) 
1

>  <i_epik_Tot_abs_Q>  (31) 
1

>  <s_lp_Force_Field>  (31) 
OPLS3e

>  <r_lp_Energy>  (31) 
426.517

>  <b_lp_Chiralities_Consistent>  (31) 
1

>  <s_lp_Variant>  (31) 
7:0-2

>  <s_i_glide_gridfile>  (31) 
pfpi4k_grid

>  <i_i_glide_lignum>  (31) 
14

>  <i_i_glide_rotatable_bonds>  (31) 
9

>  <r_i_docking_score>  (31) 
-3.70774

>  <r_i_glide_ligand_efficiency>  (31) 
-0.112356

>  <r_i_glide_ligand_efficiency_sa>  (31) 
-0.360385

>  <r_i_glide_ligand_efficiency_ln>  (31) 
-0.824582

>  <r_i_glide_gscore>  (31) 
-3.70774

>  <r_i_glide_lipo>  (31) 
-0.361815

>  <r_i_glide_hbond>  (31) 
-0.288

>  <r_i_glide_metal>  (31) 
-0

>  <r_i_glide_rewards>  (31) 
-0.768752

>  <r_i_glide_evdw>  (31) 
-18.6863

>  <r_i_glide_ecoul>  (31) 
-10.7313

>  <r_i_glide_erotb>  (31) 
0.284669

>  <r_i_glide_esite>  (31) 
-0.0298268

>  <r_i_glide_emodel>  (31) 
-36.1554

>  <r_i_glide_energy>  (31) 
-29.4176

>  <r_i_glide_einternal>  (31) 
9.63578

>  <r_i_glide_intrahb_reward>  (31) 
-0.5

>  <i_i_glide_confnum>  (31) 
4

>  <i_i_glide_posenum>  (31) 
16

>  <r_i_glide_eff_state_penalty>  (31) 
0

>  <ligand_id>  (31) 
7

>  <original_smiles>  (31) 
CCCCCC1C(O)C=CC2(O)C3C4(O)CCC(O)C35C3OC46C3C(O)CCN6C53CCC123

>  <smiles>  (31) 
[H]OC1([H])C([H])=C([H])C2(O[H])C3([H])C4(O[H])C([H])([H])C([H])([H])C([H])(O[H])C35C3([H])OC46C3([H])C([H])(O[H])C([H])([H])C([H])([H])[N+]6([H])C53C([H])([H])C([H])([H])C23C1([H])C([H])([H])C([H])([H])C([H])([H])C([H])([H])C([H])([H])[H]

$$$$
7:1:2
     RDKit          3D

 71 78  0  0  1  0  0  0  0  0999 V2000
    2.2316    0.5099   -5.1190 C   0  0  0  0  0  0  0  0  0  0  0  0
    3.1042    0.1270   -3.9251 C   0  0  0  0  0  0  0  0  0  0  0  0
    3.8493   -1.1912   -4.1323 C   0  0  0  0  0  0  0  0  0  0  0  0
    4.8053   -1.5208   -2.9755 C   0  0  0  0  0  0  0  0  0  0  0  0
    4.1450   -2.0897   -1.7200 C   0  0  0  0  0  0  0  0  0  0  0  0
    5.1175   -2.3559   -0.5285 C   0  0  2  0  0  0  0  0  0  0  0  0
    6.4134   -3.1321   -0.9548 C   0  0  1  0  0  0  0  0  0  0  0  0
    7.3845   -2.2566   -1.5047 O   0  0  0  0  0  0  0  0  0  0  0  0
    7.0635   -3.9582    0.1617 C   0  0  0  0  0  0  0  0  0  0  0  0
    6.6136   -3.9690    1.4349 C   0  0  0  0  0  0  0  0  0  0  0  0
    5.4525   -3.1016    1.8470 C   0  0  2  0  0  0  0  0  0  0  0  0
    5.9748   -1.7990    2.0521 O   0  0  0  0  0  0  0  0  0  0  0  0
    4.6289   -3.4864    3.1473 C   0  0  1  0  0  0  0  0  0  0  0  0
    4.2245   -2.4625    4.1624 C   0  0  2  0  0  0  0  0  0  0  0  0
    5.1914   -1.5907    4.6988 O   0  0  0  0  0  0  0  0  0  0  0  0
    3.9831   -3.4930    5.3786 C   0  0  0  0  0  0  0  0  0  0  0  0
    3.3501   -4.9336    4.9931 C   0  0  0  0  0  0  0  0  0  0  0  0
    3.0943   -5.2170    3.4354 C   0  0  1  0  0  0  0  0  0  0  0  0
    1.8536   -5.8539    3.2640 O   0  0  0  0  0  0  0  0  0  0  0  0
    3.0684   -3.7919    2.9158 C   0  0  1  0  0  0  0  0  0  0  0  0
    1.8165   -3.0012    3.8757 C   0  0  2  0  0  0  0  0  0  0  0  0
    1.6990   -2.1752    2.9281 O   0  0  0  0  0  0  0  0  0  0  0  0
    2.9931   -1.5728    3.5131 C   0  0  1  0  0  0  0  0  0  0  0  0
    1.8940   -1.4396    4.4567 C   0  0  1  0  0  0  0  0  0  0  0  0
    1.1590   -0.1107    3.9821 C   0  0  1  0  0  0  0  0  0  0  0  0
    1.2348    0.7997    5.0726 O   0  0  0  0  0  0  0  0  0  0  0  0
    1.8173    0.6071    2.7039 C   0  0  0  0  0  0  0  0  0  0  0  0
    2.5791   -0.2092    1.5558 C   0  0  0  0  0  0  0  0  0  0  0  0
    3.0254   -1.5317    2.0637 N   0  0  1  0  0  0  0  0  0  0  0  0
    3.2096   -2.9987    1.4754 C   0  0  2  0  0  0  0  0  0  0  0  0
    2.4495   -3.6639    0.3708 C   0  0  0  0  0  0  0  0  0  0  0  0
    3.7798   -4.4129    0.2090 C   0  0  0  0  0  0  0  0  0  0  0  0
    4.4939   -3.1306    0.7000 C   0  0  1  0  0  0  0  0  0  0  0  0
    1.6952    1.4373   -4.9263 H   0  0  0  0  0  0  0  0  0  0  0  0
    1.4865   -0.2540   -5.3241 H   0  0  0  0  0  0  0  0  0  0  0  0
    2.8354    0.6505   -6.0173 H   0  0  0  0  0  0  0  0  0  0  0  0
    3.8237    0.9225   -3.7348 H   0  0  0  0  0  0  0  0  0  0  0  0
    2.4775    0.0455   -3.0425 H   0  0  0  0  0  0  0  0  0  0  0  0
    3.1465   -2.0157   -4.2943 H   0  0  0  0  0  0  0  0  0  0  0  0
    4.4233   -1.1027   -5.0536 H   0  0  0  0  0  0  0  0  0  0  0  0
    5.4860   -2.2719   -3.3702 H   0  0  0  0  0  0  0  0  0  0  0  0
    5.4056   -0.6531   -2.6902 H   0  0  0  0  0  0  0  0  0  0  0  0
    3.3711   -1.4036   -1.3740 H   0  0  0  0  0  0  0  0  0  0  0  0
    3.6397   -2.9920   -2.0639 H   0  0  0  0  0  0  0  0  0  0  0  0
    5.4383   -1.3582   -0.2275 H   0  0  0  0  0  0  0  0  0  0  0  0
    6.1381   -3.8612   -1.7187 H   0  0  0  0  0  0  0  0  0  0  0  0
    7.9912   -2.7674   -2.0274 H   0  0  0  0  0  0  0  0  0  0  0  0
    7.9102   -4.5659   -0.1213 H   0  0  0  0  0  0  0  0  0  0  0  0
    7.0765   -4.5749    2.1948 H   0  0  0  0  0  0  0  0  0  0  0  0
    5.2840   -1.1647    1.9241 H   0  0  0  0  0  0  0  0  0  0  0  0
    5.2654   -4.2533    3.6250 H   0  0  0  0  0  0  0  0  0  0  0  0
    5.5893   -1.0943    3.9938 H   0  0  0  0  0  0  0  0  0  0  0  0
    4.9454   -3.6793    5.8392 H   0  0  0  0  0  0  0  0  0  0  0  0
    3.4298   -3.0322    6.1971 H   0  0  0  0  0  0  0  0  0  0  0  0
    3.9967   -5.7144    5.3825 H   0  0  0  0  0  0  0  0  0  0  0  0
    2.4183   -5.0430    5.5501 H   0  0  0  0  0  0  0  0  0  0  0  0
    3.8948   -5.8284    3.0028 H   0  0  0  0  0  0  0  0  0  0  0  0
    1.9254   -6.7394    3.6060 H   0  0  0  0  0  0  0  0  0  0  0  0
    0.8824   -3.5008    4.0759 H   0  0  0  0  0  0  0  0  0  0  0  0
    2.2514   -1.4037    5.4730 H   0  0  0  0  0  0  0  0  0  0  0  0
    0.1004   -0.3187    3.7953 H   0  0  0  0  0  0  0  0  0  0  0  0
    0.7884    1.6088    4.8540 H   0  0  0  0  0  0  0  0  0  0  0  0
    1.0462    1.2225    2.2313 H   0  0  0  0  0  0  0  0  0  0  0  0
    2.5453    1.3372    3.0730 H   0  0  0  0  0  0  0  0  0  0  0  0
    1.9354   -0.2864    0.7028 H   0  0  0  0  0  0  0  0  0  0  0  0
    3.4468    0.3536    1.2286 H   0  0  0  0  0  0  0  0  0  0  0  0
    1.7604   -4.4451    0.6811 H   0  0  0  0  0  0  0  0  0  0  0  0
    2.1173   -3.0687   -0.4825 H   0  0  0  0  0  0  0  0  0  0  0  0
    3.8960   -5.2704    0.8742 H   0  0  0  0  0  0  0  0  0  0  0  0
    3.9926   -4.7195   -0.8072 H   0  0  0  0  0  0  0  0  0  0  0  0
    2.0638   -1.7944    2.1268 H   0  0  0  0  0  0  0  0  0  0  0  0
  1  2  1  0
  1 34  1  0
  1 35  1  0
  1 36  1  0
  2  3  1  0
  2 37  1  0
  2 38  1  0
  3  4  1  0
  3 39  1  0
  3 40  1  0
  4  5  1  0
  4 41  1  0
  4 42  1  0
  5  6  1  0
  5 43  1  0
  5 44  1  0
  6 33  1  0
  6  7  1  0
  6 45  1  1
  7  8  1  0
  7  9  1  0
  7 46  1  6
  8 47  1  0
  9 10  2  0
  9 48  1  0
 10 11  1  0
 10 49  1  0
 11 33  1  0
 11 12  1  1
 11 13  1  0
 12 50  1  0
 13 20  1  0
 13 14  1  0
 13 51  1  1
 14 23  1  0
 14 15  1  1
 14 16  1  0
 15 52  1  0
 16 17  1  0
 16 53  1  0
 16 54  1  0
 17 18  1  0
 17 55  1  0
 17 56  1  0
 18 19  1  0
 18 20  1  0
 18 57  1  6
 19 58  1  0
 20 30  1  6
 20 21  1  0
 21 24  1  0
 21 22  1  0
 21 59  1  1
 23 22  1  6
 23 29  1  0
 23 24  1  0
 24 25  1  0
 24 60  1  1
 25 26  1  0
 25 27  1  0
 25 61  1  6
 26 62  1  0
 27 28  1  0
 27 63  1  0
 27 64  1  0
 28 29  1  0
 28 65  1  0
 28 66  1  0
 29 30  1  0
 29 71  1  1
 30 33  1  0
 30 31  1  6
 31 32  1  0
 31 67  1  0
 31 68  1  0
 33 32  1  6
 32 69  1  0
 32 70  1  0
M  CHG  1  29   1
M  END
>  <i_m_ct_stereo_status>  (32) 
1

>  <s_m_source_file>  (32) 
/var/tmp/pbs.5076255.sched01/tmp7hrp_b9g/014g_j70o.sdf

>  <i_m_source_file_index>  (32) 
14

>  <i_lp_mmshare_version>  (32) 
48012

>  <i_f3d_flags>  (32) 
0

>  <s_epik_input>  (32) 
W0NIM11bQ0gyXVtDSDJdW0NIMl1bQ0gyXVtDQEBIXTFbQ0BASF0oW09IXSlbQ0hdPVtDSF1bQ0BAXShbT0hdKShbQ0BdMShbQ0BAXTIzW0NAXTQ1NilbQ0gyXVtDSDJdMylbQ0BIXTRbQ0BdKFtPSF0pKFtDSDJdW0NIMl1bQ0BIXTVbT0hdKUM3OFtDSF0oW0NASF02TzcpW0NAQEhdKFtPSF0pW0NIMl1bQ0gyXU4yOA==

>  <s_epik_cmdline>  (32) 
J2VwaWtfcHl0aG9uJywgJy1waHQnLCAnMi4wJywgJy1waCcsICc3LjAnLCAnLXRuJywgJzgnLCAnLW1hJywgJzIwMCcsICctaW1hZScsICc8aW5maWxlLm1hZT4nLCAnLW9tYWUnLCAnPG91dGZpbGUubWFlPic=

>  <r_epik_Ionization_Penalty>  (32) 
2.44897

>  <r_epik_Ionization_Penalty_Charging>  (32) 
2.44897

>  <r_epik_Ionization_Penalty_Neutral>  (32) 
2.40606e-06

>  <r_epik_State_Penalty>  (32) 
2.61031

>  <r_epik_Charging_Adjusted_Penalty>  (32) 
5.05928

>  <i_epik_Tot_Q>  (32) 
1

>  <i_epik_Tot_abs_Q>  (32) 
1

>  <s_lp_Force_Field>  (32) 
OPLS3e

>  <r_lp_Energy>  (32) 
426.517

>  <b_lp_Chiralities_Consistent>  (32) 
1

>  <s_lp_Variant>  (32) 
7:0-2

>  <s_i_glide_gridfile>  (32) 
pfpi4k_grid

>  <i_i_glide_lignum>  (32) 
14

>  <i_i_glide_rotatable_bonds>  (32) 
9

>  <r_i_docking_score>  (32) 
-2.9299

>  <r_i_glide_ligand_efficiency>  (32) 
-0.088785

>  <r_i_glide_ligand_efficiency_sa>  (32) 
-0.284781

>  <r_i_glide_ligand_efficiency_ln>  (32) 
-0.651595

>  <r_i_glide_gscore>  (32) 
-2.9299

>  <r_i_glide_lipo>  (32) 
-0.453393

>  <r_i_glide_hbond>  (32) 
-0.16

>  <r_i_glide_metal>  (32) 
-0

>  <r_i_glide_rewards>  (32) 
-0.268752

>  <r_i_glide_evdw>  (32) 
-22.0939

>  <r_i_glide_ecoul>  (32) 
-8.08373

>  <r_i_glide_erotb>  (32) 
0.284669

>  <r_i_glide_esite>  (32) 
-0.0151728

>  <r_i_glide_emodel>  (32) 
-33.2986

>  <r_i_glide_energy>  (32) 
-30.1776

>  <r_i_glide_einternal>  (32) 
3.7728

>  <r_i_glide_intrahb_reward>  (32) 
-0

>  <i_i_glide_confnum>  (32) 
3

>  <i_i_glide_posenum>  (32) 
18

>  <r_i_glide_eff_state_penalty>  (32) 
0

>  <ligand_id>  (32) 
7

>  <original_smiles>  (32) 
CCCCCC1C(O)C=CC2(O)C3C4(O)CCC(O)C35C3OC46C3C(O)CCN6C53CCC123

>  <smiles>  (32) 
[H]OC1([H])C([H])=C([H])C2(O[H])C3([H])C4(O[H])C([H])([H])C([H])([H])C([H])(O[H])C35C3([H])OC46C3([H])C([H])(O[H])C([H])([H])C([H])([H])[N+]6([H])C53C([H])([H])C([H])([H])C23C1([H])C([H])([H])C([H])([H])C([H])([H])C([H])([H])C([H])([H])[H]

$$$$
9:0:0
     RDKit          3D

 78 83  0  0  1  0  0  0  0  0999 V2000
   -0.2236   -7.0488    0.9312 C   0  0  0  0  0  0  0  0  0  0  0  0
   -0.7906   -6.6553    2.2019 O   0  0  0  0  0  0  0  0  0  0  0  0
   -0.7454   -7.5515    3.3345 C   0  0  1  0  0  0  0  0  0  0  0  0
   -2.1495   -7.6889    3.9648 C   0  0  0  0  0  0  0  0  0  0  0  0
   -0.2000   -8.9543    2.9829 C   0  0  0  0  0  0  0  0  0  0  0  0
   -0.8571   -9.7940    2.3916 O   0  0  0  0  0  0  0  0  0  0  0  0
    1.2105   -9.1184    3.4911 C   0  0  1  0  0  0  0  0  0  0  0  0
    2.0887   -9.9764    2.5503 C   0  0  0  0  0  0  0  0  0  0  0  0
    1.6904   -7.6949    3.9434 C   0  0  1  0  0  0  0  0  0  0  0  0
    2.4710   -6.7269    2.9378 C   0  0  2  0  0  0  0  0  0  0  0  0
    3.8544   -7.2870    2.5150 C   0  0  0  0  0  0  0  0  0  0  0  0
    4.5746   -6.2487    1.6732 C   0  0  0  0  0  0  0  0  0  0  0  0
    4.9228   -4.9323    2.4151 C   0  0  2  0  0  0  0  0  0  0  0  0
    5.8844   -5.4189    3.5554 C   0  0  0  0  0  0  0  0  0  0  0  0
    3.6616   -4.4970    3.2285 C   0  0  0  0  0  0  0  0  0  0  0  0
    2.5685   -5.3003    3.4881 C   0  0  0  0  0  0  0  0  0  0  0  0
    1.3959   -4.7951    4.2152 C   0  0  0  0  0  0  0  0  0  0  0  0
    0.3764   -5.5895    4.5819 C   0  0  0  0  0  0  0  0  0  0  0  0
    0.3336   -7.0905    4.3603 C   0  0  1  0  0  0  0  0  0  0  0  0
    3.7219   -3.1839    3.8671 C   0  0  0  0  0  0  0  0  0  0  0  0
    4.3720   -2.9941    4.8880 O   0  0  0  0  0  0  0  0  0  0  0  0
    2.9297   -2.0281    3.3124 C   0  0  2  0  0  0  0  0  0  0  0  0
    2.5290   -1.8580    1.8507 C   0  0  2  0  0  0  0  0  0  0  0  0
    2.6586   -2.9200    0.7534 C   0  0  0  0  0  0  0  0  0  0  0  0
    3.7810   -2.6927   -0.2499 C   0  0  0  0  0  0  0  0  0  0  0  0
    5.0938   -3.5275   -0.1211 C   0  0  0  0  0  0  0  0  0  0  0  0
    4.8885   -4.7751   -1.0165 C   0  0  0  0  0  0  0  0  0  0  0  0
    6.1144   -2.6991   -0.9666 C   0  0  0  0  0  0  0  0  0  0  0  0
    5.6597   -3.8355    1.3872 C   0  0  2  0  0  0  0  0  0  0  0  0
    7.0999   -4.4438    1.1644 C   0  0  0  0  0  0  0  0  0  0  0  0
    5.9815   -2.4592    2.1034 C   0  0  0  0  0  0  0  0  0  0  0  0
    5.1437   -1.1446    2.0131 C   0  0  0  0  0  0  0  0  0  0  0  0
    3.6628   -1.0261    2.4469 C   0  0  2  0  0  0  0  0  0  0  0  0
    3.3436    0.4412    2.7090 C   0  0  0  0  0  0  0  0  0  0  0  0
   -0.2278   -6.1685    0.2881 H   0  0  0  0  0  0  0  0  0  0  0  0
   -0.8512   -7.8240    0.4508 H   0  0  0  0  0  0  0  0  0  0  0  0
    0.7589   -7.4572    0.9437 H   0  0  0  0  0  0  0  0  0  0  0  0
   -2.1532   -8.3209    4.8537 H   0  0  0  0  0  0  0  0  0  0  0  0
   -2.8594   -8.1385    3.2701 H   0  0  0  0  0  0  0  0  0  0  0  0
   -2.5614   -6.7099    4.2537 H   0  0  0  0  0  0  0  0  0  0  0  0
    1.0974   -9.7040    4.4037 H   0  0  0  0  0  0  0  0  0  0  0  0
    1.7052  -10.9947    2.5076 H   0  0  0  0  0  0  0  0  0  0  0  0
    3.1102  -10.0351    2.9209 H   0  0  0  0  0  0  0  0  0  0  0  0
    2.0891   -9.5922    1.5327 H   0  0  0  0  0  0  0  0  0  0  0  0
    2.2968   -7.8153    4.8281 H   0  0  0  0  0  0  0  0  0  0  0  0
    1.9540   -6.4888    2.0536 H   0  0  0  0  0  0  0  0  0  0  0  0
    4.4361   -7.6522    3.3510 H   0  0  0  0  0  0  0  0  0  0  0  0
    3.6994   -8.1342    1.8525 H   0  0  0  0  0  0  0  0  0  0  0  0
    5.4503   -6.7147    1.2250 H   0  0  0  0  0  0  0  0  0  0  0  0
    3.8805   -6.0336    0.8670 H   0  0  0  0  0  0  0  0  0  0  0  0
    6.6394   -6.1296    3.2155 H   0  0  0  0  0  0  0  0  0  0  0  0
    5.3471   -5.9145    4.3600 H   0  0  0  0  0  0  0  0  0  0  0  0
    6.4030   -4.6176    4.0652 H   0  0  0  0  0  0  0  0  0  0  0  0
    1.2634   -3.7589    4.4330 H   0  0  0  0  0  0  0  0  0  0  0  0
   -0.4712   -5.1648    5.1048 H   0  0  0  0  0  0  0  0  0  0  0  0
    0.0857   -7.5167    5.3319 H   0  0  0  0  0  0  0  0  0  0  0  0
    2.2313   -1.6056    4.0373 H   0  0  0  0  0  0  0  0  0  0  0  0
    1.6044   -1.3037    1.7241 H   0  0  0  0  0  0  0  0  0  0  0  0
    2.5774   -3.9404    1.0949 H   0  0  0  0  0  0  0  0  0  0  0  0
    1.7572   -2.7964    0.1577 H   0  0  0  0  0  0  0  0  0  0  0  0
    3.3522   -2.8992   -1.2332 H   0  0  0  0  0  0  0  0  0  0  0  0
    3.9651   -1.6225   -0.3316 H   0  0  0  0  0  0  0  0  0  0  0  0
    5.5591   -5.5979   -0.7921 H   0  0  0  0  0  0  0  0  0  0  0  0
    5.0094   -4.5594   -2.0818 H   0  0  0  0  0  0  0  0  0  0  0  0
    3.8675   -5.1305   -0.9376 H   0  0  0  0  0  0  0  0  0  0  0  0
    6.9546   -3.2960   -1.3221 H   0  0  0  0  0  0  0  0  0  0  0  0
    6.5166   -1.8394   -0.4394 H   0  0  0  0  0  0  0  0  0  0  0  0
    5.6534   -2.3106   -1.8754 H   0  0  0  0  0  0  0  0  0  0  0  0
    7.7552   -3.8319    0.5514 H   0  0  0  0  0  0  0  0  0  0  0  0
    7.1023   -5.4292    0.7058 H   0  0  0  0  0  0  0  0  0  0  0  0
    7.6761   -4.5342    2.0793 H   0  0  0  0  0  0  0  0  0  0  0  0
    6.2079   -2.6414    3.1475 H   0  0  0  0  0  0  0  0  0  0  0  0
    6.9503   -2.1299    1.7259 H   0  0  0  0  0  0  0  0  0  0  0  0
    5.6896   -0.4417    2.6445 H   0  0  0  0  0  0  0  0  0  0  0  0
    5.2470   -0.6921    1.0304 H   0  0  0  0  0  0  0  0  0  0  0  0
    3.4958    1.0471    1.8143 H   0  0  0  0  0  0  0  0  0  0  0  0
    3.9602    0.8446    3.5165 H   0  0  0  0  0  0  0  0  0  0  0  0
    2.3018    0.5718    3.0108 H   0  0  0  0  0  0  0  0  0  0  0  0
  1  2  1  0
  1 35  1  0
  1 36  1  0
  1 37  1  0
  3  2  1  6
  3 19  1  0
  3  4  1  0
  3  5  1  0
  4 38  1  0
  4 39  1  0
  4 40  1  0
  5  6  2  0
  5  7  1  0
  7  8  1  0
  7  9  1  0
  7 41  1  1
  8 42  1  0
  8 43  1  0
  8 44  1  0
  9 19  1  0
  9 10  1  0
  9 45  1  1
 10 16  1  0
 10 11  1  0
 10 46  1  6
 11 12  1  0
 11 47  1  0
 11 48  1  0
 12 13  1  0
 12 49  1  0
 12 50  1  0
 13 29  1  0
 13 14  1  1
 13 15  1  0
 14 51  1  0
 14 52  1  0
 14 53  1  0
 15 16  2  0
 15 20  1  0
 16 17  1  0
 17 18  2  0
 17 54  1  0
 18 19  1  0
 18 55  1  0
 19 56  1  1
 20 21  2  0
 20 22  1  0
 22 33  1  0
 22 23  1  0
 22 57  1  1
 23 33  1  0
 23 24  1  0
 23 58  1  1
 24 25  1  0
 24 59  1  0
 24 60  1  0
 25 26  1  0
 25 61  1  0
 25 62  1  0
 26 27  1  0
 26 28  1  0
 26 29  1  0
 27 63  1  0
 27 64  1  0
 27 65  1  0
 28 66  1  0
 28 67  1  0
 28 68  1  0
 29 30  1  6
 29 31  1  0
 30 69  1  0
 30 70  1  0
 30 71  1  0
 31 32  1  0
 31 72  1  0
 31 73  1  0
 32 33  1  0
 32 74  1  0
 32 75  1  0
 33 34  1  1
 34 76  1  0
 34 77  1  0
 34 78  1  0
M  END
>  <i_m_ct_stereo_status>  (33) 
1

>  <s_m_source_file>  (33) 
/var/tmp/pbs.5076255.sched01/tmp7hrp_b9g/014g_j70o.sdf

>  <i_m_source_file_index>  (33) 
16

>  <i_lp_mmshare_version>  (33) 
48012

>  <i_f3d_flags>  (33) 
0

>  <s_epik_input>  (33) 
W0NIM11bQ0BASF0xQyg9TylbQ0BdKFtDSDNdKShPW0NIM10pW0NASF0oW0NIXT1bQ0hdMilbQ0BASF0xW0NASF0oW0NIMl1bQ0gyXTMpQzI9QyhbQ0BAXTM0W0NIM10pQyg9TylbQ0BASF01W0NASF02W0NAXTUoW0NIM10pW0NIMl1bQ0gyXVtDQF00KFtDSDNdKUMoW0NIM10pKFtDSDNdKVtDSDJdW0NIMl02

>  <s_epik_cmdline>  (33) 
J2VwaWtfcHl0aG9uJywgJy1waHQnLCAnMi4wJywgJy1waCcsICc3LjAnLCAnLXRuJywgJzgnLCAnLW1hJywgJzIwMCcsICctaW1hZScsICc8aW5maWxlLm1hZT4nLCAnLW9tYWUnLCAnPG91dGZpbGUubWFlPic=

>  <r_lp_tautomer_probability>  (33) 
1

>  <r_epik_Ionization_Penalty>  (33) 
6.10733e-12

>  <r_epik_Ionization_Penalty_Charging>  (33) 
0

>  <r_epik_Ionization_Penalty_Neutral>  (33) 
6.10733e-12

>  <r_epik_State_Penalty>  (33) 
-0

>  <r_epik_Charging_Adjusted_Penalty>  (33) 
0

>  <i_epik_Tot_Q>  (33) 
0

>  <i_epik_Tot_abs_Q>  (33) 
0

>  <s_lp_Force_Field>  (33) 
OPLS3e

>  <r_lp_Energy>  (33) 
124.358

>  <b_lp_Chiralities_Consistent>  (33) 
1

>  <s_lp_Variant>  (33) 
9:0-1

>  <s_i_glide_gridfile>  (33) 
pfpi4k_grid

>  <i_i_glide_lignum>  (33) 
16

>  <i_i_glide_rotatable_bonds>  (33) 
1

>  <r_i_docking_score>  (33) 
-2.61805

>  <r_i_glide_ligand_efficiency>  (33) 
-0.0770015

>  <r_i_glide_ligand_efficiency_sa>  (33) 
-0.249455

>  <r_i_glide_ligand_efficiency_ln>  (33) 
-0.578401

>  <r_i_glide_gscore>  (33) 
-2.61805

>  <r_i_glide_lipo>  (33) 
-0.54598

>  <r_i_glide_hbond>  (33) 
-0.16

>  <r_i_glide_metal>  (33) 
-0

>  <r_i_glide_rewards>  (33) 
-0.240823

>  <r_i_glide_evdw>  (33) 
-24.7994

>  <r_i_glide_ecoul>  (33) 
-2.64942

>  <r_i_glide_erotb>  (33) 
0

>  <r_i_glide_esite>  (33) 
-0.0338654

>  <r_i_glide_emodel>  (33) 
-27.7428

>  <r_i_glide_energy>  (33) 
-27.4488

>  <r_i_glide_einternal>  (33) 
4.02981

>  <r_i_glide_intrahb_reward>  (33) 
-0

>  <i_i_glide_confnum>  (33) 
2

>  <i_i_glide_posenum>  (33) 
27

>  <r_i_glide_eff_state_penalty>  (33) 
0

>  <ligand_id>  (33) 
9

>  <original_smiles>  (33) 
COC1(C)C(=O)C(C)C2C3CCC4(C)C(=C3C=CC21)C(=O)C1C2CCC(C)(C)C4(C)CCC21C

>  <smiles>  (33) 
[H]C1=C([H])C2([H])C(OC([H])([H])[H])(C([H])([H])[H])C(=O)C([H])(C([H])([H])[H])C2([H])C2([H])C1=C1C(=O)C3([H])C4([H])C([H])([H])C([H])([H])C(C([H])([H])[H])(C([H])([H])[H])C(C([H])([H])[H])(C([H])([H])C([H])([H])C34C([H])([H])[H])C1(C([H])([H])[H])C([H])([H])C2([H])[H]

$$$$
9:0:1
     RDKit          3D

 78 83  0  0  1  0  0  0  0  0999 V2000
    4.6915   -1.3468    2.4822 C   0  0  0  0  0  0  0  0  0  0  0  0
    4.4211   -2.4901    1.6796 O   0  0  0  0  0  0  0  0  0  0  0  0
    4.8361   -2.4908    0.3065 C   0  0  1  0  0  0  0  0  0  0  0  0
    4.2018   -1.3214   -0.4822 C   0  0  0  0  0  0  0  0  0  0  0  0
    6.3618   -2.4756    0.2024 C   0  0  0  0  0  0  0  0  0  0  0  0
    7.0651   -1.4741    0.3384 O   0  0  0  0  0  0  0  0  0  0  0  0
    6.9021   -3.8458   -0.1927 C   0  0  1  0  0  0  0  0  0  0  0  0
    8.2870   -4.1472    0.3950 C   0  0  0  0  0  0  0  0  0  0  0  0
    5.7113   -4.8235    0.0369 C   0  0  1  0  0  0  0  0  0  0  0  0
    5.5219   -5.5358    1.4246 C   0  0  2  0  0  0  0  0  0  0  0  0
    6.6520   -6.5332    1.7393 C   0  0  0  0  0  0  0  0  0  0  0  0
    6.3160   -7.3458    2.9825 C   0  0  0  0  0  0  0  0  0  0  0  0
    5.0736   -8.2671    2.8620 C   0  0  2  0  0  0  0  0  0  0  0  0
    5.4722   -9.3075    1.7549 C   0  0  0  0  0  0  0  0  0  0  0  0
    3.9556   -7.4316    2.1621 C   0  0  0  0  0  0  0  0  0  0  0  0
    4.1403   -6.2238    1.5242 C   0  0  0  0  0  0  0  0  0  0  0  0
    3.0196   -5.5132    0.8975 C   0  0  0  0  0  0  0  0  0  0  0  0
    3.1757   -4.4405    0.1081 C   0  0  0  0  0  0  0  0  0  0  0  0
    4.5215   -3.8861   -0.2889 C   0  0  1  0  0  0  0  0  0  0  0  0
    2.6351   -8.0813    2.0977 C   0  0  0  0  0  0  0  0  0  0  0  0
    2.4045   -8.9944    1.3096 O   0  0  0  0  0  0  0  0  0  0  0  0
    1.5160   -7.5866    2.9674 C   0  0  2  0  0  0  0  0  0  0  0  0
    1.6927   -6.9047    4.3201 C   0  0  2  0  0  0  0  0  0  0  0  0
    3.0055   -6.3934    4.9176 C   0  0  0  0  0  0  0  0  0  0  0  0
    3.5783   -7.2484    6.0427 C   0  0  0  0  0  0  0  0  0  0  0  0
    4.7659   -8.2189    5.7377 C   0  0  0  0  0  0  0  0  0  0  0  0
    6.0658   -7.4091    6.0433 C   0  0  0  0  0  0  0  0  0  0  0  0
    4.7170   -9.2031    6.9550 C   0  0  0  0  0  0  0  0  0  0  0  0
    4.7455   -9.0270    4.3085 C   0  0  2  0  0  0  0  0  0  0  0  0
    5.8946  -10.1042    4.4429 C   0  0  0  0  0  0  0  0  0  0  0  0
    3.4550   -9.9506    4.2335 C   0  0  0  0  0  0  0  0  0  0  0  0
    2.0271   -9.5667    4.7514 C   0  0  0  0  0  0  0  0  0  0  0  0
    1.2222   -8.3525    4.2359 C   0  0  2  0  0  0  0  0  0  0  0  0
   -0.2520   -8.5909    4.5515 C   0  0  0  0  0  0  0  0  0  0  0  0
    4.3519   -1.5598    3.4953 H   0  0  0  0  0  0  0  0  0  0  0  0
    4.1460   -0.4692    2.1364 H   0  0  0  0  0  0  0  0  0  0  0  0
    5.7521   -1.1063    2.5451 H   0  0  0  0  0  0  0  0  0  0  0  0
    4.4465   -1.3680   -1.5428 H   0  0  0  0  0  0  0  0  0  0  0  0
    4.5537   -0.3509   -0.1320 H   0  0  0  0  0  0  0  0  0  0  0  0
    3.1172   -1.3208   -0.3966 H   0  0  0  0  0  0  0  0  0  0  0  0
    7.0423   -3.7792   -1.2708 H   0  0  0  0  0  0  0  0  0  0  0  0
    9.0329   -3.4659   -0.0149 H   0  0  0  0  0  0  0  0  0  0  0  0
    8.6106   -5.1589    0.1519 H   0  0  0  0  0  0  0  0  0  0  0  0
    8.3023   -4.0175    1.4767 H   0  0  0  0  0  0  0  0  0  0  0  0
    5.7390   -5.6062   -0.7170 H   0  0  0  0  0  0  0  0  0  0  0  0
    5.5269   -4.7739    2.2065 H   0  0  0  0  0  0  0  0  0  0  0  0
    6.8679   -7.1675    0.8817 H   0  0  0  0  0  0  0  0  0  0  0  0
    7.5739   -6.0129    1.9697 H   0  0  0  0  0  0  0  0  0  0  0  0
    7.2054   -7.8978    3.2847 H   0  0  0  0  0  0  0  0  0  0  0  0
    6.1305   -6.5833    3.7219 H   0  0  0  0  0  0  0  0  0  0  0  0
    6.4913   -9.6841    1.8687 H   0  0  0  0  0  0  0  0  0  0  0  0
    5.4322   -8.8719    0.7557 H   0  0  0  0  0  0  0  0  0  0  0  0
    4.8092  -10.1715    1.7056 H   0  0  0  0  0  0  0  0  0  0  0  0
    2.0032   -5.8083    1.0739 H   0  0  0  0  0  0  0  0  0  0  0  0
    2.3180   -3.9437   -0.3181 H   0  0  0  0  0  0  0  0  0  0  0  0
    4.4830   -3.7897   -1.3759 H   0  0  0  0  0  0  0  0  0  0  0  0
    0.6413   -7.2693    2.4041 H   0  0  0  0  0  0  0  0  0  0  0  0
    0.8931   -6.1986    4.5390 H   0  0  0  0  0  0  0  0  0  0  0  0
    3.7531   -6.1026    4.1913 H   0  0  0  0  0  0  0  0  0  0  0  0
    2.7421   -5.4372    5.3712 H   0  0  0  0  0  0  0  0  0  0  0  0
    3.9179   -6.5545    6.8127 H   0  0  0  0  0  0  0  0  0  0  0  0
    2.7582   -7.7442    6.5579 H   0  0  0  0  0  0  0  0  0  0  0  0
    6.9675   -7.8513    5.6247 H   0  0  0  0  0  0  0  0  0  0  0  0
    6.2491   -7.3348    7.1168 H   0  0  0  0  0  0  0  0  0  0  0  0
    5.9976   -6.3685    5.7286 H   0  0  0  0  0  0  0  0  0  0  0  0
    5.6704   -9.6987    7.1400 H   0  0  0  0  0  0  0  0  0  0  0  0
    3.9571   -9.9770    6.8693 H   0  0  0  0  0  0  0  0  0  0  0  0
    4.5030   -8.6765    7.8856 H   0  0  0  0  0  0  0  0  0  0  0  0
    5.8165  -10.7378    5.3213 H   0  0  0  0  0  0  0  0  0  0  0  0
    6.8976   -9.6843    4.4654 H   0  0  0  0  0  0  0  0  0  0  0  0
    5.8831  -10.8454    3.6474 H   0  0  0  0  0  0  0  0  0  0  0  0
    3.3508  -10.3787    3.2421 H   0  0  0  0  0  0  0  0  0  0  0  0
    3.6596  -10.8475    4.8167 H   0  0  0  0  0  0  0  0  0  0  0  0
    1.4159  -10.4446    4.5300 H   0  0  0  0  0  0  0  0  0  0  0  0
    1.9986   -9.5549    5.8385 H   0  0  0  0  0  0  0  0  0  0  0  0
   -0.4103   -8.7091    5.6239 H   0  0  0  0  0  0  0  0  0  0  0  0
   -0.6163   -9.4835    4.0445 H   0  0  0  0  0  0  0  0  0  0  0  0
   -0.8608   -7.7528    4.2105 H   0  0  0  0  0  0  0  0  0  0  0  0
  1  2  1  0
  1 35  1  0
  1 36  1  0
  1 37  1  0
  3  2  1  1
  3 19  1  0
  3  4  1  0
  3  5  1  0
  4 38  1  0
  4 39  1  0
  4 40  1  0
  5  6  2  0
  5  7  1  0
  7  8  1  0
  7  9  1  0
  7 41  1  6
  8 42  1  0
  8 43  1  0
  8 44  1  0
  9 19  1  0
  9 10  1  0
  9 45  1  6
 10 16  1  0
 10 11  1  0
 10 46  1  1
 11 12  1  0
 11 47  1  0
 11 48  1  0
 12 13  1  0
 12 49  1  0
 12 50  1  0
 13 29  1  0
 13 14  1  6
 13 15  1  0
 14 51  1  0
 14 52  1  0
 14 53  1  0
 15 16  2  0
 15 20  1  0
 16 17  1  0
 17 18  2  0
 17 54  1  0
 18 19  1  0
 18 55  1  0
 19 56  1  6
 20 21  2  0
 20 22  1  0
 22 33  1  0
 22 23  1  0
 22 57  1  6
 23 33  1  0
 23 24  1  0
 23 58  1  6
 24 25  1  0
 24 59  1  0
 24 60  1  0
 25 26  1  0
 25 61  1  0
 25 62  1  0
 26 27  1  0
 26 28  1  0
 26 29  1  0
 27 63  1  0
 27 64  1  0
 27 65  1  0
 28 66  1  0
 28 67  1  0
 28 68  1  0
 29 30  1  1
 29 31  1  0
 30 69  1  0
 30 70  1  0
 30 71  1  0
 31 32  1  0
 31 72  1  0
 31 73  1  0
 32 33  1  0
 32 74  1  0
 32 75  1  0
 33 34  1  6
 34 76  1  0
 34 77  1  0
 34 78  1  0
M  END
>  <i_m_ct_stereo_status>  (34) 
1

>  <s_m_source_file>  (34) 
/var/tmp/pbs.5076255.sched01/tmp7hrp_b9g/014g_j70o.sdf

>  <i_m_source_file_index>  (34) 
16

>  <i_lp_mmshare_version>  (34) 
48012

>  <i_f3d_flags>  (34) 
0

>  <s_epik_input>  (34) 
W0NIM11bQ0BASF0xQyg9TylbQ0BdKFtDSDNdKShPW0NIM10pW0NASF0oW0NIXT1bQ0hdMilbQ0BASF0xW0NASF0oW0NIMl1bQ0gyXTMpQzI9QyhbQ0BAXTM0W0NIM10pQyg9TylbQ0BASF01W0NASF02W0NAXTUoW0NIM10pW0NIMl1bQ0gyXVtDQF00KFtDSDNdKUMoW0NIM10pKFtDSDNdKVtDSDJdW0NIMl02

>  <s_epik_cmdline>  (34) 
J2VwaWtfcHl0aG9uJywgJy1waHQnLCAnMi4wJywgJy1waCcsICc3LjAnLCAnLXRuJywgJzgnLCAnLW1hJywgJzIwMCcsICctaW1hZScsICc8aW5maWxlLm1hZT4nLCAnLW9tYWUnLCAnPG91dGZpbGUubWFlPic=

>  <r_lp_tautomer_probability>  (34) 
1

>  <r_epik_Ionization_Penalty>  (34) 
6.10733e-12

>  <r_epik_Ionization_Penalty_Charging>  (34) 
0

>  <r_epik_Ionization_Penalty_Neutral>  (34) 
6.10733e-12

>  <r_epik_State_Penalty>  (34) 
-0

>  <r_epik_Charging_Adjusted_Penalty>  (34) 
0

>  <i_epik_Tot_Q>  (34) 
0

>  <i_epik_Tot_abs_Q>  (34) 
0

>  <s_lp_Force_Field>  (34) 
OPLS3e

>  <r_lp_Energy>  (34) 
124.358

>  <b_lp_Chiralities_Consistent>  (34) 
1

>  <s_lp_Variant>  (34) 
9:0-1

>  <s_i_glide_gridfile>  (34) 
pfpi4k_grid

>  <i_i_glide_lignum>  (34) 
16

>  <i_i_glide_rotatable_bonds>  (34) 
1

>  <r_i_docking_score>  (34) 
-2.28696

>  <r_i_glide_ligand_efficiency>  (34) 
-0.0672636

>  <r_i_glide_ligand_efficiency_sa>  (34) 
-0.217908

>  <r_i_glide_ligand_efficiency_ln>  (34) 
-0.505254

>  <r_i_glide_gscore>  (34) 
-2.28696

>  <r_i_glide_lipo>  (34) 
-0.601852

>  <r_i_glide_hbond>  (34) 
-0.0328825

>  <r_i_glide_metal>  (34) 
-0

>  <r_i_glide_rewards>  (34) 
-0.310509

>  <r_i_glide_evdw>  (34) 
-26.1406

>  <r_i_glide_ecoul>  (34) 
-0.15805

>  <r_i_glide_erotb>  (34) 
0

>  <r_i_glide_esite>  (34) 
-0.0109832

>  <r_i_glide_emodel>  (34) 
-29.9767

>  <r_i_glide_energy>  (34) 
-26.2986

>  <r_i_glide_einternal>  (34) 
0.000219994

>  <r_i_glide_intrahb_reward>  (34) 
-0

>  <i_i_glide_confnum>  (34) 
2

>  <i_i_glide_posenum>  (34) 
1

>  <r_i_glide_eff_state_penalty>  (34) 
0

>  <ligand_id>  (34) 
9

>  <original_smiles>  (34) 
COC1(C)C(=O)C(C)C2C3CCC4(C)C(=C3C=CC21)C(=O)C1C2CCC(C)(C)C4(C)CCC21C

>  <smiles>  (34) 
[H]C1=C([H])C2([H])C(OC([H])([H])[H])(C([H])([H])[H])C(=O)C([H])(C([H])([H])[H])C2([H])C2([H])C1=C1C(=O)C3([H])C4([H])C([H])([H])C([H])([H])C(C([H])([H])[H])(C([H])([H])[H])C(C([H])([H])[H])(C([H])([H])C([H])([H])C34C([H])([H])[H])C1(C([H])([H])[H])C([H])([H])C2([H])[H]

$$$$
9:0:2
     RDKit          3D

 78 83  0  0  1  0  0  0  0  0999 V2000
   -0.4439   -7.3870    1.8317 C   0  0  0  0  0  0  0  0  0  0  0  0
    0.6843   -6.9284    2.5600 O   0  0  0  0  0  0  0  0  0  0  0  0
    1.2765   -7.8033    3.5316 C   0  0  1  0  0  0  0  0  0  0  0  0
    0.2336   -8.2869    4.5721 C   0  0  0  0  0  0  0  0  0  0  0  0
    1.9647   -8.9857    2.8538 C   0  0  0  0  0  0  0  0  0  0  0  0
    1.3740   -9.9724    2.4248 O   0  0  0  0  0  0  0  0  0  0  0  0
    3.4847   -8.8452    2.8857 C   0  0  1  0  0  0  0  0  0  0  0  0
    4.1834   -9.4757    1.6777 C   0  0  0  0  0  0  0  0  0  0  0  0
    3.7329   -7.3621    3.2494 C   0  0  1  0  0  0  0  0  0  0  0  0
    3.8482   -6.2855    2.1159 C   0  0  2  0  0  0  0  0  0  0  0  0
    5.0946   -6.4757    1.2393 C   0  0  0  0  0  0  0  0  0  0  0  0
    5.2576   -5.2934    0.2949 C   0  0  0  0  0  0  0  0  0  0  0  0
    5.5287   -3.9306    0.9756 C   0  0  2  0  0  0  0  0  0  0  0  0
    6.8951   -4.1569    1.6685 C   0  0  0  0  0  0  0  0  0  0  0  0
    4.5506   -3.8198    2.1953 C   0  0  0  0  0  0  0  0  0  0  0  0
    3.7926   -4.8519    2.6954 C   0  0  0  0  0  0  0  0  0  0  0  0
    2.8645   -4.6419    3.8173 C   0  0  0  0  0  0  0  0  0  0  0  0
    2.2598   -5.6446    4.4552 C   0  0  0  0  0  0  0  0  0  0  0  0
    2.4986   -7.0985    4.1484 C   0  0  1  0  0  0  0  0  0  0  0  0
    4.5056   -2.5225    2.8936 C   0  0  0  0  0  0  0  0  0  0  0  0
    5.3705   -2.1743    3.6950 O   0  0  0  0  0  0  0  0  0  0  0  0
    3.3431   -1.5997    2.7047 C   0  0  2  0  0  0  0  0  0  0  0  0
    2.4908   -1.5558    1.4566 C   0  0  2  0  0  0  0  0  0  0  0  0
    2.5300   -2.5789    0.3209 C   0  0  0  0  0  0  0  0  0  0  0  0
    3.1482   -2.0567   -0.9693 C   0  0  0  0  0  0  0  0  0  0  0  0
    4.5848   -2.5112   -1.3353 C   0  0  0  0  0  0  0  0  0  0  0  0
    4.3845   -3.7565   -2.2098 C   0  0  0  0  0  0  0  0  0  0  0  0
    5.0174   -1.4739   -2.3971 C   0  0  0  0  0  0  0  0  0  0  0  0
    5.6489   -2.6853   -0.1170 C   0  0  2  0  0  0  0  0  0  0  0  0
    7.0370   -2.8959   -0.8377 C   0  0  0  0  0  0  0  0  0  0  0  0
    5.8719   -1.2962    0.5751 C   0  0  0  0  0  0  0  0  0  0  0  0
    4.7609   -0.2428    0.8381 C   0  0  0  0  0  0  0  0  0  0  0  0
    3.5242   -0.4717    1.7271 C   0  0  2  0  0  0  0  0  0  0  0  0
    2.9944    0.8840    2.1756 C   0  0  0  0  0  0  0  0  0  0  0  0
   -0.6783   -6.6281    1.0871 H   0  0  0  0  0  0  0  0  0  0  0  0
   -1.3182   -7.5084    2.4707 H   0  0  0  0  0  0  0  0  0  0  0  0
   -0.2678   -8.3090    1.2855 H   0  0  0  0  0  0  0  0  0  0  0  0
    0.6947   -8.8877    5.3557 H   0  0  0  0  0  0  0  0  0  0  0  0
   -0.5301   -8.9263    4.1244 H   0  0  0  0  0  0  0  0  0  0  0  0
   -0.2777   -7.4489    5.0427 H   0  0  0  0  0  0  0  0  0  0  0  0
    3.7952   -9.4387    3.7410 H   0  0  0  0  0  0  0  0  0  0  0  0
    4.0507  -10.5541    1.7165 H   0  0  0  0  0  0  0  0  0  0  0  0
    5.2579   -9.2914    1.6859 H   0  0  0  0  0  0  0  0  0  0  0  0
    3.7607   -9.1431    0.7275 H   0  0  0  0  0  0  0  0  0  0  0  0
    4.6344   -7.3033    3.8606 H   0  0  0  0  0  0  0  0  0  0  0  0
    2.9761   -6.3681    1.4624 H   0  0  0  0  0  0  0  0  0  0  0  0
    5.9785   -6.6482    1.8489 H   0  0  0  0  0  0  0  0  0  0  0  0
    4.9958   -7.3403    0.5973 H   0  0  0  0  0  0  0  0  0  0  0  0
    6.0588   -5.5281   -0.3983 H   0  0  0  0  0  0  0  0  0  0  0  0
    4.3224   -5.2707   -0.2415 H   0  0  0  0  0  0  0  0  0  0  0  0
    7.6509   -4.6518    1.0486 H   0  0  0  0  0  0  0  0  0  0  0  0
    6.8022   -4.7562    2.5656 H   0  0  0  0  0  0  0  0  0  0  0  0
    7.2963   -3.2064    1.9721 H   0  0  0  0  0  0  0  0  0  0  0  0
    2.6123   -3.6554    4.1590 H   0  0  0  0  0  0  0  0  0  0  0  0
    1.5763   -5.4433    5.2646 H   0  0  0  0  0  0  0  0  0  0  0  0
    2.7065   -7.5702    5.1113 H   0  0  0  0  0  0  0  0  0  0  0  0
    2.8389   -1.3172    3.6266 H   0  0  0  0  0  0  0  0  0  0  0  0
    1.4776   -1.2367    1.6547 H   0  0  0  0  0  0  0  0  0  0  0  0
    2.8214   -3.5827    0.5945 H   0  0  0  0  0  0  0  0  0  0  0  0
    1.4927   -2.7297    0.0837 H   0  0  0  0  0  0  0  0  0  0  0  0
    2.4833   -2.3459   -1.7781 H   0  0  0  0  0  0  0  0  0  0  0  0
    3.0296   -0.9789   -1.0150 H   0  0  0  0  0  0  0  0  0  0  0  0
    5.2418   -4.4169   -2.2984 H   0  0  0  0  0  0  0  0  0  0  0  0
    4.0586   -3.5293   -3.2265 H   0  0  0  0  0  0  0  0  0  0  0  0
    3.5425   -4.2644   -1.7664 H   0  0  0  0  0  0  0  0  0  0  0  0
    5.7735   -1.9312   -3.0296 H   0  0  0  0  0  0  0  0  0  0  0  0
    5.3886   -0.5366   -1.9862 H   0  0  0  0  0  0  0  0  0  0  0  0
    4.1989   -1.2273   -3.0749 H   0  0  0  0  0  0  0  0  0  0  0  0
    7.2798   -2.1544   -1.5925 H   0  0  0  0  0  0  0  0  0  0  0  0
    7.1050   -3.8585   -1.3621 H   0  0  0  0  0  0  0  0  0  0  0  0
    7.8939   -2.8338   -0.1736 H   0  0  0  0  0  0  0  0  0  0  0  0
    6.4721   -1.3777    1.4710 H   0  0  0  0  0  0  0  0  0  0  0  0
    6.5427   -0.7185   -0.0609 H   0  0  0  0  0  0  0  0  0  0  0  0
    5.3272    0.5473    1.3246 H   0  0  0  0  0  0  0  0  0  0  0  0
    4.4137    0.2204   -0.0866 H   0  0  0  0  0  0  0  0  0  0  0  0
    2.6996    1.5001    1.3270 H   0  0  0  0  0  0  0  0  0  0  0  0
    3.7287    1.4089    2.7855 H   0  0  0  0  0  0  0  0  0  0  0  0
    2.1113    0.7605    2.7995 H   0  0  0  0  0  0  0  0  0  0  0  0
  1  2  1  0
  1 35  1  0
  1 36  1  0
  1 37  1  0
  3  2  1  6
  3 19  1  0
  3  4  1  0
  3  5  1  0
  4 38  1  0
  4 39  1  0
  4 40  1  0
  5  6  2  0
  5  7  1  0
  7  8  1  0
  7  9  1  0
  7 41  1  1
  8 42  1  0
  8 43  1  0
  8 44  1  0
  9 19  1  0
  9 10  1  0
  9 45  1  1
 10 16  1  0
 10 11  1  0
 10 46  1  6
 11 12  1  0
 11 47  1  0
 11 48  1  0
 12 13  1  0
 12 49  1  0
 12 50  1  0
 13 29  1  0
 13 14  1  1
 13 15  1  0
 14 51  1  0
 14 52  1  0
 14 53  1  0
 15 16  2  0
 15 20  1  0
 16 17  1  0
 17 18  2  0
 17 54  1  0
 18 19  1  0
 18 55  1  0
 19 56  1  1
 20 21  2  0
 20 22  1  0
 22 33  1  0
 22 23  1  0
 22 57  1  1
 23 33  1  0
 23 24  1  0
 23 58  1  1
 24 25  1  0
 24 59  1  0
 24 60  1  0
 25 26  1  0
 25 61  1  0
 25 62  1  0
 26 27  1  0
 26 28  1  0
 26 29  1  0
 27 63  1  0
 27 64  1  0
 27 65  1  0
 28 66  1  0
 28 67  1  0
 28 68  1  0
 29 30  1  6
 29 31  1  0
 30 69  1  0
 30 70  1  0
 30 71  1  0
 31 32  1  0
 31 72  1  0
 31 73  1  0
 32 33  1  0
 32 74  1  0
 32 75  1  0
 33 34  1  1
 34 76  1  0
 34 77  1  0
 34 78  1  0
M  END
>  <i_m_ct_stereo_status>  (35) 
1

>  <s_m_source_file>  (35) 
/var/tmp/pbs.5076255.sched01/tmp7hrp_b9g/014g_j70o.sdf

>  <i_m_source_file_index>  (35) 
16

>  <i_lp_mmshare_version>  (35) 
48012

>  <i_f3d_flags>  (35) 
0

>  <s_epik_input>  (35) 
W0NIM11bQ0BASF0xQyg9TylbQ0BdKFtDSDNdKShPW0NIM10pW0NASF0oW0NIXT1bQ0hdMilbQ0BASF0xW0NASF0oW0NIMl1bQ0gyXTMpQzI9QyhbQ0BAXTM0W0NIM10pQyg9TylbQ0BASF01W0NASF02W0NAXTUoW0NIM10pW0NIMl1bQ0gyXVtDQF00KFtDSDNdKUMoW0NIM10pKFtDSDNdKVtDSDJdW0NIMl02

>  <s_epik_cmdline>  (35) 
J2VwaWtfcHl0aG9uJywgJy1waHQnLCAnMi4wJywgJy1waCcsICc3LjAnLCAnLXRuJywgJzgnLCAnLW1hJywgJzIwMCcsICctaW1hZScsICc8aW5maWxlLm1hZT4nLCAnLW9tYWUnLCAnPG91dGZpbGUubWFlPic=

>  <r_lp_tautomer_probability>  (35) 
1

>  <r_epik_Ionization_Penalty>  (35) 
6.10733e-12

>  <r_epik_Ionization_Penalty_Charging>  (35) 
0

>  <r_epik_Ionization_Penalty_Neutral>  (35) 
6.10733e-12

>  <r_epik_State_Penalty>  (35) 
-0

>  <r_epik_Charging_Adjusted_Penalty>  (35) 
0

>  <i_epik_Tot_Q>  (35) 
0

>  <i_epik_Tot_abs_Q>  (35) 
0

>  <s_lp_Force_Field>  (35) 
OPLS3e

>  <r_lp_Energy>  (35) 
124.358

>  <b_lp_Chiralities_Consistent>  (35) 
1

>  <s_lp_Variant>  (35) 
9:0-1

>  <s_i_glide_gridfile>  (35) 
pfpi4k_grid

>  <i_i_glide_lignum>  (35) 
16

>  <i_i_glide_rotatable_bonds>  (35) 
1

>  <r_i_docking_score>  (35) 
-1.97715

>  <r_i_glide_ligand_efficiency>  (35) 
-0.0581514

>  <r_i_glide_ligand_efficiency_sa>  (35) 
-0.188388

>  <r_i_glide_ligand_efficiency_ln>  (35) 
-0.436807

>  <r_i_glide_gscore>  (35) 
-1.97715

>  <r_i_glide_lipo>  (35) 
-0.678365

>  <r_i_glide_hbond>  (35) 
0

>  <r_i_glide_metal>  (35) 
-0

>  <r_i_glide_rewards>  (35) 
-0.274033

>  <r_i_glide_evdw>  (35) 
-22.2212

>  <r_i_glide_ecoul>  (35) 
0.57549

>  <r_i_glide_erotb>  (35) 
0

>  <r_i_glide_esite>  (35) 
-1.19623e-05

>  <r_i_glide_emodel>  (35) 
-24.5683

>  <r_i_glide_energy>  (35) 
-21.6457

>  <r_i_glide_einternal>  (35) 
0.0781389

>  <r_i_glide_intrahb_reward>  (35) 
-0

>  <i_i_glide_confnum>  (35) 
2

>  <i_i_glide_posenum>  (35) 
18

>  <r_i_glide_eff_state_penalty>  (35) 
0

>  <ligand_id>  (35) 
9

>  <original_smiles>  (35) 
COC1(C)C(=O)C(C)C2C3CCC4(C)C(=C3C=CC21)C(=O)C1C2CCC(C)(C)C4(C)CCC21C

>  <smiles>  (35) 
[H]C1=C([H])C2([H])C(OC([H])([H])[H])(C([H])([H])[H])C(=O)C([H])(C([H])([H])[H])C2([H])C2([H])C1=C1C(=O)C3([H])C4([H])C([H])([H])C([H])([H])C(C([H])([H])[H])(C([H])([H])[H])C(C([H])([H])[H])(C([H])([H])C([H])([H])C34C([H])([H])[H])C1(C([H])([H])[H])C([H])([H])C2([H])[H]

$$$$
10:0:0
     RDKit          3D

 25 27  0  0  1  0  0  0  0  0999 V2000
    3.1629   -6.8794    1.2837 C   0  0  0  0  0  0  0  0  0  0  0  0
    1.8438   -6.4113    1.4018 C   0  0  0  0  0  0  0  0  0  0  0  0
    0.8697   -7.1831    2.0624 C   0  0  0  0  0  0  0  0  0  0  0  0
    1.2408   -8.4291    2.6283 C   0  0  0  0  0  0  0  0  0  0  0  0
    2.5640   -8.8993    2.5065 C   0  0  0  0  0  0  0  0  0  0  0  0
    3.5372   -8.1267    1.8303 C   0  0  0  0  0  0  0  0  0  0  0  0
    4.8814   -8.5610    1.7101 N   0  0  0  0  0  0  0  0  0  0  0  0
    5.3018   -9.8220    1.8457 C   0  0  0  0  0  0  0  0  0  0  0  0
    6.6127   -9.9005    1.6561 N   0  0  0  0  0  0  0  0  0  0  0  0
    6.9799   -8.5884    1.4001 N   0  0  0  0  0  0  0  0  0  0  0  0
    5.9521   -7.7853    1.4233 N   0  0  0  0  0  0  0  0  0  0  0  0
    0.2216   -9.2660    3.3810 C   0  0  0  0  0  0  0  0  0  0  0  0
   -1.0264   -8.4453    3.7105 C   0  0  0  0  0  0  0  0  0  0  0  0
   -1.4224   -7.6127    2.4953 C   0  0  0  0  0  0  0  0  0  0  0  0
   -0.4082   -6.6769    2.1483 O   0  0  0  0  0  0  0  0  0  0  0  0
    3.8884   -6.2702    0.7640 H   0  0  0  0  0  0  0  0  0  0  0  0
    1.5886   -5.4540    0.9744 H   0  0  0  0  0  0  0  0  0  0  0  0
    2.8156   -9.8477    2.9587 H   0  0  0  0  0  0  0  0  0  0  0  0
    4.6796  -10.6743    2.0740 H   0  0  0  0  0  0  0  0  0  0  0  0
   -0.0435  -10.1163    2.7511 H   0  0  0  0  0  0  0  0  0  0  0  0
    0.6590   -9.6706    4.2950 H   0  0  0  0  0  0  0  0  0  0  0  0
   -1.8527   -9.0859    4.0089 H   0  0  0  0  0  0  0  0  0  0  0  0
   -0.8280   -7.7853    4.5554 H   0  0  0  0  0  0  0  0  0  0  0  0
   -1.6324   -8.2612    1.6438 H   0  0  0  0  0  0  0  0  0  0  0  0
   -2.3375   -7.0659    2.7152 H   0  0  0  0  0  0  0  0  0  0  0  0
  1  6  2  0
  1  2  1  0
  1 16  1  0
  2  3  2  0
  2 17  1  0
  3 15  1  0
  3  4  1  0
  4  5  2  0
  4 12  1  0
  5  6  1  0
  5 18  1  0
  6  7  1  0
  7 11  1  0
  7  8  1  0
  8  9  2  0
  8 19  1  0
  9 10  1  0
 10 11  2  0
 12 13  1  0
 12 20  1  0
 12 21  1  0
 13 14  1  0
 13 22  1  0
 13 23  1  0
 14 15  1  0
 14 24  1  0
 14 25  1  0
M  END
>  <i_m_ct_stereo_status>  (36) 
1

>  <s_m_source_file>  (36) 
/var/tmp/pbs.5076255.sched01/tmp7hrp_b9g/014g_j70o.sdf

>  <i_m_source_file_index>  (36) 
17

>  <i_lp_mmshare_version>  (36) 
48012

>  <i_f3d_flags>  (36) 
0

>  <s_epik_input>  (36) 
bjFubltjSF1uMS1jKFtjSF1bY0hdMilbY0hdYyhjMjMpW0NIMl1bQ0gyXVtDSDJdTzM=

>  <s_epik_cmdline>  (36) 
J2VwaWtfcHl0aG9uJywgJy1waHQnLCAnMi4wJywgJy1waCcsICc3LjAnLCAnLXRuJywgJzgnLCAnLW1hJywgJzIwMCcsICctaW1hZScsICc8aW5maWxlLm1hZT4nLCAnLW9tYWUnLCAnPG91dGZpbGUubWFlPic=

>  <r_lp_tautomer_probability>  (36) 
1

>  <r_epik_Ionization_Penalty>  (36) 
8.60369e-10

>  <r_epik_Ionization_Penalty_Charging>  (36) 
0

>  <r_epik_Ionization_Penalty_Neutral>  (36) 
8.60369e-10

>  <r_epik_State_Penalty>  (36) 
-0

>  <r_epik_Charging_Adjusted_Penalty>  (36) 
0

>  <i_epik_Tot_Q>  (36) 
0

>  <i_epik_Tot_abs_Q>  (36) 
0

>  <s_lp_Force_Field>  (36) 
OPLS3e

>  <r_lp_Energy>  (36) 
21.6273

>  <b_lp_Chiralities_Consistent>  (36) 
1

>  <s_lp_Variant>  (36) 
10:0-1

>  <s_i_glide_gridfile>  (36) 
pfpi4k_grid

>  <i_i_glide_lignum>  (36) 
17

>  <i_i_glide_rotatable_bonds>  (36) 
1

>  <r_i_docking_score>  (36) 
-3.49413

>  <r_i_glide_ligand_efficiency>  (36) 
-0.232942

>  <r_i_glide_ligand_efficiency_sa>  (36) 
-0.574484

>  <r_i_glide_ligand_efficiency_ln>  (36) 
-0.942309

>  <r_i_glide_gscore>  (36) 
-3.49413

>  <r_i_glide_lipo>  (36) 
-0.0567931

>  <r_i_glide_hbond>  (36) 
-0.16

>  <r_i_glide_metal>  (36) 
-0

>  <r_i_glide_rewards>  (36) 
-2.03037

>  <r_i_glide_evdw>  (36) 
-19.6939

>  <r_i_glide_ecoul>  (36) 
-3.84629

>  <r_i_glide_erotb>  (36) 
0.400909

>  <r_i_glide_esite>  (36) 
-0.0862393

>  <r_i_glide_emodel>  (36) 
-29.1463

>  <r_i_glide_energy>  (36) 
-23.5402

>  <r_i_glide_einternal>  (36) 
0.0257938

>  <r_i_glide_intrahb_reward>  (36) 
-0

>  <i_i_glide_confnum>  (36) 
4

>  <i_i_glide_posenum>  (36) 
34

>  <r_i_glide_eff_state_penalty>  (36) 
0

>  <ligand_id>  (36) 
10

>  <original_smiles>  (36) 
c1cc2c(cc1-n1cnnn1)CCCO2

>  <smiles>  (36) 
[H]c1c([H])c(-n2nnnc2[H])c([H])c2c1OC([H])([H])C([H])([H])C2([H])[H]

$$$$
10:0:1
     RDKit          3D

 25 27  0  0  1  0  0  0  0  0999 V2000
    1.3179   -5.1534    3.7314 C   0  0  0  0  0  0  0  0  0  0  0  0
    1.8703   -6.0698    2.8149 C   0  0  0  0  0  0  0  0  0  0  0  0
    1.6209   -7.4494    2.9401 C   0  0  0  0  0  0  0  0  0  0  0  0
    0.7850   -7.9099    3.9871 C   0  0  0  0  0  0  0  0  0  0  0  0
    0.2317   -6.9931    4.9008 C   0  0  0  0  0  0  0  0  0  0  0  0
    0.4960   -5.6091    4.7911 C   0  0  0  0  0  0  0  0  0  0  0  0
   -0.0847   -4.7150    5.7313 N   0  0  0  0  0  0  0  0  0  0  0  0
    0.1780   -3.4081    5.8277 C   0  0  0  0  0  0  0  0  0  0  0  0
   -0.5582   -2.8501    6.7796 N   0  0  0  0  0  0  0  0  0  0  0  0
   -1.2907   -3.9134    7.2853 N   0  0  0  0  0  0  0  0  0  0  0  0
   -1.0049   -5.0281    6.6737 N   0  0  0  0  0  0  0  0  0  0  0  0
    0.4739   -9.3890    4.1353 C   0  0  0  0  0  0  0  0  0  0  0  0
    0.8643  -10.1680    2.8785 C   0  0  0  0  0  0  0  0  0  0  0  0
    2.2273   -9.6817    2.3703 C   0  0  0  0  0  0  0  0  0  0  0  0
    2.1864   -8.3008    2.0189 O   0  0  0  0  0  0  0  0  0  0  0  0
    1.5408   -4.1062    3.5906 H   0  0  0  0  0  0  0  0  0  0  0  0
    2.5021   -5.7128    2.0139 H   0  0  0  0  0  0  0  0  0  0  0  0
   -0.4010   -7.3681    5.6932 H   0  0  0  0  0  0  0  0  0  0  0  0
    0.8807   -2.8557    5.2237 H   0  0  0  0  0  0  0  0  0  0  0  0
    1.0297   -9.7689    4.9937 H   0  0  0  0  0  0  0  0  0  0  0  0
   -0.5842   -9.5284    4.3573 H   0  0  0  0  0  0  0  0  0  0  0  0
    0.8769  -11.2391    3.0813 H   0  0  0  0  0  0  0  0  0  0  0  0
    0.1207  -10.0043    2.0991 H   0  0  0  0  0  0  0  0  0  0  0  0
    2.9978   -9.8408    3.1262 H   0  0  0  0  0  0  0  0  0  0  0  0
    2.5279  -10.2508    1.4899 H   0  0  0  0  0  0  0  0  0  0  0  0
  1  6  2  0
  1  2  1  0
  1 16  1  0
  2  3  2  0
  2 17  1  0
  3 15  1  0
  3  4  1  0
  4  5  2  0
  4 12  1  0
  5  6  1  0
  5 18  1  0
  6  7  1  0
  7 11  1  0
  7  8  1  0
  8  9  2  0
  8 19  1  0
  9 10  1  0
 10 11  2  0
 12 13  1  0
 12 20  1  0
 12 21  1  0
 13 14  1  0
 13 22  1  0
 13 23  1  0
 14 15  1  0
 14 24  1  0
 14 25  1  0
M  END
>  <i_m_ct_stereo_status>  (37) 
1

>  <s_m_source_file>  (37) 
/var/tmp/pbs.5076255.sched01/tmp7hrp_b9g/014g_j70o.sdf

>  <i_m_source_file_index>  (37) 
17

>  <i_lp_mmshare_version>  (37) 
48012

>  <i_f3d_flags>  (37) 
0

>  <s_epik_input>  (37) 
bjFubltjSF1uMS1jKFtjSF1bY0hdMilbY0hdYyhjMjMpW0NIMl1bQ0gyXVtDSDJdTzM=

>  <s_epik_cmdline>  (37) 
J2VwaWtfcHl0aG9uJywgJy1waHQnLCAnMi4wJywgJy1waCcsICc3LjAnLCAnLXRuJywgJzgnLCAnLW1hJywgJzIwMCcsICctaW1hZScsICc8aW5maWxlLm1hZT4nLCAnLW9tYWUnLCAnPG91dGZpbGUubWFlPic=

>  <r_lp_tautomer_probability>  (37) 
1

>  <r_epik_Ionization_Penalty>  (37) 
8.60369e-10

>  <r_epik_Ionization_Penalty_Charging>  (37) 
0

>  <r_epik_Ionization_Penalty_Neutral>  (37) 
8.60369e-10

>  <r_epik_State_Penalty>  (37) 
-0

>  <r_epik_Charging_Adjusted_Penalty>  (37) 
0

>  <i_epik_Tot_Q>  (37) 
0

>  <i_epik_Tot_abs_Q>  (37) 
0

>  <s_lp_Force_Field>  (37) 
OPLS3e

>  <r_lp_Energy>  (37) 
21.6273

>  <b_lp_Chiralities_Consistent>  (37) 
1

>  <s_lp_Variant>  (37) 
10:0-1

>  <s_i_glide_gridfile>  (37) 
pfpi4k_grid

>  <i_i_glide_lignum>  (37) 
17

>  <i_i_glide_rotatable_bonds>  (37) 
1

>  <r_i_docking_score>  (37) 
-3.26078

>  <r_i_glide_ligand_efficiency>  (37) 
-0.217386

>  <r_i_glide_ligand_efficiency_sa>  (37) 
-0.536119

>  <r_i_glide_ligand_efficiency_ln>  (37) 
-0.87938

>  <r_i_glide_gscore>  (37) 
-3.26078

>  <r_i_glide_lipo>  (37) 
-0.168669

>  <r_i_glide_hbond>  (37) 
0

>  <r_i_glide_metal>  (37) 
-0

>  <r_i_glide_rewards>  (37) 
-2.03037

>  <r_i_glide_evdw>  (37) 
-16.4953

>  <r_i_glide_ecoul>  (37) 
-3.68175

>  <r_i_glide_erotb>  (37) 
0.400909

>  <r_i_glide_esite>  (37) 
-0.0856282

>  <r_i_glide_emodel>  (37) 
-25.4146

>  <r_i_glide_energy>  (37) 
-20.1771

>  <r_i_glide_einternal>  (37) 
0.0151655

>  <r_i_glide_intrahb_reward>  (37) 
-0

>  <i_i_glide_confnum>  (37) 
3

>  <i_i_glide_posenum>  (37) 
29

>  <r_i_glide_eff_state_penalty>  (37) 
0

>  <ligand_id>  (37) 
10

>  <original_smiles>  (37) 
c1cc2c(cc1-n1cnnn1)CCCO2

>  <smiles>  (37) 
[H]c1c([H])c(-n2nnnc2[H])c([H])c2c1OC([H])([H])C([H])([H])C2([H])[H]

$$$$
10:0:2
     RDKit          3D

 25 27  0  0  1  0  0  0  0  0999 V2000
    3.1335   -3.1893    0.9405 C   0  0  0  0  0  0  0  0  0  0  0  0
    2.7978   -3.6430   -0.3472 C   0  0  0  0  0  0  0  0  0  0  0  0
    3.1962   -2.9148   -1.4832 C   0  0  0  0  0  0  0  0  0  0  0  0
    3.9217   -1.7117   -1.3198 C   0  0  0  0  0  0  0  0  0  0  0  0
    4.2602   -1.2560   -0.0283 C   0  0  0  0  0  0  0  0  0  0  0  0
    3.8712   -1.9983    1.1106 C   0  0  0  0  0  0  0  0  0  0  0  0
    4.2235   -1.5808    2.4165 N   0  0  0  0  0  0  0  0  0  0  0  0
    4.3502   -0.3114    2.8029 C   0  0  0  0  0  0  0  0  0  0  0  0
    4.6769   -0.2432    4.0855 N   0  0  0  0  0  0  0  0  0  0  0  0
    4.7256   -1.5745    4.4765 N   0  0  0  0  0  0  0  0  0  0  0  0
    4.4458   -2.3774    3.4868 N   0  0  0  0  0  0  0  0  0  0  0  0
    4.3301   -0.8987   -2.5318 C   0  0  0  0  0  0  0  0  0  0  0  0
    3.5973   -1.3497   -3.7945 C   0  0  0  0  0  0  0  0  0  0  0  0
    3.5292   -2.8791   -3.8349 C   0  0  0  0  0  0  0  0  0  0  0  0
    2.8222   -3.3897   -2.7158 O   0  0  0  0  0  0  0  0  0  0  0  0
    2.8242   -3.7624    1.8032 H   0  0  0  0  0  0  0  0  0  0  0  0
    2.2356   -4.5581   -0.4681 H   0  0  0  0  0  0  0  0  0  0  0  0
    4.8254   -0.3391    0.0667 H   0  0  0  0  0  0  0  0  0  0  0  0
    4.1997    0.5489    2.1711 H   0  0  0  0  0  0  0  0  0  0  0  0
    4.1405    0.1556   -2.3477 H   0  0  0  0  0  0  0  0  0  0  0  0
    5.4054   -1.0105   -2.6630 H   0  0  0  0  0  0  0  0  0  0  0  0
    2.5822   -0.9570   -3.7778 H   0  0  0  0  0  0  0  0  0  0  0  0
    4.0742   -0.9434   -4.6868 H   0  0  0  0  0  0  0  0  0  0  0  0
    3.0059   -3.2083   -4.7292 H   0  0  0  0  0  0  0  0  0  0  0  0
    4.5301   -3.3132   -3.8669 H   0  0  0  0  0  0  0  0  0  0  0  0
  1  6  2  0
  1  2  1  0
  1 16  1  0
  2  3  2  0
  2 17  1  0
  3 15  1  0
  3  4  1  0
  4  5  2  0
  4 12  1  0
  5  6  1  0
  5 18  1  0
  6  7  1  0
  7 11  1  0
  7  8  1  0
  8  9  2  0
  8 19  1  0
  9 10  1  0
 10 11  2  0
 12 13  1  0
 12 20  1  0
 12 21  1  0
 13 14  1  0
 13 22  1  0
 13 23  1  0
 14 15  1  0
 14 24  1  0
 14 25  1  0
M  END
>  <i_m_ct_stereo_status>  (38) 
1

>  <s_m_source_file>  (38) 
/var/tmp/pbs.5076255.sched01/tmp7hrp_b9g/014g_j70o.sdf

>  <i_m_source_file_index>  (38) 
17

>  <i_lp_mmshare_version>  (38) 
48012

>  <i_f3d_flags>  (38) 
0

>  <s_epik_input>  (38) 
bjFubltjSF1uMS1jKFtjSF1bY0hdMilbY0hdYyhjMjMpW0NIMl1bQ0gyXVtDSDJdTzM=

>  <s_epik_cmdline>  (38) 
J2VwaWtfcHl0aG9uJywgJy1waHQnLCAnMi4wJywgJy1waCcsICc3LjAnLCAnLXRuJywgJzgnLCAnLW1hJywgJzIwMCcsICctaW1hZScsICc8aW5maWxlLm1hZT4nLCAnLW9tYWUnLCAnPG91dGZpbGUubWFlPic=

>  <r_lp_tautomer_probability>  (38) 
1

>  <r_epik_Ionization_Penalty>  (38) 
8.60369e-10

>  <r_epik_Ionization_Penalty_Charging>  (38) 
0

>  <r_epik_Ionization_Penalty_Neutral>  (38) 
8.60369e-10

>  <r_epik_State_Penalty>  (38) 
-0

>  <r_epik_Charging_Adjusted_Penalty>  (38) 
0

>  <i_epik_Tot_Q>  (38) 
0

>  <i_epik_Tot_abs_Q>  (38) 
0

>  <s_lp_Force_Field>  (38) 
OPLS3e

>  <r_lp_Energy>  (38) 
21.6273

>  <b_lp_Chiralities_Consistent>  (38) 
1

>  <s_lp_Variant>  (38) 
10:0-1

>  <s_i_glide_gridfile>  (38) 
pfpi4k_grid

>  <i_i_glide_lignum>  (38) 
17

>  <i_i_glide_rotatable_bonds>  (38) 
1

>  <r_i_docking_score>  (38) 
-2.86864

>  <r_i_glide_ligand_efficiency>  (38) 
-0.191243

>  <r_i_glide_ligand_efficiency_sa>  (38) 
-0.471645

>  <r_i_glide_ligand_efficiency_ln>  (38) 
-0.773626

>  <r_i_glide_gscore>  (38) 
-2.86864

>  <r_i_glide_lipo>  (38) 
-0.280263

>  <r_i_glide_hbond>  (38) 
0

>  <r_i_glide_metal>  (38) 
-0

>  <r_i_glide_rewards>  (38) 
-2.13648

>  <r_i_glide_evdw>  (38) 
-21.3792

>  <r_i_glide_ecoul>  (38) 
1.44103

>  <r_i_glide_erotb>  (38) 
0.400909

>  <r_i_glide_esite>  (38) 
0

>  <r_i_glide_emodel>  (38) 
-24.3738

>  <r_i_glide_energy>  (38) 
-19.9382

>  <r_i_glide_einternal>  (38) 
0.308685

>  <r_i_glide_intrahb_reward>  (38) 
-0

>  <i_i_glide_confnum>  (38) 
5

>  <i_i_glide_posenum>  (38) 
3

>  <r_i_glide_eff_state_penalty>  (38) 
0

>  <ligand_id>  (38) 
10

>  <original_smiles>  (38) 
c1cc2c(cc1-n1cnnn1)CCCO2

>  <smiles>  (38) 
[H]c1c([H])c(-n2nnnc2[H])c([H])c2c1OC([H])([H])C([H])([H])C2([H])[H]

$$$$
11:0:0
     RDKit          3D

 16 18  0  0  1  0  0  0  0  0999 V2000
    1.3949    0.7917    2.0208 C   0  0  0  0  0  0  0  0  0  0  0  0
    1.1198    2.1408    2.6501 C   0  0  0  0  0  0  0  0  0  0  0  0
    2.1632    2.9865    2.7394 N   0  0  0  0  0  0  0  0  0  0  0  0
    2.0208    4.2379    3.2696 C   0  0  0  0  0  0  0  0  0  0  0  0
    3.0289    5.0565    3.3413 N   0  0  0  0  0  0  0  0  0  0  0  0
    2.2996    6.3983    4.0720 S   0  0  0  0  0  0  0  0  0  0  0  0
    0.7022    5.8492    4.2763 N   0  0  0  0  0  0  0  0  0  0  0  0
    0.7288    4.6180    3.7546 C   0  0  0  0  0  0  0  0  0  0  0  0
   -0.3573    3.7351    3.6788 N   0  0  0  0  0  0  0  0  0  0  0  0
   -1.6148    3.9475    4.0877 N   0  0  0  0  0  0  0  0  0  0  0  0
   -2.2079    2.8287    3.7818 N   0  0  0  0  0  0  0  0  0  0  0  0
   -1.3319    1.9021    3.1880 N   0  0  0  0  0  0  0  0  0  0  0  0
   -0.1579    2.5278    3.1369 C   0  0  0  0  0  0  0  0  0  0  0  0
    0.5069    0.1621    1.9861 H   0  0  0  0  0  0  0  0  0  0  0  0
    2.1641    0.2682    2.5875 H   0  0  0  0  0  0  0  0  0  0  0  0
    1.7546    0.9155    0.9997 H   0  0  0  0  0  0  0  0  0  0  0  0
  1  2  1  0
  1 14  1  0
  1 15  1  0
  1 16  1  0
  2 13  1  0
  2  3  2  0
  3  4  1  0
  4  8  1  0
  4  5  2  0
  5  6  1  0
  6  7  1  0
  7  8  2  0
  8  9  1  0
  9 13  1  0
  9 10  1  0
 10 11  2  0
 11 12  1  0
 12 13  2  0
M  END
>  <i_m_ct_stereo_status>  (39) 
1

>  <s_m_source_file>  (39) 
/var/tmp/pbs.5076255.sched01/tmp7hrp_b9g/014g_j70o.sdf

>  <i_m_source_file_index>  (39) 
18

>  <i_lp_mmshare_version>  (39) 
48012

>  <i_f3d_flags>  (39) 
0

>  <s_epik_input>  (39) 
bjFubmMoYyhuMilbQ0gzXSluMWMoYzIzKW5zbjM=

>  <s_epik_cmdline>  (39) 
J2VwaWtfcHl0aG9uJywgJy1waHQnLCAnMi4wJywgJy1waCcsICc3LjAnLCAnLXRuJywgJzgnLCAnLW1hJywgJzIwMCcsICctaW1hZScsICc8aW5maWxlLm1hZT4nLCAnLW9tYWUnLCAnPG91dGZpbGUubWFlPic=

>  <r_lp_tautomer_probability>  (39) 
1

>  <r_epik_Ionization_Penalty>  (39) 
3.69021e-13

>  <r_epik_Ionization_Penalty_Charging>  (39) 
0

>  <r_epik_Ionization_Penalty_Neutral>  (39) 
3.69021e-13

>  <r_epik_State_Penalty>  (39) 
-0

>  <r_epik_Charging_Adjusted_Penalty>  (39) 
0

>  <i_epik_Tot_Q>  (39) 
0

>  <i_epik_Tot_abs_Q>  (39) 
0

>  <s_lp_Force_Field>  (39) 
OPLS3e

>  <r_lp_Energy>  (39) 
10.2613

>  <b_lp_Chiralities_Consistent>  (39) 
1

>  <s_lp_Variant>  (39) 
11:0-1

>  <s_i_glide_gridfile>  (39) 
pfpi4k_grid

>  <i_i_glide_lignum>  (39) 
18

>  <i_i_glide_rotatable_bonds>  (39) 
0

>  <r_i_docking_score>  (39) 
-3.85763

>  <r_i_glide_ligand_efficiency>  (39) 
-0.296741

>  <r_i_glide_ligand_efficiency_sa>  (39) 
-0.697736

>  <r_i_glide_ligand_efficiency_ln>  (39) 
-1.0821

>  <r_i_glide_gscore>  (39) 
-3.85763

>  <r_i_glide_lipo>  (39) 
0

>  <r_i_glide_hbond>  (39) 
0

>  <r_i_glide_metal>  (39) 
-0

>  <r_i_glide_rewards>  (39) 
-2.09188

>  <r_i_glide_evdw>  (39) 
-19.5801

>  <r_i_glide_ecoul>  (39) 
-2.08501

>  <r_i_glide_erotb>  (39) 
0

>  <r_i_glide_esite>  (39) 
-0.473987

>  <r_i_glide_emodel>  (39) 
-27.7129

>  <r_i_glide_energy>  (39) 
-21.6651

>  <r_i_glide_einternal>  (39) 
0

>  <r_i_glide_intrahb_reward>  (39) 
-0

>  <i_i_glide_confnum>  (39) 
2

>  <i_i_glide_posenum>  (39) 
38

>  <r_i_glide_eff_state_penalty>  (39) 
0

>  <ligand_id>  (39) 
11

>  <original_smiles>  (39) 
Cc1nc2nsnc2n2nnnc12

>  <smiles>  (39) 
[H]C([H])([H])c1nc2nsnc2n2nnnc12

$$$$
11:0:1
     RDKit          3D

 16 18  0  0  1  0  0  0  0  0999 V2000
    3.1814   -1.7393   -2.7892 C   0  0  0  0  0  0  0  0  0  0  0  0
    3.6848   -2.7172   -1.7495 C   0  0  0  0  0  0  0  0  0  0  0  0
    2.7550   -3.4506   -1.1084 N   0  0  0  0  0  0  0  0  0  0  0  0
    3.1015   -4.3734   -0.1648 C   0  0  0  0  0  0  0  0  0  0  0  0
    2.2041   -5.0976    0.4311 N   0  0  0  0  0  0  0  0  0  0  0  0
    3.1663   -6.0365    1.4560 S   0  0  0  0  0  0  0  0  0  0  0  0
    4.7190   -5.4577    1.0787 N   0  0  0  0  0  0  0  0  0  0  0  0
    4.4911   -4.5321    0.1408 C   0  0  0  0  0  0  0  0  0  0  0  0
    5.4601   -3.7583   -0.5074 N   0  0  0  0  0  0  0  0  0  0  0  0
    6.7837   -3.7739   -0.3142 N   0  0  0  0  0  0  0  0  0  0  0  0
    7.2106   -2.8801   -1.1578 N   0  0  0  0  0  0  0  0  0  0  0  0
    6.1629   -2.2846   -1.8817 N   0  0  0  0  0  0  0  0  0  0  0  0
    5.0584   -2.8780   -1.4325 C   0  0  0  0  0  0  0  0  0  0  0  0
    3.9904   -1.1761   -3.2516 H   0  0  0  0  0  0  0  0  0  0  0  0
    2.5038   -1.0267   -2.3233 H   0  0  0  0  0  0  0  0  0  0  0  0
    2.6361   -2.2672   -3.5719 H   0  0  0  0  0  0  0  0  0  0  0  0
  1  2  1  0
  1 14  1  0
  1 15  1  0
  1 16  1  0
  2 13  1  0
  2  3  2  0
  3  4  1  0
  4  8  1  0
  4  5  2  0
  5  6  1  0
  6  7  1  0
  7  8  2  0
  8  9  1  0
  9 13  1  0
  9 10  1  0
 10 11  2  0
 11 12  1  0
 12 13  2  0
M  END
>  <i_m_ct_stereo_status>  (40) 
1

>  <s_m_source_file>  (40) 
/var/tmp/pbs.5076255.sched01/tmp7hrp_b9g/014g_j70o.sdf

>  <i_m_source_file_index>  (40) 
18

>  <i_lp_mmshare_version>  (40) 
48012

>  <i_f3d_flags>  (40) 
0

>  <s_epik_input>  (40) 
bjFubmMoYyhuMilbQ0gzXSluMWMoYzIzKW5zbjM=

>  <s_epik_cmdline>  (40) 
J2VwaWtfcHl0aG9uJywgJy1waHQnLCAnMi4wJywgJy1waCcsICc3LjAnLCAnLXRuJywgJzgnLCAnLW1hJywgJzIwMCcsICctaW1hZScsICc8aW5maWxlLm1hZT4nLCAnLW9tYWUnLCAnPG91dGZpbGUubWFlPic=

>  <r_lp_tautomer_probability>  (40) 
1

>  <r_epik_Ionization_Penalty>  (40) 
3.69021e-13

>  <r_epik_Ionization_Penalty_Charging>  (40) 
0

>  <r_epik_Ionization_Penalty_Neutral>  (40) 
3.69021e-13

>  <r_epik_State_Penalty>  (40) 
-0

>  <r_epik_Charging_Adjusted_Penalty>  (40) 
0

>  <i_epik_Tot_Q>  (40) 
0

>  <i_epik_Tot_abs_Q>  (40) 
0

>  <s_lp_Force_Field>  (40) 
OPLS3e

>  <r_lp_Energy>  (40) 
10.2613

>  <b_lp_Chiralities_Consistent>  (40) 
1

>  <s_lp_Variant>  (40) 
11:0-1

>  <s_i_glide_gridfile>  (40) 
pfpi4k_grid

>  <i_i_glide_lignum>  (40) 
18

>  <i_i_glide_rotatable_bonds>  (40) 
0

>  <r_i_docking_score>  (40) 
-3.75578

>  <r_i_glide_ligand_efficiency>  (40) 
-0.288906

>  <r_i_glide_ligand_efficiency_sa>  (40) 
-0.679316

>  <r_i_glide_ligand_efficiency_ln>  (40) 
-1.05353

>  <r_i_glide_gscore>  (40) 
-3.75578

>  <r_i_glide_lipo>  (40) 
-0.0353036

>  <r_i_glide_hbond>  (40) 
-0.0193535

>  <r_i_glide_metal>  (40) 
-0

>  <r_i_glide_rewards>  (40) 
-2.20731

>  <r_i_glide_evdw>  (40) 
-18.8004

>  <r_i_glide_ecoul>  (40) 
-3.06838

>  <r_i_glide_erotb>  (40) 
0

>  <r_i_glide_esite>  (40) 
-0.0935427

>  <r_i_glide_emodel>  (40) 
-27.756

>  <r_i_glide_energy>  (40) 
-21.8688

>  <r_i_glide_einternal>  (40) 
0

>  <r_i_glide_intrahb_reward>  (40) 
-0

>  <i_i_glide_confnum>  (40) 
1

>  <i_i_glide_posenum>  (40) 
6

>  <r_i_glide_eff_state_penalty>  (40) 
0

>  <ligand_id>  (40) 
11

>  <original_smiles>  (40) 
Cc1nc2nsnc2n2nnnc12

>  <smiles>  (40) 
[H]C([H])([H])c1nc2nsnc2n2nnnc12

$$$$
11:0:2
     RDKit          3D

 16 18  0  0  1  0  0  0  0  0999 V2000
    2.5935   -2.9741   -2.7806 C   0  0  0  0  0  0  0  0  0  0  0  0
    3.3831   -3.3278   -1.5383 C   0  0  0  0  0  0  0  0  0  0  0  0
    2.6883   -3.8522   -0.5106 N   0  0  0  0  0  0  0  0  0  0  0  0
    3.2984   -4.2157    0.6534 C   0  0  0  0  0  0  0  0  0  0  0  0
    2.6135   -4.7234    1.6363 N   0  0  0  0  0  0  0  0  0  0  0  0
    3.8371   -4.9692    2.7786 S   0  0  0  0  0  0  0  0  0  0  0  0
    5.2050   -4.3997    1.9391 N   0  0  0  0  0  0  0  0  0  0  0  0
    4.7130   -4.0176    0.7561 C   0  0  0  0  0  0  0  0  0  0  0  0
    5.4431   -3.4726   -0.3103 N   0  0  0  0  0  0  0  0  0  0  0  0
    6.7585   -3.2228   -0.3625 N   0  0  0  0  0  0  0  0  0  0  0  0
    6.9116   -2.7260   -1.5574 N   0  0  0  0  0  0  0  0  0  0  0  0
    5.7005   -2.6548   -2.2681 N   0  0  0  0  0  0  0  0  0  0  0  0
    4.7857   -3.1409   -1.4291 C   0  0  0  0  0  0  0  0  0  0  0  0
    3.2214   -2.5580   -3.5679 H   0  0  0  0  0  0  0  0  0  0  0  0
    1.8202   -2.2495   -2.5361 H   0  0  0  0  0  0  0  0  0  0  0  0
    2.0969   -3.8567   -3.1768 H   0  0  0  0  0  0  0  0  0  0  0  0
  1  2  1  0
  1 14  1  0
  1 15  1  0
  1 16  1  0
  2 13  1  0
  2  3  2  0
  3  4  1  0
  4  8  1  0
  4  5  2  0
  5  6  1  0
  6  7  1  0
  7  8  2  0
  8  9  1  0
  9 13  1  0
  9 10  1  0
 10 11  2  0
 11 12  1  0
 12 13  2  0
M  END
>  <i_m_ct_stereo_status>  (41) 
1

>  <s_m_source_file>  (41) 
/var/tmp/pbs.5076255.sched01/tmp7hrp_b9g/014g_j70o.sdf

>  <i_m_source_file_index>  (41) 
18

>  <i_lp_mmshare_version>  (41) 
48012

>  <i_f3d_flags>  (41) 
0

>  <s_epik_input>  (41) 
bjFubmMoYyhuMilbQ0gzXSluMWMoYzIzKW5zbjM=

>  <s_epik_cmdline>  (41) 
J2VwaWtfcHl0aG9uJywgJy1waHQnLCAnMi4wJywgJy1waCcsICc3LjAnLCAnLXRuJywgJzgnLCAnLW1hJywgJzIwMCcsICctaW1hZScsICc8aW5maWxlLm1hZT4nLCAnLW9tYWUnLCAnPG91dGZpbGUubWFlPic=

>  <r_lp_tautomer_probability>  (41) 
1

>  <r_epik_Ionization_Penalty>  (41) 
3.69021e-13

>  <r_epik_Ionization_Penalty_Charging>  (41) 
0

>  <r_epik_Ionization_Penalty_Neutral>  (41) 
3.69021e-13

>  <r_epik_State_Penalty>  (41) 
-0

>  <r_epik_Charging_Adjusted_Penalty>  (41) 
0

>  <i_epik_Tot_Q>  (41) 
0

>  <i_epik_Tot_abs_Q>  (41) 
0

>  <s_lp_Force_Field>  (41) 
OPLS3e

>  <r_lp_Energy>  (41) 
10.2613

>  <b_lp_Chiralities_Consistent>  (41) 
1

>  <s_lp_Variant>  (41) 
11:0-1

>  <s_i_glide_gridfile>  (41) 
pfpi4k_grid

>  <i_i_glide_lignum>  (41) 
18

>  <i_i_glide_rotatable_bonds>  (41) 
0

>  <r_i_docking_score>  (41) 
-3.67857

>  <r_i_glide_ligand_efficiency>  (41) 
-0.282967

>  <r_i_glide_ligand_efficiency_sa>  (41) 
-0.66535

>  <r_i_glide_ligand_efficiency_ln>  (41) 
-1.03187

>  <r_i_glide_gscore>  (41) 
-3.67857

>  <r_i_glide_lipo>  (41) 
-0.0970211

>  <r_i_glide_hbond>  (41) 
0

>  <r_i_glide_metal>  (41) 
-0

>  <r_i_glide_rewards>  (41) 
-2.24151

>  <r_i_glide_evdw>  (41) 
-17.8574

>  <r_i_glide_ecoul>  (41) 
-2.70333

>  <r_i_glide_erotb>  (41) 
0

>  <r_i_glide_esite>  (41) 
-0.0416641

>  <r_i_glide_emodel>  (41) 
-26.3276

>  <r_i_glide_energy>  (41) 
-20.5608

>  <r_i_glide_einternal>  (41) 
0

>  <r_i_glide_intrahb_reward>  (41) 
-0

>  <i_i_glide_confnum>  (41) 
2

>  <i_i_glide_posenum>  (41) 
25

>  <r_i_glide_eff_state_penalty>  (41) 
0

>  <ligand_id>  (41) 
11

>  <original_smiles>  (41) 
Cc1nc2nsnc2n2nnnc12

>  <smiles>  (41) 
[H]C([H])([H])c1nc2nsnc2n2nnnc12

$$$$
12:0:0
     RDKit          3D

 56 61  0  0  1  0  0  0  0  0999 V2000
    5.2093   -4.7306   -1.0956 C   0  0  0  0  0  0  0  0  0  0  0  0
    5.4787   -3.2955   -0.6736 C   0  0  1  0  0  0  0  0  0  0  0  0
    6.5921   -2.5253   -1.4039 C   0  0  0  0  0  0  0  0  0  0  0  0
    5.7368   -1.4020   -0.8150 C   0  0  1  0  0  0  0  0  0  0  0  0
    4.5982   -2.2436   -1.2046 N   0  0  1  0  0  0  0  0  0  0  0  0
    4.1212   -2.2077   -2.6144 C   0  0  0  0  0  0  0  0  0  0  0  0
    3.8270   -0.7804   -3.0795 C   0  0  0  0  0  0  0  0  0  0  0  0
    2.7599   -0.4870   -4.1120 C   0  0  0  0  0  0  0  0  0  0  0  0
    4.1965   -0.3844   -4.4889 C   0  0  0  0  0  0  0  0  0  0  0  0
    5.7714   -1.4608    0.7021 C   0  0  1  0  0  0  0  0  0  0  0  0
    7.1046   -1.1712    1.0607 O   0  0  0  0  0  0  0  0  0  0  0  0
    4.9324   -0.4080    1.4669 C   0  0  0  0  0  0  0  0  0  0  0  0
    3.4496   -0.1956    1.0978 C   0  0  0  0  0  0  0  0  0  0  0  0
    2.4196   -0.5371    2.1861 C   0  0  1  0  0  0  0  0  0  0  0  0
    1.0901   -0.0809    1.7297 N   0  0  0  0  0  0  0  0  0  0  0  0
    2.3691   -2.0352    2.5709 C   0  0  2  0  0  0  0  0  0  0  0  0
    3.5118   -2.4625    3.6056 C   0  0  0  0  0  0  0  0  0  0  0  0
    4.5163   -3.5511    3.1832 C   0  0  0  0  0  0  0  0  0  0  0  0
    4.0807   -4.8453    3.5747 C   0  0  0  0  0  0  0  0  0  0  0  0
    3.1593   -5.5882    2.7749 C   0  0  0  0  0  0  0  0  0  0  0  0
    2.6297   -5.0411    1.5777 C   0  0  0  0  0  0  0  0  0  0  0  0
    1.5318   -5.6070    0.9842 O   0  0  0  0  0  0  0  0  0  0  0  0
    3.1972   -3.8079    1.1965 C   0  0  0  0  0  0  0  0  0  0  0  0
    4.4051   -3.4467    1.7982 C   0  0  0  0  0  0  0  0  0  0  0  0
    5.5227   -2.9870    0.8427 C   0  0  1  0  0  0  0  0  0  0  0  0
    2.2666   -2.8049    1.3347 O   0  0  0  0  0  0  0  0  0  0  0  0
    5.9659   -5.3742   -0.6497 H   0  0  0  0  0  0  0  0  0  0  0  0
    5.2852   -4.8364   -2.1774 H   0  0  0  0  0  0  0  0  0  0  0  0
    4.2503   -5.1247   -0.7815 H   0  0  0  0  0  0  0  0  0  0  0  0
    7.5764   -2.6501   -0.9468 H   0  0  0  0  0  0  0  0  0  0  0  0
    6.6595   -2.6225   -2.4883 H   0  0  0  0  0  0  0  0  0  0  0  0
    5.8100   -0.4271   -1.2825 H   0  0  0  0  0  0  0  0  0  0  0  0
    4.7594   -2.7050   -3.3479 H   0  0  0  0  0  0  0  0  0  0  0  0
    3.1871   -2.7630   -2.6239 H   0  0  0  0  0  0  0  0  0  0  0  0
    3.9239    0.0032   -2.3260 H   0  0  0  0  0  0  0  0  0  0  0  0
    2.1867   -1.3214   -4.5062 H   0  0  0  0  0  0  0  0  0  0  0  0
    2.2224    0.4580   -4.0287 H   0  0  0  0  0  0  0  0  0  0  0  0
    4.5764    0.6182   -4.6664 H   0  0  0  0  0  0  0  0  0  0  0  0
    4.6045   -1.1643   -5.1190 H   0  0  0  0  0  0  0  0  0  0  0  0
    7.2107   -0.2437    1.2543 H   0  0  0  0  0  0  0  0  0  0  0  0
    5.0899   -0.4965    2.5392 H   0  0  0  0  0  0  0  0  0  0  0  0
    5.4050    0.5382    1.2120 H   0  0  0  0  0  0  0  0  0  0  0  0
    3.3430    0.8691    0.8920 H   0  0  0  0  0  0  0  0  0  0  0  0
    3.1735   -0.6858    0.1696 H   0  0  0  0  0  0  0  0  0  0  0  0
    2.6460    0.0364    3.0795 H   0  0  0  0  0  0  0  0  0  0  0  0
    0.8554   -0.5850    0.8786 H   0  0  0  0  0  0  0  0  0  0  0  0
    1.1045    0.9018    1.5080 H   0  0  0  0  0  0  0  0  0  0  0  0
    1.4330   -2.1989    3.1097 H   0  0  0  0  0  0  0  0  0  0  0  0
    4.0719   -1.6055    3.9664 H   0  0  0  0  0  0  0  0  0  0  0  0
    3.0155   -2.8364    4.5023 H   0  0  0  0  0  0  0  0  0  0  0  0
    4.2702   -5.2063    4.5779 H   0  0  0  0  0  0  0  0  0  0  0  0
    2.7515   -6.5118    3.1553 H   0  0  0  0  0  0  0  0  0  0  0  0
    1.6039   -5.7193    0.0493 H   0  0  0  0  0  0  0  0  0  0  0  0
    6.4145   -3.4674    1.2516 H   0  0  0  0  0  0  0  0  0  0  0  0
    3.8307   -2.0918   -0.5675 H   0  0  0  0  0  0  0  0  0  0  0  0
    0.3999   -0.2465    2.4445 H   0  0  0  0  0  0  0  0  0  0  0  0
  2  1  1  1
  1 27  1  0
  1 28  1  0
  1 29  1  0
  2  5  1  0
  2 25  1  0
  2  3  1  0
  3  4  1  0
  3 30  1  0
  3 31  1  0
  4  5  1  0
  4 10  1  0
  4 32  1  1
  5  6  1  0
  5 55  1  1
  6  7  1  0
  6 33  1  0
  6 34  1  0
  7  9  1  0
  7  8  1  0
  7 35  1  0
  8  9  1  0
  8 36  1  0
  8 37  1  0
  9 38  1  0
  9 39  1  0
 10 25  1  0
 10 11  1  1
 10 12  1  0
 11 40  1  0
 12 13  1  0
 12 41  1  0
 12 42  1  0
 13 14  1  0
 13 43  1  0
 13 44  1  0
 14 15  1  0
 14 16  1  0
 14 45  1  1
 15 46  1  0
 15 47  1  0
 15 56  1  0
 16 26  1  0
 16 17  1  0
 16 48  1  1
 17 18  1  0
 17 49  1  0
 17 50  1  0
 18 24  2  0
 18 19  1  0
 19 20  2  0
 19 51  1  0
 20 21  1  0
 20 52  1  0
 21 22  1  0
 21 23  2  0
 22 53  1  0
 23 24  1  0
 23 26  1  0
 24 25  1  0
 25 54  1  1
M  CHG  2   5   1  15   1
M  END
>  <i_m_ct_stereo_status>  (42) 
1

>  <s_m_source_file>  (42) 
/var/tmp/pbs.5076255.sched01/tmp7hrp_b9g/014g_j70o.sdf

>  <i_m_source_file_index>  (42) 
19

>  <i_lp_mmshare_version>  (42) 
48012

>  <i_f3d_flags>  (42) 
0

>  <s_epik_input>  (42) 
W0NIMl0xW0NIMl1bQ0hdMVtDSDJdTjJbQ0BIXShbQ0gyXTMpW0NAXShbT0hdKShbQ0BASF00W0NAQF0yM1tDSDNdKVtDSDJdW0NIMl1bQ0BASF0oW05IMl0pW0NAQEhdNVtDSDJdYzZjNGMoTzUpYyhbT0hdKVtjSF1bY0hdNg==

>  <s_epik_cmdline>  (42) 
J2VwaWtfcHl0aG9uJywgJy1waHQnLCAnMi4wJywgJy1waCcsICc3LjAnLCAnLXRuJywgJzgnLCAnLW1hJywgJzIwMCcsICctaW1hZScsICc8aW5maWxlLm1hZT4nLCAnLW9tYWUnLCAnPG91dGZpbGUubWFlPic=

>  <r_lp_tautomer_probability>  (42) 
1

>  <r_epik_Ionization_Penalty>  (42) 
0.0116719

>  <r_epik_Ionization_Penalty_Charging>  (42) 
0.0107195

>  <r_epik_Ionization_Penalty_Neutral>  (42) 
0.00095244

>  <r_epik_State_Penalty>  (42) 
0.00630632

>  <r_epik_Charging_Adjusted_Penalty>  (42) 
0.0170258

>  <i_epik_Tot_Q>  (42) 
2

>  <i_epik_Tot_abs_Q>  (42) 
2

>  <s_lp_Force_Field>  (42) 
OPLS3e

>  <r_lp_Energy>  (42) 
194.333

>  <b_lp_Chiralities_Consistent>  (42) 
1

>  <s_lp_Variant>  (42) 
12:0-1

>  <s_i_glide_gridfile>  (42) 
pfpi4k_grid

>  <i_i_glide_lignum>  (42) 
19

>  <i_i_glide_rotatable_bonds>  (42) 
4

>  <r_i_docking_score>  (42) 
-5.08483

>  <r_i_glide_ligand_efficiency>  (42) 
-0.19557

>  <r_i_glide_ligand_efficiency_sa>  (42) 
-0.579376

>  <r_i_glide_ligand_efficiency_ln>  (42) 
-1.19416

>  <r_i_glide_gscore>  (42) 
-5.08483

>  <r_i_glide_lipo>  (42) 
-1.0727

>  <r_i_glide_hbond>  (42) 
-0.52

>  <r_i_glide_metal>  (42) 
-0

>  <r_i_glide_rewards>  (42) 
-0.964947

>  <r_i_glide_evdw>  (42) 
-17.9477

>  <r_i_glide_ecoul>  (42) 
-12.0312

>  <r_i_glide_erotb>  (42) 
0.298142

>  <r_i_glide_esite>  (42) 
-0.123255

>  <r_i_glide_emodel>  (42) 
-39.5191

>  <r_i_glide_energy>  (42) 
-29.9789

>  <r_i_glide_einternal>  (42) 
4.93563

>  <r_i_glide_intrahb_reward>  (42) 
-0

>  <i_i_glide_confnum>  (42) 
3

>  <i_i_glide_posenum>  (42) 
26

>  <r_i_glide_eff_state_penalty>  (42) 
0

>  <ligand_id>  (42) 
12

>  <original_smiles>  (42) 
CC12CC(N1CC1CC1)C1(O)CCC(N)C3Cc4ccc(O)c(c4C12)O3

>  <smiles>  (42) 
[H]Oc1c([H])c([H])c2c3c1OC([H])(C2([H])[H])C([H])([N+]([H])([H])[H])C([H])([H])C([H])([H])C1(O[H])C3([H])C2(C([H])([H])[H])C([H])([H])C1([H])[N+]2([H])C([H])([H])C1([H])C([H])([H])C1([H])[H]

$$$$
12:0:1
     RDKit          3D

 56 61  0  0  1  0  0  0  0  0999 V2000
    5.0030   -5.1434   -0.7159 C   0  0  0  0  0  0  0  0  0  0  0  0
    5.3274   -3.6613   -0.5413 C   0  0  1  0  0  0  0  0  0  0  0  0
    6.3878   -3.0535   -1.4758 C   0  0  0  0  0  0  0  0  0  0  0  0
    5.6225   -1.8230   -0.9992 C   0  0  1  0  0  0  0  0  0  0  0  0
    4.4283   -2.6720   -1.1535 N   0  0  1  0  0  0  0  0  0  0  0  0
    3.8137   -2.8236   -2.5050 C   0  0  0  0  0  0  0  0  0  0  0  0
    3.1421   -1.5355   -2.9349 C   0  0  0  0  0  0  0  0  0  0  0  0
    2.9897   -1.2156   -4.4007 C   0  0  0  0  0  0  0  0  0  0  0  0
    3.9623   -0.4384   -3.5760 C   0  0  0  0  0  0  0  0  0  0  0  0
    5.7921   -1.6441    0.5027 C   0  0  1  0  0  0  0  0  0  0  0  0
    7.1619   -1.3693    0.7168 O   0  0  0  0  0  0  0  0  0  0  0  0
    5.0539   -0.4405    1.1471 C   0  0  0  0  0  0  0  0  0  0  0  0
    3.5462   -0.2463    0.8782 C   0  0  0  0  0  0  0  0  0  0  0  0
    2.6049   -0.3638    2.0885 C   0  0  1  0  0  0  0  0  0  0  0  0
    1.2568    0.0677    1.6772 N   0  0  0  0  0  0  0  0  0  0  0  0
    2.5512   -1.7799    2.7133 C   0  0  2  0  0  0  0  0  0  0  0  0
    3.7704   -2.0891    3.6959 C   0  0  0  0  0  0  0  0  0  0  0  0
    4.7038   -3.2690    3.3697 C   0  0  0  0  0  0  0  0  0  0  0  0
    4.2712   -4.4727    3.9895 C   0  0  0  0  0  0  0  0  0  0  0  0
    3.2699   -5.2936    3.3946 C   0  0  0  0  0  0  0  0  0  0  0  0
    2.6335   -4.9125    2.1834 C   0  0  0  0  0  0  0  0  0  0  0  0
    1.4682   -5.5066    1.7854 O   0  0  0  0  0  0  0  0  0  0  0  0
    3.2020   -3.7662    1.5731 C   0  0  0  0  0  0  0  0  0  0  0  0
    4.4668   -3.3661    1.9995 C   0  0  0  0  0  0  0  0  0  0  0  0
    5.5067   -3.1162    0.8956 C   0  0  1  0  0  0  0  0  0  0  0  0
    2.3060   -2.7250    1.6296 O   0  0  0  0  0  0  0  0  0  0  0  0
    5.7888   -5.7463   -0.2652 H   0  0  0  0  0  0  0  0  0  0  0  0
    5.0046   -5.4187   -1.7698 H   0  0  0  0  0  0  0  0  0  0  0  0
    4.0567   -5.4518   -0.2788 H   0  0  0  0  0  0  0  0  0  0  0  0
    7.4021   -3.1425   -1.0885 H   0  0  0  0  0  0  0  0  0  0  0  0
    6.3647   -3.3166   -2.5339 H   0  0  0  0  0  0  0  0  0  0  0  0
    5.7214   -0.9359   -1.6177 H   0  0  0  0  0  0  0  0  0  0  0  0
    4.4733   -3.1472   -3.3083 H   0  0  0  0  0  0  0  0  0  0  0  0
    3.0387   -3.5850   -2.4336 H   0  0  0  0  0  0  0  0  0  0  0  0
    2.3062   -1.2224   -2.3178 H   0  0  0  0  0  0  0  0  0  0  0  0
    3.4167   -1.9088   -5.1197 H   0  0  0  0  0  0  0  0  0  0  0  0
    2.1159   -0.6612   -4.7444 H   0  0  0  0  0  0  0  0  0  0  0  0
    3.7099    0.5935   -3.3327 H   0  0  0  0  0  0  0  0  0  0  0  0
    5.0119   -0.6489   -3.7365 H   0  0  0  0  0  0  0  0  0  0  0  0
    7.2636   -0.4893    1.0572 H   0  0  0  0  0  0  0  0  0  0  0  0
    5.2970   -0.3713    2.2037 H   0  0  0  0  0  0  0  0  0  0  0  0
    5.5252    0.4526    0.7320 H   0  0  0  0  0  0  0  0  0  0  0  0
    3.4569    0.7732    0.5153 H   0  0  0  0  0  0  0  0  0  0  0  0
    3.1801   -0.8655    0.0675 H   0  0  0  0  0  0  0  0  0  0  0  0
    2.9274    0.3345    2.8549 H   0  0  0  0  0  0  0  0  0  0  0  0
    0.9339   -0.5446    0.9299 H   0  0  0  0  0  0  0  0  0  0  0  0
    1.2706    1.0084    1.3090 H   0  0  0  0  0  0  0  0  0  0  0  0
    1.6633   -1.8158    3.3498 H   0  0  0  0  0  0  0  0  0  0  0  0
    4.3858   -1.2099    3.8679 H   0  0  0  0  0  0  0  0  0  0  0  0
    3.3495   -2.2978    4.6821 H   0  0  0  0  0  0  0  0  0  0  0  0
    4.5384   -4.6761    5.0175 H   0  0  0  0  0  0  0  0  0  0  0  0
    2.8793   -6.1261    3.9559 H   0  0  0  0  0  0  0  0  0  0  0  0
    1.2984   -6.3096    2.2587 H   0  0  0  0  0  0  0  0  0  0  0  0
    6.4157   -3.5689    1.2942 H   0  0  0  0  0  0  0  0  0  0  0  0
    3.7211   -2.4054   -0.4873 H   0  0  0  0  0  0  0  0  0  0  0  0
    0.6237    0.0389    2.4642 H   0  0  0  0  0  0  0  0  0  0  0  0
  2  1  1  1
  1 27  1  0
  1 28  1  0
  1 29  1  0
  2  5  1  0
  2 25  1  0
  2  3  1  0
  3  4  1  0
  3 30  1  0
  3 31  1  0
  4  5  1  0
  4 10  1  0
  4 32  1  6
  5  6  1  0
  5 55  1  1
  6  7  1  0
  6 33  1  0
  6 34  1  0
  7  9  1  0
  7  8  1  0
  7 35  1  0
  8  9  1  0
  8 36  1  0
  8 37  1  0
  9 38  1  0
  9 39  1  0
 10 25  1  0
 10 11  1  6
 10 12  1  0
 11 40  1  0
 12 13  1  0
 12 41  1  0
 12 42  1  0
 13 14  1  0
 13 43  1  0
 13 44  1  0
 14 15  1  0
 14 16  1  0
 14 45  1  1
 15 46  1  0
 15 47  1  0
 15 56  1  0
 16 26  1  0
 16 17  1  0
 16 48  1  1
 17 18  1  0
 17 49  1  0
 17 50  1  0
 18 24  2  0
 18 19  1  0
 19 20  2  0
 19 51  1  0
 20 21  1  0
 20 52  1  0
 21 22  1  0
 21 23  2  0
 22 53  1  0
 23 24  1  0
 23 26  1  0
 24 25  1  0
 25 54  1  1
M  CHG  2   5   1  15   1
M  END
>  <i_m_ct_stereo_status>  (43) 
1

>  <s_m_source_file>  (43) 
/var/tmp/pbs.5076255.sched01/tmp7hrp_b9g/014g_j70o.sdf

>  <i_m_source_file_index>  (43) 
19

>  <i_lp_mmshare_version>  (43) 
48012

>  <i_f3d_flags>  (43) 
0

>  <s_epik_input>  (43) 
W0NIMl0xW0NIMl1bQ0hdMVtDSDJdTjJbQ0BIXShbQ0gyXTMpW0NAXShbT0hdKShbQ0BASF00W0NAQF0yM1tDSDNdKVtDSDJdW0NIMl1bQ0BASF0oW05IMl0pW0NAQEhdNVtDSDJdYzZjNGMoTzUpYyhbT0hdKVtjSF1bY0hdNg==

>  <s_epik_cmdline>  (43) 
J2VwaWtfcHl0aG9uJywgJy1waHQnLCAnMi4wJywgJy1waCcsICc3LjAnLCAnLXRuJywgJzgnLCAnLW1hJywgJzIwMCcsICctaW1hZScsICc8aW5maWxlLm1hZT4nLCAnLW9tYWUnLCAnPG91dGZpbGUubWFlPic=

>  <r_lp_tautomer_probability>  (43) 
1

>  <r_epik_Ionization_Penalty>  (43) 
0.0116719

>  <r_epik_Ionization_Penalty_Charging>  (43) 
0.0107195

>  <r_epik_Ionization_Penalty_Neutral>  (43) 
0.00095244

>  <r_epik_State_Penalty>  (43) 
0.00630632

>  <r_epik_Charging_Adjusted_Penalty>  (43) 
0.0170258

>  <i_epik_Tot_Q>  (43) 
2

>  <i_epik_Tot_abs_Q>  (43) 
2

>  <s_lp_Force_Field>  (43) 
OPLS3e

>  <r_lp_Energy>  (43) 
194.333

>  <b_lp_Chiralities_Consistent>  (43) 
1

>  <s_lp_Variant>  (43) 
12:0-1

>  <s_i_glide_gridfile>  (43) 
pfpi4k_grid

>  <i_i_glide_lignum>  (43) 
19

>  <i_i_glide_rotatable_bonds>  (43) 
4

>  <r_i_docking_score>  (43) 
-4.70195

>  <r_i_glide_ligand_efficiency>  (43) 
-0.180844

>  <r_i_glide_ligand_efficiency_sa>  (43) 
-0.535751

>  <r_i_glide_ligand_efficiency_ln>  (43) 
-1.10424

>  <r_i_glide_gscore>  (43) 
-4.70195

>  <r_i_glide_lipo>  (43) 
-0.736391

>  <r_i_glide_hbond>  (43) 
-0.52

>  <r_i_glide_metal>  (43) 
-0

>  <r_i_glide_rewards>  (43) 
-0.964947

>  <r_i_glide_evdw>  (43) 
-20.5854

>  <r_i_glide_ecoul>  (43) 
-10.9087

>  <r_i_glide_erotb>  (43) 
0.298142

>  <r_i_glide_esite>  (43) 
-0.113181

>  <r_i_glide_emodel>  (43) 
-42.0534

>  <r_i_glide_energy>  (43) 
-31.4941

>  <r_i_glide_einternal>  (43) 
2.15199

>  <r_i_glide_intrahb_reward>  (43) 
-0

>  <i_i_glide_confnum>  (43) 
3

>  <i_i_glide_posenum>  (43) 
8

>  <r_i_glide_eff_state_penalty>  (43) 
0

>  <ligand_id>  (43) 
12

>  <original_smiles>  (43) 
CC12CC(N1CC1CC1)C1(O)CCC(N)C3Cc4ccc(O)c(c4C12)O3

>  <smiles>  (43) 
[H]Oc1c([H])c([H])c2c3c1OC([H])(C2([H])[H])C([H])([N+]([H])([H])[H])C([H])([H])C([H])([H])C1(O[H])C3([H])C2(C([H])([H])[H])C([H])([H])C1([H])[N+]2([H])C([H])([H])C1([H])C([H])([H])C1([H])[H]

$$$$
12:0:2
     RDKit          3D

 56 61  0  0  1  0  0  0  0  0999 V2000
    5.0509   -5.2256   -0.7080 C   0  0  0  0  0  0  0  0  0  0  0  0
    5.4185   -3.7543   -0.5673 C   0  0  1  0  0  0  0  0  0  0  0  0
    6.4613   -3.1861   -1.5466 C   0  0  0  0  0  0  0  0  0  0  0  0
    5.7476   -1.9323   -1.0498 C   0  0  1  0  0  0  0  0  0  0  0  0
    4.5212   -2.7465   -1.1594 N   0  0  1  0  0  0  0  0  0  0  0  0
    3.8552   -2.8937   -2.4876 C   0  0  0  0  0  0  0  0  0  0  0  0
    3.1445   -1.6129   -2.8943 C   0  0  0  0  0  0  0  0  0  0  0  0
    3.0158   -1.2268   -4.3474 C   0  0  0  0  0  0  0  0  0  0  0  0
    3.9428   -0.4621   -3.4620 C   0  0  0  0  0  0  0  0  0  0  0  0
    5.9772   -1.7480    0.4382 C   0  0  1  0  0  0  0  0  0  0  0  0
    7.3606   -1.4950    0.5769 O   0  0  0  0  0  0  0  0  0  0  0  0
    5.2958   -0.5112    1.0890 C   0  0  0  0  0  0  0  0  0  0  0  0
    3.7831   -0.2734    0.8725 C   0  0  0  0  0  0  0  0  0  0  0  0
    2.8836   -0.3620    2.1178 C   0  0  1  0  0  0  0  0  0  0  0  0
    1.5217    0.0916    1.7545 N   0  0  0  0  0  0  0  0  0  0  0  0
    2.8217   -1.7670    2.7631 C   0  0  2  0  0  0  0  0  0  0  0  0
    4.0704   -2.0943    3.7053 C   0  0  0  0  0  0  0  0  0  0  0  0
    4.9584   -3.3030    3.3557 C   0  0  0  0  0  0  0  0  0  0  0  0
    4.5228   -4.4896    4.0046 C   0  0  0  0  0  0  0  0  0  0  0  0
    3.4789   -5.2901    3.4610 C   0  0  0  0  0  0  0  0  0  0  0  0
    2.7981   -4.9007    2.2781 C   0  0  0  0  0  0  0  0  0  0  0  0
    1.5934   -5.4520    1.9507 O   0  0  0  0  0  0  0  0  0  0  0  0
    3.3752   -3.7829    1.6255 C   0  0  0  0  0  0  0  0  0  0  0  0
    4.6642   -3.4160    1.9976 C   0  0  0  0  0  0  0  0  0  0  0  0
    5.6711   -3.2070    0.8563 C   0  0  1  0  0  0  0  0  0  0  0  0
    2.5129   -2.7148    1.6986 O   0  0  0  0  0  0  0  0  0  0  0  0
    5.8406   -5.8399   -0.2829 H   0  0  0  0  0  0  0  0  0  0  0  0
    5.0056   -5.5057   -1.7609 H   0  0  0  0  0  0  0  0  0  0  0  0
    4.1151   -5.5070   -0.2295 H   0  0  0  0  0  0  0  0  0  0  0  0
    7.4911   -3.2941   -1.2061 H   0  0  0  0  0  0  0  0  0  0  0  0
    6.3887   -3.4463   -2.6026 H   0  0  0  0  0  0  0  0  0  0  0  0
    5.8529   -1.0473   -1.6658 H   0  0  0  0  0  0  0  0  0  0  0  0
    4.4908   -3.2052   -3.3173 H   0  0  0  0  0  0  0  0  0  0  0  0
    3.0951   -3.6659   -2.3917 H   0  0  0  0  0  0  0  0  0  0  0  0
    2.2604   -1.3691   -2.3201 H   0  0  0  0  0  0  0  0  0  0  0  0
    3.4647   -1.8869   -5.0828 H   0  0  0  0  0  0  0  0  0  0  0  0
    2.1463   -0.6759   -4.7002 H   0  0  0  0  0  0  0  0  0  0  0  0
    3.6535    0.5429   -3.1475 H   0  0  0  0  0  0  0  0  0  0  0  0
    5.0025   -0.6383   -3.6253 H   0  0  0  0  0  0  0  0  0  0  0  0
    7.5268   -1.1969    1.4585 H   0  0  0  0  0  0  0  0  0  0  0  0
    5.5796   -0.4268    2.1341 H   0  0  0  0  0  0  0  0  0  0  0  0
    5.7821    0.3575    0.6402 H   0  0  0  0  0  0  0  0  0  0  0  0
    3.7043    0.7431    0.4929 H   0  0  0  0  0  0  0  0  0  0  0  0
    3.3715   -0.8942    0.0849 H   0  0  0  0  0  0  0  0  0  0  0  0
    3.2480    0.3367    2.8642 H   0  0  0  0  0  0  0  0  0  0  0  0
    1.1357   -0.5151    1.0355 H   0  0  0  0  0  0  0  0  0  0  0  0
    1.5507    1.0286    1.3813 H   0  0  0  0  0  0  0  0  0  0  0  0
    1.9597   -1.7764    3.4350 H   0  0  0  0  0  0  0  0  0  0  0  0
    4.7130   -1.2287    3.8425 H   0  0  0  0  0  0  0  0  0  0  0  0
    3.6835   -2.2828    4.7089 H   0  0  0  0  0  0  0  0  0  0  0  0
    4.8283   -4.6886    5.0243 H   0  0  0  0  0  0  0  0  0  0  0  0
    3.0912   -6.1058    4.0477 H   0  0  0  0  0  0  0  0  0  0  0  0
    1.3916   -6.2105    2.4819 H   0  0  0  0  0  0  0  0  0  0  0  0
    6.5825   -3.6788    1.2265 H   0  0  0  0  0  0  0  0  0  0  0  0
    3.8474   -2.4577   -0.4652 H   0  0  0  0  0  0  0  0  0  0  0  0
    0.9289    0.0915    2.5718 H   0  0  0  0  0  0  0  0  0  0  0  0
  2  1  1  1
  1 27  1  0
  1 28  1  0
  1 29  1  0
  2  5  1  0
  2 25  1  0
  2  3  1  0
  3  4  1  0
  3 30  1  0
  3 31  1  0
  4  5  1  0
  4 10  1  0
  4 32  1  6
  5  6  1  0
  5 55  1  1
  6  7  1  0
  6 33  1  0
  6 34  1  0
  7  9  1  0
  7  8  1  0
  7 35  1  0
  8  9  1  0
  8 36  1  0
  8 37  1  0
  9 38  1  0
  9 39  1  0
 10 25  1  0
 10 11  1  6
 10 12  1  0
 11 40  1  0
 12 13  1  0
 12 41  1  0
 12 42  1  0
 13 14  1  0
 13 43  1  0
 13 44  1  0
 14 15  1  0
 14 16  1  0
 14 45  1  1
 15 46  1  0
 15 47  1  0
 15 56  1  0
 16 26  1  0
 16 17  1  0
 16 48  1  1
 17 18  1  0
 17 49  1  0
 17 50  1  0
 18 24  2  0
 18 19  1  0
 19 20  2  0
 19 51  1  0
 20 21  1  0
 20 52  1  0
 21 22  1  0
 21 23  2  0
 22 53  1  0
 23 24  1  0
 23 26  1  0
 24 25  1  0
 25 54  1  1
M  CHG  2   5   1  15   1
M  END
>  <i_m_ct_stereo_status>  (44) 
1

>  <s_m_source_file>  (44) 
/var/tmp/pbs.5076255.sched01/tmp7hrp_b9g/014g_j70o.sdf

>  <i_m_source_file_index>  (44) 
19

>  <i_lp_mmshare_version>  (44) 
48012

>  <i_f3d_flags>  (44) 
0

>  <s_epik_input>  (44) 
W0NIMl0xW0NIMl1bQ0hdMVtDSDJdTjJbQ0BIXShbQ0gyXTMpW0NAXShbT0hdKShbQ0BASF00W0NAQF0yM1tDSDNdKVtDSDJdW0NIMl1bQ0BASF0oW05IMl0pW0NAQEhdNVtDSDJdYzZjNGMoTzUpYyhbT0hdKVtjSF1bY0hdNg==

>  <s_epik_cmdline>  (44) 
J2VwaWtfcHl0aG9uJywgJy1waHQnLCAnMi4wJywgJy1waCcsICc3LjAnLCAnLXRuJywgJzgnLCAnLW1hJywgJzIwMCcsICctaW1hZScsICc8aW5maWxlLm1hZT4nLCAnLW9tYWUnLCAnPG91dGZpbGUubWFlPic=

>  <r_lp_tautomer_probability>  (44) 
1

>  <r_epik_Ionization_Penalty>  (44) 
0.0116719

>  <r_epik_Ionization_Penalty_Charging>  (44) 
0.0107195

>  <r_epik_Ionization_Penalty_Neutral>  (44) 
0.00095244

>  <r_epik_State_Penalty>  (44) 
0.00630632

>  <r_epik_Charging_Adjusted_Penalty>  (44) 
0.0170258

>  <i_epik_Tot_Q>  (44) 
2

>  <i_epik_Tot_abs_Q>  (44) 
2

>  <s_lp_Force_Field>  (44) 
OPLS3e

>  <r_lp_Energy>  (44) 
194.333

>  <b_lp_Chiralities_Consistent>  (44) 
1

>  <s_lp_Variant>  (44) 
12:0-1

>  <s_i_glide_gridfile>  (44) 
pfpi4k_grid

>  <i_i_glide_lignum>  (44) 
19

>  <i_i_glide_rotatable_bonds>  (44) 
4

>  <r_i_docking_score>  (44) 
-4.13424

>  <r_i_glide_ligand_efficiency>  (44) 
-0.159009

>  <r_i_glide_ligand_efficiency_sa>  (44) 
-0.471064

>  <r_i_glide_ligand_efficiency_ln>  (44) 
-0.970912

>  <r_i_glide_gscore>  (44) 
-4.13424

>  <r_i_glide_lipo>  (44) 
-0.780146

>  <r_i_glide_hbond>  (44) 
-0.2

>  <r_i_glide_metal>  (44) 
-0

>  <r_i_glide_rewards>  (44) 
-0.964947

>  <r_i_glide_evdw>  (44) 
-22.1513

>  <r_i_glide_ecoul>  (44) 
-8.5755

>  <r_i_glide_erotb>  (44) 
0.298142

>  <r_i_glide_esite>  (44) 
-0.0933979

>  <r_i_glide_emodel>  (44) 
-40.3355

>  <r_i_glide_energy>  (44) 
-30.7268

>  <r_i_glide_einternal>  (44) 
1.25792

>  <r_i_glide_intrahb_reward>  (44) 
-0

>  <i_i_glide_confnum>  (44) 
4

>  <i_i_glide_posenum>  (44) 
27

>  <r_i_glide_eff_state_penalty>  (44) 
0

>  <ligand_id>  (44) 
12

>  <original_smiles>  (44) 
CC12CC(N1CC1CC1)C1(O)CCC(N)C3Cc4ccc(O)c(c4C12)O3

>  <smiles>  (44) 
[H]Oc1c([H])c([H])c2c3c1OC([H])(C2([H])[H])C([H])([N+]([H])([H])[H])C([H])([H])C([H])([H])C1(O[H])C3([H])C2(C([H])([H])[H])C([H])([H])C1([H])[N+]2([H])C([H])([H])C1([H])C([H])([H])C1([H])[H]

$$$$
12:1:0
     RDKit          3D

 55 60  0  0  1  0  0  0  0  0999 V2000
    4.7630   -4.8103   -0.9974 C   0  0  0  0  0  0  0  0  0  0  0  0
    5.0657   -3.3433   -0.7219 C   0  0  1  0  0  0  0  0  0  0  0  0
    6.0063   -2.6258   -1.7042 C   0  0  0  0  0  0  0  0  0  0  0  0
    5.2847   -1.4667   -1.0203 C   0  0  1  0  0  0  0  0  0  0  0  0
    4.0824   -2.3236   -1.1384 N   0  0  1  0  0  0  0  0  0  0  0  0
    3.3473   -2.3880   -2.4342 C   0  0  0  0  0  0  0  0  0  0  0  0
    2.9948   -1.0036   -2.9535 C   0  0  0  0  0  0  0  0  0  0  0  0
    2.8810   -0.7378   -4.4360 C   0  0  0  0  0  0  0  0  0  0  0  0
    4.0360   -0.1828   -3.6759 C   0  0  0  0  0  0  0  0  0  0  0  0
    5.6121   -1.4297    0.4549 C   0  0  1  0  0  0  0  0  0  0  0  0
    6.9920   -1.1136    0.5276 O   0  0  0  0  0  0  0  0  0  0  0  0
    4.9132   -0.3026    1.2608 C   0  0  0  0  0  0  0  0  0  0  0  0
    3.3845   -0.1095    1.1649 C   0  0  0  0  0  0  0  0  0  0  0  0
    2.6226   -0.3693    2.4738 C   0  0  1  0  0  0  0  0  0  0  0  0
    1.2484    0.0621    2.2900 N   0  0  0  0  0  0  0  0  0  0  0  0
    2.6288   -1.8431    2.9352 C   0  0  2  0  0  0  0  0  0  0  0  0
    3.9352   -2.2096    3.7669 C   0  0  0  0  0  0  0  0  0  0  0  0
    4.8492   -3.3329    3.2419 C   0  0  0  0  0  0  0  0  0  0  0  0
    4.5038   -4.5938    3.7958 C   0  0  0  0  0  0  0  0  0  0  0  0
    3.4533   -5.3776    3.2439 C   0  0  0  0  0  0  0  0  0  0  0  0
    2.6865   -4.9033    2.1472 C   0  0  0  0  0  0  0  0  0  0  0  0
    1.4878   -5.4721    1.8378 O   0  0  0  0  0  0  0  0  0  0  0  0
    3.1815   -3.7106    1.5666 C   0  0  0  0  0  0  0  0  0  0  0  0
    4.4780   -3.3314    1.8971 C   0  0  0  0  0  0  0  0  0  0  0  0
    5.3979   -2.9381    0.7304 C   0  0  1  0  0  0  0  0  0  0  0  0
    2.2961   -2.6815    1.7881 O   0  0  0  0  0  0  0  0  0  0  0  0
    5.6054   -5.4290   -0.6869 H   0  0  0  0  0  0  0  0  0  0  0  0
    4.6566   -4.9841   -2.0675 H   0  0  0  0  0  0  0  0  0  0  0  0
    3.8765   -5.1859   -0.4953 H   0  0  0  0  0  0  0  0  0  0  0  0
    7.0626   -2.7265   -1.4567 H   0  0  0  0  0  0  0  0  0  0  0  0
    5.8474   -2.7767   -2.7725 H   0  0  0  0  0  0  0  0  0  0  0  0
    5.3230   -0.5040   -1.5183 H   0  0  0  0  0  0  0  0  0  0  0  0
    3.8242   -2.9618   -3.2309 H   0  0  0  0  0  0  0  0  0  0  0  0
    2.4084   -2.9064   -2.2373 H   0  0  0  0  0  0  0  0  0  0  0  0
    2.2842   -0.4558   -2.3322 H   0  0  0  0  0  0  0  0  0  0  0  0
    3.1099   -1.5541   -5.1131 H   0  0  0  0  0  0  0  0  0  0  0  0
    2.1677   -0.0037   -4.8099 H   0  0  0  0  0  0  0  0  0  0  0  0
    4.0615    0.8842   -3.4501 H   0  0  0  0  0  0  0  0  0  0  0  0
    4.9988   -0.6704   -3.8053 H   0  0  0  0  0  0  0  0  0  0  0  0
    7.1338   -0.4921    1.2315 H   0  0  0  0  0  0  0  0  0  0  0  0
    5.2586   -0.3096    2.2913 H   0  0  0  0  0  0  0  0  0  0  0  0
    5.3292    0.6210    0.8698 H   0  0  0  0  0  0  0  0  0  0  0  0
    3.2181    0.9339    0.8960 H   0  0  0  0  0  0  0  0  0  0  0  0
    2.9365   -0.6716    0.3526 H   0  0  0  0  0  0  0  0  0  0  0  0
    3.0415    0.2500    3.2639 H   0  0  0  0  0  0  0  0  0  0  0  0
    1.2301    1.0243    1.9802 H   0  0  0  0  0  0  0  0  0  0  0  0
    0.8389   -0.4724    1.5350 H   0  0  0  0  0  0  0  0  0  0  0  0
    1.8013   -1.9643    3.6396 H   0  0  0  0  0  0  0  0  0  0  0  0
    4.5508   -1.3319    3.9499 H   0  0  0  0  0  0  0  0  0  0  0  0
    3.6165   -2.5097    4.7682 H   0  0  0  0  0  0  0  0  0  0  0  0
    4.8794   -4.8737    4.7713 H   0  0  0  0  0  0  0  0  0  0  0  0
    3.1283   -6.2589    3.7713 H   0  0  0  0  0  0  0  0  0  0  0  0
    1.3359   -6.2761    2.3226 H   0  0  0  0  0  0  0  0  0  0  0  0
    6.3558   -3.3951    0.9874 H   0  0  0  0  0  0  0  0  0  0  0  0
    3.4417   -2.1227   -0.3800 H   0  0  0  0  0  0  0  0  0  0  0  0
  2  1  1  1
  1 27  1  0
  1 28  1  0
  1 29  1  0
  2  5  1  0
  2 25  1  0
  2  3  1  0
  3  4  1  0
  3 30  1  0
  3 31  1  0
  4  5  1  0
  4 10  1  0
  4 32  1  6
  5  6  1  0
  5 55  1  1
  6  7  1  0
  6 33  1  0
  6 34  1  0
  7  9  1  0
  7  8  1  0
  7 35  1  0
  8  9  1  0
  8 36  1  0
  8 37  1  0
  9 38  1  0
  9 39  1  0
 10 25  1  0
 10 11  1  6
 10 12  1  0
 11 40  1  0
 12 13  1  0
 12 41  1  0
 12 42  1  0
 13 14  1  0
 13 43  1  0
 13 44  1  0
 14 15  1  0
 14 16  1  0
 14 45  1  1
 15 46  1  0
 15 47  1  0
 16 26  1  0
 16 17  1  0
 16 48  1  1
 17 18  1  0
 17 49  1  0
 17 50  1  0
 18 24  2  0
 18 19  1  0
 19 20  2  0
 19 51  1  0
 20 21  1  0
 20 52  1  0
 21 22  1  0
 21 23  2  0
 22 53  1  0
 23 24  1  0
 23 26  1  0
 24 25  1  0
 25 54  1  1
M  CHG  1   5   1
M  END
>  <i_m_ct_stereo_status>  (45) 
1

>  <s_m_source_file>  (45) 
/var/tmp/pbs.5076255.sched01/tmp7hrp_b9g/014g_j70o.sdf

>  <i_m_source_file_index>  (45) 
20

>  <i_lp_mmshare_version>  (45) 
48012

>  <i_f3d_flags>  (45) 
0

>  <s_epik_input>  (45) 
W0NIMl0xW0NIMl1bQ0hdMVtDSDJdTjJbQ0BIXShbQ0gyXTMpW0NAXShbT0hdKShbQ0BASF00W0NAQF0yM1tDSDNdKVtDSDJdW0NIMl1bQ0BASF0oW05IMl0pW0NAQEhdNVtDSDJdYzZjNGMoTzUpYyhbT0hdKVtjSF1bY0hdNg==

>  <s_epik_cmdline>  (45) 
J2VwaWtfcHl0aG9uJywgJy1waHQnLCAnMi4wJywgJy1waCcsICc3LjAnLCAnLXRuJywgJzgnLCAnLW1hJywgJzIwMCcsICctaW1hZScsICc8aW5maWxlLm1hZT4nLCAnLW9tYWUnLCAnPG91dGZpbGUubWFlPic=

>  <r_lp_tautomer_probability>  (45) 
1

>  <r_epik_Ionization_Penalty>  (45) 
2.53

>  <r_epik_Ionization_Penalty_Charging>  (45) 
0.00182959

>  <r_epik_Ionization_Penalty_Neutral>  (45) 
2.52817

>  <r_epik_State_Penalty>  (45) 
2.69468

>  <r_epik_Charging_Adjusted_Penalty>  (45) 
2.69651

>  <i_epik_Tot_Q>  (45) 
1

>  <i_epik_Tot_abs_Q>  (45) 
1

>  <s_lp_Force_Field>  (45) 
OPLS3e

>  <r_lp_Energy>  (45) 
187.781

>  <b_lp_Chiralities_Consistent>  (45) 
1

>  <s_lp_Variant>  (45) 
12:0-2

>  <s_i_glide_gridfile>  (45) 
pfpi4k_grid

>  <i_i_glide_lignum>  (45) 
20

>  <i_i_glide_rotatable_bonds>  (45) 
4

>  <r_i_docking_score>  (45) 
-3.86865

>  <r_i_glide_ligand_efficiency>  (45) 
-0.148794

>  <r_i_glide_ligand_efficiency_sa>  (45) 
-0.440803

>  <r_i_glide_ligand_efficiency_ln>  (45) 
-0.908541

>  <r_i_glide_gscore>  (45) 
-3.86865

>  <r_i_glide_lipo>  (45) 
-0.723536

>  <r_i_glide_hbond>  (45) 
-0.33371

>  <r_i_glide_metal>  (45) 
-0

>  <r_i_glide_rewards>  (45) 
-0.971819

>  <r_i_glide_evdw>  (45) 
-21.48

>  <r_i_glide_ecoul>  (45) 
-6.93246

>  <r_i_glide_erotb>  (45) 
0.299641

>  <r_i_glide_esite>  (45) 
-0.0253623

>  <r_i_glide_emodel>  (45) 
-34.6085

>  <r_i_glide_energy>  (45) 
-28.4125

>  <r_i_glide_einternal>  (45) 
3.39116

>  <r_i_glide_intrahb_reward>  (45) 
-0

>  <i_i_glide_confnum>  (45) 
3

>  <i_i_glide_posenum>  (45) 
39

>  <r_i_glide_eff_state_penalty>  (45) 
0

>  <ligand_id>  (45) 
12

>  <original_smiles>  (45) 
CC12CC(N1CC1CC1)C1(O)CCC(N)C3Cc4ccc(O)c(c4C12)O3

>  <smiles>  (45) 
[H]Oc1c([H])c([H])c2c3c1OC([H])(C2([H])[H])C([H])(N([H])[H])C([H])([H])C([H])([H])C1(O[H])C3([H])C2(C([H])([H])[H])C([H])([H])C1([H])[N+]2([H])C([H])([H])C1([H])C([H])([H])C1([H])[H]

$$$$
12:1:1
     RDKit          3D

 55 60  0  0  1  0  0  0  0  0999 V2000
    5.4633   -4.5505   -0.9703 C   0  0  0  0  0  0  0  0  0  0  0  0
    5.6779   -3.1477   -0.4578 C   0  0  1  0  0  0  0  0  0  0  0  0
    6.8582   -2.3330   -1.0051 C   0  0  0  0  0  0  0  0  0  0  0  0
    5.9244   -1.2566   -0.4532 C   0  0  1  0  0  0  0  0  0  0  0  0
    4.8567   -2.0841   -1.0407 N   0  0  1  0  0  0  0  0  0  0  0  0
    4.5950   -1.9382   -2.5061 C   0  0  0  0  0  0  0  0  0  0  0  0
    3.1792   -1.4708   -2.7374 C   0  0  0  0  0  0  0  0  0  0  0  0
    2.3141   -2.1595   -3.7628 C   0  0  0  0  0  0  0  0  0  0  0  0
    2.8332   -0.7519   -4.0215 C   0  0  0  0  0  0  0  0  0  0  0  0
    5.7517   -1.3935    1.0468 C   0  0  1  0  0  0  0  0  0  0  0  0
    6.9871   -1.0758    1.6071 O   0  0  0  0  0  0  0  0  0  0  0  0
    4.8154   -0.3940    1.7333 C   0  0  0  0  0  0  0  0  0  0  0  0
    3.3976   -0.1270    1.1791 C   0  0  0  0  0  0  0  0  0  0  0  0
    2.3068   -0.5175    2.1849 C   0  0  1  0  0  0  0  0  0  0  0  0
    1.0394    0.0310    1.7637 N   0  0  0  0  0  0  0  0  0  0  0  0
    2.1718   -2.0486    2.3578 C   0  0  2  0  0  0  0  0  0  0  0  0
    3.1365   -2.5565    3.5247 C   0  0  0  0  0  0  0  0  0  0  0  0
    4.1973   -3.6328    3.2202 C   0  0  0  0  0  0  0  0  0  0  0  0
    3.6993   -4.9290    3.4454 C   0  0  0  0  0  0  0  0  0  0  0  0
    2.9087   -5.6079    2.4619 C   0  0  0  0  0  0  0  0  0  0  0  0
    2.5801   -4.9966    1.2256 C   0  0  0  0  0  0  0  0  0  0  0  0
    1.6161   -5.5347    0.4095 O   0  0  0  0  0  0  0  0  0  0  0  0
    3.1943   -3.7430    1.0485 C   0  0  0  0  0  0  0  0  0  0  0  0
    4.2884   -3.4367    1.8246 C   0  0  0  0  0  0  0  0  0  0  0  0
    5.5205   -2.9156    1.0790 C   0  0  1  0  0  0  0  0  0  0  0  0
    2.2722   -2.7199    1.0679 O   0  0  0  0  0  0  0  0  0  0  0  0
    6.1214   -5.2116   -0.4142 H   0  0  0  0  0  0  0  0  0  0  0  0
    5.7264   -4.5974   -2.0285 H   0  0  0  0  0  0  0  0  0  0  0  0
    4.4546   -4.9345   -0.8564 H   0  0  0  0  0  0  0  0  0  0  0  0
    7.7732   -2.4515   -0.4304 H   0  0  0  0  0  0  0  0  0  0  0  0
    7.0416   -2.3610   -2.0879 H   0  0  0  0  0  0  0  0  0  0  0  0
    6.0549   -0.2596   -0.8558 H   0  0  0  0  0  0  0  0  0  0  0  0
    5.2546   -1.2027   -2.9577 H   0  0  0  0  0  0  0  0  0  0  0  0
    4.7375   -2.8737   -3.0315 H   0  0  0  0  0  0  0  0  0  0  0  0
    2.6375   -1.0991   -1.8582 H   0  0  0  0  0  0  0  0  0  0  0  0
    2.7325   -2.9703   -4.3494 H   0  0  0  0  0  0  0  0  0  0  0  0
    1.2980   -2.3652   -3.4542 H   0  0  0  0  0  0  0  0  0  0  0  0
    2.2400    0.1533   -3.8999 H   0  0  0  0  0  0  0  0  0  0  0  0
    3.5662   -0.6587   -4.8054 H   0  0  0  0  0  0  0  0  0  0  0  0
    7.1411   -0.1499    1.5516 H   0  0  0  0  0  0  0  0  0  0  0  0
    4.8154   -0.5484    2.8067 H   0  0  0  0  0  0  0  0  0  0  0  0
    5.3176    0.5369    1.5666 H   0  0  0  0  0  0  0  0  0  0  0  0
    3.3511    0.9455    1.0022 H   0  0  0  0  0  0  0  0  0  0  0  0
    3.2452   -0.5854    0.2058 H   0  0  0  0  0  0  0  0  0  0  0  0
    2.5057   -0.0409    3.1398 H   0  0  0  0  0  0  0  0  0  0  0  0
    1.1481    1.0147    1.5210 H   0  0  0  0  0  0  0  0  0  0  0  0
    0.8601   -0.4295    0.8452 H   0  0  0  0  0  0  0  0  0  0  0  0
    1.1601   -2.2399    2.7098 H   0  0  0  0  0  0  0  0  0  0  0  0
    3.6221   -1.7158    4.0040 H   0  0  0  0  0  0  0  0  0  0  0  0
    2.4941   -2.9695    4.2979 H   0  0  0  0  0  0  0  0  0  0  0  0
    3.7292   -5.3680    4.4388 H   0  0  0  0  0  0  0  0  0  0  0  0
    2.4412   -6.5317    2.7238 H   0  0  0  0  0  0  0  0  0  0  0  0
    1.4231   -6.4431    0.6132 H   0  0  0  0  0  0  0  0  0  0  0  0
    6.3456   -3.3913    1.5749 H   0  0  0  0  0  0  0  0  0  0  0  0
    4.0174   -2.0037   -0.4943 H   0  0  0  0  0  0  0  0  0  0  0  0
  2  1  1  1
  1 27  1  0
  1 28  1  0
  1 29  1  0
  2  5  1  0
  2 25  1  0
  2  3  1  0
  3  4  1  0
  3 30  1  0
  3 31  1  0
  4  5  1  0
  4 10  1  0
  4 32  1  1
  5  6  1  0
  5 55  1  1
  6  7  1  0
  6 33  1  0
  6 34  1  0
  7  9  1  0
  7  8  1  0
  7 35  1  0
  8  9  1  0
  8 36  1  0
  8 37  1  0
  9 38  1  0
  9 39  1  0
 10 25  1  0
 10 11  1  1
 10 12  1  0
 11 40  1  0
 12 13  1  0
 12 41  1  0
 12 42  1  0
 13 14  1  0
 13 43  1  0
 13 44  1  0
 14 15  1  0
 14 16  1  0
 14 45  1  1
 15 46  1  0
 15 47  1  0
 16 26  1  0
 16 17  1  0
 16 48  1  1
 17 18  1  0
 17 49  1  0
 17 50  1  0
 18 24  2  0
 18 19  1  0
 19 20  2  0
 19 51  1  0
 20 21  1  0
 20 52  1  0
 21 22  1  0
 21 23  2  0
 22 53  1  0
 23 24  1  0
 23 26  1  0
 24 25  1  0
 25 54  1  1
M  CHG  1   5   1
M  END
>  <i_m_ct_stereo_status>  (46) 
1

>  <s_m_source_file>  (46) 
/var/tmp/pbs.5076255.sched01/tmp7hrp_b9g/014g_j70o.sdf

>  <i_m_source_file_index>  (46) 
20

>  <i_lp_mmshare_version>  (46) 
48012

>  <i_f3d_flags>  (46) 
0

>  <s_epik_input>  (46) 
W0NIMl0xW0NIMl1bQ0hdMVtDSDJdTjJbQ0BIXShbQ0gyXTMpW0NAXShbT0hdKShbQ0BASF00W0NAQF0yM1tDSDNdKVtDSDJdW0NIMl1bQ0BASF0oW05IMl0pW0NAQEhdNVtDSDJdYzZjNGMoTzUpYyhbT0hdKVtjSF1bY0hdNg==

>  <s_epik_cmdline>  (46) 
J2VwaWtfcHl0aG9uJywgJy1waHQnLCAnMi4wJywgJy1waCcsICc3LjAnLCAnLXRuJywgJzgnLCAnLW1hJywgJzIwMCcsICctaW1hZScsICc8aW5maWxlLm1hZT4nLCAnLW9tYWUnLCAnPG91dGZpbGUubWFlPic=

>  <r_lp_tautomer_probability>  (46) 
1

>  <r_epik_Ionization_Penalty>  (46) 
2.53

>  <r_epik_Ionization_Penalty_Charging>  (46) 
0.00182959

>  <r_epik_Ionization_Penalty_Neutral>  (46) 
2.52817

>  <r_epik_State_Penalty>  (46) 
2.69468

>  <r_epik_Charging_Adjusted_Penalty>  (46) 
2.69651

>  <i_epik_Tot_Q>  (46) 
1

>  <i_epik_Tot_abs_Q>  (46) 
1

>  <s_lp_Force_Field>  (46) 
OPLS3e

>  <r_lp_Energy>  (46) 
187.781

>  <b_lp_Chiralities_Consistent>  (46) 
1

>  <s_lp_Variant>  (46) 
12:0-2

>  <s_i_glide_gridfile>  (46) 
pfpi4k_grid

>  <i_i_glide_lignum>  (46) 
20

>  <i_i_glide_rotatable_bonds>  (46) 
4

>  <r_i_docking_score>  (46) 
-3.80933

>  <r_i_glide_ligand_efficiency>  (46) 
-0.146513

>  <r_i_glide_ligand_efficiency_sa>  (46) 
-0.434043

>  <r_i_glide_ligand_efficiency_ln>  (46) 
-0.894608

>  <r_i_glide_gscore>  (46) 
-3.80933

>  <r_i_glide_lipo>  (46) 
-0.785208

>  <r_i_glide_hbond>  (46) 
-0.456

>  <r_i_glide_metal>  (46) 
-0

>  <r_i_glide_rewards>  (46) 
-0.971819

>  <r_i_glide_evdw>  (46) 
-13.0827

>  <r_i_glide_ecoul>  (46) 
-8.11839

>  <r_i_glide_erotb>  (46) 
0.299641

>  <r_i_glide_esite>  (46) 
-0.0240491

>  <r_i_glide_emodel>  (46) 
-27.652

>  <r_i_glide_energy>  (46) 
-21.2011

>  <r_i_glide_einternal>  (46) 
2.82573

>  <r_i_glide_intrahb_reward>  (46) 
-0

>  <i_i_glide_confnum>  (46) 
4

>  <i_i_glide_posenum>  (46) 
22

>  <r_i_glide_eff_state_penalty>  (46) 
0

>  <ligand_id>  (46) 
12

>  <original_smiles>  (46) 
CC12CC(N1CC1CC1)C1(O)CCC(N)C3Cc4ccc(O)c(c4C12)O3

>  <smiles>  (46) 
[H]Oc1c([H])c([H])c2c3c1OC([H])(C2([H])[H])C([H])(N([H])[H])C([H])([H])C([H])([H])C1(O[H])C3([H])C2(C([H])([H])[H])C([H])([H])C1([H])[N+]2([H])C([H])([H])C1([H])C([H])([H])C1([H])[H]

$$$$
12:1:2
     RDKit          3D

 55 60  0  0  1  0  0  0  0  0999 V2000
    4.6322   -4.5123   -1.1029 C   0  0  0  0  0  0  0  0  0  0  0  0
    4.8319   -3.0338   -0.7756 C   0  0  1  0  0  0  0  0  0  0  0  0
    5.7155   -2.2580   -1.7483 C   0  0  0  0  0  0  0  0  0  0  0  0
    4.9334   -1.1461   -1.0378 C   0  0  1  0  0  0  0  0  0  0  0  0
    3.7742   -2.0555   -1.1343 N   0  0  1  0  0  0  0  0  0  0  0  0
    3.0109   -2.1367   -2.4206 C   0  0  0  0  0  0  0  0  0  0  0  0
    2.9143   -0.7933   -3.1352 C   0  0  0  0  0  0  0  0  0  0  0  0
    2.9739   -0.7394   -4.6361 C   0  0  0  0  0  0  0  0  0  0  0  0
    4.1213   -0.2184   -3.8574 C   0  0  0  0  0  0  0  0  0  0  0  0
    5.2989   -1.1196    0.4254 C   0  0  1  0  0  0  0  0  0  0  0  0
    6.6604   -0.7361    0.4816 O   0  0  0  0  0  0  0  0  0  0  0  0
    4.5650   -0.0507    1.2828 C   0  0  0  0  0  0  0  0  0  0  0  0
    3.0275    0.0403    1.2664 C   0  0  0  0  0  0  0  0  0  0  0  0
    2.3342   -0.3058    2.5954 C   0  0  1  0  0  0  0  0  0  0  0  0
    0.9321    0.0443    2.4784 N   0  0  0  0  0  0  0  0  0  0  0  0
    2.4549   -1.7880    3.0093 C   0  0  2  0  0  0  0  0  0  0  0  0
    3.8061   -2.0938    3.7783 C   0  0  0  0  0  0  0  0  0  0  0  0
    4.7516   -3.1491    3.1731 C   0  0  0  0  0  0  0  0  0  0  0  0
    4.5223   -4.4415    3.7062 C   0  0  0  0  0  0  0  0  0  0  0  0
    3.5022   -5.2808    3.1701 C   0  0  0  0  0  0  0  0  0  0  0  0
    2.6742   -4.8171    2.1127 C   0  0  0  0  0  0  0  0  0  0  0  0
    1.5008   -5.4457    1.7998 O   0  0  0  0  0  0  0  0  0  0  0  0
    3.0604   -3.5822    1.5526 C   0  0  0  0  0  0  0  0  0  0  0  0
    4.3511   -3.1448    1.8417 C   0  0  0  0  0  0  0  0  0  0  0  0
    5.1991   -2.6486    0.6660 C   0  0  1  0  0  0  0  0  0  0  0  0
    2.1388   -2.6037    1.8408 O   0  0  0  0  0  0  0  0  0  0  0  0
    5.5293   -5.0721   -0.8386 H   0  0  0  0  0  0  0  0  0  0  0  0
    4.5196   -4.6574   -2.1780 H   0  0  0  0  0  0  0  0  0  0  0  0
    3.7853   -4.9591   -0.6011 H   0  0  0  0  0  0  0  0  0  0  0  0
    6.7906   -2.2828   -1.5289 H   0  0  0  0  0  0  0  0  0  0  0  0
    5.5278   -2.5011   -2.7893 H   0  0  0  0  0  0  0  0  0  0  0  0
    4.8636   -0.1730   -1.5134 H   0  0  0  0  0  0  0  0  0  0  0  0
    3.3844   -2.9086   -3.0992 H   0  0  0  0  0  0  0  0  0  0  0  0
    1.9954   -2.4569   -2.1593 H   0  0  0  0  0  0  0  0  0  0  0  0
    2.2171   -0.0824   -2.7013 H   0  0  0  0  0  0  0  0  0  0  0  0
    3.1179   -1.7108   -5.0898 H   0  0  0  0  0  0  0  0  0  0  0  0
    2.3958   -0.0061   -5.2094 H   0  0  0  0  0  0  0  0  0  0  0  0
    4.2372    0.8562   -3.7485 H   0  0  0  0  0  0  0  0  0  0  0  0
    5.0206   -0.8169   -3.9024 H   0  0  0  0  0  0  0  0  0  0  0  0
    6.8436   -0.3384    1.3173 H   0  0  0  0  0  0  0  0  0  0  0  0
    4.9551   -0.0435    2.2957 H   0  0  0  0  0  0  0  0  0  0  0  0
    4.8853    0.9088    0.8768 H   0  0  0  0  0  0  0  0  0  0  0  0
    2.7712    1.0745    1.0323 H   0  0  0  0  0  0  0  0  0  0  0  0
    2.6070   -0.5361    0.4537 H   0  0  0  0  0  0  0  0  0  0  0  0
    2.7427    0.3178    3.3876 H   0  0  0  0  0  0  0  0  0  0  0  0
    0.8437    1.0053    2.1791 H   0  0  0  0  0  0  0  0  0  0  0  0
    0.5292   -0.5099    1.7398 H   0  0  0  0  0  0  0  0  0  0  0  0
    1.6611   -1.9929    3.7311 H   0  0  0  0  0  0  0  0  0  0  0  0
    4.3840   -1.1853    3.9601 H   0  0  0  0  0  0  0  0  0  0  0  0
    3.5510   -2.4429    4.7871 H   0  0  0  0  0  0  0  0  0  0  0  0
    4.9536   -4.7095    4.6594 H   0  0  0  0  0  0  0  0  0  0  0  0
    3.2548   -6.1943    3.6797 H   0  0  0  0  0  0  0  0  0  0  0  0
    1.5934   -6.1852    1.2176 H   0  0  0  0  0  0  0  0  0  0  0  0
    6.1997   -3.0490    0.8807 H   0  0  0  0  0  0  0  0  0  0  0  0
    3.1393   -1.8940   -0.3592 H   0  0  0  0  0  0  0  0  0  0  0  0
  2  1  1  1
  1 27  1  0
  1 28  1  0
  1 29  1  0
  2  5  1  0
  2 25  1  0
  2  3  1  0
  3  4  1  0
  3 30  1  0
  3 31  1  0
  4  5  1  0
  4 10  1  0
  4 32  1  6
  5  6  1  0
  5 55  1  1
  6  7  1  0
  6 33  1  0
  6 34  1  0
  7  9  1  0
  7  8  1  0
  7 35  1  0
  8  9  1  0
  8 36  1  0
  8 37  1  0
  9 38  1  0
  9 39  1  0
 10 25  1  0
 10 11  1  6
 10 12  1  0
 11 40  1  0
 12 13  1  0
 12 41  1  0
 12 42  1  0
 13 14  1  0
 13 43  1  0
 13 44  1  0
 14 15  1  0
 14 16  1  0
 14 45  1  1
 15 46  1  0
 15 47  1  0
 16 26  1  0
 16 17  1  0
 16 48  1  1
 17 18  1  0
 17 49  1  0
 17 50  1  0
 18 24  2  0
 18 19  1  0
 19 20  2  0
 19 51  1  0
 20 21  1  0
 20 52  1  0
 21 22  1  0
 21 23  2  0
 22 53  1  0
 23 24  1  0
 23 26  1  0
 24 25  1  0
 25 54  1  1
M  CHG  1   5   1
M  END
>  <i_m_ct_stereo_status>  (47) 
1

>  <s_m_source_file>  (47) 
/var/tmp/pbs.5076255.sched01/tmp7hrp_b9g/014g_j70o.sdf

>  <i_m_source_file_index>  (47) 
20

>  <i_lp_mmshare_version>  (47) 
48012

>  <i_f3d_flags>  (47) 
0

>  <s_epik_input>  (47) 
W0NIMl0xW0NIMl1bQ0hdMVtDSDJdTjJbQ0BIXShbQ0gyXTMpW0NAXShbT0hdKShbQ0BASF00W0NAQF0yM1tDSDNdKVtDSDJdW0NIMl1bQ0BASF0oW05IMl0pW0NAQEhdNVtDSDJdYzZjNGMoTzUpYyhbT0hdKVtjSF1bY0hdNg==

>  <s_epik_cmdline>  (47) 
J2VwaWtfcHl0aG9uJywgJy1waHQnLCAnMi4wJywgJy1waCcsICc3LjAnLCAnLXRuJywgJzgnLCAnLW1hJywgJzIwMCcsICctaW1hZScsICc8aW5maWxlLm1hZT4nLCAnLW9tYWUnLCAnPG91dGZpbGUubWFlPic=

>  <r_lp_tautomer_probability>  (47) 
1

>  <r_epik_Ionization_Penalty>  (47) 
2.53

>  <r_epik_Ionization_Penalty_Charging>  (47) 
0.00182959

>  <r_epik_Ionization_Penalty_Neutral>  (47) 
2.52817

>  <r_epik_State_Penalty>  (47) 
2.69468

>  <r_epik_Charging_Adjusted_Penalty>  (47) 
2.69651

>  <i_epik_Tot_Q>  (47) 
1

>  <i_epik_Tot_abs_Q>  (47) 
1

>  <s_lp_Force_Field>  (47) 
OPLS3e

>  <r_lp_Energy>  (47) 
187.781

>  <b_lp_Chiralities_Consistent>  (47) 
1

>  <s_lp_Variant>  (47) 
12:0-2

>  <s_i_glide_gridfile>  (47) 
pfpi4k_grid

>  <i_i_glide_lignum>  (47) 
20

>  <i_i_glide_rotatable_bonds>  (47) 
4

>  <r_i_docking_score>  (47) 
-3.41194

>  <r_i_glide_ligand_efficiency>  (47) 
-0.131229

>  <r_i_glide_ligand_efficiency_sa>  (47) 
-0.388764

>  <r_i_glide_ligand_efficiency_ln>  (47) 
-0.801284

>  <r_i_glide_gscore>  (47) 
-3.41194

>  <r_i_glide_lipo>  (47) 
-0.657469

>  <r_i_glide_hbond>  (47) 
-0.19298

>  <r_i_glide_metal>  (47) 
-0

>  <r_i_glide_rewards>  (47) 
-0.971819

>  <r_i_glide_evdw>  (47) 
-19.0877

>  <r_i_glide_ecoul>  (47) 
-5.88176

>  <r_i_glide_erotb>  (47) 
0.299641

>  <r_i_glide_esite>  (47) 
-0.0526664

>  <r_i_glide_emodel>  (47) 
-25.2676

>  <r_i_glide_energy>  (47) 
-24.9695

>  <r_i_glide_einternal>  (47) 
8.48766

>  <r_i_glide_intrahb_reward>  (47) 
-0

>  <i_i_glide_confnum>  (47) 
3

>  <i_i_glide_posenum>  (47) 
34

>  <r_i_glide_eff_state_penalty>  (47) 
0

>  <ligand_id>  (47) 
12

>  <original_smiles>  (47) 
CC12CC(N1CC1CC1)C1(O)CCC(N)C3Cc4ccc(O)c(c4C12)O3

>  <smiles>  (47) 
[H]Oc1c([H])c([H])c2c3c1OC([H])(C2([H])[H])C([H])(N([H])[H])C([H])([H])C([H])([H])C1(O[H])C3([H])C2(C([H])([H])[H])C([H])([H])C1([H])[N+]2([H])C([H])([H])C1([H])C([H])([H])C1([H])[H]

$$$$
14:0:0
     RDKit          3D

 47 48  0  0  1  0  0  0  0  0999 V2000
    3.9485   -9.3449    1.1545 C   0  0  0  0  0  0  0  0  0  0  0  0
    3.6368   -7.9532    1.7197 C   0  0  2  0  0  0  0  0  0  0  0  0
    2.1701   -7.6094    1.6184 C   0  0  0  0  0  0  0  0  0  0  0  0
    1.3346   -7.4546    2.6550 C   0  0  0  0  0  0  0  0  0  0  0  0
   -0.1405   -7.0640    2.5404 C   0  0  0  0  0  0  0  0  0  0  0  0
   -0.4218   -6.2740    1.5981 O   0  0  0  0  0  0  0  0  0  0  0  0
   -0.9263   -7.5416    3.3795 O   0  0  0  0  0  0  0  0  0  0  0  0
    4.4617   -6.8983    1.0214 C   0  0  0  0  0  0  0  0  0  0  0  0
    5.2593   -6.0245    1.6610 C   0  0  0  0  0  0  0  0  0  0  0  0
    6.1024   -4.9618    0.9727 C   0  0  2  0  0  0  0  0  0  0  0  0
    7.5853   -5.0851    1.3850 C   0  0  1  0  0  0  0  0  0  0  0  0
    8.2175   -6.3459    0.7816 C   0  0  0  0  0  0  0  0  0  0  0  0
    8.3968   -3.8565    1.0053 C   0  0  0  0  0  0  0  0  0  0  0  0
    7.8604   -2.6818    0.6332 C   0  0  0  0  0  0  0  0  0  0  0  0
    6.4266   -2.4826    0.6162 C   0  0  0  0  0  0  0  0  0  0  0  0
    5.9304   -1.3397    0.0975 C   0  0  0  0  0  0  0  0  0  0  0  0
    4.4555   -1.0198   -0.0377 C   0  0  1  0  0  0  0  0  0  0  0  0
    4.0392   -0.9963   -1.5315 C   0  0  0  0  0  0  0  0  0  0  0  0
    3.5923   -1.9554    0.8477 C   0  0  0  0  0  0  0  0  0  0  0  0
    4.0240   -3.4304    0.8370 C   0  0  1  0  0  0  0  0  0  0  0  0
    3.8029   -4.0186   -0.4336 O   0  0  0  0  0  0  0  0  0  0  0  0
    5.5221   -3.5521    1.2367 C   0  0  1  0  0  0  0  0  0  0  0  0
    3.7086   -9.4201    0.0855 H   0  0  0  0  0  0  0  0  0  0  0  0
    3.3776  -10.1142    1.6794 H   0  0  0  0  0  0  0  0  0  0  0  0
    5.0099   -9.5781    1.2693 H   0  0  0  0  0  0  0  0  0  0  0  0
    3.9306   -7.9484    2.7764 H   0  0  0  0  0  0  0  0  0  0  0  0
    1.7555   -7.4598    0.6320 H   0  0  0  0  0  0  0  0  0  0  0  0
    1.7357   -7.6244    3.6390 H   0  0  0  0  0  0  0  0  0  0  0  0
    4.3800   -6.8605   -0.0576 H   0  0  0  0  0  0  0  0  0  0  0  0
    5.2995   -6.0626    2.7353 H   0  0  0  0  0  0  0  0  0  0  0  0
    6.0752   -5.1238   -0.1042 H   0  0  0  0  0  0  0  0  0  0  0  0
    7.6414   -5.1414    2.4721 H   0  0  0  0  0  0  0  0  0  0  0  0
    9.2356   -6.4272    1.1353 H   0  0  0  0  0  0  0  0  0  0  0  0
    8.2483   -6.3141   -0.3041 H   0  0  0  0  0  0  0  0  0  0  0  0
    7.6872   -7.2532    1.0699 H   0  0  0  0  0  0  0  0  0  0  0  0
    9.4675   -3.9497    1.0700 H   0  0  0  0  0  0  0  0  0  0  0  0
    8.5319   -1.8750    0.3892 H   0  0  0  0  0  0  0  0  0  0  0  0
    6.6036   -0.5786   -0.2509 H   0  0  0  0  0  0  0  0  0  0  0  0
    4.3325   -0.0112    0.3744 H   0  0  0  0  0  0  0  0  0  0  0  0
    4.5554   -0.2087   -2.0814 H   0  0  0  0  0  0  0  0  0  0  0  0
    2.9733   -0.8055   -1.6180 H   0  0  0  0  0  0  0  0  0  0  0  0
    4.2372   -1.9400   -2.0448 H   0  0  0  0  0  0  0  0  0  0  0  0
    3.6878   -1.6107    1.8797 H   0  0  0  0  0  0  0  0  0  0  0  0
    2.5339   -1.8452    0.6242 H   0  0  0  0  0  0  0  0  0  0  0  0
    3.4051   -3.9666    1.5671 H   0  0  0  0  0  0  0  0  0  0  0  0
    2.9882   -3.6935   -0.8094 H   0  0  0  0  0  0  0  0  0  0  0  0
    5.5782   -3.3619    2.3116 H   0  0  0  0  0  0  0  0  0  0  0  0
  1  2  1  0
  1 23  1  0
  1 24  1  0
  1 25  1  0
  2  3  1  0
  2  8  1  0
  2 26  1  1
  3  4  2  3
  3 27  1  0
  4  5  1  0
  4 28  1  0
  5  6  2  0
  5  7  1  0
  8  9  2  3
  8 29  1  0
  9 10  1  0
  9 30  1  0
 10 22  1  0
 10 11  1  0
 10 31  1  6
 11 12  1  0
 11 13  1  0
 11 32  1  1
 12 33  1  0
 12 34  1  0
 12 35  1  0
 13 14  2  0
 13 36  1  0
 14 15  1  0
 14 37  1  0
 15 22  1  0
 15 16  2  0
 16 17  1  0
 16 38  1  0
 17 18  1  0
 17 19  1  0
 17 39  1  1
 18 40  1  0
 18 41  1  0
 18 42  1  0
 19 20  1  0
 19 43  1  0
 19 44  1  0
 20 21  1  0
 20 22  1  0
 20 45  1  1
 21 46  1  0
 22 47  1  1
M  CHG  1   7  -1
M  END
>  <i_m_ct_stereo_status>  (48) 
1

>  <s_m_source_file>  (48) 
/var/tmp/pbs.5076255.sched01/tmp7hrp_b9g/014g_j70o.sdf

>  <i_m_source_file_index>  (48) 
22

>  <i_lp_mmshare_version>  (48) 
48012

>  <i_f3d_flags>  (48) 
0

>  <s_epik_input>  (48) 
Tz1DKFtPSF0pXFtDSF09W0NIXVxbQ0BASF0oW0NIM10pL1tDSF09W0NIXS9bQ0BIXShbQ0BASF0oW0NIM10pW0NIXT1bQ0hdMSlbQ0BASF0oQzE9MilbQ0BIXShbT0hdKVtDSDJdW0NAQEhdKFtDSF0yKVtDSDNd

>  <s_epik_cmdline>  (48) 
J2VwaWtfcHl0aG9uJywgJy1waHQnLCAnMi4wJywgJy1waCcsICc3LjAnLCAnLXRuJywgJzgnLCAnLW1hJywgJzIwMCcsICctaW1hZScsICc8aW5maWxlLm1hZT4nLCAnLW9tYWUnLCAnPG91dGZpbGUubWFlPic=

>  <r_epik_Ionization_Penalty>  (48) 
0.00329561

>  <r_epik_Ionization_Penalty_Charging>  (48) 
0.00329532

>  <r_epik_Ionization_Penalty_Neutral>  (48) 
2.90052e-07

>  <r_epik_State_Penalty>  (48) 
0.00232853

>  <r_epik_Charging_Adjusted_Penalty>  (48) 
0.00562386

>  <i_epik_Tot_Q>  (48) 
-1

>  <i_epik_Tot_abs_Q>  (48) 
1

>  <s_lp_Force_Field>  (48) 
OPLS3e

>  <r_lp_Energy>  (48) 
15.7623

>  <b_lp_Chiralities_Consistent>  (48) 
1

>  <s_lp_Variant>  (48) 
14:0-1

>  <s_i_glide_gridfile>  (48) 
pfpi4k_grid

>  <i_i_glide_lignum>  (48) 
22

>  <i_i_glide_rotatable_bonds>  (48) 
5

>  <r_i_docking_score>  (48) 
-3.11707

>  <r_i_glide_ligand_efficiency>  (48) 
-0.141685

>  <r_i_glide_ligand_efficiency_sa>  (48) 
-0.397007

>  <r_i_glide_ligand_efficiency_ln>  (48) 
-0.761926

>  <r_i_glide_gscore>  (48) 
-3.11707

>  <r_i_glide_lipo>  (48) 
-0.768634

>  <r_i_glide_hbond>  (48) 
-0.355108

>  <r_i_glide_metal>  (48) 
-0

>  <r_i_glide_rewards>  (48) 
-1.35409

>  <r_i_glide_evdw>  (48) 
-17.9812

>  <r_i_glide_ecoul>  (48) 
-3.07884

>  <r_i_glide_erotb>  (48) 
0.810038

>  <r_i_glide_esite>  (48) 
-0.088394

>  <r_i_glide_emodel>  (48) 
-27.3084

>  <r_i_glide_energy>  (48) 
-21.06

>  <r_i_glide_einternal>  (48) 
1.28406

>  <r_i_glide_intrahb_reward>  (48) 
-0

>  <i_i_glide_confnum>  (48) 
2

>  <i_i_glide_posenum>  (48) 
31

>  <r_i_glide_eff_state_penalty>  (48) 
0

>  <ligand_id>  (48) 
14

>  <original_smiles>  (48) 
CC(C=CC(=O)O)C=CC1C(C)C=CC2=CC(C)CC(O)C21

>  <smiles>  (48) 
[H]OC1([H])C([H])([H])C([H])(C([H])([H])[H])C([H])=C2C([H])=C([H])C([H])(C([H])([H])[H])C([H])(C([H])=C([H])C([H])(C([H])=C([H])C(=O)[O-])C([H])([H])[H])C21[H]

$$$$
14:0:1
     RDKit          3D

 47 48  0  0  1  0  0  0  0  0999 V2000
    4.2786   -9.0446    0.8171 C   0  0  0  0  0  0  0  0  0  0  0  0
    3.9987   -7.6934    1.4951 C   0  0  2  0  0  0  0  0  0  0  0  0
    2.5273   -7.3373    1.5112 C   0  0  0  0  0  0  0  0  0  0  0  0
    1.7859   -7.1960    2.6277 C   0  0  0  0  0  0  0  0  0  0  0  0
    0.2682   -6.8272    2.6598 C   0  0  0  0  0  0  0  0  0  0  0  0
   -0.3321   -7.0594    3.7199 O   0  0  0  0  0  0  0  0  0  0  0  0
   -0.1889   -6.2807    1.6324 O   0  0  0  0  0  0  0  0  0  0  0  0
    4.7683   -6.5908    0.8103 C   0  0  0  0  0  0  0  0  0  0  0  0
    5.5656   -5.7272    1.4614 C   0  0  0  0  0  0  0  0  0  0  0  0
    6.3630   -4.6156    0.7977 C   0  0  2  0  0  0  0  0  0  0  0  0
    7.8489   -4.6544    1.2163 C   0  0  1  0  0  0  0  0  0  0  0  0
    8.5782   -5.8747    0.6398 C   0  0  0  0  0  0  0  0  0  0  0  0
    8.5866   -3.3774    0.8500 C   0  0  0  0  0  0  0  0  0  0  0  0
    7.9840   -2.2319    0.4840 C   0  0  0  0  0  0  0  0  0  0  0  0
    6.5368   -2.1180    0.4717 C   0  0  0  0  0  0  0  0  0  0  0  0
    5.9676   -0.9970   -0.0177 C   0  0  0  0  0  0  0  0  0  0  0  0
    4.4817   -0.7661   -0.1854 C   0  0  1  0  0  0  0  0  0  0  0  0
    4.0874   -0.7377   -1.6958 C   0  0  0  0  0  0  0  0  0  0  0  0
    3.6695   -1.7478    0.6859 C   0  0  0  0  0  0  0  0  0  0  0  0
    4.2037   -3.1918    0.6632 C   0  0  1  0  0  0  0  0  0  0  0  0
    4.0359   -3.7293   -0.6274 O   0  0  0  0  0  0  0  0  0  0  0  0
    5.7007   -3.2460    1.0748 C   0  0  1  0  0  0  0  0  0  0  0  0
    3.9784   -9.0459   -0.2276 H   0  0  0  0  0  0  0  0  0  0  0  0
    3.7438   -9.8516    1.3163 H   0  0  0  0  0  0  0  0  0  0  0  0
    5.3420   -9.2758    0.8469 H   0  0  0  0  0  0  0  0  0  0  0  0
    4.3656   -7.7597    2.5266 H   0  0  0  0  0  0  0  0  0  0  0  0
    2.0309   -7.1757    0.5618 H   0  0  0  0  0  0  0  0  0  0  0  0
    2.2976   -7.3394    3.5660 H   0  0  0  0  0  0  0  0  0  0  0  0
    4.6460   -6.5092   -0.2582 H   0  0  0  0  0  0  0  0  0  0  0  0
    5.6437   -5.8082    2.5385 H   0  0  0  0  0  0  0  0  0  0  0  0
    6.3465   -4.7653   -0.2802 H   0  0  0  0  0  0  0  0  0  0  0  0
    7.8924   -4.7246    2.2971 H   0  0  0  0  0  0  0  0  0  0  0  0
    9.5868   -5.9313    1.0439 H   0  0  0  0  0  0  0  0  0  0  0  0
    8.6788   -5.8151   -0.4433 H   0  0  0  0  0  0  0  0  0  0  0  0
    8.0667   -6.8104    0.8864 H   0  0  0  0  0  0  0  0  0  0  0  0
    9.6603   -3.3950    0.9262 H   0  0  0  0  0  0  0  0  0  0  0  0
    8.6136   -1.3791    0.2617 H   0  0  0  0  0  0  0  0  0  0  0  0
    6.5979   -0.1680   -0.2891 H   0  0  0  0  0  0  0  0  0  0  0  0
    4.2957    0.2221    0.2301 H   0  0  0  0  0  0  0  0  0  0  0  0
    4.5699    0.0852   -2.2396 H   0  0  0  0  0  0  0  0  0  0  0  0
    3.0010   -0.6592   -1.7961 H   0  0  0  0  0  0  0  0  0  0  0  0
    4.3444   -1.6280   -2.2737 H   0  0  0  0  0  0  0  0  0  0  0  0
    3.7307   -1.4096    1.7215 H   0  0  0  0  0  0  0  0  0  0  0  0
    2.6100   -1.7106    0.4453 H   0  0  0  0  0  0  0  0  0  0  0  0
    3.5919   -3.8119    1.3272 H   0  0  0  0  0  0  0  0  0  0  0  0
    4.4799   -3.1604   -1.2300 H   0  0  0  0  0  0  0  0  0  0  0  0
    5.7276   -3.0566    2.1519 H   0  0  0  0  0  0  0  0  0  0  0  0
  1  2  1  0
  1 23  1  0
  1 24  1  0
  1 25  1  0
  2  3  1  0
  2  8  1  0
  2 26  1  1
  3  4  2  3
  3 27  1  0
  4  5  1  0
  4 28  1  0
  5  6  2  0
  5  7  1  0
  8  9  2  3
  8 29  1  0
  9 10  1  0
  9 30  1  0
 10 22  1  0
 10 11  1  0
 10 31  1  6
 11 12  1  0
 11 13  1  0
 11 32  1  1
 12 33  1  0
 12 34  1  0
 12 35  1  0
 13 14  2  0
 13 36  1  0
 14 15  1  0
 14 37  1  0
 15 22  1  0
 15 16  2  0
 16 17  1  0
 16 38  1  0
 17 18  1  0
 17 19  1  0
 17 39  1  1
 18 40  1  0
 18 41  1  0
 18 42  1  0
 19 20  1  0
 19 43  1  0
 19 44  1  0
 20 21  1  0
 20 22  1  0
 20 45  1  1
 21 46  1  0
 22 47  1  1
M  CHG  1   7  -1
M  END
>  <i_m_ct_stereo_status>  (49) 
1

>  <s_m_source_file>  (49) 
/var/tmp/pbs.5076255.sched01/tmp7hrp_b9g/014g_j70o.sdf

>  <i_m_source_file_index>  (49) 
22

>  <i_lp_mmshare_version>  (49) 
48012

>  <i_f3d_flags>  (49) 
0

>  <s_epik_input>  (49) 
Tz1DKFtPSF0pXFtDSF09W0NIXVxbQ0BASF0oW0NIM10pL1tDSF09W0NIXS9bQ0BIXShbQ0BASF0oW0NIM10pW0NIXT1bQ0hdMSlbQ0BASF0oQzE9MilbQ0BIXShbT0hdKVtDSDJdW0NAQEhdKFtDSF0yKVtDSDNd

>  <s_epik_cmdline>  (49) 
J2VwaWtfcHl0aG9uJywgJy1waHQnLCAnMi4wJywgJy1waCcsICc3LjAnLCAnLXRuJywgJzgnLCAnLW1hJywgJzIwMCcsICctaW1hZScsICc8aW5maWxlLm1hZT4nLCAnLW9tYWUnLCAnPG91dGZpbGUubWFlPic=

>  <r_epik_Ionization_Penalty>  (49) 
0.00329561

>  <r_epik_Ionization_Penalty_Charging>  (49) 
0.00329532

>  <r_epik_Ionization_Penalty_Neutral>  (49) 
2.90052e-07

>  <r_epik_State_Penalty>  (49) 
0.00232853

>  <r_epik_Charging_Adjusted_Penalty>  (49) 
0.00562386

>  <i_epik_Tot_Q>  (49) 
-1

>  <i_epik_Tot_abs_Q>  (49) 
1

>  <s_lp_Force_Field>  (49) 
OPLS3e

>  <r_lp_Energy>  (49) 
15.7623

>  <b_lp_Chiralities_Consistent>  (49) 
1

>  <s_lp_Variant>  (49) 
14:0-1

>  <s_i_glide_gridfile>  (49) 
pfpi4k_grid

>  <i_i_glide_lignum>  (49) 
22

>  <i_i_glide_rotatable_bonds>  (49) 
5

>  <r_i_docking_score>  (49) 
-3.04301

>  <r_i_glide_ligand_efficiency>  (49) 
-0.138319

>  <r_i_glide_ligand_efficiency_sa>  (49) 
-0.387574

>  <r_i_glide_ligand_efficiency_ln>  (49) 
-0.743823

>  <r_i_glide_gscore>  (49) 
-3.04301

>  <r_i_glide_lipo>  (49) 
-0.875138

>  <r_i_glide_hbond>  (49) 
-0.362979

>  <r_i_glide_metal>  (49) 
-0

>  <r_i_glide_rewards>  (49) 
-1.35409

>  <r_i_glide_evdw>  (49) 
-18.6152

>  <r_i_glide_ecoul>  (49) 
-1.71265

>  <r_i_glide_erotb>  (49) 
0.810038

>  <r_i_glide_esite>  (49) 
-0.0731823

>  <r_i_glide_emodel>  (49) 
-26.1063

>  <r_i_glide_energy>  (49) 
-20.3279

>  <r_i_glide_einternal>  (49) 
1.22318

>  <r_i_glide_intrahb_reward>  (49) 
-0

>  <i_i_glide_confnum>  (49) 
1

>  <i_i_glide_posenum>  (49) 
34

>  <r_i_glide_eff_state_penalty>  (49) 
0

>  <ligand_id>  (49) 
14

>  <original_smiles>  (49) 
CC(C=CC(=O)O)C=CC1C(C)C=CC2=CC(C)CC(O)C21

>  <smiles>  (49) 
[H]OC1([H])C([H])([H])C([H])(C([H])([H])[H])C([H])=C2C([H])=C([H])C([H])(C([H])([H])[H])C([H])(C([H])=C([H])C([H])(C([H])=C([H])C(=O)[O-])C([H])([H])[H])C21[H]

$$$$
14:0:2
     RDKit          3D

 47 48  0  0  1  0  0  0  0  0999 V2000
    5.0956   -1.8662    0.7092 C   0  0  0  0  0  0  0  0  0  0  0  0
    4.3453   -3.1345    0.2746 C   0  0  2  0  0  0  0  0  0  0  0  0
    3.9049   -3.1493   -1.1775 C   0  0  0  0  0  0  0  0  0  0  0  0
    4.0213   -2.1311   -2.0676 C   0  0  0  0  0  0  0  0  0  0  0  0
    3.5916   -2.2154   -3.5624 C   0  0  0  0  0  0  0  0  0  0  0  0
    4.2119   -1.4737   -4.3453 O   0  0  0  0  0  0  0  0  0  0  0  0
    2.7162   -3.0550   -3.8568 O   0  0  0  0  0  0  0  0  0  0  0  0
    3.1414   -3.3689    1.1617 C   0  0  0  0  0  0  0  0  0  0  0  0
    3.1067   -4.2789    2.1445 C   0  0  0  0  0  0  0  0  0  0  0  0
    1.9144   -4.5282    3.0593 C   0  0  2  0  0  0  0  0  0  0  0  0
    2.0463   -3.7330    4.3823 C   0  0  1  0  0  0  0  0  0  0  0  0
    1.8615   -2.2240    4.1293 C   0  0  0  0  0  0  0  0  0  0  0  0
    1.0693   -4.2092    5.4480 C   0  0  0  0  0  0  0  0  0  0  0  0
    0.3740   -5.3620    5.3773 C   0  0  0  0  0  0  0  0  0  0  0  0
    0.5461   -6.2845    4.2739 C   0  0  0  0  0  0  0  0  0  0  0  0
   -0.2782   -7.3482    4.1609 C   0  0  0  0  0  0  0  0  0  0  0  0
   -0.2071   -8.3888    3.0592 C   0  0  1  0  0  0  0  0  0  0  0  0
   -1.4451   -8.2846    2.1562 C   0  0  0  0  0  0  0  0  0  0  0  0
    1.1279   -8.2991    2.2820 C   0  0  0  0  0  0  0  0  0  0  0  0
    1.5700   -6.8587    1.9679 C   0  0  1  0  0  0  0  0  0  0  0  0
    0.6620   -6.2769    1.0424 O   0  0  0  0  0  0  0  0  0  0  0  0
    1.6955   -6.0428    3.2879 C   0  0  1  0  0  0  0  0  0  0  0  0
    4.4733   -0.9729    0.6286 H   0  0  0  0  0  0  0  0  0  0  0  0
    5.9882   -1.7144    0.1014 H   0  0  0  0  0  0  0  0  0  0  0  0
    5.4201   -1.9456    1.7471 H   0  0  0  0  0  0  0  0  0  0  0  0
    5.0215   -3.9826    0.4055 H   0  0  0  0  0  0  0  0  0  0  0  0
    3.4598   -4.0666   -1.5197 H   0  0  0  0  0  0  0  0  0  0  0  0
    4.4411   -1.1966   -1.7461 H   0  0  0  0  0  0  0  0  0  0  0  0
    2.2817   -2.7425    0.9758 H   0  0  0  0  0  0  0  0  0  0  0  0
    3.9816   -4.8931    2.3199 H   0  0  0  0  0  0  0  0  0  0  0  0
    1.0255   -4.1477    2.5612 H   0  0  0  0  0  0  0  0  0  0  0  0
    3.0394   -3.9088    4.7930 H   0  0  0  0  0  0  0  0  0  0  0  0
    1.9958   -1.6438    5.0406 H   0  0  0  0  0  0  0  0  0  0  0  0
    0.8660   -2.0102    3.7351 H   0  0  0  0  0  0  0  0  0  0  0  0
    2.5811   -1.8418    3.4050 H   0  0  0  0  0  0  0  0  0  0  0  0
    0.9268   -3.5598    6.2939 H   0  0  0  0  0  0  0  0  0  0  0  0
   -0.3084   -5.6008    6.1830 H   0  0  0  0  0  0  0  0  0  0  0  0
   -1.0596   -7.5002    4.8920 H   0  0  0  0  0  0  0  0  0  0  0  0
   -0.2274   -9.3634    3.5426 H   0  0  0  0  0  0  0  0  0  0  0  0
   -2.3744   -8.4421    2.7058 H   0  0  0  0  0  0  0  0  0  0  0  0
   -1.4162   -8.9953    1.3300 H   0  0  0  0  0  0  0  0  0  0  0  0
   -1.4961   -7.2913    1.7249 H   0  0  0  0  0  0  0  0  0  0  0  0
    1.9140   -8.7580    2.8860 H   0  0  0  0  0  0  0  0  0  0  0  0
    1.1050   -8.8877    1.3670 H   0  0  0  0  0  0  0  0  0  0  0  0
    2.5465   -6.8992    1.4709 H   0  0  0  0  0  0  0  0  0  0  0  0
    0.3544   -6.9826    0.4813 H   0  0  0  0  0  0  0  0  0  0  0  0
    2.5749   -6.4275    3.8091 H   0  0  0  0  0  0  0  0  0  0  0  0
  1  2  1  0
  1 23  1  0
  1 24  1  0
  1 25  1  0
  2  3  1  0
  2  8  1  0
  2 26  1  6
  3  4  2  3
  3 27  1  0
  4  5  1  0
  4 28  1  0
  5  6  2  0
  5  7  1  0
  8  9  2  3
  8 29  1  0
  9 10  1  0
  9 30  1  0
 10 22  1  0
 10 11  1  0
 10 31  1  6
 11 12  1  0
 11 13  1  0
 11 32  1  1
 12 33  1  0
 12 34  1  0
 12 35  1  0
 13 14  2  0
 13 36  1  0
 14 15  1  0
 14 37  1  0
 15 22  1  0
 15 16  2  0
 16 17  1  0
 16 38  1  0
 17 18  1  0
 17 19  1  0
 17 39  1  1
 18 40  1  0
 18 41  1  0
 18 42  1  0
 19 20  1  0
 19 43  1  0
 19 44  1  0
 20 21  1  0
 20 22  1  0
 20 45  1  6
 21 46  1  0
 22 47  1  1
M  CHG  1   7  -1
M  END
>  <i_m_ct_stereo_status>  (50) 
1

>  <s_m_source_file>  (50) 
/var/tmp/pbs.5076255.sched01/tmp7hrp_b9g/014g_j70o.sdf

>  <i_m_source_file_index>  (50) 
22

>  <i_lp_mmshare_version>  (50) 
48012

>  <i_f3d_flags>  (50) 
0

>  <s_epik_input>  (50) 
Tz1DKFtPSF0pXFtDSF09W0NIXVxbQ0BASF0oW0NIM10pL1tDSF09W0NIXS9bQ0BIXShbQ0BASF0oW0NIM10pW0NIXT1bQ0hdMSlbQ0BASF0oQzE9MilbQ0BIXShbT0hdKVtDSDJdW0NAQEhdKFtDSF0yKVtDSDNd

>  <s_epik_cmdline>  (50) 
J2VwaWtfcHl0aG9uJywgJy1waHQnLCAnMi4wJywgJy1waCcsICc3LjAnLCAnLXRuJywgJzgnLCAnLW1hJywgJzIwMCcsICctaW1hZScsICc8aW5maWxlLm1hZT4nLCAnLW9tYWUnLCAnPG91dGZpbGUubWFlPic=

>  <r_epik_Ionization_Penalty>  (50) 
0.00329561

>  <r_epik_Ionization_Penalty_Charging>  (50) 
0.00329532

>  <r_epik_Ionization_Penalty_Neutral>  (50) 
2.90052e-07

>  <r_epik_State_Penalty>  (50) 
0.00232853

>  <r_epik_Charging_Adjusted_Penalty>  (50) 
0.00562386

>  <i_epik_Tot_Q>  (50) 
-1

>  <i_epik_Tot_abs_Q>  (50) 
1

>  <s_lp_Force_Field>  (50) 
OPLS3e

>  <r_lp_Energy>  (50) 
15.7623

>  <b_lp_Chiralities_Consistent>  (50) 
1

>  <s_lp_Variant>  (50) 
14:0-1

>  <s_i_glide_gridfile>  (50) 
pfpi4k_grid

>  <i_i_glide_lignum>  (50) 
22

>  <i_i_glide_rotatable_bonds>  (50) 
5

>  <r_i_docking_score>  (50) 
-2.72546

>  <r_i_glide_ligand_efficiency>  (50) 
-0.123884

>  <r_i_glide_ligand_efficiency_sa>  (50) 
-0.347129

>  <r_i_glide_ligand_efficiency_ln>  (50) 
-0.666201

>  <r_i_glide_gscore>  (50) 
-2.72546

>  <r_i_glide_lipo>  (50) 
-0.0696599

>  <r_i_glide_hbond>  (50) 
-0.32

>  <r_i_glide_metal>  (50) 
-0

>  <r_i_glide_rewards>  (50) 
-1.65318

>  <r_i_glide_evdw>  (50) 
-18.0324

>  <r_i_glide_ecoul>  (50) 
-3.94026

>  <r_i_glide_erotb>  (50) 
0.810038

>  <r_i_glide_esite>  (50) 
0

>  <r_i_glide_emodel>  (50) 
-26.6049

>  <r_i_glide_energy>  (50) 
-21.9727

>  <r_i_glide_einternal>  (50) 
2.58342

>  <r_i_glide_intrahb_reward>  (50) 
-0

>  <i_i_glide_confnum>  (50) 
3

>  <i_i_glide_posenum>  (50) 
3

>  <r_i_glide_eff_state_penalty>  (50) 
0

>  <ligand_id>  (50) 
14

>  <original_smiles>  (50) 
CC(C=CC(=O)O)C=CC1C(C)C=CC2=CC(C)CC(O)C21

>  <smiles>  (50) 
[H]OC1([H])C([H])([H])C([H])(C([H])([H])[H])C([H])=C2C([H])=C([H])C([H])(C([H])([H])[H])C([H])(C([H])=C([H])C([H])(C([H])=C([H])C(=O)[O-])C([H])([H])[H])C21[H]

$$$$
14:1:0
     RDKit          3D

 47 48  0  0  1  0  0  0  0  0999 V2000
    3.7885   -4.2376   -0.7755 C   0  0  0  0  0  0  0  0  0  0  0  0
    3.9605   -3.5598    0.5887 C   0  0  2  0  0  0  0  0  0  0  0  0
    5.3063   -3.9277    1.1811 C   0  0  0  0  0  0  0  0  0  0  0  0
    6.4286   -3.1896    1.1400 C   0  0  0  0  0  0  0  0  0  0  0  0
    6.6343   -1.8288    0.4204 C   0  0  0  0  0  0  0  0  0  0  0  0
    6.0898   -0.8287    0.9426 O   0  0  0  0  0  0  0  0  0  0  0  0
    7.3237   -1.8547   -0.6114 O   0  0  0  0  0  0  0  0  0  0  0  0
    2.7809   -3.8691    1.4981 C   0  0  0  0  0  0  0  0  0  0  0  0
    2.7933   -4.6161    2.6228 C   0  0  0  0  0  0  0  0  0  0  0  0
    1.5814   -4.8914    3.4981 C   0  0  2  0  0  0  0  0  0  0  0  0
    1.7028   -4.1394    4.8442 C   0  0  1  0  0  0  0  0  0  0  0  0
    1.5065   -2.6282    4.6302 C   0  0  0  0  0  0  0  0  0  0  0  0
    0.7373   -4.6621    5.8991 C   0  0  0  0  0  0  0  0  0  0  0  0
    0.0563   -5.8223    5.7977 C   0  0  0  0  0  0  0  0  0  0  0  0
    0.2352   -6.7009    4.6616 C   0  0  0  0  0  0  0  0  0  0  0  0
   -0.5722   -7.7779    4.5218 C   0  0  0  0  0  0  0  0  0  0  0  0
   -0.5020   -8.7729    3.3848 C   0  0  1  0  0  0  0  0  0  0  0  0
   -1.7467   -8.6700    2.5047 C   0  0  0  0  0  0  0  0  0  0  0  0
    0.8197   -8.6471    2.6034 C   0  0  0  0  0  0  0  0  0  0  0  0
    1.2689   -7.1985    2.3373 C   0  0  1  0  0  0  0  0  0  0  0  0
    0.3505   -6.5851    1.4420 O   0  0  0  0  0  0  0  0  0  0  0  0
    1.3791   -6.4151    3.6791 C   0  0  1  0  0  0  0  0  0  0  0  0
    3.8194   -5.3222   -0.6747 H   0  0  0  0  0  0  0  0  0  0  0  0
    4.5867   -3.9592   -1.4729 H   0  0  0  0  0  0  0  0  0  0  0  0
    2.8409   -3.9725   -1.2508 H   0  0  0  0  0  0  0  0  0  0  0  0
    3.9594   -2.4845    0.4117 H   0  0  0  0  0  0  0  0  0  0  0  0
    5.3660   -4.8800    1.6767 H   0  0  0  0  0  0  0  0  0  0  0  0
    7.2928   -3.6023    1.6454 H   0  0  0  0  0  0  0  0  0  0  0  0
    1.8354   -3.4435    1.1951 H   0  0  0  0  0  0  0  0  0  0  0  0
    3.7052   -5.0779    2.9692 H   0  0  0  0  0  0  0  0  0  0  0  0
    0.6935   -4.5060    3.0009 H   0  0  0  0  0  0  0  0  0  0  0  0
    2.6963   -4.3205    5.2501 H   0  0  0  0  0  0  0  0  0  0  0  0
    1.6274   -2.0706    5.5553 H   0  0  0  0  0  0  0  0  0  0  0  0
    0.5153   -2.4069    4.2417 H   0  0  0  0  0  0  0  0  0  0  0  0
    2.2214   -2.2243    3.9207 H   0  0  0  0  0  0  0  0  0  0  0  0
    0.5942   -4.0412    6.7684 H   0  0  0  0  0  0  0  0  0  0  0  0
   -0.5981   -6.0967    6.6043 H   0  0  0  0  0  0  0  0  0  0  0  0
   -1.3291   -7.9807    5.2614 H   0  0  0  0  0  0  0  0  0  0  0  0
   -0.4830   -9.7540    3.8518 H   0  0  0  0  0  0  0  0  0  0  0  0
   -2.6240   -8.9356    3.0807 H   0  0  0  0  0  0  0  0  0  0  0  0
   -1.7030   -9.3749    1.6832 H   0  0  0  0  0  0  0  0  0  0  0  0
   -1.8702   -7.6685    2.0904 H   0  0  0  0  0  0  0  0  0  0  0  0
    1.6109   -9.1036    3.2058 H   0  0  0  0  0  0  0  0  0  0  0  0
    0.8138   -9.2256    1.6833 H   0  0  0  0  0  0  0  0  0  0  0  0
    2.2655   -7.2328    1.8694 H   0  0  0  0  0  0  0  0  0  0  0  0
    0.0383   -7.2495    0.8378 H   0  0  0  0  0  0  0  0  0  0  0  0
    2.2618   -6.8057    4.1886 H   0  0  0  0  0  0  0  0  0  0  0  0
  1  2  1  0
  1 23  1  0
  1 24  1  0
  1 25  1  0
  2  3  1  0
  2  8  1  0
  2 26  1  6
  3  4  2  3
  3 27  1  0
  4  5  1  0
  4 28  1  0
  5  6  2  0
  5  7  1  0
  8  9  2  3
  8 29  1  0
  9 10  1  0
  9 30  1  0
 10 22  1  0
 10 11  1  0
 10 31  1  6
 11 12  1  0
 11 13  1  0
 11 32  1  1
 12 33  1  0
 12 34  1  0
 12 35  1  0
 13 14  2  0
 13 36  1  0
 14 15  1  0
 14 37  1  0
 15 22  1  0
 15 16  2  0
 16 17  1  0
 16 38  1  0
 17 18  1  0
 17 19  1  0
 17 39  1  1
 18 40  1  0
 18 41  1  0
 18 42  1  0
 19 20  1  0
 19 43  1  0
 19 44  1  0
 20 21  1  0
 20 22  1  0
 20 45  1  6
 21 46  1  0
 22 47  1  1
M  CHG  1   7  -1
M  END
>  <i_m_ct_stereo_status>  (51) 
1

>  <s_m_source_file>  (51) 
/var/tmp/pbs.5076255.sched01/tmp7hrp_b9g/014g_j70o.sdf

>  <i_m_source_file_index>  (51) 
23

>  <i_lp_mmshare_version>  (51) 
48012

>  <i_f3d_flags>  (51) 
0

>  <s_epik_input>  (51) 
Tz1DKFtPSF0pXFtDSF09W0NIXVxbQ0BASF0oW0NIM10pL1tDSF09W0NIXS9bQ0BIXShbQ0BASF0oW0NIM10pW0NIXT1bQ0hdMSlbQ0BASF0oQzE9MilbQ0BIXShbT0hdKVtDSDJdW0NAQEhdKFtDSF0yKVtDSDNd

>  <s_epik_cmdline>  (51) 
J2VwaWtfcHl0aG9uJywgJy1waHQnLCAnMi4wJywgJy1waCcsICc3LjAnLCAnLXRuJywgJzgnLCAnLW1hJywgJzIwMCcsICctaW1hZScsICc8aW5maWxlLm1hZT4nLCAnLW9tYWUnLCAnPG91dGZpbGUubWFlPic=

>  <r_epik_Ionization_Penalty>  (51) 
0.00329561

>  <r_epik_Ionization_Penalty_Charging>  (51) 
0.00329532

>  <r_epik_Ionization_Penalty_Neutral>  (51) 
2.90052e-07

>  <r_epik_State_Penalty>  (51) 
0.00232853

>  <r_epik_Charging_Adjusted_Penalty>  (51) 
0.00562386

>  <i_epik_Tot_Q>  (51) 
-1

>  <i_epik_Tot_abs_Q>  (51) 
1

>  <s_lp_Force_Field>  (51) 
OPLS3e

>  <r_lp_Energy>  (51) 
19.6011

>  <b_lp_Chiralities_Consistent>  (51) 
1

>  <s_lp_Variant>  (51) 
14:0-2

>  <s_i_glide_gridfile>  (51) 
pfpi4k_grid

>  <i_i_glide_lignum>  (51) 
23

>  <i_i_glide_rotatable_bonds>  (51) 
5

>  <r_i_docking_score>  (51) 
-2.80233

>  <r_i_glide_ligand_efficiency>  (51) 
-0.127379

>  <r_i_glide_ligand_efficiency_sa>  (51) 
-0.35692

>  <r_i_glide_ligand_efficiency_ln>  (51) 
-0.684992

>  <r_i_glide_gscore>  (51) 
-2.80233

>  <r_i_glide_lipo>  (51) 
-0.304809

>  <r_i_glide_hbond>  (51) 
-0.33193

>  <r_i_glide_metal>  (51) 
-0

>  <r_i_glide_rewards>  (51) 
-1.39431

>  <r_i_glide_evdw>  (51) 
-16.6589

>  <r_i_glide_ecoul>  (51) 
-4.98913

>  <r_i_glide_erotb>  (51) 
0.810038

>  <r_i_glide_esite>  (51) 
0

>  <r_i_glide_emodel>  (51) 
-26.2424

>  <r_i_glide_energy>  (51) 
-21.6481

>  <r_i_glide_einternal>  (51) 
2.32408

>  <r_i_glide_intrahb_reward>  (51) 
-0

>  <i_i_glide_confnum>  (51) 
4

>  <i_i_glide_posenum>  (51) 
16

>  <r_i_glide_eff_state_penalty>  (51) 
0

>  <ligand_id>  (51) 
14

>  <original_smiles>  (51) 
CC(C=CC(=O)O)C=CC1C(C)C=CC2=CC(C)CC(O)C21

>  <smiles>  (51) 
[H]OC1([H])C([H])([H])C([H])(C([H])([H])[H])C([H])=C2C([H])=C([H])C([H])(C([H])([H])[H])C([H])(C([H])=C([H])C([H])(C([H])=C([H])C(=O)[O-])C([H])([H])[H])C21[H]

$$$$
14:1:1
     RDKit          3D

 47 48  0  0  1  0  0  0  0  0999 V2000
    3.0534   -3.2043   -1.5695 C   0  0  0  0  0  0  0  0  0  0  0  0
    3.7381   -3.2543   -0.1924 C   0  0  2  0  0  0  0  0  0  0  0  0
    4.8761   -4.2554   -0.1905 C   0  0  0  0  0  0  0  0  0  0  0  0
    6.1968   -3.9688   -0.1709 C   0  0  0  0  0  0  0  0  0  0  0  0
    6.8573   -2.5631   -0.2113 C   0  0  0  0  0  0  0  0  0  0  0  0
    6.8466   -1.9008    0.8542 O   0  0  0  0  0  0  0  0  0  0  0  0
    7.3603   -2.2294   -1.2927 O   0  0  0  0  0  0  0  0  0  0  0  0
    2.7129   -3.5290    0.9003 C   0  0  0  0  0  0  0  0  0  0  0  0
    2.7954   -4.4605    1.8647 C   0  0  0  0  0  0  0  0  0  0  0  0
    1.7520   -4.6857    2.9542 C   0  0  2  0  0  0  0  0  0  0  0  0
    2.0297   -3.7937    4.1911 C   0  0  1  0  0  0  0  0  0  0  0  0
    1.7276   -2.3134    3.8896 C   0  0  0  0  0  0  0  0  0  0  0  0
    1.2495   -4.2530    5.4199 C   0  0  0  0  0  0  0  0  0  0  0  0
    0.6133   -5.4266    5.5290 C   0  0  0  0  0  0  0  0  0  0  0  0
    0.6554   -6.4060    4.4643 C   0  0  0  0  0  0  0  0  0  0  0  0
   -0.1265   -7.5072    4.5480 C   0  0  0  0  0  0  0  0  0  0  0  0
   -0.1883   -8.6133    3.5031 C   0  0  1  0  0  0  0  0  0  0  0  0
   -1.5637   -8.6293    2.8159 C   0  0  0  0  0  0  0  0  0  0  0  0
    1.0080   -8.5234    2.5254 C   0  0  0  0  0  0  0  0  0  0  0  0
    1.3420   -7.0913    2.0577 C   0  0  1  0  0  0  0  0  0  0  0  0
    0.3210   -6.5732    1.2317 O   0  0  0  0  0  0  0  0  0  0  0  0
    1.6296   -6.1867    3.2978 C   0  0  1  0  0  0  0  0  0  0  0  0
    2.6014   -4.1685   -1.8077 H   0  0  0  0  0  0  0  0  0  0  0  0
    3.7762   -2.9601   -2.3578 H   0  0  0  0  0  0  0  0  0  0  0  0
    2.2565   -2.4693   -1.6132 H   0  0  0  0  0  0  0  0  0  0  0  0
    4.1394   -2.2560   -0.0013 H   0  0  0  0  0  0  0  0  0  0  0  0
    4.5701   -5.2927   -0.1971 H   0  0  0  0  0  0  0  0  0  0  0  0
    6.8609   -4.8167   -0.1347 H   0  0  0  0  0  0  0  0  0  0  0  0
    1.8418   -2.8891    0.8782 H   0  0  0  0  0  0  0  0  0  0  0  0
    3.6556   -5.1177    1.8982 H   0  0  0  0  0  0  0  0  0  0  0  0
    0.7754   -4.3757    2.5851 H   0  0  0  0  0  0  0  0  0  0  0  0
    3.0799   -3.9099    4.4553 H   0  0  0  0  0  0  0  0  0  0  0  0
    1.9470   -1.6778    4.7397 H   0  0  0  0  0  0  0  0  0  0  0  0
    0.6780   -2.1669    3.6263 H   0  0  0  0  0  0  0  0  0  0  0  0
    2.3170   -1.9326    3.0614 H   0  0  0  0  0  0  0  0  0  0  0  0
    1.2072   -3.5494    6.2410 H   0  0  0  0  0  0  0  0  0  0  0  0
    0.0815   -5.6428    6.4449 H   0  0  0  0  0  0  0  0  0  0  0  0
   -0.7599   -7.6522    5.4076 H   0  0  0  0  0  0  0  0  0  0  0  0
   -0.0599   -9.5412    4.0542 H   0  0  0  0  0  0  0  0  0  0  0  0
   -2.3602   -8.8483    3.5337 H   0  0  0  0  0  0  0  0  0  0  0  0
   -1.5985   -9.4035    2.0517 H   0  0  0  0  0  0  0  0  0  0  0  0
   -1.8119   -7.6808    2.3402 H   0  0  0  0  0  0  0  0  0  0  0  0
    1.8920   -8.8954    3.0394 H   0  0  0  0  0  0  0  0  0  0  0  0
    0.8769   -9.1977    1.6793 H   0  0  0  0  0  0  0  0  0  0  0  0
    2.2502   -7.1514    1.4443 H   0  0  0  0  0  0  0  0  0  0  0  0
   -0.1266   -7.3095    0.8297 H   0  0  0  0  0  0  0  0  0  0  0  0
    2.5888   -6.5065    3.6976 H   0  0  0  0  0  0  0  0  0  0  0  0
  1  2  1  0
  1 23  1  0
  1 24  1  0
  1 25  1  0
  2  3  1  0
  2  8  1  0
  2 26  1  1
  3  4  2  3
  3 27  1  0
  4  5  1  0
  4 28  1  0
  5  6  2  0
  5  7  1  0
  8  9  2  3
  8 29  1  0
  9 10  1  0
  9 30  1  0
 10 22  1  0
 10 11  1  0
 10 31  1  6
 11 12  1  0
 11 13  1  0
 11 32  1  1
 12 33  1  0
 12 34  1  0
 12 35  1  0
 13 14  2  0
 13 36  1  0
 14 15  1  0
 14 37  1  0
 15 22  1  0
 15 16  2  0
 16 17  1  0
 16 38  1  0
 17 18  1  0
 17 19  1  0
 17 39  1  1
 18 40  1  0
 18 41  1  0
 18 42  1  0
 19 20  1  0
 19 43  1  0
 19 44  1  0
 20 21  1  0
 20 22  1  0
 20 45  1  6
 21 46  1  0
 22 47  1  1
M  CHG  1   7  -1
M  END
>  <i_m_ct_stereo_status>  (52) 
1

>  <s_m_source_file>  (52) 
/var/tmp/pbs.5076255.sched01/tmp7hrp_b9g/014g_j70o.sdf

>  <i_m_source_file_index>  (52) 
23

>  <i_lp_mmshare_version>  (52) 
48012

>  <i_f3d_flags>  (52) 
0

>  <s_epik_input>  (52) 
Tz1DKFtPSF0pXFtDSF09W0NIXVxbQ0BASF0oW0NIM10pL1tDSF09W0NIXS9bQ0BIXShbQ0BASF0oW0NIM10pW0NIXT1bQ0hdMSlbQ0BASF0oQzE9MilbQ0BIXShbT0hdKVtDSDJdW0NAQEhdKFtDSF0yKVtDSDNd

>  <s_epik_cmdline>  (52) 
J2VwaWtfcHl0aG9uJywgJy1waHQnLCAnMi4wJywgJy1waCcsICc3LjAnLCAnLXRuJywgJzgnLCAnLW1hJywgJzIwMCcsICctaW1hZScsICc8aW5maWxlLm1hZT4nLCAnLW9tYWUnLCAnPG91dGZpbGUubWFlPic=

>  <r_epik_Ionization_Penalty>  (52) 
0.00329561

>  <r_epik_Ionization_Penalty_Charging>  (52) 
0.00329532

>  <r_epik_Ionization_Penalty_Neutral>  (52) 
2.90052e-07

>  <r_epik_State_Penalty>  (52) 
0.00232853

>  <r_epik_Charging_Adjusted_Penalty>  (52) 
0.00562386

>  <i_epik_Tot_Q>  (52) 
-1

>  <i_epik_Tot_abs_Q>  (52) 
1

>  <s_lp_Force_Field>  (52) 
OPLS3e

>  <r_lp_Energy>  (52) 
19.6011

>  <b_lp_Chiralities_Consistent>  (52) 
1

>  <s_lp_Variant>  (52) 
14:0-2

>  <s_i_glide_gridfile>  (52) 
pfpi4k_grid

>  <i_i_glide_lignum>  (52) 
23

>  <i_i_glide_rotatable_bonds>  (52) 
5

>  <r_i_docking_score>  (52) 
-2.78073

>  <r_i_glide_ligand_efficiency>  (52) 
-0.126397

>  <r_i_glide_ligand_efficiency_sa>  (52) 
-0.354169

>  <r_i_glide_ligand_efficiency_ln>  (52) 
-0.679712

>  <r_i_glide_gscore>  (52) 
-2.78073

>  <r_i_glide_lipo>  (52) 
-0.211414

>  <r_i_glide_hbond>  (52) 
-0.36

>  <r_i_glide_metal>  (52) 
-0

>  <r_i_glide_rewards>  (52) 
-1.35409

>  <r_i_glide_evdw>  (52) 
-16.4608

>  <r_i_glide_ecoul>  (52) 
-5.61116

>  <r_i_glide_erotb>  (52) 
0.810038

>  <r_i_glide_esite>  (52) 
-0.000549045

>  <r_i_glide_emodel>  (52) 
-26.3162

>  <r_i_glide_energy>  (52) 
-22.072

>  <r_i_glide_einternal>  (52) 
2.78725

>  <r_i_glide_intrahb_reward>  (52) 
-0

>  <i_i_glide_confnum>  (52) 
1

>  <i_i_glide_posenum>  (52) 
34

>  <r_i_glide_eff_state_penalty>  (52) 
0

>  <ligand_id>  (52) 
14

>  <original_smiles>  (52) 
CC(C=CC(=O)O)C=CC1C(C)C=CC2=CC(C)CC(O)C21

>  <smiles>  (52) 
[H]OC1([H])C([H])([H])C([H])(C([H])([H])[H])C([H])=C2C([H])=C([H])C([H])(C([H])([H])[H])C([H])(C([H])=C([H])C([H])(C([H])=C([H])C(=O)[O-])C([H])([H])[H])C21[H]

$$$$
14:1:2
     RDKit          3D

 47 48  0  0  1  0  0  0  0  0999 V2000
    3.1861   -2.7568    1.1243 C   0  0  0  0  0  0  0  0  0  0  0  0
    4.2758   -3.8382    1.0040 C   0  0  2  0  0  0  0  0  0  0  0  0
    4.5531   -4.1520   -0.4478 C   0  0  0  0  0  0  0  0  0  0  0  0
    5.6559   -3.8441   -1.1494 C   0  0  0  0  0  0  0  0  0  0  0  0
    6.9141   -3.0416   -0.6716 C   0  0  0  0  0  0  0  0  0  0  0  0
    7.7285   -3.6560    0.0355 O   0  0  0  0  0  0  0  0  0  0  0  0
    6.9835   -1.8748   -1.0909 O   0  0  0  0  0  0  0  0  0  0  0  0
    3.8955   -5.0705    1.8158 C   0  0  0  0  0  0  0  0  0  0  0  0
    3.6219   -6.3034    1.3482 C   0  0  0  0  0  0  0  0  0  0  0  0
    3.2721   -7.5105    2.2146 C   0  0  2  0  0  0  0  0  0  0  0  0
    4.3245   -8.6263    2.0498 C   0  0  1  0  0  0  0  0  0  0  0  0
    5.6543   -8.2211    2.7101 C   0  0  0  0  0  0  0  0  0  0  0  0
    3.8463   -9.9682    2.5872 C   0  0  0  0  0  0  0  0  0  0  0  0
    2.5648  -10.2512    2.9113 C   0  0  0  0  0  0  0  0  0  0  0  0
    1.5134   -9.2812    2.7189 C   0  0  0  0  0  0  0  0  0  0  0  0
    0.2795   -9.5339    3.2035 C   0  0  0  0  0  0  0  0  0  0  0  0
   -0.9184   -8.5971    3.0716 C   0  0  1  0  0  0  0  0  0  0  0  0
   -1.3212   -8.0449    4.4515 C   0  0  0  0  0  0  0  0  0  0  0  0
   -0.6526   -7.4957    2.0156 C   0  0  0  0  0  0  0  0  0  0  0  0
    0.7613   -6.8956    2.0796 C   0  0  1  0  0  0  0  0  0  0  0  0
    0.8992   -6.2152    3.2856 O   0  0  0  0  0  0  0  0  0  0  0  0
    1.8370   -8.0064    1.9221 C   0  0  1  0  0  0  0  0  0  0  0  0
    2.2417   -3.0935    0.6862 H   0  0  0  0  0  0  0  0  0  0  0  0
    3.4778   -1.8487    0.5841 H   0  0  0  0  0  0  0  0  0  0  0  0
    2.9950   -2.4816    2.1556 H   0  0  0  0  0  0  0  0  0  0  0  0
    5.1916   -3.4333    1.4447 H   0  0  0  0  0  0  0  0  0  0  0  0
    3.7656   -4.6849   -0.9721 H   0  0  0  0  0  0  0  0  0  0  0  0
    5.6769   -4.1699   -2.1779 H   0  0  0  0  0  0  0  0  0  0  0  0
    3.8409   -4.9204    2.8846 H   0  0  0  0  0  0  0  0  0  0  0  0
    3.6461   -6.4945    0.2802 H   0  0  0  0  0  0  0  0  0  0  0  0
    3.3086   -7.2037    3.2623 H   0  0  0  0  0  0  0  0  0  0  0  0
    4.4870   -8.7936    0.9882 H   0  0  0  0  0  0  0  0  0  0  0  0
    6.4225   -8.9786    2.5707 H   0  0  0  0  0  0  0  0  0  0  0  0
    5.5313   -8.0728    3.7888 H   0  0  0  0  0  0  0  0  0  0  0  0
    6.0398   -7.2859    2.3045 H   0  0  0  0  0  0  0  0  0  0  0  0
    4.5946  -10.7356    2.7186 H   0  0  0  0  0  0  0  0  0  0  0  0
    2.3395  -11.2377    3.2935 H   0  0  0  0  0  0  0  0  0  0  0  0
    0.0812  -10.4624    3.7196 H   0  0  0  0  0  0  0  0  0  0  0  0
   -1.7269   -9.2028    2.6842 H   0  0  0  0  0  0  0  0  0  0  0  0
   -1.6169   -8.8508    5.1309 H   0  0  0  0  0  0  0  0  0  0  0  0
   -2.1630   -7.3517    4.3675 H   0  0  0  0  0  0  0  0  0  0  0  0
   -0.5173   -7.5157    4.9682 H   0  0  0  0  0  0  0  0  0  0  0  0
   -0.7781   -7.9100    1.0172 H   0  0  0  0  0  0  0  0  0  0  0  0
   -1.4072   -6.7132    2.1002 H   0  0  0  0  0  0  0  0  0  0  0  0
    0.8825   -6.1613    1.2771 H   0  0  0  0  0  0  0  0  0  0  0  0
    0.9293   -6.8555    3.9738 H   0  0  0  0  0  0  0  0  0  0  0  0
    1.7978   -8.3423    0.8829 H   0  0  0  0  0  0  0  0  0  0  0  0
  1  2  1  0
  1 23  1  0
  1 24  1  0
  1 25  1  0
  2  3  1  0
  2  8  1  0
  2 26  1  1
  3  4  2  3
  3 27  1  0
  4  5  1  0
  4 28  1  0
  5  6  2  0
  5  7  1  0
  8  9  2  3
  8 29  1  0
  9 10  1  0
  9 30  1  0
 10 22  1  0
 10 11  1  0
 10 31  1  1
 11 12  1  0
 11 13  1  0
 11 32  1  6
 12 33  1  0
 12 34  1  0
 12 35  1  0
 13 14  2  0
 13 36  1  0
 14 15  1  0
 14 37  1  0
 15 22  1  0
 15 16  2  0
 16 17  1  0
 16 38  1  0
 17 18  1  0
 17 19  1  0
 17 39  1  6
 18 40  1  0
 18 41  1  0
 18 42  1  0
 19 20  1  0
 19 43  1  0
 19 44  1  0
 20 21  1  0
 20 22  1  0
 20 45  1  6
 21 46  1  0
 22 47  1  6
M  CHG  1   7  -1
M  END
>  <i_m_ct_stereo_status>  (53) 
1

>  <s_m_source_file>  (53) 
/var/tmp/pbs.5076255.sched01/tmp7hrp_b9g/014g_j70o.sdf

>  <i_m_source_file_index>  (53) 
23

>  <i_lp_mmshare_version>  (53) 
48012

>  <i_f3d_flags>  (53) 
0

>  <s_epik_input>  (53) 
Tz1DKFtPSF0pXFtDSF09W0NIXVxbQ0BASF0oW0NIM10pL1tDSF09W0NIXS9bQ0BIXShbQ0BASF0oW0NIM10pW0NIXT1bQ0hdMSlbQ0BASF0oQzE9MilbQ0BIXShbT0hdKVtDSDJdW0NAQEhdKFtDSF0yKVtDSDNd

>  <s_epik_cmdline>  (53) 
J2VwaWtfcHl0aG9uJywgJy1waHQnLCAnMi4wJywgJy1waCcsICc3LjAnLCAnLXRuJywgJzgnLCAnLW1hJywgJzIwMCcsICctaW1hZScsICc8aW5maWxlLm1hZT4nLCAnLW9tYWUnLCAnPG91dGZpbGUubWFlPic=

>  <r_epik_Ionization_Penalty>  (53) 
0.00329561

>  <r_epik_Ionization_Penalty_Charging>  (53) 
0.00329532

>  <r_epik_Ionization_Penalty_Neutral>  (53) 
2.90052e-07

>  <r_epik_State_Penalty>  (53) 
0.00232853

>  <r_epik_Charging_Adjusted_Penalty>  (53) 
0.00562386

>  <i_epik_Tot_Q>  (53) 
-1

>  <i_epik_Tot_abs_Q>  (53) 
1

>  <s_lp_Force_Field>  (53) 
OPLS3e

>  <r_lp_Energy>  (53) 
19.6011

>  <b_lp_Chiralities_Consistent>  (53) 
1

>  <s_lp_Variant>  (53) 
14:0-2

>  <s_i_glide_gridfile>  (53) 
pfpi4k_grid

>  <i_i_glide_lignum>  (53) 
23

>  <i_i_glide_rotatable_bonds>  (53) 
5

>  <r_i_docking_score>  (53) 
-2.44103

>  <r_i_glide_ligand_efficiency>  (53) 
-0.110956

>  <r_i_glide_ligand_efficiency_sa>  (53) 
-0.310903

>  <r_i_glide_ligand_efficiency_ln>  (53) 
-0.596677

>  <r_i_glide_gscore>  (53) 
-2.44103

>  <r_i_glide_lipo>  (53) 
-0.184713

>  <r_i_glide_hbond>  (53) 
-0.2

>  <r_i_glide_metal>  (53) 
-0

>  <r_i_glide_rewards>  (53) 
-1.43406

>  <r_i_glide_evdw>  (53) 
-19.503

>  <r_i_glide_ecoul>  (53) 
-3.04762

>  <r_i_glide_erotb>  (53) 
0.810038

>  <r_i_glide_esite>  (53) 
0

>  <r_i_glide_emodel>  (53) 
-27.2431

>  <r_i_glide_energy>  (53) 
-22.5507

>  <r_i_glide_einternal>  (53) 
0.904722

>  <r_i_glide_intrahb_reward>  (53) 
-0

>  <i_i_glide_confnum>  (53) 
1

>  <i_i_glide_posenum>  (53) 
17

>  <r_i_glide_eff_state_penalty>  (53) 
0

>  <ligand_id>  (53) 
14

>  <original_smiles>  (53) 
CC(C=CC(=O)O)C=CC1C(C)C=CC2=CC(C)CC(O)C21

>  <smiles>  (53) 
[H]OC1([H])C([H])([H])C([H])(C([H])([H])[H])C([H])=C2C([H])=C([H])C([H])(C([H])([H])[H])C([H])(C([H])=C([H])C([H])(C([H])=C([H])C(=O)[O-])C([H])([H])[H])C21[H]

$$$$
14:2:0
     RDKit          3D

 47 48  0  0  1  0  0  0  0  0999 V2000
    3.9372   -5.9023    0.0538 C   0  0  0  0  0  0  0  0  0  0  0  0
    4.9072   -5.4477    1.1390 C   0  0  2  0  0  0  0  0  0  0  0  0
    6.2242   -4.9912    0.5222 C   0  0  0  0  0  0  0  0  0  0  0  0
    6.6384   -3.7150    0.4666 C   0  0  0  0  0  0  0  0  0  0  0  0
    7.9410   -3.2291   -0.2189 C   0  0  0  0  0  0  0  0  0  0  0  0
    7.8028   -2.2570   -0.9989 O   0  0  0  0  0  0  0  0  0  0  0  0
    8.9923   -3.8570    0.0675 O   0  0  0  0  0  0  0  0  0  0  0  0
    5.1436   -6.5411    2.1682 C   0  0  0  0  0  0  0  0  0  0  0  0
    4.3434   -6.8403    3.2211 C   0  0  0  0  0  0  0  0  0  0  0  0
    3.0039   -6.1921    3.5788 C   0  0  2  0  0  0  0  0  0  0  0  0
    3.1898   -5.1111    4.6783 C   0  0  1  0  0  0  0  0  0  0  0  0
    3.9351   -3.8842    4.1246 C   0  0  0  0  0  0  0  0  0  0  0  0
    1.8707   -4.6791    5.2949 C   0  0  0  0  0  0  0  0  0  0  0  0
    0.7121   -5.3459    5.1541 C   0  0  0  0  0  0  0  0  0  0  0  0
    0.6405   -6.5913    4.4141 C   0  0  0  0  0  0  0  0  0  0  0  0
   -0.5685   -7.1433    4.1674 C   0  0  0  0  0  0  0  0  0  0  0  0
   -0.7897   -8.4356    3.4105 C   0  0  1  0  0  0  0  0  0  0  0  0
   -1.4869   -8.1449    2.0729 C   0  0  0  0  0  0  0  0  0  0  0  0
    0.5185   -9.2421    3.2570 C   0  0  0  0  0  0  0  0  0  0  0  0
    1.7444   -8.3801    2.9134 C   0  0  1  0  0  0  0  0  0  0  0  0
    1.5454   -7.8303    1.6215 O   0  0  0  0  0  0  0  0  0  0  0  0
    1.9458   -7.2617    3.9776 C   0  0  1  0  0  0  0  0  0  0  0  0
    4.3093   -6.7683   -0.4850 H   0  0  0  0  0  0  0  0  0  0  0  0
    3.7595   -5.0959   -0.6604 H   0  0  0  0  0  0  0  0  0  0  0  0
    2.9680   -6.1481    0.4695 H   0  0  0  0  0  0  0  0  0  0  0  0
    4.4377   -4.5930    1.6083 H   0  0  0  0  0  0  0  0  0  0  0  0
    6.8387   -5.7657    0.0937 H   0  0  0  0  0  0  0  0  0  0  0  0
    6.0090   -2.9633    0.9084 H   0  0  0  0  0  0  0  0  0  0  0  0
    6.0376   -7.1229    2.0302 H   0  0  0  0  0  0  0  0  0  0  0  0
    4.6698   -7.6354    3.8821 H   0  0  0  0  0  0  0  0  0  0  0  0
    2.6125   -5.6765    2.7019 H   0  0  0  0  0  0  0  0  0  0  0  0
    3.7778   -5.5421    5.4881 H   0  0  0  0  0  0  0  0  0  0  0  0
    4.0799   -3.1089    4.8738 H   0  0  0  0  0  0  0  0  0  0  0  0
    3.3845   -3.4351    3.2953 H   0  0  0  0  0  0  0  0  0  0  0  0
    4.9265   -4.1489    3.7602 H   0  0  0  0  0  0  0  0  0  0  0  0
    1.8881   -3.7632    5.8659 H   0  0  0  0  0  0  0  0  0  0  0  0
   -0.1712   -4.9441    5.6263 H   0  0  0  0  0  0  0  0  0  0  0  0
   -1.4597   -6.6551    4.5285 H   0  0  0  0  0  0  0  0  0  0  0  0
   -1.4582   -9.0476    4.0166 H   0  0  0  0  0  0  0  0  0  0  0  0
   -2.4777   -7.7171    2.2303 H   0  0  0  0  0  0  0  0  0  0  0  0
   -1.6268   -9.0608    1.5029 H   0  0  0  0  0  0  0  0  0  0  0  0
   -0.9085   -7.4621    1.4448 H   0  0  0  0  0  0  0  0  0  0  0  0
    0.7271   -9.7359    4.2058 H   0  0  0  0  0  0  0  0  0  0  0  0
    0.4001  -10.0547    2.5399 H   0  0  0  0  0  0  0  0  0  0  0  0
    2.6298   -9.0274    2.8858 H   0  0  0  0  0  0  0  0  0  0  0  0
    1.1767   -8.4928    1.0575 H   0  0  0  0  0  0  0  0  0  0  0  0
    2.3062   -7.7612    4.8792 H   0  0  0  0  0  0  0  0  0  0  0  0
  1  2  1  0
  1 23  1  0
  1 24  1  0
  1 25  1  0
  2  3  1  0
  2  8  1  0
  2 26  1  1
  3  4  2  3
  3 27  1  0
  4  5  1  0
  4 28  1  0
  5  6  2  0
  5  7  1  0
  8  9  2  3
  8 29  1  0
  9 10  1  0
  9 30  1  0
 10 22  1  0
 10 11  1  0
 10 31  1  6
 11 12  1  0
 11 13  1  0
 11 32  1  1
 12 33  1  0
 12 34  1  0
 12 35  1  0
 13 14  2  0
 13 36  1  0
 14 15  1  0
 14 37  1  0
 15 22  1  0
 15 16  2  0
 16 17  1  0
 16 38  1  0
 17 18  1  0
 17 19  1  0
 17 39  1  1
 18 40  1  0
 18 41  1  0
 18 42  1  0
 19 20  1  0
 19 43  1  0
 19 44  1  0
 20 21  1  0
 20 22  1  0
 20 45  1  6
 21 46  1  0
 22 47  1  1
M  CHG  1   7  -1
M  END
>  <i_m_ct_stereo_status>  (54) 
1

>  <s_m_source_file>  (54) 
/var/tmp/pbs.5076255.sched01/tmp7hrp_b9g/014g_j70o.sdf

>  <i_m_source_file_index>  (54) 
24

>  <i_lp_mmshare_version>  (54) 
48012

>  <i_f3d_flags>  (54) 
0

>  <s_epik_input>  (54) 
Tz1DKFtPSF0pXFtDSF09W0NIXVxbQ0BASF0oW0NIM10pL1tDSF09W0NIXS9bQ0BIXShbQ0BASF0oW0NIM10pW0NIXT1bQ0hdMSlbQ0BASF0oQzE9MilbQ0BIXShbT0hdKVtDSDJdW0NAQEhdKFtDSF0yKVtDSDNd

>  <s_epik_cmdline>  (54) 
J2VwaWtfcHl0aG9uJywgJy1waHQnLCAnMi4wJywgJy1waCcsICc3LjAnLCAnLXRuJywgJzgnLCAnLW1hJywgJzIwMCcsICctaW1hZScsICc8aW5maWxlLm1hZT4nLCAnLW9tYWUnLCAnPG91dGZpbGUubWFlPic=

>  <r_epik_Ionization_Penalty>  (54) 
0.00329561

>  <r_epik_Ionization_Penalty_Charging>  (54) 
0.00329532

>  <r_epik_Ionization_Penalty_Neutral>  (54) 
2.90052e-07

>  <r_epik_State_Penalty>  (54) 
0.00232853

>  <r_epik_Charging_Adjusted_Penalty>  (54) 
0.00562386

>  <i_epik_Tot_Q>  (54) 
-1

>  <i_epik_Tot_abs_Q>  (54) 
1

>  <s_lp_Force_Field>  (54) 
OPLS3e

>  <r_lp_Energy>  (54) 
16.2687

>  <b_lp_Chiralities_Consistent>  (54) 
1

>  <s_lp_Variant>  (54) 
14:0-3

>  <s_i_glide_gridfile>  (54) 
pfpi4k_grid

>  <i_i_glide_lignum>  (54) 
24

>  <i_i_glide_rotatable_bonds>  (54) 
5

>  <r_i_docking_score>  (54) 
-3.12136

>  <r_i_glide_ligand_efficiency>  (54) 
-0.14188

>  <r_i_glide_ligand_efficiency_sa>  (54) 
-0.397553

>  <r_i_glide_ligand_efficiency_ln>  (54) 
-0.762974

>  <r_i_glide_gscore>  (54) 
-3.12136

>  <r_i_glide_lipo>  (54) 
-0.303539

>  <r_i_glide_hbond>  (54) 
-0.478491

>  <r_i_glide_metal>  (54) 
-0

>  <r_i_glide_rewards>  (54) 
-1.61705

>  <r_i_glide_evdw>  (54) 
-17.1678

>  <r_i_glide_ecoul>  (54) 
-4.49289

>  <r_i_glide_erotb>  (54) 
0.810038

>  <r_i_glide_esite>  (54) 
0

>  <r_i_glide_emodel>  (54) 
-26.6494

>  <r_i_glide_energy>  (54) 
-21.6607

>  <r_i_glide_einternal>  (54) 
4.59145

>  <r_i_glide_intrahb_reward>  (54) 
-0

>  <i_i_glide_confnum>  (54) 
2

>  <i_i_glide_posenum>  (54) 
23

>  <r_i_glide_eff_state_penalty>  (54) 
0

>  <ligand_id>  (54) 
14

>  <original_smiles>  (54) 
CC(C=CC(=O)O)C=CC1C(C)C=CC2=CC(C)CC(O)C21

>  <smiles>  (54) 
[H]OC1([H])C([H])([H])C([H])(C([H])([H])[H])C([H])=C2C([H])=C([H])C([H])(C([H])([H])[H])C([H])(C([H])=C([H])C([H])(C([H])=C([H])C(=O)[O-])C([H])([H])[H])C21[H]

$$$$
14:2:1
     RDKit          3D

 47 48  0  0  1  0  0  0  0  0999 V2000
    1.0565   -4.7444   -1.1755 C   0  0  0  0  0  0  0  0  0  0  0  0
    2.4168   -4.2608   -0.6332 C   0  0  2  0  0  0  0  0  0  0  0  0
    3.2511   -3.5528   -1.6852 C   0  0  0  0  0  0  0  0  0  0  0  0
    3.3956   -2.2272   -1.7564 C   0  0  0  0  0  0  0  0  0  0  0  0
    4.2044   -1.4896   -2.8391 C   0  0  0  0  0  0  0  0  0  0  0  0
    5.0259   -0.6682   -2.3764 O   0  0  0  0  0  0  0  0  0  0  0  0
    3.9934   -1.8140   -4.0374 O   0  0  0  0  0  0  0  0  0  0  0  0
    3.2279   -5.3824    0.0100 C   0  0  0  0  0  0  0  0  0  0  0  0
    3.1012   -5.8860    1.2595 C   0  0  0  0  0  0  0  0  0  0  0  0
    2.0790   -5.4795    2.3215 C   0  0  2  0  0  0  0  0  0  0  0  0
    2.6653   -4.4109    3.2819 C   0  0  1  0  0  0  0  0  0  0  0  0
    2.8673   -3.0558    2.5815 C   0  0  0  0  0  0  0  0  0  0  0  0
    1.8057   -4.2163    4.5180 C   0  0  0  0  0  0  0  0  0  0  0  0
    0.8323   -5.0546    4.9098 C   0  0  0  0  0  0  0  0  0  0  0  0
    0.5490   -6.2786    4.1822 C   0  0  0  0  0  0  0  0  0  0  0  0
   -0.5328   -7.0127    4.5222 C   0  0  0  0  0  0  0  0  0  0  0  0
   -0.9425   -8.3091    3.8592 C   0  0  1  0  0  0  0  0  0  0  0  0
   -2.2357   -8.1160    3.0710 C   0  0  0  0  0  0  0  0  0  0  0  0
    0.1778   -8.8807    2.9797 C   0  0  0  0  0  0  0  0  0  0  0  0
    0.9302   -7.8222    2.1516 C   0  0  1  0  0  0  0  0  0  0  0  0
    0.0386   -7.2692    1.1950 O   0  0  0  0  0  0  0  0  0  0  0  0
    1.5170   -6.7190    3.0803 C   0  0  1  0  0  0  0  0  0  0  0  0
    0.9983   -5.4342   -2.0006 H   0  0  0  0  0  0  0  0  0  0  0  0
    0.4778   -3.8745   -1.4810 H   0  0  0  0  0  0  0  0  0  0  0  0
    0.5818   -5.3011   -0.3846 H   0  0  0  0  0  0  0  0  0  0  0  0
    2.1743   -3.5099    0.1124 H   0  0  0  0  0  0  0  0  0  0  0  0
    3.7670   -4.1498   -2.4204 H   0  0  0  0  0  0  0  0  0  0  0  0
    2.9189   -1.6024   -1.0246 H   0  0  0  0  0  0  0  0  0  0  0  0
    3.9892   -5.8191   -0.6057 H   0  0  0  0  0  0  0  0  0  0  0  0
    3.7711   -6.6930    1.5497 H   0  0  0  0  0  0  0  0  0  0  0  0
    1.2300   -5.0248    1.8209 H   0  0  0  0  0  0  0  0  0  0  0  0
    3.6320   -4.7671    3.6350 H   0  0  0  0  0  0  0  0  0  0  0  0
    3.2271   -2.2796    3.2579 H   0  0  0  0  0  0  0  0  0  0  0  0
    1.9294   -2.6923    2.1626 H   0  0  0  0  0  0  0  0  0  0  0  0
    3.5831   -3.1386    1.7674 H   0  0  0  0  0  0  0  0  0  0  0  0
    1.9917   -3.3193    5.0889 H   0  0  0  0  0  0  0  0  0  0  0  0
    0.2756   -4.8156    5.8033 H   0  0  0  0  0  0  0  0  0  0  0  0
   -1.1616   -6.6701    5.3273 H   0  0  0  0  0  0  0  0  0  0  0  0
   -1.1097   -9.0323    4.6561 H   0  0  0  0  0  0  0  0  0  0  0  0
   -3.0412   -7.8101    3.7056 H   0  0  0  0  0  0  0  0  0  0  0  0
   -2.5634   -9.0363    2.5951 H   0  0  0  0  0  0  0  0  0  0  0  0
   -2.1623   -7.3351    2.3236 H   0  0  0  0  0  0  0  0  0  0  0  0
    0.9138   -9.3483    3.6333 H   0  0  0  0  0  0  0  0  0  0  0  0
   -0.1837   -9.6938    2.3488 H   0  0  0  0  0  0  0  0  0  0  0  0
    1.7487   -8.3256    1.6193 H   0  0  0  0  0  0  0  0  0  0  0  0
   -0.3460   -7.9876    0.7125 H   0  0  0  0  0  0  0  0  0  0  0  0
    2.3446   -7.1863    3.6169 H   0  0  0  0  0  0  0  0  0  0  0  0
  1  2  1  0
  1 23  1  0
  1 24  1  0
  1 25  1  0
  2  3  1  0
  2  8  1  0
  2 26  1  1
  3  4  2  3
  3 27  1  0
  4  5  1  0
  4 28  1  0
  5  6  2  0
  5  7  1  0
  8  9  2  3
  8 29  1  0
  9 10  1  0
  9 30  1  0
 10 22  1  0
 10 11  1  0
 10 31  1  6
 11 12  1  0
 11 13  1  0
 11 32  1  1
 12 33  1  0
 12 34  1  0
 12 35  1  0
 13 14  2  0
 13 36  1  0
 14 15  1  0
 14 37  1  0
 15 22  1  0
 15 16  2  0
 16 17  1  0
 16 38  1  0
 17 18  1  0
 17 19  1  0
 17 39  1  1
 18 40  1  0
 18 41  1  0
 18 42  1  0
 19 20  1  0
 19 43  1  0
 19 44  1  0
 20 21  1  0
 20 22  1  0
 20 45  1  6
 21 46  1  0
 22 47  1  1
M  CHG  1   7  -1
M  END
>  <i_m_ct_stereo_status>  (55) 
1

>  <s_m_source_file>  (55) 
/var/tmp/pbs.5076255.sched01/tmp7hrp_b9g/014g_j70o.sdf

>  <i_m_source_file_index>  (55) 
24

>  <i_lp_mmshare_version>  (55) 
48012

>  <i_f3d_flags>  (55) 
0

>  <s_epik_input>  (55) 
Tz1DKFtPSF0pXFtDSF09W0NIXVxbQ0BASF0oW0NIM10pL1tDSF09W0NIXS9bQ0BIXShbQ0BASF0oW0NIM10pW0NIXT1bQ0hdMSlbQ0BASF0oQzE9MilbQ0BIXShbT0hdKVtDSDJdW0NAQEhdKFtDSF0yKVtDSDNd

>  <s_epik_cmdline>  (55) 
J2VwaWtfcHl0aG9uJywgJy1waHQnLCAnMi4wJywgJy1waCcsICc3LjAnLCAnLXRuJywgJzgnLCAnLW1hJywgJzIwMCcsICctaW1hZScsICc8aW5maWxlLm1hZT4nLCAnLW9tYWUnLCAnPG91dGZpbGUubWFlPic=

>  <r_epik_Ionization_Penalty>  (55) 
0.00329561

>  <r_epik_Ionization_Penalty_Charging>  (55) 
0.00329532

>  <r_epik_Ionization_Penalty_Neutral>  (55) 
2.90052e-07

>  <r_epik_State_Penalty>  (55) 
0.00232853

>  <r_epik_Charging_Adjusted_Penalty>  (55) 
0.00562386

>  <i_epik_Tot_Q>  (55) 
-1

>  <i_epik_Tot_abs_Q>  (55) 
1

>  <s_lp_Force_Field>  (55) 
OPLS3e

>  <r_lp_Energy>  (55) 
16.2687

>  <b_lp_Chiralities_Consistent>  (55) 
1

>  <s_lp_Variant>  (55) 
14:0-3

>  <s_i_glide_gridfile>  (55) 
pfpi4k_grid

>  <i_i_glide_lignum>  (55) 
24

>  <i_i_glide_rotatable_bonds>  (55) 
5

>  <r_i_docking_score>  (55) 
-2.42074

>  <r_i_glide_ligand_efficiency>  (55) 
-0.110034

>  <r_i_glide_ligand_efficiency_sa>  (55) 
-0.308319

>  <r_i_glide_ligand_efficiency_ln>  (55) 
-0.591718

>  <r_i_glide_gscore>  (55) 
-2.42074

>  <r_i_glide_lipo>  (55) 
-0.0704652

>  <r_i_glide_hbond>  (55) 
-0.349841

>  <r_i_glide_metal>  (55) 
-0

>  <r_i_glide_rewards>  (55) 
-1.35409

>  <r_i_glide_evdw>  (55) 
-16.7905

>  <r_i_glide_ecoul>  (55) 
-4.04145

>  <r_i_glide_erotb>  (55) 
0.810038

>  <r_i_glide_esite>  (55) 
-0.0106411

>  <r_i_glide_emodel>  (55) 
-22.7938

>  <r_i_glide_energy>  (55) 
-20.832

>  <r_i_glide_einternal>  (55) 
5.1714

>  <r_i_glide_intrahb_reward>  (55) 
-0

>  <i_i_glide_confnum>  (55) 
2

>  <i_i_glide_posenum>  (55) 
40

>  <r_i_glide_eff_state_penalty>  (55) 
0

>  <ligand_id>  (55) 
14

>  <original_smiles>  (55) 
CC(C=CC(=O)O)C=CC1C(C)C=CC2=CC(C)CC(O)C21

>  <smiles>  (55) 
[H]OC1([H])C([H])([H])C([H])(C([H])([H])[H])C([H])=C2C([H])=C([H])C([H])(C([H])([H])[H])C([H])(C([H])=C([H])C([H])(C([H])=C([H])C(=O)[O-])C([H])([H])[H])C21[H]

$$$$
14:2:2
     RDKit          3D

 47 48  0  0  1  0  0  0  0  0999 V2000
    4.4213   -5.5588   -0.3053 C   0  0  0  0  0  0  0  0  0  0  0  0
    4.3537   -4.8586    1.0468 C   0  0  2  0  0  0  0  0  0  0  0  0
    5.2594   -3.6393    1.0597 C   0  0  0  0  0  0  0  0  0  0  0  0
    4.8147   -2.3775    0.9345 C   0  0  0  0  0  0  0  0  0  0  0  0
    5.6980   -1.1116    0.9442 C   0  0  0  0  0  0  0  0  0  0  0  0
    5.4132   -0.2616    1.8142 O   0  0  0  0  0  0  0  0  0  0  0  0
    6.6019   -1.0601    0.0766 O   0  0  0  0  0  0  0  0  0  0  0  0
    4.7123   -5.8236    2.1649 C   0  0  0  0  0  0  0  0  0  0  0  0
    3.9485   -6.1738    3.2214 C   0  0  0  0  0  0  0  0  0  0  0  0
    2.5349   -5.6809    3.5445 C   0  0  2  0  0  0  0  0  0  0  0  0
    2.5930   -4.4798    4.5250 C   0  0  1  0  0  0  0  0  0  0  0  0
    3.1623   -3.2301    3.8380 C   0  0  0  0  0  0  0  0  0  0  0  0
    1.2415   -4.1619    5.1328 C   0  0  0  0  0  0  0  0  0  0  0  0
    0.1830   -4.9874    5.0913 C   0  0  0  0  0  0  0  0  0  0  0  0
    0.2612   -6.2948    4.4674 C   0  0  0  0  0  0  0  0  0  0  0  0
   -0.8657   -7.0173    4.2893 C   0  0  0  0  0  0  0  0  0  0  0  0
   -0.9197   -8.3921    3.6549 C   0  0  1  0  0  0  0  0  0  0  0  0
   -1.6433   -8.3275    2.3028 C   0  0  0  0  0  0  0  0  0  0  0  0
    0.4810   -9.0287    3.5504 C   0  0  0  0  0  0  0  0  0  0  0  0
    1.5756   -8.0483    3.0972 C   0  0  1  0  0  0  0  0  0  0  0  0
    1.3287   -7.6323    1.7596 O   0  0  0  0  0  0  0  0  0  0  0  0
    1.6379   -6.8312    4.0665 C   0  0  1  0  0  0  0  0  0  0  0  0
    5.4228   -5.9124   -0.5218 H   0  0  0  0  0  0  0  0  0  0  0  0
    4.1328   -4.8710   -1.1023 H   0  0  0  0  0  0  0  0  0  0  0  0
    3.7467   -6.4137   -0.3280 H   0  0  0  0  0  0  0  0  0  0  0  0
    3.3338   -4.5068    1.1620 H   0  0  0  0  0  0  0  0  0  0  0  0
    6.3163   -3.8147    1.1698 H   0  0  0  0  0  0  0  0  0  0  0  0
    3.7578   -2.2188    0.8100 H   0  0  0  0  0  0  0  0  0  0  0  0
    5.6890   -6.2722    2.0825 H   0  0  0  0  0  0  0  0  0  0  0  0
    4.3653   -6.8785    3.9279 H   0  0  0  0  0  0  0  0  0  0  0  0
    2.0535   -5.3232    2.6379 H   0  0  0  0  0  0  0  0  0  0  0  0
    3.2432   -4.7436    5.3601 H   0  0  0  0  0  0  0  0  0  0  0  0
    3.2139   -2.3712    4.5031 H   0  0  0  0  0  0  0  0  0  0  0  0
    2.5616   -2.9463    2.9709 H   0  0  0  0  0  0  0  0  0  0  0  0
    4.1774   -3.4112    3.4974 H   0  0  0  0  0  0  0  0  0  0  0  0
    1.1475   -3.1992    5.6112 H   0  0  0  0  0  0  0  0  0  0  0  0
   -0.7254   -4.6563    5.5687 H   0  0  0  0  0  0  0  0  0  0  0  0
   -1.8141   -6.6194    4.6174 H   0  0  0  0  0  0  0  0  0  0  0  0
   -1.5016   -9.0236    4.3247 H   0  0  0  0  0  0  0  0  0  0  0  0
   -2.6676   -7.9919    2.4261 H   0  0  0  0  0  0  0  0  0  0  0  0
   -1.6769   -9.3064    1.8274 H   0  0  0  0  0  0  0  0  0  0  0  0
   -1.1463   -7.6423    1.6164 H   0  0  0  0  0  0  0  0  0  0  0  0
    0.7611   -9.3933    4.5384 H   0  0  0  0  0  0  0  0  0  0  0  0
    0.4649   -9.9202    2.9228 H   0  0  0  0  0  0  0  0  0  0  0  0
    2.5366   -8.5745    3.1184 H   0  0  0  0  0  0  0  0  0  0  0  0
    1.0498   -8.3827    1.2468 H   0  0  0  0  0  0  0  0  0  0  0  0
    2.0697   -7.1956    5.0017 H   0  0  0  0  0  0  0  0  0  0  0  0
  1  2  1  0
  1 23  1  0
  1 24  1  0
  1 25  1  0
  2  3  1  0
  2  8  1  0
  2 26  1  1
  3  4  2  3
  3 27  1  0
  4  5  1  0
  4 28  1  0
  5  6  2  0
  5  7  1  0
  8  9  2  3
  8 29  1  0
  9 10  1  0
  9 30  1  0
 10 22  1  0
 10 11  1  0
 10 31  1  6
 11 12  1  0
 11 13  1  0
 11 32  1  1
 12 33  1  0
 12 34  1  0
 12 35  1  0
 13 14  2  0
 13 36  1  0
 14 15  1  0
 14 37  1  0
 15 22  1  0
 15 16  2  0
 16 17  1  0
 16 38  1  0
 17 18  1  0
 17 19  1  0
 17 39  1  1
 18 40  1  0
 18 41  1  0
 18 42  1  0
 19 20  1  0
 19 43  1  0
 19 44  1  0
 20 21  1  0
 20 22  1  0
 20 45  1  6
 21 46  1  0
 22 47  1  1
M  CHG  1   7  -1
M  END
>  <i_m_ct_stereo_status>  (56) 
1

>  <s_m_source_file>  (56) 
/var/tmp/pbs.5076255.sched01/tmp7hrp_b9g/014g_j70o.sdf

>  <i_m_source_file_index>  (56) 
24

>  <i_lp_mmshare_version>  (56) 
48012

>  <i_f3d_flags>  (56) 
0

>  <s_epik_input>  (56) 
Tz1DKFtPSF0pXFtDSF09W0NIXVxbQ0BASF0oW0NIM10pL1tDSF09W0NIXS9bQ0BIXShbQ0BASF0oW0NIM10pW0NIXT1bQ0hdMSlbQ0BASF0oQzE9MilbQ0BIXShbT0hdKVtDSDJdW0NAQEhdKFtDSF0yKVtDSDNd

>  <s_epik_cmdline>  (56) 
J2VwaWtfcHl0aG9uJywgJy1waHQnLCAnMi4wJywgJy1waCcsICc3LjAnLCAnLXRuJywgJzgnLCAnLW1hJywgJzIwMCcsICctaW1hZScsICc8aW5maWxlLm1hZT4nLCAnLW9tYWUnLCAnPG91dGZpbGUubWFlPic=

>  <r_epik_Ionization_Penalty>  (56) 
0.00329561

>  <r_epik_Ionization_Penalty_Charging>  (56) 
0.00329532

>  <r_epik_Ionization_Penalty_Neutral>  (56) 
2.90052e-07

>  <r_epik_State_Penalty>  (56) 
0.00232853

>  <r_epik_Charging_Adjusted_Penalty>  (56) 
0.00562386

>  <i_epik_Tot_Q>  (56) 
-1

>  <i_epik_Tot_abs_Q>  (56) 
1

>  <s_lp_Force_Field>  (56) 
OPLS3e

>  <r_lp_Energy>  (56) 
16.2687

>  <b_lp_Chiralities_Consistent>  (56) 
1

>  <s_lp_Variant>  (56) 
14:0-3

>  <s_i_glide_gridfile>  (56) 
pfpi4k_grid

>  <i_i_glide_lignum>  (56) 
24

>  <i_i_glide_rotatable_bonds>  (56) 
5

>  <r_i_docking_score>  (56) 
-2.32241

>  <r_i_glide_ligand_efficiency>  (56) 
-0.105564

>  <r_i_glide_ligand_efficiency_sa>  (56) 
-0.295795

>  <r_i_glide_ligand_efficiency_ln>  (56) 
-0.567683

>  <r_i_glide_gscore>  (56) 
-2.32241

>  <r_i_glide_lipo>  (56) 
-0.216004

>  <r_i_glide_hbond>  (56) 
-0.236443

>  <r_i_glide_metal>  (56) 
-0

>  <r_i_glide_rewards>  (56) 
-1.52441

>  <r_i_glide_evdw>  (56) 
-16.1907

>  <r_i_glide_ecoul>  (56) 
-2.30711

>  <r_i_glide_erotb>  (56) 
0.810038

>  <r_i_glide_esite>  (56) 
0

>  <r_i_glide_emodel>  (56) 
-22.3615

>  <r_i_glide_energy>  (56) 
-18.4978

>  <r_i_glide_einternal>  (56) 
2.88473

>  <r_i_glide_intrahb_reward>  (56) 
-0

>  <i_i_glide_confnum>  (56) 
2

>  <i_i_glide_posenum>  (56) 
31

>  <r_i_glide_eff_state_penalty>  (56) 
0

>  <ligand_id>  (56) 
14

>  <original_smiles>  (56) 
CC(C=CC(=O)O)C=CC1C(C)C=CC2=CC(C)CC(O)C21

>  <smiles>  (56) 
[H]OC1([H])C([H])([H])C([H])(C([H])([H])[H])C([H])=C2C([H])=C([H])C([H])(C([H])([H])[H])C([H])(C([H])=C([H])C([H])(C([H])=C([H])C(=O)[O-])C([H])([H])[H])C21[H]

$$$$
14:3:0
     RDKit          3D

 47 48  0  0  1  0  0  0  0  0999 V2000
    2.7506   -5.0170    2.0397 C   0  0  0  0  0  0  0  0  0  0  0  0
    2.6528   -4.8798    0.5117 C   0  0  2  0  0  0  0  0  0  0  0  0
    1.4087   -5.4769   -0.1514 C   0  0  0  0  0  0  0  0  0  0  0  0
    0.4626   -6.3045    0.3496 C   0  0  0  0  0  0  0  0  0  0  0  0
    0.3641   -6.9961    1.7437 C   0  0  0  0  0  0  0  0  0  0  0  0
   -0.6505   -6.6975    2.4102 O   0  0  0  0  0  0  0  0  0  0  0  0
    1.2668   -7.8098    2.0312 O   0  0  0  0  0  0  0  0  0  0  0  0
    3.9100   -5.4287   -0.1604 C   0  0  0  0  0  0  0  0  0  0  0  0
    4.9134   -4.7080   -0.6943 C   0  0  0  0  0  0  0  0  0  0  0  0
    4.9971   -3.1936   -0.7758 C   0  0  2  0  0  0  0  0  0  0  0  0
    5.1473   -2.5631    0.6262 C   0  0  1  0  0  0  0  0  0  0  0  0
    6.5065   -2.8790    1.2568 C   0  0  0  0  0  0  0  0  0  0  0  0
    4.9025   -1.0823    0.6220 C   0  0  0  0  0  0  0  0  0  0  0  0
    4.3941   -0.4276   -0.4211 C   0  0  0  0  0  0  0  0  0  0  0  0
    3.9618   -1.0792   -1.6424 C   0  0  0  0  0  0  0  0  0  0  0  0
    3.5770   -0.3583   -2.7107 C   0  0  0  0  0  0  0  0  0  0  0  0
    3.0582   -0.9517   -4.0103 C   0  0  1  0  0  0  0  0  0  0  0  0
    4.0788   -0.6179   -5.0863 C   0  0  0  0  0  0  0  0  0  0  0  0
    2.7246   -2.4697   -3.8647 C   0  0  0  0  0  0  0  0  0  0  0  0
    3.7719   -3.2221   -3.0422 C   0  0  1  0  0  0  0  0  0  0  0  0
    5.0017   -3.2853   -3.7110 O   0  0  0  0  0  0  0  0  0  0  0  0
    3.8571   -2.5925   -1.6389 C   0  0  1  0  0  0  0  0  0  0  0  0
    2.8771   -6.0535    2.3586 H   0  0  0  0  0  0  0  0  0  0  0  0
    1.8473   -4.5759    2.4624 H   0  0  0  0  0  0  0  0  0  0  0  0
    3.5791   -4.4219    2.4330 H   0  0  0  0  0  0  0  0  0  0  0  0
    2.5365   -3.8103    0.3474 H   0  0  0  0  0  0  0  0  0  0  0  0
    1.2795   -5.1433   -1.1753 H   0  0  0  0  0  0  0  0  0  0  0  0
   -0.3652   -6.5451   -0.3067 H   0  0  0  0  0  0  0  0  0  0  0  0
    4.0010   -6.5156   -0.2143 H   0  0  0  0  0  0  0  0  0  0  0  0
    5.7581   -5.2251   -1.1127 H   0  0  0  0  0  0  0  0  0  0  0  0
    5.9367   -2.9630   -1.2851 H   0  0  0  0  0  0  0  0  0  0  0  0
    4.3775   -2.9307    1.2861 H   0  0  0  0  0  0  0  0  0  0  0  0
    6.5437   -2.4985    2.2774 H   0  0  0  0  0  0  0  0  0  0  0  0
    7.3196   -2.4237    0.6874 H   0  0  0  0  0  0  0  0  0  0  0  0
    6.6794   -3.9556    1.2991 H   0  0  0  0  0  0  0  0  0  0  0  0
    5.1573   -0.5348    1.5149 H   0  0  0  0  0  0  0  0  0  0  0  0
    4.2886    0.6134   -0.2473 H   0  0  0  0  0  0  0  0  0  0  0  0
    3.6588    0.7140   -2.7119 H   0  0  0  0  0  0  0  0  0  0  0  0
    2.1653   -0.4153   -4.3187 H   0  0  0  0  0  0  0  0  0  0  0  0
    4.2469    0.4634   -5.1346 H   0  0  0  0  0  0  0  0  0  0  0  0
    3.7342   -0.9575   -6.0647 H   0  0  0  0  0  0  0  0  0  0  0  0
    5.0089   -1.0736   -4.7949 H   0  0  0  0  0  0  0  0  0  0  0  0
    1.7512   -2.5808   -3.3697 H   0  0  0  0  0  0  0  0  0  0  0  0
    2.6181   -2.9942   -4.8052 H   0  0  0  0  0  0  0  0  0  0  0  0
    3.4680   -4.2575   -2.9569 H   0  0  0  0  0  0  0  0  0  0  0  0
    5.6181   -3.7220   -3.1152 H   0  0  0  0  0  0  0  0  0  0  0  0
    2.8732   -2.7308   -1.2111 H   0  0  0  0  0  0  0  0  0  0  0  0
  1  2  1  0
  1 23  1  0
  1 24  1  0
  1 25  1  0
  2  3  1  0
  2  8  1  0
  2 26  1  1
  3  4  2  3
  3 27  1  0
  4  5  1  0
  4 28  1  0
  5  6  2  0
  5  7  1  0
  8  9  2  3
  8 29  1  0
  9 10  1  0
  9 30  1  0
 10 22  1  0
 10 11  1  0
 10 31  1  6
 11 12  1  0
 11 13  1  0
 11 32  1  1
 12 33  1  0
 12 34  1  0
 12 35  1  0
 13 14  2  0
 13 36  1  0
 14 15  1  0
 14 37  1  0
 15 22  1  0
 15 16  2  0
 16 17  1  0
 16 38  1  0
 17 18  1  0
 17 19  1  0
 17 39  1  6
 18 40  1  0
 18 41  1  0
 18 42  1  0
 19 20  1  0
 19 43  1  0
 19 44  1  0
 20 21  1  0
 20 22  1  0
 20 45  1  1
 21 46  1  0
 22 47  1  1
M  CHG  1   7  -1
M  END
>  <i_m_ct_stereo_status>  (57) 
1

>  <s_m_source_file>  (57) 
/var/tmp/pbs.5076255.sched01/tmp7hrp_b9g/014g_j70o.sdf

>  <i_m_source_file_index>  (57) 
25

>  <i_lp_mmshare_version>  (57) 
48012

>  <i_f3d_flags>  (57) 
0

>  <s_epik_input>  (57) 
Tz1DKFtPSF0pXFtDSF09W0NIXVxbQ0BASF0oW0NIM10pL1tDSF09W0NIXS9bQ0BIXShbQ0BASF0oW0NIM10pW0NIXT1bQ0hdMSlbQ0BASF0oQzE9MilbQ0BIXShbT0hdKVtDSDJdW0NAQEhdKFtDSF0yKVtDSDNd

>  <s_epik_cmdline>  (57) 
J2VwaWtfcHl0aG9uJywgJy1waHQnLCAnMi4wJywgJy1waCcsICc3LjAnLCAnLXRuJywgJzgnLCAnLW1hJywgJzIwMCcsICctaW1hZScsICc8aW5maWxlLm1hZT4nLCAnLW9tYWUnLCAnPG91dGZpbGUubWFlPic=

>  <r_epik_Ionization_Penalty>  (57) 
0.00329561

>  <r_epik_Ionization_Penalty_Charging>  (57) 
0.00329532

>  <r_epik_Ionization_Penalty_Neutral>  (57) 
2.90052e-07

>  <r_epik_State_Penalty>  (57) 
0.00232853

>  <r_epik_Charging_Adjusted_Penalty>  (57) 
0.00562386

>  <i_epik_Tot_Q>  (57) 
-1

>  <i_epik_Tot_abs_Q>  (57) 
1

>  <s_lp_Force_Field>  (57) 
OPLS3e

>  <r_lp_Energy>  (57) 
16.5455

>  <b_lp_Chiralities_Consistent>  (57) 
1

>  <s_lp_Variant>  (57) 
14:0-4

>  <s_i_glide_gridfile>  (57) 
pfpi4k_grid

>  <i_i_glide_lignum>  (57) 
25

>  <i_i_glide_rotatable_bonds>  (57) 
5

>  <r_i_docking_score>  (57) 
-3.30426

>  <r_i_glide_ligand_efficiency>  (57) 
-0.150193

>  <r_i_glide_ligand_efficiency_sa>  (57) 
-0.420848

>  <r_i_glide_ligand_efficiency_ln>  (57) 
-0.807681

>  <r_i_glide_gscore>  (57) 
-3.30426

>  <r_i_glide_lipo>  (57) 
-0.684666

>  <r_i_glide_hbond>  (57) 
-0.2

>  <r_i_glide_metal>  (57) 
-0

>  <r_i_glide_rewards>  (57) 
-1.35409

>  <r_i_glide_evdw>  (57) 
-12.6804

>  <r_i_glide_ecoul>  (57) 
-7.67239

>  <r_i_glide_erotb>  (57) 
0.810038

>  <r_i_glide_esite>  (57) 
-0.09066

>  <r_i_glide_emodel>  (57) 
-21.7589

>  <r_i_glide_energy>  (57) 
-20.3527

>  <r_i_glide_einternal>  (57) 
5.41158

>  <r_i_glide_intrahb_reward>  (57) 
-0

>  <i_i_glide_confnum>  (57) 
5

>  <i_i_glide_posenum>  (57) 
4

>  <r_i_glide_eff_state_penalty>  (57) 
0

>  <ligand_id>  (57) 
14

>  <original_smiles>  (57) 
CC(C=CC(=O)O)C=CC1C(C)C=CC2=CC(C)CC(O)C21

>  <smiles>  (57) 
[H]OC1([H])C([H])([H])C([H])(C([H])([H])[H])C([H])=C2C([H])=C([H])C([H])(C([H])([H])[H])C([H])(C([H])=C([H])C([H])(C([H])=C([H])C(=O)[O-])C([H])([H])[H])C21[H]

$$$$
14:3:1
     RDKit          3D

 47 48  0  0  1  0  0  0  0  0999 V2000
   -0.7815    1.6973    2.0374 C   0  0  0  0  0  0  0  0  0  0  0  0
   -0.3627    1.6890    3.5173 C   0  0  2  0  0  0  0  0  0  0  0  0
   -1.4244    2.1953    4.4806 C   0  0  0  0  0  0  0  0  0  0  0  0
   -2.4978    3.0034    4.2633 C   0  0  0  0  0  0  0  0  0  0  0  0
   -2.9409    3.7454    2.9635 C   0  0  0  0  0  0  0  0  0  0  0  0
   -3.7048    3.1113    2.2002 O   0  0  0  0  0  0  0  0  0  0  0  0
   -2.5603    4.9384    2.8808 O   0  0  0  0  0  0  0  0  0  0  0  0
    0.9142    2.4909    3.7024 C   0  0  0  0  0  0  0  0  0  0  0  0
    2.1333    2.0217    4.0235 C   0  0  0  0  0  0  0  0  0  0  0  0
    2.5158    0.5600    4.2899 C   0  0  2  0  0  0  0  0  0  0  0  0
    3.0525    0.3895    5.7325 C   0  0  1  0  0  0  0  0  0  0  0  0
    1.9044    0.5754    6.7420 C   0  0  0  0  0  0  0  0  0  0  0  0
    3.7135   -0.9656    5.9369 C   0  0  0  0  0  0  0  0  0  0  0  0
    4.0825   -1.7820    4.9270 C   0  0  0  0  0  0  0  0  0  0  0  0
    3.9145   -1.4029    3.5371 C   0  0  0  0  0  0  0  0  0  0  0  0
    4.1194   -2.3201    2.5668 C   0  0  0  0  0  0  0  0  0  0  0  0
    3.9626   -2.0673    1.0821 C   0  0  1  0  0  0  0  0  0  0  0  0
    2.7749   -2.8784    0.5287 C   0  0  0  0  0  0  0  0  0  0  0  0
    3.8711   -0.5608    0.7723 C   0  0  0  0  0  0  0  0  0  0  0  0
    2.9883    0.2043    1.7667 C   0  0  1  0  0  0  0  0  0  0  0  0
    1.6930   -0.3640    1.6814 O   0  0  0  0  0  0  0  0  0  0  0  0
    3.5175    0.0458    3.2201 C   0  0  1  0  0  0  0  0  0  0  0  0
   -0.9809    2.7012    1.6842 H   0  0  0  0  0  0  0  0  0  0  0  0
   -1.6821    1.1169    1.8861 H   0  0  0  0  0  0  0  0  0  0  0  0
   -0.0285    1.2718    1.3709 H   0  0  0  0  0  0  0  0  0  0  0  0
   -0.1954    0.6472    3.8204 H   0  0  0  0  0  0  0  0  0  0  0  0
   -1.2925    1.8236    5.4932 H   0  0  0  0  0  0  0  0  0  0  0  0
   -3.1305    3.1766    5.1345 H   0  0  0  0  0  0  0  0  0  0  0  0
    0.8214    3.5508    3.5233 H   0  0  0  0  0  0  0  0  0  0  0  0
    2.9474    2.7335    4.1006 H   0  0  0  0  0  0  0  0  0  0  0  0
    1.6155   -0.0664    4.2135 H   0  0  0  0  0  0  0  0  0  0  0  0
    3.8198    1.1296    5.9310 H   0  0  0  0  0  0  0  0  0  0  0  0
    2.2465    0.5065    7.7770 H   0  0  0  0  0  0  0  0  0  0  0  0
    1.1210   -0.1772    6.6155 H   0  0  0  0  0  0  0  0  0  0  0  0
    1.4143    1.5434    6.6400 H   0  0  0  0  0  0  0  0  0  0  0  0
    3.8725   -1.2876    6.9563 H   0  0  0  0  0  0  0  0  0  0  0  0
    4.5241   -2.7403    5.1748 H   0  0  0  0  0  0  0  0  0  0  0  0
    4.4232   -3.3223    2.8436 H   0  0  0  0  0  0  0  0  0  0  0  0
    4.8693   -2.4210    0.6096 H   0  0  0  0  0  0  0  0  0  0  0  0
    2.9313   -3.9576    0.6274 H   0  0  0  0  0  0  0  0  0  0  0  0
    2.6239   -2.6903   -0.5341 H   0  0  0  0  0  0  0  0  0  0  0  0
    1.8404   -2.6129    1.0339 H   0  0  0  0  0  0  0  0  0  0  0  0
    4.8655   -0.1216    0.8324 H   0  0  0  0  0  0  0  0  0  0  0  0
    3.5471   -0.3947   -0.2540 H   0  0  0  0  0  0  0  0  0  0  0  0
    2.9854    1.2701    1.4959 H   0  0  0  0  0  0  0  0  0  0  0  0
    1.4049   -0.3904    0.7531 H   0  0  0  0  0  0  0  0  0  0  0  0
    4.4438    0.6140    3.2928 H   0  0  0  0  0  0  0  0  0  0  0  0
  1  2  1  0
  1 23  1  0
  1 24  1  0
  1 25  1  0
  2  3  1  0
  2  8  1  0
  2 26  1  1
  3  4  2  3
  3 27  1  0
  4  5  1  0
  4 28  1  0
  5  6  2  0
  5  7  1  0
  8  9  2  3
  8 29  1  0
  9 10  1  0
  9 30  1  0
 10 22  1  0
 10 11  1  0
 10 31  1  1
 11 12  1  0
 11 13  1  0
 11 32  1  1
 12 33  1  0
 12 34  1  0
 12 35  1  0
 13 14  2  0
 13 36  1  0
 14 15  1  0
 14 37  1  0
 15 22  1  0
 15 16  2  0
 16 17  1  0
 16 38  1  0
 17 18  1  0
 17 19  1  0
 17 39  1  6
 18 40  1  0
 18 41  1  0
 18 42  1  0
 19 20  1  0
 19 43  1  0
 19 44  1  0
 20 21  1  0
 20 22  1  0
 20 45  1  6
 21 46  1  0
 22 47  1  6
M  CHG  1   7  -1
M  END
>  <i_m_ct_stereo_status>  (58) 
1

>  <s_m_source_file>  (58) 
/var/tmp/pbs.5076255.sched01/tmp7hrp_b9g/014g_j70o.sdf

>  <i_m_source_file_index>  (58) 
25

>  <i_lp_mmshare_version>  (58) 
48012

>  <i_f3d_flags>  (58) 
0

>  <s_epik_input>  (58) 
Tz1DKFtPSF0pXFtDSF09W0NIXVxbQ0BASF0oW0NIM10pL1tDSF09W0NIXS9bQ0BIXShbQ0BASF0oW0NIM10pW0NIXT1bQ0hdMSlbQ0BASF0oQzE9MilbQ0BIXShbT0hdKVtDSDJdW0NAQEhdKFtDSF0yKVtDSDNd

>  <s_epik_cmdline>  (58) 
J2VwaWtfcHl0aG9uJywgJy1waHQnLCAnMi4wJywgJy1waCcsICc3LjAnLCAnLXRuJywgJzgnLCAnLW1hJywgJzIwMCcsICctaW1hZScsICc8aW5maWxlLm1hZT4nLCAnLW9tYWUnLCAnPG91dGZpbGUubWFlPic=

>  <r_epik_Ionization_Penalty>  (58) 
0.00329561

>  <r_epik_Ionization_Penalty_Charging>  (58) 
0.00329532

>  <r_epik_Ionization_Penalty_Neutral>  (58) 
2.90052e-07

>  <r_epik_State_Penalty>  (58) 
0.00232853

>  <r_epik_Charging_Adjusted_Penalty>  (58) 
0.00562386

>  <i_epik_Tot_Q>  (58) 
-1

>  <i_epik_Tot_abs_Q>  (58) 
1

>  <s_lp_Force_Field>  (58) 
OPLS3e

>  <r_lp_Energy>  (58) 
16.5455

>  <b_lp_Chiralities_Consistent>  (58) 
1

>  <s_lp_Variant>  (58) 
14:0-4

>  <s_i_glide_gridfile>  (58) 
pfpi4k_grid

>  <i_i_glide_lignum>  (58) 
25

>  <i_i_glide_rotatable_bonds>  (58) 
5

>  <r_i_docking_score>  (58) 
-2.35061

>  <r_i_glide_ligand_efficiency>  (58) 
-0.106846

>  <r_i_glide_ligand_efficiency_sa>  (58) 
-0.299386

>  <r_i_glide_ligand_efficiency_ln>  (58) 
-0.574574

>  <r_i_glide_gscore>  (58) 
-2.35061

>  <r_i_glide_lipo>  (58) 
-0.0433466

>  <r_i_glide_hbond>  (58) 
-0.36

>  <r_i_glide_metal>  (58) 
-0

>  <r_i_glide_rewards>  (58) 
-1.35409

>  <r_i_glide_evdw>  (58) 
-13.3656

>  <r_i_glide_ecoul>  (58) 
-4.54378

>  <r_i_glide_erotb>  (58) 
0.810038

>  <r_i_glide_esite>  (58) 
-0.0533619

>  <r_i_glide_emodel>  (58) 
-20.195

>  <r_i_glide_energy>  (58) 
-17.9094

>  <r_i_glide_einternal>  (58) 
1.87829

>  <r_i_glide_intrahb_reward>  (58) 
-0

>  <i_i_glide_confnum>  (58) 
4

>  <i_i_glide_posenum>  (58) 
25

>  <r_i_glide_eff_state_penalty>  (58) 
0

>  <ligand_id>  (58) 
14

>  <original_smiles>  (58) 
CC(C=CC(=O)O)C=CC1C(C)C=CC2=CC(C)CC(O)C21

>  <smiles>  (58) 
[H]OC1([H])C([H])([H])C([H])(C([H])([H])[H])C([H])=C2C([H])=C([H])C([H])(C([H])([H])[H])C([H])(C([H])=C([H])C([H])(C([H])=C([H])C(=O)[O-])C([H])([H])[H])C21[H]

$$$$
14:3:2
     RDKit          3D

 47 48  0  0  1  0  0  0  0  0999 V2000
   -0.9009    1.8686    2.2993 C   0  0  0  0  0  0  0  0  0  0  0  0
   -0.7562    1.6750    3.8169 C   0  0  2  0  0  0  0  0  0  0  0  0
   -1.9543    2.1419    4.6206 C   0  0  0  0  0  0  0  0  0  0  0  0
   -2.9721    2.9716    4.2671 C   0  0  0  0  0  0  0  0  0  0  0  0
   -3.1842    3.7494    2.9248 C   0  0  0  0  0  0  0  0  0  0  0  0
   -2.6894    4.8847    2.8808 O   0  0  0  0  0  0  0  0  0  0  0  0
   -3.9248    3.1760    2.0799 O   0  0  0  0  0  0  0  0  0  0  0  0
    0.5052    2.3416    4.3163 C   0  0  0  0  0  0  0  0  0  0  0  0
    1.6226    1.7476    4.7648 C   0  0  0  0  0  0  0  0  0  0  0  0
    1.8713    0.2337    4.8972 C   0  0  2  0  0  0  0  0  0  0  0  0
    2.1143   -0.1482    6.3668 C   0  0  1  0  0  0  0  0  0  0  0  0
    0.8130   -0.0036    7.1797 C   0  0  0  0  0  0  0  0  0  0  0  0
    2.6562   -1.5675    6.5067 C   0  0  0  0  0  0  0  0  0  0  0  0
    3.1598   -2.2832    5.4717 C   0  0  0  0  0  0  0  0  0  0  0  0
    3.2696   -1.7195    4.1417 C   0  0  0  0  0  0  0  0  0  0  0  0
    3.6093   -2.5274    3.1071 C   0  0  0  0  0  0  0  0  0  0  0  0
    3.7437   -2.0727    1.6645 C   0  0  1  0  0  0  0  0  0  0  0  0
    2.6359   -2.7127    0.8091 C   0  0  0  0  0  0  0  0  0  0  0  0
    3.7855   -0.5367    1.5459 C   0  0  0  0  0  0  0  0  0  0  0  0
    2.7740    0.1606    2.4651 C   0  0  1  0  0  0  0  0  0  0  0  0
    1.4798   -0.2548    2.0668 O   0  0  0  0  0  0  0  0  0  0  0  0
    3.0149   -0.2179    3.9511 C   0  0  1  0  0  0  0  0  0  0  0  0
   -0.9115    2.9244    2.0758 H   0  0  0  0  0  0  0  0  0  0  0  0
   -1.7801    1.3753    1.9197 H   0  0  0  0  0  0  0  0  0  0  0  0
   -0.0564    1.4920    1.7052 H   0  0  0  0  0  0  0  0  0  0  0  0
   -0.7347    0.5921    3.9952 H   0  0  0  0  0  0  0  0  0  0  0  0
   -1.9865    1.7413    5.6373 H   0  0  0  0  0  0  0  0  0  0  0  0
   -3.7474    3.1187    5.0124 H   0  0  0  0  0  0  0  0  0  0  0  0
    0.4996    3.4265    4.2774 H   0  0  0  0  0  0  0  0  0  0  0  0
    2.4467    2.3697    5.0726 H   0  0  0  0  0  0  0  0  0  0  0  0
    0.9814   -0.3217    4.5787 H   0  0  0  0  0  0  0  0  0  0  0  0
    2.8699    0.4993    6.7937 H   0  0  0  0  0  0  0  0  0  0  0  0
    0.9685   -0.2223    8.2380 H   0  0  0  0  0  0  0  0  0  0  0  0
    0.0333   -0.6750    6.8127 H   0  0  0  0  0  0  0  0  0  0  0  0
    0.4099    1.0102    7.1198 H   0  0  0  0  0  0  0  0  0  0  0  0
    2.6103   -2.0177    7.4810 H   0  0  0  0  0  0  0  0  0  0  0  0
    3.4967   -3.2919    5.6663 H   0  0  0  0  0  0  0  0  0  0  0  0
    3.7940   -3.5723    3.2913 H   0  0  0  0  0  0  0  0  0  0  0  0
    4.6979   -2.4441    1.3070 H   0  0  0  0  0  0  0  0  0  0  0  0
    2.6885   -3.8054    0.8081 H   0  0  0  0  0  0  0  0  0  0  0  0
    2.6860   -2.3749   -0.2286 H   0  0  0  0  0  0  0  0  0  0  0  0
    1.6448   -2.4469    1.1822 H   0  0  0  0  0  0  0  0  0  0  0  0
    4.7771   -0.1836    1.8374 H   0  0  0  0  0  0  0  0  0  0  0  0
    3.6545   -0.2103    0.5142 H   0  0  0  0  0  0  0  0  0  0  0  0
    2.8653    1.2489    2.3412 H   0  0  0  0  0  0  0  0  0  0  0  0
    1.4070   -0.2344    1.1085 H   0  0  0  0  0  0  0  0  0  0  0  0
    3.9376    0.2633    4.2650 H   0  0  0  0  0  0  0  0  0  0  0  0
  1  2  1  0
  1 23  1  0
  1 24  1  0
  1 25  1  0
  2  3  1  0
  2  8  1  0
  2 26  1  6
  3  4  2  3
  3 27  1  0
  4  5  1  0
  4 28  1  0
  5  6  2  0
  5  7  1  0
  8  9  2  3
  8 29  1  0
  9 10  1  0
  9 30  1  0
 10 22  1  0
 10 11  1  0
 10 31  1  6
 11 12  1  0
 11 13  1  0
 11 32  1  1
 12 33  1  0
 12 34  1  0
 12 35  1  0
 13 14  2  0
 13 36  1  0
 14 15  1  0
 14 37  1  0
 15 22  1  0
 15 16  2  0
 16 17  1  0
 16 38  1  0
 17 18  1  0
 17 19  1  0
 17 39  1  6
 18 40  1  0
 18 41  1  0
 18 42  1  0
 19 20  1  0
 19 43  1  0
 19 44  1  0
 20 21  1  0
 20 22  1  0
 20 45  1  1
 21 46  1  0
 22 47  1  1
M  CHG  1   7  -1
M  END
>  <i_m_ct_stereo_status>  (59) 
1

>  <s_m_source_file>  (59) 
/var/tmp/pbs.5076255.sched01/tmp7hrp_b9g/014g_j70o.sdf

>  <i_m_source_file_index>  (59) 
25

>  <i_lp_mmshare_version>  (59) 
48012

>  <i_f3d_flags>  (59) 
0

>  <s_epik_input>  (59) 
Tz1DKFtPSF0pXFtDSF09W0NIXVxbQ0BASF0oW0NIM10pL1tDSF09W0NIXS9bQ0BIXShbQ0BASF0oW0NIM10pW0NIXT1bQ0hdMSlbQ0BASF0oQzE9MilbQ0BIXShbT0hdKVtDSDJdW0NAQEhdKFtDSF0yKVtDSDNd

>  <s_epik_cmdline>  (59) 
J2VwaWtfcHl0aG9uJywgJy1waHQnLCAnMi4wJywgJy1waCcsICc3LjAnLCAnLXRuJywgJzgnLCAnLW1hJywgJzIwMCcsICctaW1hZScsICc8aW5maWxlLm1hZT4nLCAnLW9tYWUnLCAnPG91dGZpbGUubWFlPic=

>  <r_epik_Ionization_Penalty>  (59) 
0.00329561

>  <r_epik_Ionization_Penalty_Charging>  (59) 
0.00329532

>  <r_epik_Ionization_Penalty_Neutral>  (59) 
2.90052e-07

>  <r_epik_State_Penalty>  (59) 
0.00232853

>  <r_epik_Charging_Adjusted_Penalty>  (59) 
0.00562386

>  <i_epik_Tot_Q>  (59) 
-1

>  <i_epik_Tot_abs_Q>  (59) 
1

>  <s_lp_Force_Field>  (59) 
OPLS3e

>  <r_lp_Energy>  (59) 
16.5455

>  <b_lp_Chiralities_Consistent>  (59) 
1

>  <s_lp_Variant>  (59) 
14:0-4

>  <s_i_glide_gridfile>  (59) 
pfpi4k_grid

>  <i_i_glide_lignum>  (59) 
25

>  <i_i_glide_rotatable_bonds>  (59) 
5

>  <r_i_docking_score>  (59) 
-1.92735

>  <r_i_glide_ligand_efficiency>  (59) 
-0.0876066

>  <r_i_glide_ligand_efficiency_sa>  (59) 
-0.245477

>  <r_i_glide_ligand_efficiency_ln>  (59) 
-0.471113

>  <r_i_glide_gscore>  (59) 
-1.92735

>  <r_i_glide_lipo>  (59) 
-0.0203553

>  <r_i_glide_hbond>  (59) 
-0.319542

>  <r_i_glide_metal>  (59) 
-0

>  <r_i_glide_rewards>  (59) 
-1.35409

>  <r_i_glide_evdw>  (59) 
-12.4194

>  <r_i_glide_ecoul>  (59) 
-2.61647

>  <r_i_glide_erotb>  (59) 
0.810038

>  <r_i_glide_esite>  (59) 
-0.0299557

>  <r_i_glide_emodel>  (59) 
-16.661

>  <r_i_glide_energy>  (59) 
-15.0358

>  <r_i_glide_einternal>  (59) 
1.64521

>  <r_i_glide_intrahb_reward>  (59) 
-0

>  <i_i_glide_confnum>  (59) 
6

>  <i_i_glide_posenum>  (59) 
5

>  <r_i_glide_eff_state_penalty>  (59) 
0

>  <ligand_id>  (59) 
14

>  <original_smiles>  (59) 
CC(C=CC(=O)O)C=CC1C(C)C=CC2=CC(C)CC(O)C21

>  <smiles>  (59) 
[H]OC1([H])C([H])([H])C([H])(C([H])([H])[H])C([H])=C2C([H])=C([H])C([H])(C([H])([H])[H])C([H])(C([H])=C([H])C([H])(C([H])=C([H])C(=O)[O-])C([H])([H])[H])C21[H]

$$$$
15:0:0
     RDKit          3D

 56 60  0  0  1  0  0  0  0  0999 V2000
    7.8041   -4.2827    0.7590 C   0  0  0  0  0  0  0  0  0  0  0  0
    6.4517   -4.6828    0.5559 O   0  0  0  0  0  0  0  0  0  0  0  0
    5.4029   -3.7048    0.4516 C   0  0  1  0  0  0  0  0  0  0  0  0
    4.2207   -4.5104   -0.1326 C   0  0  0  0  0  0  0  0  0  0  0  0
    4.0450   -5.7030    0.1316 O   0  0  0  0  0  0  0  0  0  0  0  0
    3.2169   -3.7668   -1.0310 C   0  0  1  0  0  0  0  0  0  0  0  0
    2.7108   -2.6762   -0.2700 O   0  0  0  0  0  0  0  0  0  0  0  0
    3.5700   -1.5463   -0.4359 C   0  0  1  0  0  0  0  0  0  0  0  0
    3.9470   -0.9456    0.9202 C   0  0  0  0  0  0  0  0  0  0  0  0
    4.3136   -1.9292    2.0418 C   0  0  0  0  0  0  0  0  0  0  0  0
    4.9158   -3.1513    1.8330 C   0  0  0  0  0  0  0  0  0  0  0  0
    5.1479   -4.1405    2.9872 C   0  0  0  0  0  0  0  0  0  0  0  0
    4.5582   -3.7421    4.3437 C   0  0  0  0  0  0  0  0  0  0  0  0
    4.7220   -2.2405    4.5262 C   0  0  2  0  0  0  0  0  0  0  0  0
    4.4959   -1.7329    5.9640 C   0  0  0  0  0  0  0  0  0  0  0  0
    4.9131   -0.2557    6.0990 C   0  0  1  0  0  0  0  0  0  0  0  0
    6.2834   -0.1627    6.4131 O   0  0  0  0  0  0  0  0  0  0  0  0
    4.6208    0.5570    4.8468 C   0  0  0  0  0  0  0  0  0  0  0  0
    4.1652    0.0366    3.6879 C   0  0  0  0  0  0  0  0  0  0  0  0
    3.9069   -1.4551    3.4533 C   0  0  1  0  0  0  0  0  0  0  0  0
    2.3807   -1.6701    3.6043 C   0  0  0  0  0  0  0  0  0  0  0  0
    4.6847   -2.0026   -1.3899 C   0  0  1  0  0  0  0  0  0  0  0  0
    5.8540   -2.6311   -0.5987 C   0  0  1  0  0  0  0  0  0  0  0  0
    6.6444   -1.5836   -0.0702 O   0  0  0  0  0  0  0  0  0  0  0  0
    3.9306   -3.0528   -2.1988 C   0  0  1  0  0  0  0  0  0  0  0  0
    4.8113   -3.8771   -2.9379 O   0  0  0  0  0  0  0  0  0  0  0  0
    2.9728   -2.4459   -3.2512 C   0  0  0  0  0  0  0  0  0  0  0  0
    2.3210   -3.4571   -3.9844 O   0  0  0  0  0  0  0  0  0  0  0  0
    8.4465   -5.1645    0.8263 H   0  0  0  0  0  0  0  0  0  0  0  0
    7.9171   -3.7077    1.6801 H   0  0  0  0  0  0  0  0  0  0  0  0
    8.2131   -3.7003   -0.0629 H   0  0  0  0  0  0  0  0  0  0  0  0
    2.3867   -4.4029   -1.3644 H   0  0  0  0  0  0  0  0  0  0  0  0
    3.0072   -0.7939   -0.9727 H   0  0  0  0  0  0  0  0  0  0  0  0
    4.7145   -0.1781    0.8160 H   0  0  0  0  0  0  0  0  0  0  0  0
    3.0530   -0.4001    1.2145 H   0  0  0  0  0  0  0  0  0  0  0  0
    4.7499   -5.1190    2.7266 H   0  0  0  0  0  0  0  0  0  0  0  0
    6.2150   -4.2570    3.1099 H   0  0  0  0  0  0  0  0  0  0  0  0
    3.5105   -4.0304    4.4183 H   0  0  0  0  0  0  0  0  0  0  0  0
    5.0734   -4.2800    5.1480 H   0  0  0  0  0  0  0  0  0  0  0  0
    5.7704   -2.0454    4.3253 H   0  0  0  0  0  0  0  0  0  0  0  0
    3.4468   -1.8256    6.2277 H   0  0  0  0  0  0  0  0  0  0  0  0
    5.0429   -2.3489    6.6894 H   0  0  0  0  0  0  0  0  0  0  0  0
    4.3611    0.1856    6.9282 H   0  0  0  0  0  0  0  0  0  0  0  0
    6.7778   -0.5030    5.6783 H   0  0  0  0  0  0  0  0  0  0  0  0
    4.7663    1.6213    4.9460 H   0  0  0  0  0  0  0  0  0  0  0  0
    3.9589    0.7217    2.8811 H   0  0  0  0  0  0  0  0  0  0  0  0
    1.8165   -1.0354    2.9174 H   0  0  0  0  0  0  0  0  0  0  0  0
    2.0149   -1.4282    4.6036 H   0  0  0  0  0  0  0  0  0  0  0  0
    2.0860   -2.6966    3.3790 H   0  0  0  0  0  0  0  0  0  0  0  0
    5.0613   -1.1922   -2.0238 H   0  0  0  0  0  0  0  0  0  0  0  0
    6.4817   -3.1443   -1.3304 H   0  0  0  0  0  0  0  0  0  0  0  0
    6.2125   -1.2638    0.7269 H   0  0  0  0  0  0  0  0  0  0  0  0
    4.3380   -4.6766   -3.1440 H   0  0  0  0  0  0  0  0  0  0  0  0
    2.2236   -1.7925   -2.8067 H   0  0  0  0  0  0  0  0  0  0  0  0
    3.5375   -1.8476   -3.9642 H   0  0  0  0  0  0  0  0  0  0  0  0
    1.6566   -3.8896   -3.4551 H   0  0  0  0  0  0  0  0  0  0  0  0
  1  2  1  0
  1 29  1  0
  1 30  1  0
  1 31  1  0
  3  2  1  1
  3 11  1  0
  3 23  1  0
  3  4  1  0
  4  5  2  0
  4  6  1  0
  6 25  1  0
  6  7  1  0
  6 32  1  6
  7  8  1  0
  8  9  1  0
  8 22  1  0
  8 33  1  6
  9 10  1  0
  9 34  1  0
  9 35  1  0
 10 20  1  0
 10 11  2  0
 11 12  1  0
 12 13  1  0
 12 36  1  0
 12 37  1  0
 13 14  1  0
 13 38  1  0
 13 39  1  0
 14 20  1  0
 14 15  1  0
 14 40  1  6
 15 16  1  0
 15 41  1  0
 15 42  1  0
 16 17  1  0
 16 18  1  0
 16 43  1  1
 17 44  1  0
 18 19  2  0
 18 45  1  0
 19 20  1  0
 19 46  1  0
 20 21  1  1
 21 47  1  0
 21 48  1  0
 21 49  1  0
 22 23  1  0
 22 25  1  0
 22 50  1  6
 23 24  1  0
 23 51  1  6
 24 52  1  0
 25 26  1  6
 25 27  1  0
 26 53  1  0
 27 28  1  0
 27 54  1  0
 27 55  1  0
 28 56  1  0
M  END
>  <i_m_ct_stereo_status>  (60) 
1

>  <s_m_source_file>  (60) 
/var/tmp/pbs.5076255.sched01/tmp7hrp_b9g/014g_j70o.sdf

>  <i_m_source_file_index>  (60) 
26

>  <i_lp_mmshare_version>  (60) 
48012

>  <i_f3d_flags>  (60) 
0

>  <s_epik_input>  (60) 
W0NIXTE9W0NIXVtDQEhdKFtPSF0pW0NIMl1bQ0BASF0oW0NIMl1bQ0gyXTIpW0NAXTEoW0NIM10pQyg9QzJbQ0BAXTM0T1tDSDNdKVtDSDJdW0NASF01W0NAQEhdKFtDQEhdNFtPSF0pW0NAQF0oW09IXSkoW0NASF0oTzUpQzM9TylbQ0gyXVtPSF0=

>  <s_epik_cmdline>  (60) 
J2VwaWtfcHl0aG9uJywgJy1waHQnLCAnMi4wJywgJy1waCcsICc3LjAnLCAnLXRuJywgJzgnLCAnLW1hJywgJzIwMCcsICctaW1hZScsICc8aW5maWxlLm1hZT4nLCAnLW9tYWUnLCAnPG91dGZpbGUubWFlPic=

>  <r_lp_tautomer_probability>  (60) 
1

>  <r_epik_Ionization_Penalty>  (60) 
3.34521e-06

>  <r_epik_Ionization_Penalty_Charging>  (60) 
0

>  <r_epik_Ionization_Penalty_Neutral>  (60) 
3.34521e-06

>  <r_epik_State_Penalty>  (60) 
-0

>  <r_epik_Charging_Adjusted_Penalty>  (60) 
0

>  <i_epik_Tot_Q>  (60) 
0

>  <i_epik_Tot_abs_Q>  (60) 
0

>  <s_lp_Force_Field>  (60) 
OPLS3e

>  <r_lp_Energy>  (60) 
54.79

>  <b_lp_Chiralities_Consistent>  (60) 
1

>  <s_lp_Variant>  (60) 
15:0-1

>  <s_i_glide_gridfile>  (60) 
pfpi4k_grid

>  <i_i_glide_lignum>  (60) 
26

>  <i_i_glide_rotatable_bonds>  (60) 
6

>  <r_i_docking_score>  (60) 
-3.45709

>  <r_i_glide_ligand_efficiency>  (60) 
-0.123468

>  <r_i_glide_ligand_efficiency_sa>  (60) 
-0.37492

>  <r_i_glide_ligand_efficiency_ln>  (60) 
-0.797998

>  <r_i_glide_gscore>  (60) 
-3.45709

>  <r_i_glide_lipo>  (60) 
-0.492435

>  <r_i_glide_hbond>  (60) 
0

>  <r_i_glide_metal>  (60) 
-0

>  <r_i_glide_rewards>  (60) 
-0.733344

>  <r_i_glide_evdw>  (60) 
-23.2496

>  <r_i_glide_ecoul>  (60) 
-7.89592

>  <r_i_glide_erotb>  (60) 
0.126775

>  <r_i_glide_esite>  (60) 
-0.011221

>  <r_i_glide_emodel>  (60) 
-34.1204

>  <r_i_glide_energy>  (60) 
-31.1455

>  <r_i_glide_einternal>  (60) 
5.5441

>  <r_i_glide_intrahb_reward>  (60) 
-0

>  <i_i_glide_confnum>  (60) 
5

>  <i_i_glide_posenum>  (60) 
32

>  <r_i_glide_eff_state_penalty>  (60) 
0

>  <ligand_id>  (60) 
15

>  <original_smiles>  (60) 
COC12C(=O)C3OC(CC4=C1CCC1CC(O)C=CC41C)C(C2O)C3(O)CO

>  <smiles>  (60) 
[H]OC([H])([H])C1(O[H])C2([H])OC3([H])C([H])([H])C4=C(C([H])([H])C([H])([H])C5([H])C([H])([H])C([H])(O[H])C([H])=C([H])C45C([H])([H])[H])C(OC([H])([H])[H])(C2=O)C([H])(O[H])C31[H]

$$$$
15:0:1
     RDKit          3D

 56 60  0  0  1  0  0  0  0  0999 V2000
    7.7329   -4.1929    0.8158 C   0  0  0  0  0  0  0  0  0  0  0  0
    6.6959   -3.5309    1.5394 O   0  0  0  0  0  0  0  0  0  0  0  0
    5.5451   -2.9582    0.8937 C   0  0  1  0  0  0  0  0  0  0  0  0
    4.7817   -4.0757    0.1331 C   0  0  0  0  0  0  0  0  0  0  0  0
    4.8172   -5.2562    0.4819 O   0  0  0  0  0  0  0  0  0  0  0  0
    3.9467   -3.6430   -1.0787 C   0  0  1  0  0  0  0  0  0  0  0  0
    3.0163   -2.6656   -0.6326 O   0  0  0  0  0  0  0  0  0  0  0  0
    3.6054   -1.3678   -0.7119 C   0  0  1  0  0  0  0  0  0  0  0  0
    3.4485   -0.6034    0.6074 C   0  0  0  0  0  0  0  0  0  0  0  0
    3.7072   -1.3879    1.9016 C   0  0  0  0  0  0  0  0  0  0  0  0
    4.5916   -2.4319    2.0041 C   0  0  0  0  0  0  0  0  0  0  0  0
    4.7569   -3.2135    3.3212 C   0  0  0  0  0  0  0  0  0  0  0  0
    3.7529   -2.8895    4.4292 C   0  0  0  0  0  0  0  0  0  0  0  0
    3.5083   -1.3867    4.4346 C   0  0  2  0  0  0  0  0  0  0  0  0
    2.7861   -0.8627    5.6908 C   0  0  0  0  0  0  0  0  0  0  0  0
    2.7901    0.6767    5.7245 C   0  0  1  0  0  0  0  0  0  0  0  0
    3.9682    1.1461    6.3422 O   0  0  0  0  0  0  0  0  0  0  0  0
    2.6592    1.2928    4.3406 C   0  0  0  0  0  0  0  0  0  0  0  0
    2.6694    0.5940    3.1875 C   0  0  0  0  0  0  0  0  0  0  0  0
    2.8432   -0.9271    3.1048 C   0  0  1  0  0  0  0  0  0  0  0  0
    1.4281   -1.5280    2.9055 C   0  0  0  0  0  0  0  0  0  0  0  0
    5.0239   -1.5802   -1.2613 C   0  0  1  0  0  0  0  0  0  0  0  0
    6.0444   -1.8784   -0.1308 C   0  0  1  0  0  0  0  0  0  0  0  0
    6.4338   -0.6640    0.4800 O   0  0  0  0  0  0  0  0  0  0  0  0
    4.7790   -2.8406   -2.0984 C   0  0  1  0  0  0  0  0  0  0  0  0
    5.9983   -3.4453   -2.4755 O   0  0  0  0  0  0  0  0  0  0  0  0
    4.0321   -2.6015   -3.4357 C   0  0  0  0  0  0  0  0  0  0  0  0
    3.8843   -3.8283   -4.1295 O   0  0  0  0  0  0  0  0  0  0  0  0
    8.3347   -4.7620    1.5236 H   0  0  0  0  0  0  0  0  0  0  0  0
    8.4091   -3.4872    0.3357 H   0  0  0  0  0  0  0  0  0  0  0  0
    7.3710   -4.8992    0.0733 H   0  0  0  0  0  0  0  0  0  0  0  0
    3.4419   -4.4971   -1.5146 H   0  0  0  0  0  0  0  0  0  0  0  0
    3.0469   -0.8225   -1.4704 H   0  0  0  0  0  0  0  0  0  0  0  0
    4.0413    0.3117    0.5995 H   0  0  0  0  0  0  0  0  0  0  0  0
    2.4142   -0.2719    0.6076 H   0  0  0  0  0  0  0  0  0  0  0  0
    4.7130   -4.2838    3.1201 H   0  0  0  0  0  0  0  0  0  0  0  0
    5.7523   -2.9972    3.7067 H   0  0  0  0  0  0  0  0  0  0  0  0
    2.8263   -3.4438    4.2860 H   0  0  0  0  0  0  0  0  0  0  0  0
    4.1514   -3.2158    5.3896 H   0  0  0  0  0  0  0  0  0  0  0  0
    4.5016   -0.9322    4.4693 H   0  0  0  0  0  0  0  0  0  0  0  0
    1.7559   -1.2211    5.7051 H   0  0  0  0  0  0  0  0  0  0  0  0
    3.2442   -1.2602    6.5980 H   0  0  0  0  0  0  0  0  0  0  0  0
    1.9505    1.0156    6.3317 H   0  0  0  0  0  0  0  0  0  0  0  0
    4.7076    0.8629    5.8208 H   0  0  0  0  0  0  0  0  0  0  0  0
    2.5169    2.3627    4.3181 H   0  0  0  0  0  0  0  0  0  0  0  0
    2.5337    1.1450    2.2685 H   0  0  0  0  0  0  0  0  0  0  0  0
    0.9421   -1.1136    2.0200 H   0  0  0  0  0  0  0  0  0  0  0  0
    0.7650   -1.3206    3.7435 H   0  0  0  0  0  0  0  0  0  0  0  0
    1.4598   -2.6081    2.7597 H   0  0  0  0  0  0  0  0  0  0  0  0
    5.3624   -0.7487   -1.8822 H   0  0  0  0  0  0  0  0  0  0  0  0
    6.9568   -2.2196   -0.6097 H   0  0  0  0  0  0  0  0  0  0  0  0
    7.0239   -0.8621    1.1892 H   0  0  0  0  0  0  0  0  0  0  0  0
    5.7844   -4.2663   -2.9016 H   0  0  0  0  0  0  0  0  0  0  0  0
    3.0467   -2.1547   -3.2965 H   0  0  0  0  0  0  0  0  0  0  0  0
    4.5969   -1.9158   -4.0694 H   0  0  0  0  0  0  0  0  0  0  0  0
    3.3786   -4.4358   -3.5953 H   0  0  0  0  0  0  0  0  0  0  0  0
  1  2  1  0
  1 29  1  0
  1 30  1  0
  1 31  1  0
  3  2  1  1
  3 11  1  0
  3 23  1  0
  3  4  1  0
  4  5  2  0
  4  6  1  0
  6 25  1  0
  6  7  1  0
  6 32  1  6
  7  8  1  0
  8  9  1  0
  8 22  1  0
  8 33  1  6
  9 10  1  0
  9 34  1  0
  9 35  1  0
 10 20  1  0
 10 11  2  0
 11 12  1  0
 12 13  1  0
 12 36  1  0
 12 37  1  0
 13 14  1  0
 13 38  1  0
 13 39  1  0
 14 20  1  0
 14 15  1  0
 14 40  1  6
 15 16  1  0
 15 41  1  0
 15 42  1  0
 16 17  1  0
 16 18  1  0
 16 43  1  1
 17 44  1  0
 18 19  2  0
 18 45  1  0
 19 20  1  0
 19 46  1  0
 20 21  1  6
 21 47  1  0
 21 48  1  0
 21 49  1  0
 22 23  1  0
 22 25  1  0
 22 50  1  6
 23 24  1  0
 23 51  1  6
 24 52  1  0
 25 26  1  6
 25 27  1  0
 26 53  1  0
 27 28  1  0
 27 54  1  0
 27 55  1  0
 28 56  1  0
M  END
>  <i_m_ct_stereo_status>  (61) 
1

>  <s_m_source_file>  (61) 
/var/tmp/pbs.5076255.sched01/tmp7hrp_b9g/014g_j70o.sdf

>  <i_m_source_file_index>  (61) 
26

>  <i_lp_mmshare_version>  (61) 
48012

>  <i_f3d_flags>  (61) 
0

>  <s_epik_input>  (61) 
W0NIXTE9W0NIXVtDQEhdKFtPSF0pW0NIMl1bQ0BASF0oW0NIMl1bQ0gyXTIpW0NAXTEoW0NIM10pQyg9QzJbQ0BAXTM0T1tDSDNdKVtDSDJdW0NASF01W0NAQEhdKFtDQEhdNFtPSF0pW0NAQF0oW09IXSkoW0NASF0oTzUpQzM9TylbQ0gyXVtPSF0=

>  <s_epik_cmdline>  (61) 
J2VwaWtfcHl0aG9uJywgJy1waHQnLCAnMi4wJywgJy1waCcsICc3LjAnLCAnLXRuJywgJzgnLCAnLW1hJywgJzIwMCcsICctaW1hZScsICc8aW5maWxlLm1hZT4nLCAnLW9tYWUnLCAnPG91dGZpbGUubWFlPic=

>  <r_lp_tautomer_probability>  (61) 
1

>  <r_epik_Ionization_Penalty>  (61) 
3.34521e-06

>  <r_epik_Ionization_Penalty_Charging>  (61) 
0

>  <r_epik_Ionization_Penalty_Neutral>  (61) 
3.34521e-06

>  <r_epik_State_Penalty>  (61) 
-0

>  <r_epik_Charging_Adjusted_Penalty>  (61) 
0

>  <i_epik_Tot_Q>  (61) 
0

>  <i_epik_Tot_abs_Q>  (61) 
0

>  <s_lp_Force_Field>  (61) 
OPLS3e

>  <r_lp_Energy>  (61) 
54.79

>  <b_lp_Chiralities_Consistent>  (61) 
1

>  <s_lp_Variant>  (61) 
15:0-1

>  <s_i_glide_gridfile>  (61) 
pfpi4k_grid

>  <i_i_glide_lignum>  (61) 
26

>  <i_i_glide_rotatable_bonds>  (61) 
6

>  <r_i_docking_score>  (61) 
-3.19338

>  <r_i_glide_ligand_efficiency>  (61) 
-0.114049

>  <r_i_glide_ligand_efficiency_sa>  (61) 
-0.346321

>  <r_i_glide_ligand_efficiency_ln>  (61) 
-0.737126

>  <r_i_glide_gscore>  (61) 
-3.19338

>  <r_i_glide_lipo>  (61) 
-0.497553

>  <r_i_glide_hbond>  (61) 
0

>  <r_i_glide_metal>  (61) 
-0

>  <r_i_glide_rewards>  (61) 
-0.782902

>  <r_i_glide_evdw>  (61) 
-23.2395

>  <r_i_glide_ecoul>  (61) 
-5.85149

>  <r_i_glide_erotb>  (61) 
0.126775

>  <r_i_glide_esite>  (61) 
0

>  <r_i_glide_emodel>  (61) 
-33.5175

>  <r_i_glide_energy>  (61) 
-29.091

>  <r_i_glide_einternal>  (61) 
2.47456

>  <r_i_glide_intrahb_reward>  (61) 
-0

>  <i_i_glide_confnum>  (61) 
2

>  <i_i_glide_posenum>  (61) 
1

>  <r_i_glide_eff_state_penalty>  (61) 
0

>  <ligand_id>  (61) 
15

>  <original_smiles>  (61) 
COC12C(=O)C3OC(CC4=C1CCC1CC(O)C=CC41C)C(C2O)C3(O)CO

>  <smiles>  (61) 
[H]OC([H])([H])C1(O[H])C2([H])OC3([H])C([H])([H])C4=C(C([H])([H])C([H])([H])C5([H])C([H])([H])C([H])(O[H])C([H])=C([H])C45C([H])([H])[H])C(OC([H])([H])[H])(C2=O)C([H])(O[H])C31[H]

$$$$
15:0:2
     RDKit          3D

 56 60  0  0  1  0  0  0  0  0999 V2000
    7.7228   -4.1692    0.8699 C   0  0  0  0  0  0  0  0  0  0  0  0
    6.6624   -3.5467    1.5950 O   0  0  0  0  0  0  0  0  0  0  0  0
    5.5270   -2.9564    0.9380 C   0  0  1  0  0  0  0  0  0  0  0  0
    4.7722   -4.0593    0.1488 C   0  0  0  0  0  0  0  0  0  0  0  0
    4.7966   -5.2453    0.4880 O   0  0  0  0  0  0  0  0  0  0  0  0
    3.9558   -3.6090   -1.0707 C   0  0  1  0  0  0  0  0  0  0  0  0
    3.0180   -2.6322   -0.6267 O   0  0  0  0  0  0  0  0  0  0  0  0
    3.6224   -1.3373   -0.6752 C   0  0  1  0  0  0  0  0  0  0  0  0
    3.4508   -0.5863    0.6543 C   0  0  0  0  0  0  0  0  0  0  0  0
    3.6858   -1.3897    1.9409 C   0  0  0  0  0  0  0  0  0  0  0  0
    4.5598   -2.4410    2.0409 C   0  0  0  0  0  0  0  0  0  0  0  0
    4.6978   -3.2439    3.3495 C   0  0  0  0  0  0  0  0  0  0  0  0
    3.6808   -2.9257    4.4469 C   0  0  0  0  0  0  0  0  0  0  0  0
    3.4477   -1.4208    4.4709 C   0  0  2  0  0  0  0  0  0  0  0  0
    2.7099   -0.9102    5.7249 C   0  0  0  0  0  0  0  0  0  0  0  0
    2.7219    0.6294    5.7820 C   0  0  1  0  0  0  0  0  0  0  0  0
    3.8941    1.0834    6.4274 O   0  0  0  0  0  0  0  0  0  0  0  0
    2.6194    1.2664    4.4039 C   0  0  0  0  0  0  0  0  0  0  0  0
    2.6426    0.5854    3.2424 C   0  0  0  0  0  0  0  0  0  0  0  0
    2.8069   -0.9379    3.1374 C   0  0  1  0  0  0  0  0  0  0  0  0
    1.3898   -1.5265    2.9083 C   0  0  0  0  0  0  0  0  0  0  0  0
    5.0495   -1.5536   -1.2123 C   0  0  1  0  0  0  0  0  0  0  0  0
    6.0471   -1.8642   -0.0665 C   0  0  1  0  0  0  0  0  0  0  0  0
    6.4316   -0.6623    0.5596 O   0  0  0  0  0  0  0  0  0  0  0  0
    4.8149   -2.8045   -2.0723 C   0  0  1  0  0  0  0  0  0  0  0  0
    6.0352   -3.4364   -2.4302 O   0  0  0  0  0  0  0  0  0  0  0  0
    4.0787   -2.5222   -3.4117 C   0  0  0  0  0  0  0  0  0  0  0  0
    3.8583   -3.7211   -4.1297 O   0  0  0  0  0  0  0  0  0  0  0  0
    8.3089   -4.7724    1.5621 H   0  0  0  0  0  0  0  0  0  0  0  0
    8.4090   -3.4349    0.4472 H   0  0  0  0  0  0  0  0  0  0  0  0
    7.3850   -4.8349    0.0784 H   0  0  0  0  0  0  0  0  0  0  0  0
    3.4510   -4.4499   -1.5192 H   0  0  0  0  0  0  0  0  0  0  0  0
    3.0785   -0.7708   -1.4295 H   0  0  0  0  0  0  0  0  0  0  0  0
    4.0439    0.3277    0.6680 H   0  0  0  0  0  0  0  0  0  0  0  0
    2.4163   -0.2554    0.6438 H   0  0  0  0  0  0  0  0  0  0  0  0
    4.6499   -4.3110    3.1349 H   0  0  0  0  0  0  0  0  0  0  0  0
    5.6894   -3.0434    3.7547 H   0  0  0  0  0  0  0  0  0  0  0  0
    2.7509   -3.4687    4.2851 H   0  0  0  0  0  0  0  0  0  0  0  0
    4.0625   -3.2689    5.4097 H   0  0  0  0  0  0  0  0  0  0  0  0
    4.4441   -0.9755    4.5292 H   0  0  0  0  0  0  0  0  0  0  0  0
    1.6787   -1.2612    5.7168 H   0  0  0  0  0  0  0  0  0  0  0  0
    3.1512   -1.3240    6.6336 H   0  0  0  0  0  0  0  0  0  0  0  0
    1.8764    0.9645    6.3804 H   0  0  0  0  0  0  0  0  0  0  0  0
    4.6400    0.7986    5.9200 H   0  0  0  0  0  0  0  0  0  0  0  0
    2.4843    2.3381    4.3942 H   0  0  0  0  0  0  0  0  0  0  0  0
    2.5255    1.1511    2.3291 H   0  0  0  0  0  0  0  0  0  0  0  0
    0.9202   -1.0959    2.0230 H   0  0  0  0  0  0  0  0  0  0  0  0
    0.7153   -1.3274    3.7402 H   0  0  0  0  0  0  0  0  0  0  0  0
    1.4177   -2.6037    2.7467 H   0  0  0  0  0  0  0  0  0  0  0  0
    5.3973   -0.7070   -1.8077 H   0  0  0  0  0  0  0  0  0  0  0  0
    6.9639   -2.2013   -0.5395 H   0  0  0  0  0  0  0  0  0  0  0  0
    7.0635   -0.8637    1.2372 H   0  0  0  0  0  0  0  0  0  0  0  0
    6.4391   -2.9761   -3.1520 H   0  0  0  0  0  0  0  0  0  0  0  0
    3.1133   -2.0371   -3.2665 H   0  0  0  0  0  0  0  0  0  0  0  0
    4.6630   -1.8526   -4.0444 H   0  0  0  0  0  0  0  0  0  0  0  0
    3.4185   -4.3503   -3.5644 H   0  0  0  0  0  0  0  0  0  0  0  0
  1  2  1  0
  1 29  1  0
  1 30  1  0
  1 31  1  0
  3  2  1  1
  3 11  1  0
  3 23  1  0
  3  4  1  0
  4  5  2  0
  4  6  1  0
  6 25  1  0
  6  7  1  0
  6 32  1  6
  7  8  1  0
  8  9  1  0
  8 22  1  0
  8 33  1  6
  9 10  1  0
  9 34  1  0
  9 35  1  0
 10 20  1  0
 10 11  2  0
 11 12  1  0
 12 13  1  0
 12 36  1  0
 12 37  1  0
 13 14  1  0
 13 38  1  0
 13 39  1  0
 14 20  1  0
 14 15  1  0
 14 40  1  1
 15 16  1  0
 15 41  1  0
 15 42  1  0
 16 17  1  0
 16 18  1  0
 16 43  1  1
 17 44  1  0
 18 19  2  0
 18 45  1  0
 19 20  1  0
 19 46  1  0
 20 21  1  6
 21 47  1  0
 21 48  1  0
 21 49  1  0
 22 23  1  0
 22 25  1  0
 22 50  1  6
 23 24  1  0
 23 51  1  6
 24 52  1  0
 25 26  1  6
 25 27  1  0
 26 53  1  0
 27 28  1  0
 27 54  1  0
 27 55  1  0
 28 56  1  0
M  END
>  <i_m_ct_stereo_status>  (62) 
1

>  <s_m_source_file>  (62) 
/var/tmp/pbs.5076255.sched01/tmp7hrp_b9g/014g_j70o.sdf

>  <i_m_source_file_index>  (62) 
26

>  <i_lp_mmshare_version>  (62) 
48012

>  <i_f3d_flags>  (62) 
0

>  <s_epik_input>  (62) 
W0NIXTE9W0NIXVtDQEhdKFtPSF0pW0NIMl1bQ0BASF0oW0NIMl1bQ0gyXTIpW0NAXTEoW0NIM10pQyg9QzJbQ0BAXTM0T1tDSDNdKVtDSDJdW0NASF01W0NAQEhdKFtDQEhdNFtPSF0pW0NAQF0oW09IXSkoW0NASF0oTzUpQzM9TylbQ0gyXVtPSF0=

>  <s_epik_cmdline>  (62) 
J2VwaWtfcHl0aG9uJywgJy1waHQnLCAnMi4wJywgJy1waCcsICc3LjAnLCAnLXRuJywgJzgnLCAnLW1hJywgJzIwMCcsICctaW1hZScsICc8aW5maWxlLm1hZT4nLCAnLW9tYWUnLCAnPG91dGZpbGUubWFlPic=

>  <r_lp_tautomer_probability>  (62) 
1

>  <r_epik_Ionization_Penalty>  (62) 
3.34521e-06

>  <r_epik_Ionization_Penalty_Charging>  (62) 
0

>  <r_epik_Ionization_Penalty_Neutral>  (62) 
3.34521e-06

>  <r_epik_State_Penalty>  (62) 
-0

>  <r_epik_Charging_Adjusted_Penalty>  (62) 
0

>  <i_epik_Tot_Q>  (62) 
0

>  <i_epik_Tot_abs_Q>  (62) 
0

>  <s_lp_Force_Field>  (62) 
OPLS3e

>  <r_lp_Energy>  (62) 
54.79

>  <b_lp_Chiralities_Consistent>  (62) 
1

>  <s_lp_Variant>  (62) 
15:0-1

>  <s_i_glide_gridfile>  (62) 
pfpi4k_grid

>  <i_i_glide_lignum>  (62) 
26

>  <i_i_glide_rotatable_bonds>  (62) 
6

>  <r_i_docking_score>  (62) 
-3.06267

>  <r_i_glide_ligand_efficiency>  (62) 
-0.109381

>  <r_i_glide_ligand_efficiency_sa>  (62) 
-0.332145

>  <r_i_glide_ligand_efficiency_ln>  (62) 
-0.706954

>  <r_i_glide_gscore>  (62) 
-3.06267

>  <r_i_glide_lipo>  (62) 
-0.487314

>  <r_i_glide_hbond>  (62) 
0

>  <r_i_glide_metal>  (62) 
-0

>  <r_i_glide_rewards>  (62) 
-0.782576

>  <r_i_glide_evdw>  (62) 
-23.0908

>  <r_i_glide_ecoul>  (62) 
-5.10009

>  <r_i_glide_erotb>  (62) 
0.126775

>  <r_i_glide_esite>  (62) 
0

>  <r_i_glide_emodel>  (62) 
-32.4912

>  <r_i_glide_energy>  (62) 
-28.1909

>  <r_i_glide_einternal>  (62) 
2.24444

>  <r_i_glide_intrahb_reward>  (62) 
-0

>  <i_i_glide_confnum>  (62) 
5

>  <i_i_glide_posenum>  (62) 
23

>  <r_i_glide_eff_state_penalty>  (62) 
0

>  <ligand_id>  (62) 
15

>  <original_smiles>  (62) 
COC12C(=O)C3OC(CC4=C1CCC1CC(O)C=CC41C)C(C2O)C3(O)CO

>  <smiles>  (62) 
[H]OC([H])([H])C1(O[H])C2([H])OC3([H])C([H])([H])C4=C(C([H])([H])C([H])([H])C5([H])C([H])([H])C([H])(O[H])C([H])=C([H])C45C([H])([H])[H])C(OC([H])([H])[H])(C2=O)C([H])(O[H])C31[H]

$$$$
19:0:0
     RDKit          3D

 29 31  0  0  1  0  0  0  0  0999 V2000
   -6.0266   -3.8914   -4.5324 C   0  0  0  0  0  0  0  0  0  0  0  0
   -7.2651   -4.3445   -4.7584 C   0  0  0  0  0  0  0  0  0  0  0  0
   -7.8002   -4.7976   -6.1077 C   0  0  0  0  0  0  0  0  0  0  0  0
   -7.5765   -6.2311   -6.5382 C   0  0  0  0  0  0  0  0  0  0  0  0
   -6.9327   -7.2345   -5.7191 C   0  0  0  0  0  0  0  0  0  0  0  0
   -6.8235   -8.3763   -6.4845 N   0  0  0  0  0  0  0  0  0  0  0  0
   -6.2112   -9.6221   -6.1230 C   0  0  0  0  0  0  0  0  0  0  0  0
   -4.8715   -9.6094   -5.3758 C   0  0  0  0  0  0  0  0  0  0  0  0
   -4.4081  -10.8099   -6.2109 C   0  0  0  0  0  0  0  0  0  0  0  0
   -5.5309  -10.4834   -7.1971 C   0  0  0  0  0  0  0  0  0  0  0  0
   -7.4165   -8.1417   -7.6679 C   0  0  0  0  0  0  0  0  0  0  0  0
   -7.6895   -8.6987   -8.8125 N   0  0  0  0  0  0  0  0  0  0  0  0
   -8.2418   -7.6485   -9.5184 C   0  0  0  0  0  0  0  0  0  0  0  0
   -8.3445   -6.4739   -8.8666 N   0  0  0  0  0  0  0  0  0  0  0  0
   -7.8317   -6.8691   -7.7000 N   0  0  0  0  0  0  0  0  0  0  0  0
   -5.2808   -3.8695   -5.3017 H   0  0  0  0  0  0  0  0  0  0  0  0
   -5.7617   -3.5309   -3.5653 H   0  0  0  0  0  0  0  0  0  0  0  0
   -7.9696   -4.3996   -3.9408 H   0  0  0  0  0  0  0  0  0  0  0  0
   -8.8793   -4.6465   -6.1270 H   0  0  0  0  0  0  0  0  0  0  0  0
   -7.3869   -4.1454   -6.8807 H   0  0  0  0  0  0  0  0  0  0  0  0
   -6.5178   -7.2102   -4.7131 H   0  0  0  0  0  0  0  0  0  0  0  0
   -6.9671  -10.1853   -5.5806 H   0  0  0  0  0  0  0  0  0  0  0  0
   -4.2875   -8.7036   -5.5827 H   0  0  0  0  0  0  0  0  0  0  0  0
   -4.9647   -9.8086   -4.3032 H   0  0  0  0  0  0  0  0  0  0  0  0
   -3.4016  -10.7072   -6.6232 H   0  0  0  0  0  0  0  0  0  0  0  0
   -4.5462  -11.7669   -5.6983 H   0  0  0  0  0  0  0  0  0  0  0  0
   -6.1176  -11.3405   -7.5153 H   0  0  0  0  0  0  0  0  0  0  0  0
   -5.1690   -9.9035   -8.0502 H   0  0  0  0  0  0  0  0  0  0  0  0
   -8.5891   -7.7585  -10.5425 H   0  0  0  0  0  0  0  0  0  0  0  0
  1  2  2  0
  1 16  1  0
  1 17  1  0
  2  3  1  0
  2 18  1  0
  3  4  1  0
  3 19  1  0
  3 20  1  0
  4 15  1  0
  4  5  2  0
  5  6  1  0
  5 21  1  0
  6  7  1  0
  6 11  1  0
  7 10  1  0
  7  8  1  0
  7 22  1  0
  8  9  1  0
  8 23  1  0
  8 24  1  0
  9 10  1  0
  9 25  1  0
  9 26  1  0
 10 27  1  0
 10 28  1  0
 11 15  1  0
 11 12  2  0
 12 13  1  0
 13 14  2  0
 13 29  1  0
 14 15  1  0
M  END
>  <i_m_ct_stereo_status>  (63) 
1

>  <s_m_source_file>  (63) 
/var/tmp/pbs.5076255.sched01/tmp7hrp_b9g/014g_j70o.sdf

>  <i_m_source_file_index>  (63) 
30

>  <i_lp_mmshare_version>  (63) 
48012

>  <i_f3d_flags>  (63) 
0

>  <s_epik_input>  (63) 
bjFbY0hdbm4oYzEyKWMoW0NIMl1bQ0hdPVtDSDJdKVtjSF1uMltDSF0zW0NIMl1bQ0gyXVtDSDJdMw==

>  <s_epik_cmdline>  (63) 
J2VwaWtfcHl0aG9uJywgJy1waHQnLCAnMi4wJywgJy1waCcsICc3LjAnLCAnLXRuJywgJzgnLCAnLW1hJywgJzIwMCcsICctaW1hZScsICc8aW5maWxlLm1hZT4nLCAnLW9tYWUnLCAnPG91dGZpbGUubWFlPic=

>  <r_epik_Ionization_Penalty>  (63) 
0.00481324

>  <r_epik_Ionization_Penalty_Charging>  (63) 
0

>  <r_epik_Ionization_Penalty_Neutral>  (63) 
0.00481324

>  <r_epik_State_Penalty>  (63) 
0.00349002

>  <r_epik_Charging_Adjusted_Penalty>  (63) 
0.00349002

>  <i_epik_Tot_Q>  (63) 
0

>  <i_epik_Tot_abs_Q>  (63) 
0

>  <s_lp_Force_Field>  (63) 
OPLS3e

>  <r_lp_Energy>  (63) 
21.2953

>  <b_lp_Chiralities_Consistent>  (63) 
1

>  <s_lp_Variant>  (63) 
19:0-1

>  <s_i_glide_gridfile>  (63) 
pfpi4k_grid

>  <i_i_glide_lignum>  (63) 
30

>  <i_i_glide_rotatable_bonds>  (63) 
3

>  <r_i_docking_score>  (63) 
-5.03274

>  <r_i_glide_ligand_efficiency>  (63) 
-0.335516

>  <r_i_glide_ligand_efficiency_sa>  (63) 
-0.827453

>  <r_i_glide_ligand_efficiency_ln>  (63) 
-1.35725

>  <r_i_glide_gscore>  (63) 
-5.03274

>  <r_i_glide_lipo>  (63) 
-1.79464

>  <r_i_glide_hbond>  (63) 
0

>  <r_i_glide_metal>  (63) 
-0

>  <r_i_glide_rewards>  (63) 
-3.1349

>  <r_i_glide_evdw>  (63) 
-23.5316

>  <r_i_glide_ecoul>  (63) 
-0.859398

>  <r_i_glide_erotb>  (63) 
1.2023

>  <r_i_glide_esite>  (63) 
0

>  <r_i_glide_emodel>  (63) 
-30.5846

>  <r_i_glide_energy>  (63) 
-24.391

>  <r_i_glide_einternal>  (63) 
1.8045

>  <r_i_glide_intrahb_reward>  (63) 
-0

>  <i_i_glide_confnum>  (63) 
3

>  <i_i_glide_posenum>  (63) 
28

>  <r_i_glide_eff_state_penalty>  (63) 
0

>  <ligand_id>  (63) 
19

>  <original_smiles>  (63) 
C=CCc1cn(C2CCC2)c2ncnn12

>  <smiles>  (63) 
[H]C([H])=C([H])C([H])([H])c1c([H])n(C2([H])C([H])([H])C([H])([H])C2([H])[H])c2nc([H])nn12

$$$$
19:0:1
     RDKit          3D

 29 31  0  0  1  0  0  0  0  0999 V2000
    2.4270   -2.3112   -3.7871 C   0  0  0  0  0  0  0  0  0  0  0  0
    3.4572   -3.0268   -3.3151 C   0  0  0  0  0  0  0  0  0  0  0  0
    4.6534   -2.3870   -2.6232 C   0  0  0  0  0  0  0  0  0  0  0  0
    5.3544   -3.1412   -1.4982 C   0  0  0  0  0  0  0  0  0  0  0  0
    4.6990   -4.1995   -0.7606 C   0  0  0  0  0  0  0  0  0  0  0  0
    5.5960   -4.6552    0.1731 N   0  0  0  0  0  0  0  0  0  0  0  0
    5.3071   -5.6946    1.1107 C   0  0  0  0  0  0  0  0  0  0  0  0
    4.7302   -7.0361    0.6339 C   0  0  0  0  0  0  0  0  0  0  0  0
    3.8095   -7.0548    1.8567 C   0  0  0  0  0  0  0  0  0  0  0  0
    4.1174   -5.5673    2.0735 C   0  0  0  0  0  0  0  0  0  0  0  0
    6.7123   -3.9489    0.0674 C   0  0  0  0  0  0  0  0  0  0  0  0
    7.9124   -3.8078    0.5634 N   0  0  0  0  0  0  0  0  0  0  0  0
    8.4234   -2.7588   -0.2104 C   0  0  0  0  0  0  0  0  0  0  0  0
    7.6003   -2.2618   -1.1501 N   0  0  0  0  0  0  0  0  0  0  0  0
    6.5676   -3.0544   -0.9223 N   0  0  0  0  0  0  0  0  0  0  0  0
    2.3966   -1.2421   -3.6648 H   0  0  0  0  0  0  0  0  0  0  0  0
    1.6038   -2.7633   -4.3044 H   0  0  0  0  0  0  0  0  0  0  0  0
    3.4576   -4.0910   -3.4741 H   0  0  0  0  0  0  0  0  0  0  0  0
    5.4140   -2.2541   -3.3867 H   0  0  0  0  0  0  0  0  0  0  0  0
    4.3869   -1.3993   -2.2412 H   0  0  0  0  0  0  0  0  0  0  0  0
    3.7083   -4.6391   -0.8170 H   0  0  0  0  0  0  0  0  0  0  0  0
    6.2243   -5.8581    1.6666 H   0  0  0  0  0  0  0  0  0  0  0  0
    4.1866   -6.9160   -0.3007 H   0  0  0  0  0  0  0  0  0  0  0  0
    5.4391   -7.8696    0.5615 H   0  0  0  0  0  0  0  0  0  0  0  0
    2.7651   -7.2637    1.6213 H   0  0  0  0  0  0  0  0  0  0  0  0
    4.2059   -7.6872    2.6498 H   0  0  0  0  0  0  0  0  0  0  0  0
    4.3774   -5.2932    3.1025 H   0  0  0  0  0  0  0  0  0  0  0  0
    3.3475   -4.9065    1.6720 H   0  0  0  0  0  0  0  0  0  0  0  0
    9.4283   -2.3505   -0.0928 H   0  0  0  0  0  0  0  0  0  0  0  0
  1  2  2  0
  1 16  1  0
  1 17  1  0
  2  3  1  0
  2 18  1  0
  3  4  1  0
  3 19  1  0
  3 20  1  0
  4 15  1  0
  4  5  2  0
  5  6  1  0
  5 21  1  0
  6  7  1  0
  6 11  1  0
  7 10  1  0
  7  8  1  0
  7 22  1  0
  8  9  1  0
  8 23  1  0
  8 24  1  0
  9 10  1  0
  9 25  1  0
  9 26  1  0
 10 27  1  0
 10 28  1  0
 11 15  1  0
 11 12  2  0
 12 13  1  0
 13 14  2  0
 13 29  1  0
 14 15  1  0
M  END
>  <i_m_ct_stereo_status>  (64) 
1

>  <s_m_source_file>  (64) 
/var/tmp/pbs.5076255.sched01/tmp7hrp_b9g/014g_j70o.sdf

>  <i_m_source_file_index>  (64) 
30

>  <i_lp_mmshare_version>  (64) 
48012

>  <i_f3d_flags>  (64) 
0

>  <s_epik_input>  (64) 
bjFbY0hdbm4oYzEyKWMoW0NIMl1bQ0hdPVtDSDJdKVtjSF1uMltDSF0zW0NIMl1bQ0gyXVtDSDJdMw==

>  <s_epik_cmdline>  (64) 
J2VwaWtfcHl0aG9uJywgJy1waHQnLCAnMi4wJywgJy1waCcsICc3LjAnLCAnLXRuJywgJzgnLCAnLW1hJywgJzIwMCcsICctaW1hZScsICc8aW5maWxlLm1hZT4nLCAnLW9tYWUnLCAnPG91dGZpbGUubWFlPic=

>  <r_epik_Ionization_Penalty>  (64) 
0.00481324

>  <r_epik_Ionization_Penalty_Charging>  (64) 
0

>  <r_epik_Ionization_Penalty_Neutral>  (64) 
0.00481324

>  <r_epik_State_Penalty>  (64) 
0.00349002

>  <r_epik_Charging_Adjusted_Penalty>  (64) 
0.00349002

>  <i_epik_Tot_Q>  (64) 
0

>  <i_epik_Tot_abs_Q>  (64) 
0

>  <s_lp_Force_Field>  (64) 
OPLS3e

>  <r_lp_Energy>  (64) 
21.2953

>  <b_lp_Chiralities_Consistent>  (64) 
1

>  <s_lp_Variant>  (64) 
19:0-1

>  <s_i_glide_gridfile>  (64) 
pfpi4k_grid

>  <i_i_glide_lignum>  (64) 
30

>  <i_i_glide_rotatable_bonds>  (64) 
3

>  <r_i_docking_score>  (64) 
-3.65134

>  <r_i_glide_ligand_efficiency>  (64) 
-0.243423

>  <r_i_glide_ligand_efficiency_sa>  (64) 
-0.600332

>  <r_i_glide_ligand_efficiency_ln>  (64) 
-0.984706

>  <r_i_glide_gscore>  (64) 
-3.65134

>  <r_i_glide_lipo>  (64) 
-0.800803

>  <r_i_glide_hbond>  (64) 
-0.16

>  <r_i_glide_metal>  (64) 
-0

>  <r_i_glide_rewards>  (64) 
-2.33596

>  <r_i_glide_evdw>  (64) 
-18.5582

>  <r_i_glide_ecoul>  (64) 
-4.1447

>  <r_i_glide_erotb>  (64) 
1.2023

>  <r_i_glide_esite>  (64) 
-0.00726805

>  <r_i_glide_emodel>  (64) 
-27.7498

>  <r_i_glide_energy>  (64) 
-22.7029

>  <r_i_glide_einternal>  (64) 
0.52077

>  <r_i_glide_intrahb_reward>  (64) 
-0

>  <i_i_glide_confnum>  (64) 
6

>  <i_i_glide_posenum>  (64) 
1

>  <r_i_glide_eff_state_penalty>  (64) 
0

>  <ligand_id>  (64) 
19

>  <original_smiles>  (64) 
C=CCc1cn(C2CCC2)c2ncnn12

>  <smiles>  (64) 
[H]C([H])=C([H])C([H])([H])c1c([H])n(C2([H])C([H])([H])C([H])([H])C2([H])[H])c2nc([H])nn12

$$$$
19:0:2
     RDKit          3D

 29 31  0  0  1  0  0  0  0  0999 V2000
    3.5551   -0.8287   -3.9508 C   0  0  0  0  0  0  0  0  0  0  0  0
    4.1294   -1.7392   -3.1505 C   0  0  0  0  0  0  0  0  0  0  0  0
    4.3095   -1.5493   -1.6547 C   0  0  0  0  0  0  0  0  0  0  0  0
    5.0779   -2.6540   -0.9599 C   0  0  0  0  0  0  0  0  0  0  0  0
    4.3970   -3.7407   -0.3009 C   0  0  0  0  0  0  0  0  0  0  0  0
    5.3495   -4.5394    0.2735 N   0  0  0  0  0  0  0  0  0  0  0  0
    5.0831   -5.7335    1.0120 C   0  0  0  0  0  0  0  0  0  0  0  0
    4.1524   -6.7996    0.4104 C   0  0  0  0  0  0  0  0  0  0  0  0
    3.5293   -6.9995    1.7954 C   0  0  0  0  0  0  0  0  0  0  0  0
    4.1622   -5.6757    2.2406 C   0  0  0  0  0  0  0  0  0  0  0  0
    6.5587   -3.9922    0.0206 C   0  0  0  0  0  0  0  0  0  0  0  0
    7.8321   -4.1387    0.2336 N   0  0  0  0  0  0  0  0  0  0  0  0
    8.3707   -3.0687   -0.4529 C   0  0  0  0  0  0  0  0  0  0  0  0
    7.4978   -2.2518   -1.0568 N   0  0  0  0  0  0  0  0  0  0  0  0
    6.3825   -2.8944   -0.7274 N   0  0  0  0  0  0  0  0  0  0  0  0
    3.1802    0.1059   -3.5625 H   0  0  0  0  0  0  0  0  0  0  0  0
    3.4519   -0.9988   -5.0085 H   0  0  0  0  0  0  0  0  0  0  0  0
    4.4873   -2.6688   -3.5669 H   0  0  0  0  0  0  0  0  0  0  0  0
    4.8579   -0.6204   -1.4963 H   0  0  0  0  0  0  0  0  0  0  0  0
    3.3330   -1.4157   -1.1781 H   0  0  0  0  0  0  0  0  0  0  0  0
    3.3499   -3.9909   -0.1969 H   0  0  0  0  0  0  0  0  0  0  0  0
    6.0445   -6.1695    1.2672 H   0  0  0  0  0  0  0  0  0  0  0  0
    3.4532   -6.3566   -0.3018 H   0  0  0  0  0  0  0  0  0  0  0  0
    4.6474   -7.6756   -0.0162 H   0  0  0  0  0  0  0  0  0  0  0  0
    2.4371   -6.9903    1.7962 H   0  0  0  0  0  0  0  0  0  0  0  0
    3.9431   -7.8670    2.3164 H   0  0  0  0  0  0  0  0  0  0  0  0
    4.6823   -5.7109    3.1987 H   0  0  0  0  0  0  0  0  0  0  0  0
    3.4713   -4.8288    2.1910 H   0  0  0  0  0  0  0  0  0  0  0  0
    9.4281   -2.8645   -0.4925 H   0  0  0  0  0  0  0  0  0  0  0  0
  1  2  2  0
  1 16  1  0
  1 17  1  0
  2  3  1  0
  2 18  1  0
  3  4  1  0
  3 19  1  0
  3 20  1  0
  4 15  1  0
  4  5  2  0
  5  6  1  0
  5 21  1  0
  6  7  1  0
  6 11  1  0
  7 10  1  0
  7  8  1  0
  7 22  1  0
  8  9  1  0
  8 23  1  0
  8 24  1  0
  9 10  1  0
  9 25  1  0
  9 26  1  0
 10 27  1  0
 10 28  1  0
 11 15  1  0
 11 12  2  0
 12 13  1  0
 13 14  2  0
 13 29  1  0
 14 15  1  0
M  END
>  <i_m_ct_stereo_status>  (65) 
1

>  <s_m_source_file>  (65) 
/var/tmp/pbs.5076255.sched01/tmp7hrp_b9g/014g_j70o.sdf

>  <i_m_source_file_index>  (65) 
30

>  <i_lp_mmshare_version>  (65) 
48012

>  <i_f3d_flags>  (65) 
0

>  <s_epik_input>  (65) 
bjFbY0hdbm4oYzEyKWMoW0NIMl1bQ0hdPVtDSDJdKVtjSF1uMltDSF0zW0NIMl1bQ0gyXVtDSDJdMw==

>  <s_epik_cmdline>  (65) 
J2VwaWtfcHl0aG9uJywgJy1waHQnLCAnMi4wJywgJy1waCcsICc3LjAnLCAnLXRuJywgJzgnLCAnLW1hJywgJzIwMCcsICctaW1hZScsICc8aW5maWxlLm1hZT4nLCAnLW9tYWUnLCAnPG91dGZpbGUubWFlPic=

>  <r_epik_Ionization_Penalty>  (65) 
0.00481324

>  <r_epik_Ionization_Penalty_Charging>  (65) 
0

>  <r_epik_Ionization_Penalty_Neutral>  (65) 
0.00481324

>  <r_epik_State_Penalty>  (65) 
0.00349002

>  <r_epik_Charging_Adjusted_Penalty>  (65) 
0.00349002

>  <i_epik_Tot_Q>  (65) 
0

>  <i_epik_Tot_abs_Q>  (65) 
0

>  <s_lp_Force_Field>  (65) 
OPLS3e

>  <r_lp_Energy>  (65) 
21.2953

>  <b_lp_Chiralities_Consistent>  (65) 
1

>  <s_lp_Variant>  (65) 
19:0-1

>  <s_i_glide_gridfile>  (65) 
pfpi4k_grid

>  <i_i_glide_lignum>  (65) 
30

>  <i_i_glide_rotatable_bonds>  (65) 
3

>  <r_i_docking_score>  (65) 
-3.33862

>  <r_i_glide_ligand_efficiency>  (65) 
-0.222574

>  <r_i_glide_ligand_efficiency_sa>  (65) 
-0.548916

>  <r_i_glide_ligand_efficiency_ln>  (65) 
-0.90037

>  <r_i_glide_gscore>  (65) 
-3.33862

>  <r_i_glide_lipo>  (65) 
-0.605152

>  <r_i_glide_hbond>  (65) 
-0.16

>  <r_i_glide_metal>  (65) 
-0

>  <r_i_glide_rewards>  (65) 
-2.29332

>  <r_i_glide_evdw>  (65) 
-18.7072

>  <r_i_glide_ecoul>  (65) 
-3.64723

>  <r_i_glide_erotb>  (65) 
1.2023

>  <r_i_glide_esite>  (65) 
0

>  <r_i_glide_emodel>  (65) 
-26.8621

>  <r_i_glide_energy>  (65) 
-22.3544

>  <r_i_glide_einternal>  (65) 
0.831358

>  <r_i_glide_intrahb_reward>  (65) 
-0

>  <i_i_glide_confnum>  (65) 
6

>  <i_i_glide_posenum>  (65) 
22

>  <r_i_glide_eff_state_penalty>  (65) 
0

>  <ligand_id>  (65) 
19

>  <original_smiles>  (65) 
C=CCc1cn(C2CCC2)c2ncnn12

>  <smiles>  (65) 
[H]C([H])=C([H])C([H])([H])c1c([H])n(C2([H])C([H])([H])C([H])([H])C2([H])[H])c2nc([H])nn12

$$$$
21:0:0
     RDKit          3D

 23 25  0  0  1  0  0  0  0  0999 V2000
   -1.7559    0.5450    6.8003 O   0  0  0  0  0  0  0  0  0  0  0  0
   -1.5528    1.3752    5.9150 C   0  0  0  0  0  0  0  0  0  0  0  0
   -2.1847    2.7749    5.8787 C   0  0  0  0  0  0  0  0  0  0  0  0
   -2.9828    3.2015    6.7125 O   0  0  0  0  0  0  0  0  0  0  0  0
   -1.7298    3.5313    4.6197 C   0  0  1  0  0  0  0  0  0  0  0  0
   -0.9527    4.5040    4.9866 O   0  0  0  0  0  0  0  0  0  0  0  0
   -0.8555    2.4753    4.0481 C   0  0  0  0  0  0  0  0  0  0  0  0
   -0.1009    2.4213    2.8821 N   0  0  0  0  0  0  0  0  0  0  0  0
    0.5302    1.1702    2.8252 C   0  0  0  0  0  0  0  0  0  0  0  0
    1.4107    0.6012    1.8929 C   0  0  0  0  0  0  0  0  0  0  0  0
    1.9116   -0.7015    2.0774 C   0  0  0  0  0  0  0  0  0  0  0  0
    1.5239   -1.4590    3.2095 C   0  0  0  0  0  0  0  0  0  0  0  0
    2.0470   -2.8259    3.3849 N   0  0  0  0  0  0  0  0  0  0  0  0
    2.8605   -3.2520    2.5767 O   0  0  0  0  0  0  0  0  0  0  0  0
    1.6282   -3.4793    4.3380 O   0  0  0  0  0  0  0  0  0  0  0  0
    0.6326   -0.8770    4.1421 C   0  0  0  0  0  0  0  0  0  0  0  0
    0.1173    0.4348    3.9885 C   0  0  0  0  0  0  0  0  0  0  0  0
   -0.7588    1.3163    4.7175 C   0  0  0  0  0  0  0  0  0  0  0  0
   -0.0162    3.1813    2.2131 H   0  0  0  0  0  0  0  0  0  0  0  0
   -2.6093    3.6258    3.9827 H   0  0  0  0  0  0  0  0  0  0  0  0
    1.6897    1.1578    1.0081 H   0  0  0  0  0  0  0  0  0  0  0  0
    2.5646   -1.1149    1.3272 H   0  0  0  0  0  0  0  0  0  0  0  0
    0.3375   -1.4464    5.0147 H   0  0  0  0  0  0  0  0  0  0  0  0
  1  2  2  0
  2 18  1  0
  2  3  1  0
  3  4  2  0
  3  5  1  0
  5  6  1  0
  5  7  1  0
  5 20  1  6
  7 18  2  0
  7  8  1  0
  8 19  1  0
  8  9  1  0
  9 17  2  0
  9 10  1  0
 10 11  2  0
 10 21  1  0
 11 12  1  0
 11 22  1  0
 12 13  1  0
 12 16  2  0
 13 14  2  0
 13 15  1  0
 16 17  1  0
 16 23  1  0
 17 18  1  0
M  CHG  3   6  -1  13   1  15  -1
M  END
>  <i_m_ct_stereo_status>  (66) 
1

>  <s_m_source_file>  (66) 
/var/tmp/pbs.5076255.sched01/tmp7hrp_b9g/014g_j70o.sdf

>  <i_m_source_file_index>  (66) 
32

>  <i_lp_mmshare_version>  (66) 
48012

>  <i_f3d_flags>  (66) 
0

>  <s_epik_input>  (66) 
W09IXVtDQEBIXTFDKD1PKUMoPU8pYyhjMTIpYzNjKFtuSF0yKVtjSF1bY0hdYyhbTitdKD1PKVtPLV0pW2NIXTM=

>  <s_epik_cmdline>  (66) 
J2VwaWtfcHl0aG9uJywgJy1waHQnLCAnMi4wJywgJy1waCcsICc3LjAnLCAnLXRuJywgJzgnLCAnLW1hJywgJzIwMCcsICctaW1hZScsICc8aW5maWxlLm1hZT4nLCAnLW9tYWUnLCAnPG91dGZpbGUubWFlPic=

>  <r_epik_Ionization_Penalty>  (66) 
0.0416751

>  <r_epik_Ionization_Penalty_Charging>  (66) 
0.0340838

>  <r_epik_Ionization_Penalty_Neutral>  (66) 
0.00759139

>  <r_epik_State_Penalty>  (66) 
0.0299293

>  <r_epik_Charging_Adjusted_Penalty>  (66) 
0.0640131

>  <i_epik_Tot_Q>  (66) 
-1

>  <i_epik_Tot_abs_Q>  (66) 
3

>  <s_lp_Force_Field>  (66) 
OPLS3e

>  <r_lp_Energy>  (66) 
21.2182

>  <b_lp_Chiralities_Consistent>  (66) 
1

>  <s_lp_Variant>  (66) 
21:0-1

>  <s_i_glide_gridfile>  (66) 
pfpi4k_grid

>  <i_i_glide_lignum>  (66) 
32

>  <i_i_glide_rotatable_bonds>  (66) 
1

>  <r_i_docking_score>  (66) 
-4.295

>  <r_i_glide_ligand_efficiency>  (66) 
-0.238611

>  <r_i_glide_ligand_efficiency_sa>  (66) 
-0.625338

>  <r_i_glide_ligand_efficiency_ln>  (66) 
-1.10401

>  <r_i_glide_gscore>  (66) 
-4.295

>  <r_i_glide_lipo>  (66) 
0

>  <r_i_glide_hbond>  (66) 
-0.32

>  <r_i_glide_metal>  (66) 
-0

>  <r_i_glide_rewards>  (66) 
-1.83572

>  <r_i_glide_evdw>  (66) 
-19.0548

>  <r_i_glide_ecoul>  (66) 
-7.05904

>  <r_i_glide_erotb>  (66) 
0

>  <r_i_glide_esite>  (66) 
-0.127686

>  <r_i_glide_emodel>  (66) 
-36.1132

>  <r_i_glide_energy>  (66) 
-26.1138

>  <r_i_glide_einternal>  (66) 
0.0180065

>  <r_i_glide_intrahb_reward>  (66) 
-0

>  <i_i_glide_confnum>  (66) 
2

>  <i_i_glide_posenum>  (66) 
36

>  <r_i_glide_eff_state_penalty>  (66) 
0

>  <ligand_id>  (66) 
21

>  <original_smiles>  (66) 
O=C1C(=O)C(O)c2[nH]c3ccc([N+](=O)[O-])cc3c21

>  <smiles>  (66) 
[H]c1c([N+](=O)[O-])c([H])c2c3c(n([H])c2c1[H])C([H])([O-])C(=O)C3=O

$$$$
21:0:1
     RDKit          3D

 23 25  0  0  1  0  0  0  0  0999 V2000
    8.0269   -1.9213   -0.5935 O   0  0  0  0  0  0  0  0  0  0  0  0
    7.2848   -2.8417   -0.2651 C   0  0  0  0  0  0  0  0  0  0  0  0
    7.6525   -3.9637    0.7328 C   0  0  0  0  0  0  0  0  0  0  0  0
    8.7612   -4.0884    1.2625 O   0  0  0  0  0  0  0  0  0  0  0  0
    6.4529   -4.9125    0.9111 C   0  0  1  0  0  0  0  0  0  0  0  0
    5.9339   -4.7336    2.1003 O   0  0  0  0  0  0  0  0  0  0  0  0
    5.5186   -4.2518   -0.0383 C   0  0  0  0  0  0  0  0  0  0  0  0
    4.2274   -4.5372   -0.4288 N   0  0  0  0  0  0  0  0  0  0  0  0
    3.8046   -3.5863   -1.3558 C   0  0  0  0  0  0  0  0  0  0  0  0
    2.6034   -3.4362   -2.0714 C   0  0  0  0  0  0  0  0  0  0  0  0
    2.4551   -2.3784   -2.9830 C   0  0  0  0  0  0  0  0  0  0  0  0
    3.4846   -1.4325   -3.1596 C   0  0  0  0  0  0  0  0  0  0  0  0
    3.3123   -0.2896   -4.0823 N   0  0  0  0  0  0  0  0  0  0  0  0
    4.2054    0.5260   -4.1788 O   0  0  0  0  0  0  0  0  0  0  0  0
    2.2820   -0.2024   -4.7320 O   0  0  0  0  0  0  0  0  0  0  0  0
    4.6868   -1.5987   -2.4302 C   0  0  0  0  0  0  0  0  0  0  0  0
    4.8910   -2.6742   -1.5307 C   0  0  0  0  0  0  0  0  0  0  0  0
    5.9471   -3.1433   -0.6772 C   0  0  0  0  0  0  0  0  0  0  0  0
    3.7145   -5.3458   -0.1121 H   0  0  0  0  0  0  0  0  0  0  0  0
    6.7608   -5.8742    0.5000 H   0  0  0  0  0  0  0  0  0  0  0  0
    1.8003   -4.1439   -1.9466 H   0  0  0  0  0  0  0  0  0  0  0  0
    1.5188   -2.2765   -3.5134 H   0  0  0  0  0  0  0  0  0  0  0  0
    5.4729   -0.8790   -2.5584 H   0  0  0  0  0  0  0  0  0  0  0  0
  1  2  2  0
  2 18  1  0
  2  3  1  0
  3  4  2  0
  3  5  1  0
  5  6  1  0
  5  7  1  0
  5 20  1  6
  7 18  2  0
  7  8  1  0
  8 19  1  0
  8  9  1  0
  9 17  2  0
  9 10  1  0
 10 11  2  0
 10 21  1  0
 11 12  1  0
 11 22  1  0
 12 13  1  0
 12 16  2  0
 13 14  2  0
 13 15  1  0
 16 17  1  0
 16 23  1  0
 17 18  1  0
M  CHG  3   6  -1  13   1  15  -1
M  END
>  <i_m_ct_stereo_status>  (67) 
1

>  <s_m_source_file>  (67) 
/var/tmp/pbs.5076255.sched01/tmp7hrp_b9g/014g_j70o.sdf

>  <i_m_source_file_index>  (67) 
32

>  <i_lp_mmshare_version>  (67) 
48012

>  <i_f3d_flags>  (67) 
0

>  <s_epik_input>  (67) 
W09IXVtDQEBIXTFDKD1PKUMoPU8pYyhjMTIpYzNjKFtuSF0yKVtjSF1bY0hdYyhbTitdKD1PKVtPLV0pW2NIXTM=

>  <s_epik_cmdline>  (67) 
J2VwaWtfcHl0aG9uJywgJy1waHQnLCAnMi4wJywgJy1waCcsICc3LjAnLCAnLXRuJywgJzgnLCAnLW1hJywgJzIwMCcsICctaW1hZScsICc8aW5maWxlLm1hZT4nLCAnLW9tYWUnLCAnPG91dGZpbGUubWFlPic=

>  <r_epik_Ionization_Penalty>  (67) 
0.0416751

>  <r_epik_Ionization_Penalty_Charging>  (67) 
0.0340838

>  <r_epik_Ionization_Penalty_Neutral>  (67) 
0.00759139

>  <r_epik_State_Penalty>  (67) 
0.0299293

>  <r_epik_Charging_Adjusted_Penalty>  (67) 
0.0640131

>  <i_epik_Tot_Q>  (67) 
-1

>  <i_epik_Tot_abs_Q>  (67) 
3

>  <s_lp_Force_Field>  (67) 
OPLS3e

>  <r_lp_Energy>  (67) 
21.2182

>  <b_lp_Chiralities_Consistent>  (67) 
1

>  <s_lp_Variant>  (67) 
21:0-1

>  <s_i_glide_gridfile>  (67) 
pfpi4k_grid

>  <i_i_glide_lignum>  (67) 
32

>  <i_i_glide_rotatable_bonds>  (67) 
1

>  <r_i_docking_score>  (67) 
-4.17478

>  <r_i_glide_ligand_efficiency>  (67) 
-0.231932

>  <r_i_glide_ligand_efficiency_sa>  (67) 
-0.607835

>  <r_i_glide_ligand_efficiency_ln>  (67) 
-1.07311

>  <r_i_glide_gscore>  (67) 
-4.17478

>  <r_i_glide_lipo>  (67) 
-0.368972

>  <r_i_glide_hbond>  (67) 
-0.14452

>  <r_i_glide_metal>  (67) 
-0

>  <r_i_glide_rewards>  (67) 
-2.38608

>  <r_i_glide_evdw>  (67) 
-20.6604

>  <r_i_glide_ecoul>  (67) 
-1.45319

>  <r_i_glide_erotb>  (67) 
0

>  <r_i_glide_esite>  (67) 
-0.0242057

>  <r_i_glide_emodel>  (67) 
-31.8518

>  <r_i_glide_energy>  (67) 
-22.1136

>  <r_i_glide_einternal>  (67) 
0.00820865

>  <r_i_glide_intrahb_reward>  (67) 
-0

>  <i_i_glide_confnum>  (67) 
2

>  <i_i_glide_posenum>  (67) 
5

>  <r_i_glide_eff_state_penalty>  (67) 
0

>  <ligand_id>  (67) 
21

>  <original_smiles>  (67) 
O=C1C(=O)C(O)c2[nH]c3ccc([N+](=O)[O-])cc3c21

>  <smiles>  (67) 
[H]c1c([N+](=O)[O-])c([H])c2c3c(n([H])c2c1[H])C([H])([O-])C(=O)C3=O

$$$$
21:0:2
     RDKit          3D

 23 25  0  0  1  0  0  0  0  0999 V2000
    4.1879    0.8532    5.1855 O   0  0  0  0  0  0  0  0  0  0  0  0
    3.7804    0.4403    4.0980 C   0  0  0  0  0  0  0  0  0  0  0  0
    4.6097   -0.3653    3.0663 C   0  0  0  0  0  0  0  0  0  0  0  0
    5.7982   -0.6604    3.2058 O   0  0  0  0  0  0  0  0  0  0  0  0
    3.7568   -0.6933    1.8279 C   0  0  1  0  0  0  0  0  0  0  0  0
    3.5000   -1.9776    1.8337 O   0  0  0  0  0  0  0  0  0  0  0  0
    2.5019   -0.0365    2.2750 C   0  0  0  0  0  0  0  0  0  0  0  0
    1.2571    0.1012    1.6801 N   0  0  0  0  0  0  0  0  0  0  0  0
    0.4197    0.8326    2.5293 C   0  0  0  0  0  0  0  0  0  0  0  0
   -0.9200    1.2448    2.4060 C   0  0  0  0  0  0  0  0  0  0  0  0
   -1.5354    1.9702    3.4428 C   0  0  0  0  0  0  0  0  0  0  0  0
   -0.8117    2.2850    4.6149 C   0  0  0  0  0  0  0  0  0  0  0  0
   -1.4602    3.0355    5.7052 N   0  0  0  0  0  0  0  0  0  0  0  0
   -0.7965    3.3201    6.6956 O   0  0  0  0  0  0  0  0  0  0  0  0
   -2.6401    3.3427    5.5760 O   0  0  0  0  0  0  0  0  0  0  0  0
    0.5421    1.8685    4.7229 C   0  0  0  0  0  0  0  0  0  0  0  0
    1.1915    1.1382    3.6932 C   0  0  0  0  0  0  0  0  0  0  0  0
    2.4994    0.5756    3.4758 C   0  0  0  0  0  0  0  0  0  0  0  0
    1.0399   -0.2577    0.7458 H   0  0  0  0  0  0  0  0  0  0  0  0
    4.1738   -0.1249    1.0002 H   0  0  0  0  0  0  0  0  0  0  0  0
   -1.4746    1.0087    1.5136 H   0  0  0  0  0  0  0  0  0  0  0  0
   -2.5691    2.2682    3.3307 H   0  0  0  0  0  0  0  0  0  0  0  0
    1.1076    2.1044    5.6137 H   0  0  0  0  0  0  0  0  0  0  0  0
  1  2  2  0
  2 18  1  0
  2  3  1  0
  3  4  2  0
  3  5  1  0
  5  6  1  0
  5  7  1  0
  5 20  1  6
  7 18  2  0
  7  8  1  0
  8 19  1  0
  8  9  1  0
  9 17  2  0
  9 10  1  0
 10 11  2  0
 10 21  1  0
 11 12  1  0
 11 22  1  0
 12 13  1  0
 12 16  2  0
 13 14  2  0
 13 15  1  0
 16 17  1  0
 16 23  1  0
 17 18  1  0
M  CHG  3   6  -1  13   1  15  -1
M  END
>  <i_m_ct_stereo_status>  (68) 
1

>  <s_m_source_file>  (68) 
/var/tmp/pbs.5076255.sched01/tmp7hrp_b9g/014g_j70o.sdf

>  <i_m_source_file_index>  (68) 
32

>  <i_lp_mmshare_version>  (68) 
48012

>  <i_f3d_flags>  (68) 
0

>  <s_epik_input>  (68) 
W09IXVtDQEBIXTFDKD1PKUMoPU8pYyhjMTIpYzNjKFtuSF0yKVtjSF1bY0hdYyhbTitdKD1PKVtPLV0pW2NIXTM=

>  <s_epik_cmdline>  (68) 
J2VwaWtfcHl0aG9uJywgJy1waHQnLCAnMi4wJywgJy1waCcsICc3LjAnLCAnLXRuJywgJzgnLCAnLW1hJywgJzIwMCcsICctaW1hZScsICc8aW5maWxlLm1hZT4nLCAnLW9tYWUnLCAnPG91dGZpbGUubWFlPic=

>  <r_epik_Ionization_Penalty>  (68) 
0.0416751

>  <r_epik_Ionization_Penalty_Charging>  (68) 
0.0340838

>  <r_epik_Ionization_Penalty_Neutral>  (68) 
0.00759139

>  <r_epik_State_Penalty>  (68) 
0.0299293

>  <r_epik_Charging_Adjusted_Penalty>  (68) 
0.0640131

>  <i_epik_Tot_Q>  (68) 
-1

>  <i_epik_Tot_abs_Q>  (68) 
3

>  <s_lp_Force_Field>  (68) 
OPLS3e

>  <r_lp_Energy>  (68) 
21.2182

>  <b_lp_Chiralities_Consistent>  (68) 
1

>  <s_lp_Variant>  (68) 
21:0-1

>  <s_i_glide_gridfile>  (68) 
pfpi4k_grid

>  <i_i_glide_lignum>  (68) 
32

>  <i_i_glide_rotatable_bonds>  (68) 
1

>  <r_i_docking_score>  (68) 
-3.64162

>  <r_i_glide_ligand_efficiency>  (68) 
-0.202312

>  <r_i_glide_ligand_efficiency_sa>  (68) 
-0.530208

>  <r_i_glide_ligand_efficiency_ln>  (68) 
-0.936059

>  <r_i_glide_gscore>  (68) 
-3.64162

>  <r_i_glide_lipo>  (68) 
-0.00709348

>  <r_i_glide_hbond>  (68) 
-0.16

>  <r_i_glide_metal>  (68) 
-0

>  <r_i_glide_rewards>  (68) 
-1.87615

>  <r_i_glide_evdw>  (68) 
-20.1559

>  <r_i_glide_ecoul>  (68) 
-3.23917

>  <r_i_glide_erotb>  (68) 
0

>  <r_i_glide_esite>  (68) 
-0.104705

>  <r_i_glide_emodel>  (68) 
-31.8872

>  <r_i_glide_energy>  (68) 
-23.395

>  <r_i_glide_einternal>  (68) 
0.00155588

>  <r_i_glide_intrahb_reward>  (68) 
-0

>  <i_i_glide_confnum>  (68) 
1

>  <i_i_glide_posenum>  (68) 
22

>  <r_i_glide_eff_state_penalty>  (68) 
0

>  <ligand_id>  (68) 
21

>  <original_smiles>  (68) 
O=C1C(=O)C(O)c2[nH]c3ccc([N+](=O)[O-])cc3c21

>  <smiles>  (68) 
[H]c1c([N+](=O)[O-])c([H])c2c3c(n([H])c2c1[H])C([H])([O-])C(=O)C3=O

$$$$
21:1:0
     RDKit          3D

 22 24  0  0  1  0  0  0  0  0999 V2000
    3.7391   -7.7596    3.0820 O   0  0  0  0  0  0  0  0  0  0  0  0
    2.7033   -7.4313    2.4959 C   0  0  0  0  0  0  0  0  0  0  0  0
    1.2931   -8.0367    2.7147 C   0  0  0  0  0  0  0  0  0  0  0  0
    1.0107   -8.9539    3.4833 O   0  0  0  0  0  0  0  0  0  0  0  0
    0.2642   -7.3449    1.8035 C   0  0  1  0  0  0  0  0  0  0  0  0
   -0.5878   -6.6569    2.5393 O   0  0  0  0  0  0  0  0  0  0  0  0
    1.1634   -6.4107    0.9994 C   0  0  0  0  0  0  0  0  0  0  0  0
    1.0974   -5.5038   -0.0154 N   0  0  0  0  0  0  0  0  0  0  0  0
    2.2842   -4.9047   -0.1372 C   0  0  0  0  0  0  0  0  0  0  0  0
    2.6200   -3.8461   -0.9968 C   0  0  0  0  0  0  0  0  0  0  0  0
    3.9497   -3.3987   -1.0483 C   0  0  0  0  0  0  0  0  0  0  0  0
    4.9525   -3.9787   -0.2176 C   0  0  0  0  0  0  0  0  0  0  0  0
    6.3400   -3.4768   -0.3202 N   0  0  0  0  0  0  0  0  0  0  0  0
    7.2172   -4.0670    0.3019 O   0  0  0  0  0  0  0  0  0  0  0  0
    6.5603   -2.4917   -1.0238 O   0  0  0  0  0  0  0  0  0  0  0  0
    4.5930   -5.0265    0.6940 C   0  0  0  0  0  0  0  0  0  0  0  0
    3.2460   -5.4605    0.7094 C   0  0  0  0  0  0  0  0  0  0  0  0
    2.5113   -6.4334    1.4395 C   0  0  0  0  0  0  0  0  0  0  0  0
   -0.0065   -8.0883    1.0455 H   0  0  0  0  0  0  0  0  0  0  0  0
    1.8560   -3.4277   -1.6322 H   0  0  0  0  0  0  0  0  0  0  0  0
    4.1939   -2.6112   -1.7639 H   0  0  0  0  0  0  0  0  0  0  0  0
    5.3419   -5.4796    1.3380 H   0  0  0  0  0  0  0  0  0  0  0  0
  1  2  2  0
  2 18  1  0
  2  3  1  0
  3  4  2  0
  3  5  1  0
  5  6  1  0
  5  7  1  0
  5 19  1  6
  7 18  2  0
  7  8  1  0
  8  9  1  0
  9 17  2  0
  9 10  1  0
 10 11  2  0
 10 20  1  0
 11 12  1  0
 11 21  1  0
 12 13  1  0
 12 16  2  0
 13 14  2  0
 13 15  1  0
 16 17  1  0
 16 22  1  0
 17 18  1  0
M  CHG  4   6  -1   8  -1  13   1  15  -1
M  END
>  <i_m_ct_stereo_status>  (69) 
1

>  <s_m_source_file>  (69) 
/var/tmp/pbs.5076255.sched01/tmp7hrp_b9g/014g_j70o.sdf

>  <i_m_source_file_index>  (69) 
33

>  <i_lp_mmshare_version>  (69) 
48012

>  <i_f3d_flags>  (69) 
0

>  <s_epik_input>  (69) 
W09IXVtDQEBIXTFDKD1PKUMoPU8pYyhjMTIpYzNjKFtuSF0yKVtjSF1bY0hdYyhbTitdKD1PKVtPLV0pW2NIXTM=

>  <s_epik_cmdline>  (69) 
J2VwaWtfcHl0aG9uJywgJy1waHQnLCAnMi4wJywgJy1waCcsICc3LjAnLCAnLXRuJywgJzgnLCAnLW1hJywgJzIwMCcsICctaW1hZScsICc8aW5maWxlLm1hZT4nLCAnLW9tYWUnLCAnPG91dGZpbGUubWFlPic=

>  <r_epik_Ionization_Penalty>  (69) 
2.64155

>  <r_epik_Ionization_Penalty_Charging>  (69) 
2.64155

>  <r_epik_Ionization_Penalty_Neutral>  (69) 
0

>  <r_epik_State_Penalty>  (69) 
2.14753

>  <r_epik_Charging_Adjusted_Penalty>  (69) 
4.78908

>  <i_epik_Tot_Q>  (69) 
-2

>  <i_epik_Tot_abs_Q>  (69) 
4

>  <s_lp_Force_Field>  (69) 
OPLS3e

>  <r_lp_Energy>  (69) 
30.8728

>  <b_lp_Chiralities_Consistent>  (69) 
1

>  <s_lp_Variant>  (69) 
21:0-2

>  <s_i_glide_gridfile>  (69) 
pfpi4k_grid

>  <i_i_glide_lignum>  (69) 
33

>  <i_i_glide_rotatable_bonds>  (69) 
1

>  <r_i_docking_score>  (69) 
-4.85776

>  <r_i_glide_ligand_efficiency>  (69) 
-0.269875

>  <r_i_glide_ligand_efficiency_sa>  (69) 
-0.707274

>  <r_i_glide_ligand_efficiency_ln>  (69) 
-1.24866

>  <r_i_glide_gscore>  (69) 
-4.85776

>  <r_i_glide_lipo>  (69) 
-0.105834

>  <r_i_glide_hbond>  (69) 
-0.415804

>  <r_i_glide_metal>  (69) 
-0

>  <r_i_glide_rewards>  (69) 
-1.87273

>  <r_i_glide_evdw>  (69) 
-14.3345

>  <r_i_glide_ecoul>  (69) 
-11.2292

>  <r_i_glide_erotb>  (69) 
0

>  <r_i_glide_esite>  (69) 
-0.0622779

>  <r_i_glide_emodel>  (69) 
-41.6223

>  <r_i_glide_energy>  (69) 
-25.5638

>  <r_i_glide_einternal>  (69) 
0.0425608

>  <r_i_glide_intrahb_reward>  (69) 
-0

>  <i_i_glide_confnum>  (69) 
1

>  <i_i_glide_posenum>  (69) 
4

>  <r_i_glide_eff_state_penalty>  (69) 
0

>  <ligand_id>  (69) 
21

>  <original_smiles>  (69) 
O=C1C(=O)C(O)c2[nH]c3ccc([N+](=O)[O-])cc3c21

>  <smiles>  (69) 
[H]c1c([N+](=O)[O-])c([H])c2c3c([n-]c2c1[H])C([H])([O-])C(=O)C3=O

$$$$
21:1:1
     RDKit          3D

 22 24  0  0  1  0  0  0  0  0999 V2000
    3.8064   -6.7389    3.6419 O   0  0  0  0  0  0  0  0  0  0  0  0
    2.8140   -6.7301    2.9141 C   0  0  0  0  0  0  0  0  0  0  0  0
    1.5279   -7.5682    3.1223 C   0  0  0  0  0  0  0  0  0  0  0  0
    1.3464   -8.3878    4.0254 O   0  0  0  0  0  0  0  0  0  0  0  0
    0.5078   -7.2636    2.0124 C   0  0  1  0  0  0  0  0  0  0  0  0
   -0.5429   -6.6553    2.5238 O   0  0  0  0  0  0  0  0  0  0  0  0
    1.2885   -6.3001    1.1488 C   0  0  0  0  0  0  0  0  0  0  0  0
    1.1562   -5.5852    0.0064 N   0  0  0  0  0  0  0  0  0  0  0  0
    2.2338   -4.7944   -0.1416 C   0  0  0  0  0  0  0  0  0  0  0  0
    2.4691   -3.8488   -1.1327 C   0  0  0  0  0  0  0  0  0  0  0  0
    3.6904   -3.1418   -1.1595 C   0  0  0  0  0  0  0  0  0  0  0  0
    4.6742   -3.3572   -0.1556 C   0  0  0  0  0  0  0  0  0  0  0  0
    5.9487   -2.6040   -0.2162 N   0  0  0  0  0  0  0  0  0  0  0  0
    6.1573   -1.8757   -1.1898 O   0  0  0  0  0  0  0  0  0  0  0  0
    6.7461   -2.7256    0.7025 O   0  0  0  0  0  0  0  0  0  0  0  0
    4.4108   -4.3009    0.8921 C   0  0  0  0  0  0  0  0  0  0  0  0
    3.1810   -4.9988    0.8623 C   0  0  0  0  0  0  0  0  0  0  0  0
    2.5681   -5.9757    1.6919 C   0  0  0  0  0  0  0  0  0  0  0  0
    0.4667   -8.1566    1.3924 H   0  0  0  0  0  0  0  0  0  0  0  0
    1.7312   -3.6895   -1.9022 H   0  0  0  0  0  0  0  0  0  0  0  0
    3.8658   -2.4461   -1.9682 H   0  0  0  0  0  0  0  0  0  0  0  0
    5.1443   -4.4798    1.6650 H   0  0  0  0  0  0  0  0  0  0  0  0
  1  2  2  0
  2 18  1  0
  2  3  1  0
  3  4  2  0
  3  5  1  0
  5  6  1  0
  5  7  1  0
  5 19  1  6
  7 18  2  0
  7  8  1  0
  8  9  1  0
  9 17  2  0
  9 10  1  0
 10 11  2  0
 10 20  1  0
 11 12  1  0
 11 21  1  0
 12 13  1  0
 12 16  2  0
 13 14  2  0
 13 15  1  0
 16 17  1  0
 16 22  1  0
 17 18  1  0
M  CHG  4   6  -1   8  -1  13   1  15  -1
M  END
>  <i_m_ct_stereo_status>  (70) 
1

>  <s_m_source_file>  (70) 
/var/tmp/pbs.5076255.sched01/tmp7hrp_b9g/014g_j70o.sdf

>  <i_m_source_file_index>  (70) 
33

>  <i_lp_mmshare_version>  (70) 
48012

>  <i_f3d_flags>  (70) 
0

>  <s_epik_input>  (70) 
W09IXVtDQEBIXTFDKD1PKUMoPU8pYyhjMTIpYzNjKFtuSF0yKVtjSF1bY0hdYyhbTitdKD1PKVtPLV0pW2NIXTM=

>  <s_epik_cmdline>  (70) 
J2VwaWtfcHl0aG9uJywgJy1waHQnLCAnMi4wJywgJy1waCcsICc3LjAnLCAnLXRuJywgJzgnLCAnLW1hJywgJzIwMCcsICctaW1hZScsICc8aW5maWxlLm1hZT4nLCAnLW9tYWUnLCAnPG91dGZpbGUubWFlPic=

>  <r_epik_Ionization_Penalty>  (70) 
2.64155

>  <r_epik_Ionization_Penalty_Charging>  (70) 
2.64155

>  <r_epik_Ionization_Penalty_Neutral>  (70) 
0

>  <r_epik_State_Penalty>  (70) 
2.14753

>  <r_epik_Charging_Adjusted_Penalty>  (70) 
4.78908

>  <i_epik_Tot_Q>  (70) 
-2

>  <i_epik_Tot_abs_Q>  (70) 
4

>  <s_lp_Force_Field>  (70) 
OPLS3e

>  <r_lp_Energy>  (70) 
30.8728

>  <b_lp_Chiralities_Consistent>  (70) 
1

>  <s_lp_Variant>  (70) 
21:0-2

>  <s_i_glide_gridfile>  (70) 
pfpi4k_grid

>  <i_i_glide_lignum>  (70) 
33

>  <i_i_glide_rotatable_bonds>  (70) 
1

>  <r_i_docking_score>  (70) 
-4.67134

>  <r_i_glide_ligand_efficiency>  (70) 
-0.259519

>  <r_i_glide_ligand_efficiency_sa>  (70) 
-0.680133

>  <r_i_glide_ligand_efficiency_ln>  (70) 
-1.20075

>  <r_i_glide_gscore>  (70) 
-4.67134

>  <r_i_glide_lipo>  (70) 
-0.0682374

>  <r_i_glide_hbond>  (70) 
-0.427265

>  <r_i_glide_metal>  (70) 
-0

>  <r_i_glide_rewards>  (70) 
-1.74676

>  <r_i_glide_evdw>  (70) 
-14.6771

>  <r_i_glide_ecoul>  (70) 
-10.7625

>  <r_i_glide_erotb>  (70) 
0

>  <r_i_glide_esite>  (70) 
-0.080848

>  <r_i_glide_emodel>  (70) 
-40.9656

>  <r_i_glide_energy>  (70) 
-25.4396

>  <r_i_glide_einternal>  (70) 
0.0195954

>  <r_i_glide_intrahb_reward>  (70) 
-0

>  <i_i_glide_confnum>  (70) 
2

>  <i_i_glide_posenum>  (70) 
13

>  <r_i_glide_eff_state_penalty>  (70) 
0

>  <ligand_id>  (70) 
21

>  <original_smiles>  (70) 
O=C1C(=O)C(O)c2[nH]c3ccc([N+](=O)[O-])cc3c21

>  <smiles>  (70) 
[H]c1c([N+](=O)[O-])c([H])c2c3c([n-]c2c1[H])C([H])([O-])C(=O)C3=O

$$$$
21:1:2
     RDKit          3D

 22 24  0  0  1  0  0  0  0  0999 V2000
    2.1154   -1.3034    4.1648 O   0  0  0  0  0  0  0  0  0  0  0  0
    1.1291   -1.4817    4.8775 C   0  0  0  0  0  0  0  0  0  0  0  0
    0.7233   -2.8200    5.5327 C   0  0  0  0  0  0  0  0  0  0  0  0
    1.2926   -3.9023    5.3913 O   0  0  0  0  0  0  0  0  0  0  0  0
   -0.5693   -2.6386    6.3484 C   0  0  1  0  0  0  0  0  0  0  0  0
   -0.2991   -2.8401    7.6168 O   0  0  0  0  0  0  0  0  0  0  0  0
   -0.8822   -1.1754    6.1189 C   0  0  0  0  0  0  0  0  0  0  0  0
   -1.7846   -0.2037    6.4561 N   0  0  0  0  0  0  0  0  0  0  0  0
   -1.4235    0.9615    5.8917 C   0  0  0  0  0  0  0  0  0  0  0  0
   -2.0694    2.1829    5.9981 C   0  0  0  0  0  0  0  0  0  0  0  0
   -1.5314    3.3012    5.3286 C   0  0  0  0  0  0  0  0  0  0  0  0
   -0.3297    3.1902    4.5697 C   0  0  0  0  0  0  0  0  0  0  0  0
    0.2076    4.3959    3.9064 N   0  0  0  0  0  0  0  0  0  0  0  0
    1.4040    4.4330    3.6495 O   0  0  0  0  0  0  0  0  0  0  0  0
   -0.5746    5.3225    3.7088 O   0  0  0  0  0  0  0  0  0  0  0  0
    0.3361    1.9275    4.4789 C   0  0  0  0  0  0  0  0  0  0  0  0
   -0.2521    0.8343    5.1457 C   0  0  0  0  0  0  0  0  0  0  0  0
    0.0957   -0.5383    5.2858 C   0  0  0  0  0  0  0  0  0  0  0  0
   -1.3329   -3.1438    5.7931 H   0  0  0  0  0  0  0  0  0  0  0  0
   -2.9771    2.2616    6.5773 H   0  0  0  0  0  0  0  0  0  0  0  0
   -2.0410    4.2425    5.4134 H   0  0  0  0  0  0  0  0  0  0  0  0
    1.2524    1.8329    3.9097 H   0  0  0  0  0  0  0  0  0  0  0  0
  1  2  2  0
  2 18  1  0
  2  3  1  0
  3  4  2  0
  3  5  1  0
  5  6  1  0
  5  7  1  0
  5 19  1  6
  7 18  2  0
  7  8  1  0
  8  9  1  0
  9 17  2  0
  9 10  1  0
 10 11  2  0
 10 20  1  0
 11 12  1  0
 11 21  1  0
 12 13  1  0
 12 16  2  0
 13 14  2  0
 13 15  1  0
 16 17  1  0
 16 22  1  0
 17 18  1  0
M  CHG  4   6  -1   8  -1  13   1  15  -1
M  END
>  <i_m_ct_stereo_status>  (71) 
1

>  <s_m_source_file>  (71) 
/var/tmp/pbs.5076255.sched01/tmp7hrp_b9g/014g_j70o.sdf

>  <i_m_source_file_index>  (71) 
33

>  <i_lp_mmshare_version>  (71) 
48012

>  <i_f3d_flags>  (71) 
0

>  <s_epik_input>  (71) 
W09IXVtDQEBIXTFDKD1PKUMoPU8pYyhjMTIpYzNjKFtuSF0yKVtjSF1bY0hdYyhbTitdKD1PKVtPLV0pW2NIXTM=

>  <s_epik_cmdline>  (71) 
J2VwaWtfcHl0aG9uJywgJy1waHQnLCAnMi4wJywgJy1waCcsICc3LjAnLCAnLXRuJywgJzgnLCAnLW1hJywgJzIwMCcsICctaW1hZScsICc8aW5maWxlLm1hZT4nLCAnLW9tYWUnLCAnPG91dGZpbGUubWFlPic=

>  <r_epik_Ionization_Penalty>  (71) 
2.64155

>  <r_epik_Ionization_Penalty_Charging>  (71) 
2.64155

>  <r_epik_Ionization_Penalty_Neutral>  (71) 
0

>  <r_epik_State_Penalty>  (71) 
2.14753

>  <r_epik_Charging_Adjusted_Penalty>  (71) 
4.78908

>  <i_epik_Tot_Q>  (71) 
-2

>  <i_epik_Tot_abs_Q>  (71) 
4

>  <s_lp_Force_Field>  (71) 
OPLS3e

>  <r_lp_Energy>  (71) 
30.8728

>  <b_lp_Chiralities_Consistent>  (71) 
1

>  <s_lp_Variant>  (71) 
21:0-2

>  <s_i_glide_gridfile>  (71) 
pfpi4k_grid

>  <i_i_glide_lignum>  (71) 
33

>  <i_i_glide_rotatable_bonds>  (71) 
1

>  <r_i_docking_score>  (71) 
-4.46889

>  <r_i_glide_ligand_efficiency>  (71) 
-0.248271

>  <r_i_glide_ligand_efficiency_sa>  (71) 
-0.650655

>  <r_i_glide_ligand_efficiency_ln>  (71) 
-1.1487

>  <r_i_glide_gscore>  (71) 
-4.46889

>  <r_i_glide_lipo>  (71) 
-0.0104295

>  <r_i_glide_hbond>  (71) 
-0.242787

>  <r_i_glide_metal>  (71) 
-0

>  <r_i_glide_rewards>  (71) 
-1.74436

>  <r_i_glide_evdw>  (71) 
-12.3463

>  <r_i_glide_ecoul>  (71) 
-10.5998

>  <r_i_glide_erotb>  (71) 
0

>  <r_i_glide_esite>  (71) 
-0.264017

>  <r_i_glide_emodel>  (71) 
-37.6346

>  <r_i_glide_energy>  (71) 
-22.9461

>  <r_i_glide_einternal>  (71) 
0.393097

>  <r_i_glide_intrahb_reward>  (71) 
-0

>  <i_i_glide_confnum>  (71) 
1

>  <i_i_glide_posenum>  (71) 
34

>  <r_i_glide_eff_state_penalty>  (71) 
0

>  <ligand_id>  (71) 
21

>  <original_smiles>  (71) 
O=C1C(=O)C(O)c2[nH]c3ccc([N+](=O)[O-])cc3c21

>  <smiles>  (71) 
[H]c1c([N+](=O)[O-])c([H])c2c3c([n-]c2c1[H])C([H])([O-])C(=O)C3=O

$$$$
21:2:0
     RDKit          3D

 24 26  0  0  1  0  0  0  0  0999 V2000
    3.4769    0.0558    5.1923 O   0  0  0  0  0  0  0  0  0  0  0  0
    3.0308    0.1417    4.0449 C   0  0  0  0  0  0  0  0  0  0  0  0
    3.7784   -0.2870    2.7631 C   0  0  0  0  0  0  0  0  0  0  0  0
    4.9118   -0.7700    2.7224 O   0  0  0  0  0  0  0  0  0  0  0  0
    2.8898   -0.0282    1.5366 C   0  0  1  0  0  0  0  0  0  0  0  0
    2.6139   -1.2408    0.8801 O   0  0  0  0  0  0  0  0  0  0  0  0
    1.6985    0.5259    2.2170 C   0  0  0  0  0  0  0  0  0  0  0  0
    0.4713    0.9629    1.7527 N   0  0  0  0  0  0  0  0  0  0  0  0
   -0.2878    1.3779    2.8402 C   0  0  0  0  0  0  0  0  0  0  0  0
   -1.5822    1.9146    2.9400 C   0  0  0  0  0  0  0  0  0  0  0  0
   -2.1226    2.2447    4.1939 C   0  0  0  0  0  0  0  0  0  0  0  0
   -1.3660    2.0296    5.3659 C   0  0  0  0  0  0  0  0  0  0  0  0
   -1.9350    2.3705    6.6781 N   0  0  0  0  0  0  0  0  0  0  0  0
   -2.7841    3.2533    6.7232 O   0  0  0  0  0  0  0  0  0  0  0  0
   -1.5455    1.7392    7.6573 O   0  0  0  0  0  0  0  0  0  0  0  0
   -0.0633    1.4836    5.2648 C   0  0  0  0  0  0  0  0  0  0  0  0
    0.5100    1.1535    4.0120 C   0  0  0  0  0  0  0  0  0  0  0  0
    1.7589    0.6180    3.5620 C   0  0  0  0  0  0  0  0  0  0  0  0
    0.1824    0.9663    0.7746 H   0  0  0  0  0  0  0  0  0  0  0  0
    3.3533    0.7057    0.8761 H   0  0  0  0  0  0  0  0  0  0  0  0
    1.9530   -1.0565    0.1974 H   0  0  0  0  0  0  0  0  0  0  0  0
   -2.1832    2.0527    2.0590 H   0  0  0  0  0  0  0  0  0  0  0  0
   -3.1301    2.6361    4.2519 H   0  0  0  0  0  0  0  0  0  0  0  0
    0.5263    1.3319    6.1569 H   0  0  0  0  0  0  0  0  0  0  0  0
  1  2  2  0
  2 18  1  0
  2  3  1  0
  3  4  2  0
  3  5  1  0
  5  6  1  0
  5  7  1  0
  5 20  1  6
  6 21  1  0
  7 18  2  0
  7  8  1  0
  8 19  1  0
  8  9  1  0
  9 17  2  0
  9 10  1  0
 10 11  2  0
 10 22  1  0
 11 12  1  0
 11 23  1  0
 12 13  1  0
 12 16  2  0
 13 14  2  0
 13 15  1  0
 16 17  1  0
 16 24  1  0
 17 18  1  0
M  CHG  2  13   1  15  -1
M  END
>  <i_m_ct_stereo_status>  (72) 
1

>  <s_m_source_file>  (72) 
/var/tmp/pbs.5076255.sched01/tmp7hrp_b9g/014g_j70o.sdf

>  <i_m_source_file_index>  (72) 
34

>  <i_lp_mmshare_version>  (72) 
48012

>  <i_f3d_flags>  (72) 
0

>  <s_epik_input>  (72) 
W09IXVtDQEBIXTFDKD1PKUMoPU8pYyhjMTIpYzNjKFtuSF0yKVtjSF1bY0hdYyhbTitdKD1PKVtPLV0pW2NIXTM=

>  <s_epik_cmdline>  (72) 
J2VwaWtfcHl0aG9uJywgJy1waHQnLCAnMi4wJywgJy1waCcsICc3LjAnLCAnLXRuJywgJzgnLCAnLW1hJywgJzIwMCcsICctaW1hZScsICc8aW5maWxlLm1hZT4nLCAnLW9tYWUnLCAnPG91dGZpbGUubWFlPic=

>  <r_epik_Ionization_Penalty>  (72) 
2.17277

>  <r_epik_Ionization_Penalty_Charging>  (72) 
0

>  <r_epik_Ionization_Penalty_Neutral>  (72) 
2.17277

>  <r_epik_State_Penalty>  (72) 
2.45017

>  <r_epik_Charging_Adjusted_Penalty>  (72) 
2.45017

>  <i_epik_Tot_Q>  (72) 
0

>  <i_epik_Tot_abs_Q>  (72) 
2

>  <s_lp_Force_Field>  (72) 
OPLS3e

>  <r_lp_Energy>  (72) 
18.8999

>  <b_lp_Chiralities_Consistent>  (72) 
1

>  <s_lp_Variant>  (72) 
21:0-3

>  <s_i_glide_gridfile>  (72) 
pfpi4k_grid

>  <i_i_glide_lignum>  (72) 
34

>  <i_i_glide_rotatable_bonds>  (72) 
2

>  <r_i_docking_score>  (72) 
-4.14103

>  <r_i_glide_ligand_efficiency>  (72) 
-0.230057

>  <r_i_glide_ligand_efficiency_sa>  (72) 
-0.602921

>  <r_i_glide_ligand_efficiency_ln>  (72) 
-1.06443

>  <r_i_glide_gscore>  (72) 
-4.14103

>  <r_i_glide_lipo>  (72) 
0

>  <r_i_glide_hbond>  (72) 
-0.119316

>  <r_i_glide_metal>  (72) 
-0

>  <r_i_glide_rewards>  (72) 
-1.79116

>  <r_i_glide_evdw>  (72) 
-17.8539

>  <r_i_glide_ecoul>  (72) 
-8.11398

>  <r_i_glide_erotb>  (72) 
0

>  <r_i_glide_esite>  (72) 
-0.120768

>  <r_i_glide_emodel>  (72) 
-34.076

>  <r_i_glide_energy>  (72) 
-25.9679

>  <r_i_glide_einternal>  (72) 
0.703852

>  <r_i_glide_intrahb_reward>  (72) 
-0

>  <i_i_glide_confnum>  (72) 
1

>  <i_i_glide_posenum>  (72) 
33

>  <r_i_glide_eff_state_penalty>  (72) 
0

>  <ligand_id>  (72) 
21

>  <original_smiles>  (72) 
O=C1C(=O)C(O)c2[nH]c3ccc([N+](=O)[O-])cc3c21

>  <smiles>  (72) 
[H]OC1([H])C(=O)C(=O)c2c1n([H])c1c([H])c([H])c([N+](=O)[O-])c([H])c21

$$$$
21:2:1
     RDKit          3D

 24 26  0  0  1  0  0  0  0  0999 V2000
    5.0277   -0.3687    1.5220 O   0  0  0  0  0  0  0  0  0  0  0  0
    4.9447   -1.5709    1.2711 C   0  0  0  0  0  0  0  0  0  0  0  0
    5.1425   -2.7173    2.2909 C   0  0  0  0  0  0  0  0  0  0  0  0
    5.3914   -2.5721    3.4859 O   0  0  0  0  0  0  0  0  0  0  0  0
    4.9950   -4.0791    1.5860 C   0  0  1  0  0  0  0  0  0  0  0  0
    3.9362   -4.8290    2.1541 O   0  0  0  0  0  0  0  0  0  0  0  0
    4.7028   -3.5978    0.2194 C   0  0  0  0  0  0  0  0  0  0  0  0
    4.4374   -4.2463   -0.9649 N   0  0  0  0  0  0  0  0  0  0  0  0
    4.2154   -3.3011   -1.9586 C   0  0  0  0  0  0  0  0  0  0  0  0
    3.8925   -3.4202   -3.3221 C   0  0  0  0  0  0  0  0  0  0  0  0
    3.6745   -2.2676   -4.0865 C   0  0  0  0  0  0  0  0  0  0  0  0
    3.8338   -0.9887   -3.5272 C   0  0  0  0  0  0  0  0  0  0  0  0
    3.6586    0.2161   -4.3590 N   0  0  0  0  0  0  0  0  0  0  0  0
    3.0192    0.1353   -5.3995 O   0  0  0  0  0  0  0  0  0  0  0  0
    4.2074    1.2390   -3.9886 O   0  0  0  0  0  0  0  0  0  0  0  0
    4.1930   -0.8803   -2.1621 C   0  0  0  0  0  0  0  0  0  0  0  0
    4.3675   -2.0187   -1.3408 C   0  0  0  0  0  0  0  0  0  0  0  0
    4.6738   -2.2549    0.0364 C   0  0  0  0  0  0  0  0  0  0  0  0
    4.3571   -5.2497   -1.0891 H   0  0  0  0  0  0  0  0  0  0  0  0
    5.9343   -4.6383    1.6211 H   0  0  0  0  0  0  0  0  0  0  0  0
    3.8500   -5.6375    1.6739 H   0  0  0  0  0  0  0  0  0  0  0  0
    3.7791   -4.3857   -3.7852 H   0  0  0  0  0  0  0  0  0  0  0  0
    3.3891   -2.3719   -5.1183 H   0  0  0  0  0  0  0  0  0  0  0  0
    4.2989    0.0974   -1.7181 H   0  0  0  0  0  0  0  0  0  0  0  0
  1  2  2  0
  2 18  1  0
  2  3  1  0
  3  4  2  0
  3  5  1  0
  5  6  1  0
  5  7  1  0
  5 20  1  6
  6 21  1  0
  7 18  2  0
  7  8  1  0
  8 19  1  0
  8  9  1  0
  9 17  2  0
  9 10  1  0
 10 11  2  0
 10 22  1  0
 11 12  1  0
 11 23  1  0
 12 13  1  0
 12 16  2  0
 13 14  2  0
 13 15  1  0
 16 17  1  0
 16 24  1  0
 17 18  1  0
M  CHG  2  13   1  15  -1
M  END
>  <i_m_ct_stereo_status>  (73) 
1

>  <s_m_source_file>  (73) 
/var/tmp/pbs.5076255.sched01/tmp7hrp_b9g/014g_j70o.sdf

>  <i_m_source_file_index>  (73) 
34

>  <i_lp_mmshare_version>  (73) 
48012

>  <i_f3d_flags>  (73) 
0

>  <s_epik_input>  (73) 
W09IXVtDQEBIXTFDKD1PKUMoPU8pYyhjMTIpYzNjKFtuSF0yKVtjSF1bY0hdYyhbTitdKD1PKVtPLV0pW2NIXTM=

>  <s_epik_cmdline>  (73) 
J2VwaWtfcHl0aG9uJywgJy1waHQnLCAnMi4wJywgJy1waCcsICc3LjAnLCAnLXRuJywgJzgnLCAnLW1hJywgJzIwMCcsICctaW1hZScsICc8aW5maWxlLm1hZT4nLCAnLW9tYWUnLCAnPG91dGZpbGUubWFlPic=

>  <r_epik_Ionization_Penalty>  (73) 
2.17277

>  <r_epik_Ionization_Penalty_Charging>  (73) 
0

>  <r_epik_Ionization_Penalty_Neutral>  (73) 
2.17277

>  <r_epik_State_Penalty>  (73) 
2.45017

>  <r_epik_Charging_Adjusted_Penalty>  (73) 
2.45017

>  <i_epik_Tot_Q>  (73) 
0

>  <i_epik_Tot_abs_Q>  (73) 
2

>  <s_lp_Force_Field>  (73) 
OPLS3e

>  <r_lp_Energy>  (73) 
18.8999

>  <b_lp_Chiralities_Consistent>  (73) 
1

>  <s_lp_Variant>  (73) 
21:0-3

>  <s_i_glide_gridfile>  (73) 
pfpi4k_grid

>  <i_i_glide_lignum>  (73) 
34

>  <i_i_glide_rotatable_bonds>  (73) 
2

>  <r_i_docking_score>  (73) 
-3.90892

>  <r_i_glide_ligand_efficiency>  (73) 
-0.217162

>  <r_i_glide_ligand_efficiency_sa>  (73) 
-0.569126

>  <r_i_glide_ligand_efficiency_ln>  (73) 
-1.00477

>  <r_i_glide_gscore>  (73) 
-3.90892

>  <r_i_glide_lipo>  (73) 
-0.375581

>  <r_i_glide_hbond>  (73) 
-0.115306

>  <r_i_glide_metal>  (73) 
-0

>  <r_i_glide_rewards>  (73) 
-2.05462

>  <r_i_glide_evdw>  (73) 
-21.4639

>  <r_i_glide_ecoul>  (73) 
-1.49864

>  <r_i_glide_erotb>  (73) 
0

>  <r_i_glide_esite>  (73) 
-0.0654256

>  <r_i_glide_emodel>  (73) 
-30.7893

>  <r_i_glide_energy>  (73) 
-22.9626

>  <r_i_glide_einternal>  (73) 
0.446683

>  <r_i_glide_intrahb_reward>  (73) 
-0

>  <i_i_glide_confnum>  (73) 
1

>  <i_i_glide_posenum>  (73) 
4

>  <r_i_glide_eff_state_penalty>  (73) 
0

>  <ligand_id>  (73) 
21

>  <original_smiles>  (73) 
O=C1C(=O)C(O)c2[nH]c3ccc([N+](=O)[O-])cc3c21

>  <smiles>  (73) 
[H]OC1([H])C(=O)C(=O)c2c1n([H])c1c([H])c([H])c([N+](=O)[O-])c([H])c21

$$$$
21:2:2
     RDKit          3D

 24 26  0  0  1  0  0  0  0  0999 V2000
    4.9988   -0.4614    1.5899 O   0  0  0  0  0  0  0  0  0  0  0  0
    4.9261   -1.6550    1.2945 C   0  0  0  0  0  0  0  0  0  0  0  0
    5.1400   -2.8424    2.2729 C   0  0  0  0  0  0  0  0  0  0  0  0
    5.3943   -2.7458    3.4696 O   0  0  0  0  0  0  0  0  0  0  0  0
    5.0215   -4.1767    1.5054 C   0  0  1  0  0  0  0  0  0  0  0  0
    3.9896   -5.0006    2.0239 O   0  0  0  0  0  0  0  0  0  0  0  0
    4.7167   -3.6408    0.1614 C   0  0  0  0  0  0  0  0  0  0  0  0
    4.4627   -4.2497   -1.0423 N   0  0  0  0  0  0  0  0  0  0  0  0
    4.2167   -3.2735   -1.9937 C   0  0  0  0  0  0  0  0  0  0  0  0
    3.8791   -3.3534   -3.3564 C   0  0  0  0  0  0  0  0  0  0  0  0
    3.6510   -2.1785   -4.0777 C   0  0  0  0  0  0  0  0  0  0  0  0
    3.7977   -0.9241   -3.4760 C   0  0  0  0  0  0  0  0  0  0  0  0
    3.5954    0.2983   -4.2701 N   0  0  0  0  0  0  0  0  0  0  0  0
    2.8556    0.2446   -5.2476 O   0  0  0  0  0  0  0  0  0  0  0  0
    4.2001    1.2959   -3.9353 O   0  0  0  0  0  0  0  0  0  0  0  0
    4.1599   -0.8490   -2.1084 C   0  0  0  0  0  0  0  0  0  0  0  0
    4.3536   -2.0110   -1.3351 C   0  0  0  0  0  0  0  0  0  0  0  0
    4.6653   -2.2926    0.0329 C   0  0  0  0  0  0  0  0  0  0  0  0
    4.3821   -5.2499   -1.1874 H   0  0  0  0  0  0  0  0  0  0  0  0
    5.9717   -4.7180    1.5134 H   0  0  0  0  0  0  0  0  0  0  0  0
    4.3227   -5.4607    2.7806 H   0  0  0  0  0  0  0  0  0  0  0  0
    3.7667   -4.3076   -3.8409 H   0  0  0  0  0  0  0  0  0  0  0  0
    3.3719   -2.2357   -5.1138 H   0  0  0  0  0  0  0  0  0  0  0  0
    4.2478    0.1144   -1.6349 H   0  0  0  0  0  0  0  0  0  0  0  0
  1  2  2  0
  2 18  1  0
  2  3  1  0
  3  4  2  0
  3  5  1  0
  5  6  1  0
  5  7  1  0
  5 20  1  6
  6 21  1  0
  7 18  2  0
  7  8  1  0
  8 19  1  0
  8  9  1  0
  9 17  2  0
  9 10  1  0
 10 11  2  0
 10 22  1  0
 11 12  1  0
 11 23  1  0
 12 13  1  0
 12 16  2  0
 13 14  2  0
 13 15  1  0
 16 17  1  0
 16 24  1  0
 17 18  1  0
M  CHG  2  13   1  15  -1
M  END
>  <i_m_ct_stereo_status>  (74) 
1

>  <s_m_source_file>  (74) 
/var/tmp/pbs.5076255.sched01/tmp7hrp_b9g/014g_j70o.sdf

>  <i_m_source_file_index>  (74) 
34

>  <i_lp_mmshare_version>  (74) 
48012

>  <i_f3d_flags>  (74) 
0

>  <s_epik_input>  (74) 
W09IXVtDQEBIXTFDKD1PKUMoPU8pYyhjMTIpYzNjKFtuSF0yKVtjSF1bY0hdYyhbTitdKD1PKVtPLV0pW2NIXTM=

>  <s_epik_cmdline>  (74) 
J2VwaWtfcHl0aG9uJywgJy1waHQnLCAnMi4wJywgJy1waCcsICc3LjAnLCAnLXRuJywgJzgnLCAnLW1hJywgJzIwMCcsICctaW1hZScsICc8aW5maWxlLm1hZT4nLCAnLW9tYWUnLCAnPG91dGZpbGUubWFlPic=

>  <r_epik_Ionization_Penalty>  (74) 
2.17277

>  <r_epik_Ionization_Penalty_Charging>  (74) 
0

>  <r_epik_Ionization_Penalty_Neutral>  (74) 
2.17277

>  <r_epik_State_Penalty>  (74) 
2.45017

>  <r_epik_Charging_Adjusted_Penalty>  (74) 
2.45017

>  <i_epik_Tot_Q>  (74) 
0

>  <i_epik_Tot_abs_Q>  (74) 
2

>  <s_lp_Force_Field>  (74) 
OPLS3e

>  <r_lp_Energy>  (74) 
18.8999

>  <b_lp_Chiralities_Consistent>  (74) 
1

>  <s_lp_Variant>  (74) 
21:0-3

>  <s_i_glide_gridfile>  (74) 
pfpi4k_grid

>  <i_i_glide_lignum>  (74) 
34

>  <i_i_glide_rotatable_bonds>  (74) 
2

>  <r_i_docking_score>  (74) 
-3.78074

>  <r_i_glide_ligand_efficiency>  (74) 
-0.210041

>  <r_i_glide_ligand_efficiency_sa>  (74) 
-0.550464

>  <r_i_glide_ligand_efficiency_ln>  (74) 
-0.97182

>  <r_i_glide_gscore>  (74) 
-3.78074

>  <r_i_glide_lipo>  (74) 
-0.396904

>  <r_i_glide_hbond>  (74) 
-0.0954683

>  <r_i_glide_metal>  (74) 
-0

>  <r_i_glide_rewards>  (74) 
-1.96093

>  <r_i_glide_evdw>  (74) 
-20.7233

>  <r_i_glide_ecoul>  (74) 
-1.44734

>  <r_i_glide_erotb>  (74) 
0

>  <r_i_glide_esite>  (74) 
-0.0741736

>  <r_i_glide_emodel>  (74) 
-28.6524

>  <r_i_glide_energy>  (74) 
-22.1707

>  <r_i_glide_einternal>  (74) 
2.38455

>  <r_i_glide_intrahb_reward>  (74) 
-0

>  <i_i_glide_confnum>  (74) 
2

>  <i_i_glide_posenum>  (74) 
8

>  <r_i_glide_eff_state_penalty>  (74) 
0

>  <ligand_id>  (74) 
21

>  <original_smiles>  (74) 
O=C1C(=O)C(O)c2[nH]c3ccc([N+](=O)[O-])cc3c21

>  <smiles>  (74) 
[H]OC1([H])C(=O)C(=O)c2c1n([H])c1c([H])c([H])c([N+](=O)[O-])c([H])c21

$$$$
22:0:0
     RDKit          3D

 48 53  0  0  1  0  0  0  0  0999 V2000
    2.8490   -3.8085   -0.7145 C   0  0  0  0  0  0  0  0  0  0  0  0
    1.8879   -4.7741   -0.3210 O   0  0  0  0  0  0  0  0  0  0  0  0
    2.3034   -5.7886    0.5102 C   0  0  0  0  0  0  0  0  0  0  0  0
    3.6599   -6.2952    0.5571 C   0  0  0  0  0  0  0  0  0  0  0  0
    4.0307   -7.4232    1.3640 C   0  0  0  0  0  0  0  0  0  0  0  0
    3.0700   -8.0323    2.1973 C   0  0  0  0  0  0  0  0  0  0  0  0
    1.8209   -7.4314    2.0959 C   0  0  0  0  0  0  0  0  0  0  0  0
    1.3307   -6.4115    1.3051 C   0  0  0  0  0  0  0  0  0  0  0  0
   -0.0600   -6.2722    1.4601 O   0  0  0  0  0  0  0  0  0  0  0  0
   -0.4022   -7.5353    1.9851 C   0  0  2  0  0  0  0  0  0  0  0  0
   -1.5486   -7.9133    2.7450 N   0  0  0  0  0  0  0  0  0  0  0  0
   -1.0519   -9.1370    3.4566 C   0  0  0  0  0  0  0  0  0  0  0  0
    0.5094   -9.2267    3.1555 C   0  0  2  0  0  0  0  0  0  0  0  0
    1.7622   -9.5951    4.0151 C   0  0  1  0  0  0  0  0  0  0  0  0
    3.0728   -9.2789    3.1476 C   0  0  0  0  0  0  0  0  0  0  0  0
    1.8322   -8.8613    5.3201 N   0  0  2  0  0  0  0  0  0  0  0  0
    0.9171   -9.3844    6.3676 C   0  0  0  0  0  0  0  0  0  0  0  0
    1.1542   -8.7905    7.7520 C   0  0  0  0  0  0  0  0  0  0  0  0
    0.9609   -9.6219    8.9985 C   0  0  0  0  0  0  0  0  0  0  0  0
   -0.0338   -8.5511    8.6682 C   0  0  0  0  0  0  0  0  0  0  0  0
    1.8142   -7.3812    5.1469 C   0  0  0  0  0  0  0  0  0  0  0  0
    0.6885   -6.9399    4.2164 C   0  0  0  0  0  0  0  0  0  0  0  0
    0.7108   -7.8009    2.9138 C   0  0  1  0  0  0  0  0  0  0  0  0
    2.3547   -3.0567   -1.3280 H   0  0  0  0  0  0  0  0  0  0  0  0
    3.6599   -4.2294   -1.3088 H   0  0  0  0  0  0  0  0  0  0  0  0
    3.2659   -3.2983    0.1548 H   0  0  0  0  0  0  0  0  0  0  0  0
    4.4146   -5.8794   -0.0858 H   0  0  0  0  0  0  0  0  0  0  0  0
    5.0387   -7.8273    1.3281 H   0  0  0  0  0  0  0  0  0  0  0  0
   -0.3733   -8.2051    1.1215 H   0  0  0  0  0  0  0  0  0  0  0  0
   -2.3284   -8.1527    2.1503 H   0  0  0  0  0  0  0  0  0  0  0  0
   -1.3275   -9.0239    4.4993 H   0  0  0  0  0  0  0  0  0  0  0  0
   -1.5543  -10.0259    3.0748 H   0  0  0  0  0  0  0  0  0  0  0  0
    0.6107   -9.7889    2.2256 H   0  0  0  0  0  0  0  0  0  0  0  0
    1.7606  -10.6612    4.2353 H   0  0  0  0  0  0  0  0  0  0  0  0
    3.2603  -10.1322    2.4992 H   0  0  0  0  0  0  0  0  0  0  0  0
    3.9488   -9.2074    3.7902 H   0  0  0  0  0  0  0  0  0  0  0  0
   -0.1126   -9.1879    6.1122 H   0  0  0  0  0  0  0  0  0  0  0  0
    1.0148  -10.4660    6.4240 H   0  0  0  0  0  0  0  0  0  0  0  0
    1.9650   -8.0701    7.8480 H   0  0  0  0  0  0  0  0  0  0  0  0
    0.6516  -10.6575    8.8848 H   0  0  0  0  0  0  0  0  0  0  0  0
    1.6679   -9.4324    9.8033 H   0  0  0  0  0  0  0  0  0  0  0  0
   -0.0220   -7.6524    9.2830 H   0  0  0  0  0  0  0  0  0  0  0  0
   -1.0141   -8.8733    8.3272 H   0  0  0  0  0  0  0  0  0  0  0  0
    1.7215   -6.8290    6.0756 H   0  0  0  0  0  0  0  0  0  0  0  0
    2.7760   -7.0638    4.7496 H   0  0  0  0  0  0  0  0  0  0  0  0
   -0.2486   -7.0290    4.7708 H   0  0  0  0  0  0  0  0  0  0  0  0
    0.7946   -5.8741    4.0053 H   0  0  0  0  0  0  0  0  0  0  0  0
    2.7424   -9.0841    5.6888 H   0  0  0  0  0  0  0  0  0  0  0  0
  1  2  1  0
  1 24  1  0
  1 25  1  0
  1 26  1  0
  2  3  1  0
  3  8  2  0
  3  4  1  0
  4  5  2  0
  4 27  1  0
  5  6  1  0
  5 28  1  0
  6 15  1  0
  6  7  2  0
  7 23  1  0
  7  8  1  0
  8  9  1  0
  9 10  1  0
 10 23  1  0
 10 11  1  0
 10 29  1  6
 11 12  1  0
 11 30  1  0
 12 13  1  0
 12 31  1  0
 12 32  1  0
 13 23  1  0
 13 14  1  0
 13 33  1  6
 14 15  1  0
 14 16  1  0
 14 34  1  1
 15 35  1  0
 15 36  1  0
 16 17  1  0
 16 21  1  0
 16 48  1  1
 17 18  1  0
 17 37  1  0
 17 38  1  0
 18 20  1  0
 18 19  1  0
 18 39  1  0
 19 20  1  0
 19 40  1  0
 19 41  1  0
 20 42  1  0
 20 43  1  0
 21 22  1  0
 21 44  1  0
 21 45  1  0
 23 22  1  1
 22 46  1  0
 22 47  1  0
M  CHG  1  16   1
M  END
>  <i_m_ct_stereo_status>  (75) 
1

>  <s_m_source_file>  (75) 
/var/tmp/pbs.5076255.sched01/tmp7hrp_b9g/014g_j70o.sdf

>  <i_m_source_file_index>  (75) 
35

>  <i_lp_mmshare_version>  (75) 
48012

>  <i_f3d_flags>  (75) 
0

>  <s_epik_input>  (75) 
W0NAXTEyM2M0YzVbY0hdW2NIXWMoT1tDSDNdKWM0T1tDQEBIXTFbTkhdW0NIMl1bQ0BASF0yW0NAQEhdKFtDSDJdNSlOKFtDSDJdW0NIMl0zKVtDSDJdW0NIXTZbQ0gyXVtDSDJdNg==

>  <s_epik_cmdline>  (75) 
J2VwaWtfcHl0aG9uJywgJy1waHQnLCAnMi4wJywgJy1waCcsICc3LjAnLCAnLXRuJywgJzgnLCAnLW1hJywgJzIwMCcsICctaW1hZScsICc8aW5maWxlLm1hZT4nLCAnLW9tYWUnLCAnPG91dGZpbGUubWFlPic=

>  <r_lp_tautomer_probability>  (75) 
1

>  <r_epik_Ionization_Penalty>  (75) 
0.0592627

>  <r_epik_Ionization_Penalty_Charging>  (75) 
0.0191932

>  <r_epik_Ionization_Penalty_Neutral>  (75) 
0.0400694

>  <r_epik_State_Penalty>  (75) 
0.0644046

>  <r_epik_Charging_Adjusted_Penalty>  (75) 
0.0835978

>  <i_epik_Tot_Q>  (75) 
1

>  <i_epik_Tot_abs_Q>  (75) 
1

>  <s_epik_Chemistry_Notes>  (75) 
This compound contains an acetal/aminal-like group ( X-CH(R)-Y where X, Y are N, S, or O) that may be acid/base labile, releasing an aldehyde.

>  <s_lp_Force_Field>  (75) 
OPLS3e

>  <r_lp_Energy>  (75) 
106.424

>  <b_lp_Chiralities_Consistent>  (75) 
1

>  <s_lp_Variant>  (75) 
22:0-1

>  <s_i_glide_gridfile>  (75) 
pfpi4k_grid

>  <i_i_glide_lignum>  (75) 
35

>  <i_i_glide_rotatable_bonds>  (75) 
3

>  <r_i_docking_score>  (75) 
-3.60805

>  <r_i_glide_ligand_efficiency>  (75) 
-0.156872

>  <r_i_glide_ligand_efficiency_sa>  (75) 
-0.446122

>  <r_i_glide_ligand_efficiency_ln>  (75) 
-0.872459

>  <r_i_glide_gscore>  (75) 
-3.60805

>  <r_i_glide_lipo>  (75) 
-0.128689

>  <r_i_glide_hbond>  (75) 
-0.321224

>  <r_i_glide_metal>  (75) 
-0

>  <r_i_glide_rewards>  (75) 
-1.27218

>  <r_i_glide_evdw>  (75) 
-19.3518

>  <r_i_glide_ecoul>  (75) 
-7.96852

>  <r_i_glide_erotb>  (75) 
0.378175

>  <r_i_glide_esite>  (75) 
-0.101266

>  <r_i_glide_emodel>  (75) 
-34.7794

>  <r_i_glide_energy>  (75) 
-27.3203

>  <r_i_glide_einternal>  (75) 
3.0122

>  <r_i_glide_intrahb_reward>  (75) 
-0

>  <i_i_glide_confnum>  (75) 
2

>  <i_i_glide_posenum>  (75) 
1

>  <r_i_glide_eff_state_penalty>  (75) 
0

>  <ligand_id>  (75) 
22

>  <original_smiles>  (75) 
COc1ccc2c3c1OC1NCC4C(C2)N(CC2CC2)CCC314

>  <smiles>  (75) 
[H]c1c([H])c2c3c(c1OC([H])([H])[H])OC1([H])N([H])C([H])([H])C4([H])C31C([H])([H])C([H])([H])[N+]([H])(C([H])([H])C1([H])C([H])([H])C1([H])[H])C4([H])C2([H])[H]

$$$$
22:0:1
     RDKit          3D

 48 53  0  0  1  0  0  0  0  0999 V2000
    3.5401   -4.3443   -0.3169 C   0  0  0  0  0  0  0  0  0  0  0  0
    2.3870   -5.0081    0.1726 O   0  0  0  0  0  0  0  0  0  0  0  0
    2.5715   -6.1746    0.8823 C   0  0  0  0  0  0  0  0  0  0  0  0
    3.7738   -6.9538    0.8953 C   0  0  0  0  0  0  0  0  0  0  0  0
    3.8874   -8.2065    1.5811 C   0  0  0  0  0  0  0  0  0  0  0  0
    2.7637   -8.6864    2.3142 C   0  0  0  0  0  0  0  0  0  0  0  0
    1.6773   -7.8451    2.2508 C   0  0  0  0  0  0  0  0  0  0  0  0
    1.4459   -6.6646    1.5836 C   0  0  0  0  0  0  0  0  0  0  0  0
    0.1225   -6.2562    1.7211 O   0  0  0  0  0  0  0  0  0  0  0  0
   -0.5097   -7.4733    2.0863 C   0  0  2  0  0  0  0  0  0  0  0  0
   -1.7282   -7.6924    2.7984 N   0  0  0  0  0  0  0  0  0  0  0  0
   -1.5155   -9.0607    3.3936 C   0  0  0  0  0  0  0  0  0  0  0  0
   -0.0001   -9.4389    3.0933 C   0  0  2  0  0  0  0  0  0  0  0  0
    1.1283  -10.1410    3.9327 C   0  0  1  0  0  0  0  0  0  0  0  0
    2.5110  -10.0027    3.1217 C   0  0  0  0  0  0  0  0  0  0  0  0
    1.2922   -9.5301    5.3003 N   0  0  2  0  0  0  0  0  0  0  0  0
    0.2611   -9.9395    6.2970 C   0  0  0  0  0  0  0  0  0  0  0  0
    0.6673   -9.6765    7.7540 C   0  0  0  0  0  0  0  0  0  0  0  0
    0.7015   -8.2727    8.3071 C   0  0  0  0  0  0  0  0  0  0  0  0
    1.9879   -9.0481    8.1400 C   0  0  0  0  0  0  0  0  0  0  0  0
    1.6240   -8.0666    5.2679 C   0  0  0  0  0  0  0  0  0  0  0  0
    0.6101   -7.3331    4.3924 C   0  0  0  0  0  0  0  0  0  0  0  0
    0.4753   -8.0590    3.0113 C   0  0  1  0  0  0  0  0  0  0  0  0
    3.2314   -3.4381   -0.8349 H   0  0  0  0  0  0  0  0  0  0  0  0
    4.1197   -4.9395   -1.0238 H   0  0  0  0  0  0  0  0  0  0  0  0
    4.1886   -4.0506    0.5077 H   0  0  0  0  0  0  0  0  0  0  0  0
    4.6278   -6.6383    0.3194 H   0  0  0  0  0  0  0  0  0  0  0  0
    4.7841   -8.7966    1.5252 H   0  0  0  0  0  0  0  0  0  0  0  0
   -0.5835   -8.0539    1.1494 H   0  0  0  0  0  0  0  0  0  0  0  0
   -2.5325   -7.7137    2.1862 H   0  0  0  0  0  0  0  0  0  0  0  0
   -1.7768   -9.0283    4.4483 H   0  0  0  0  0  0  0  0  0  0  0  0
   -2.1738   -9.7873    2.9146 H   0  0  0  0  0  0  0  0  0  0  0  0
    0.0172   -9.9201    2.0950 H   0  0  0  0  0  0  0  0  0  0  0  0
    0.9019  -11.1993    4.0394 H   0  0  0  0  0  0  0  0  0  0  0  0
    2.5679  -10.8192    2.3956 H   0  0  0  0  0  0  0  0  0  0  0  0
    3.3504  -10.1683    3.8032 H   0  0  0  0  0  0  0  0  0  0  0  0
   -0.6970   -9.4481    6.1045 H   0  0  0  0  0  0  0  0  0  0  0  0
    0.0669  -11.0068    6.1794 H   0  0  0  0  0  0  0  0  0  0  0  0
    0.2363  -10.4002    8.4534 H   0  0  0  0  0  0  0  0  0  0  0  0
    0.3716   -7.5262    7.5816 H   0  0  0  0  0  0  0  0  0  0  0  0
    0.3928   -8.1062    9.3201 H   0  0  0  0  0  0  0  0  0  0  0  0
    2.4389   -9.4270    9.0494 H   0  0  0  0  0  0  0  0  0  0  0  0
    2.6453   -8.8449    7.2933 H   0  0  0  0  0  0  0  0  0  0  0  0
    1.6640   -7.5804    6.2119 H   0  0  0  0  0  0  0  0  0  0  0  0
    2.6167   -7.9664    4.8046 H   0  0  0  0  0  0  0  0  0  0  0  0
   -0.3437   -7.3071    4.9168 H   0  0  0  0  0  0  0  0  0  0  0  0
    0.9056   -6.2921    4.2701 H   0  0  0  0  0  0  0  0  0  0  0  0
    2.1201   -9.9983    5.6583 H   0  0  0  0  0  0  0  0  0  0  0  0
  1  2  1  0
  1 24  1  0
  1 25  1  0
  1 26  1  0
  2  3  1  0
  3  8  2  0
  3  4  1  0
  4  5  2  0
  4 27  1  0
  5  6  1  0
  5 28  1  0
  6 15  1  0
  6  7  2  0
  7 23  1  0
  7  8  1  0
  8  9  1  0
  9 10  1  0
 10 23  1  0
 10 11  1  0
 10 29  1  6
 11 12  1  0
 11 30  1  0
 12 13  1  0
 12 31  1  0
 12 32  1  0
 13 23  1  0
 13 14  1  0
 13 33  1  6
 14 15  1  0
 14 16  1  0
 14 34  1  1
 15 35  1  0
 15 36  1  0
 16 17  1  0
 16 21  1  0
 16 48  1  1
 17 18  1  0
 17 37  1  0
 17 38  1  0
 18 20  1  0
 18 19  1  0
 18 39  1  0
 19 20  1  0
 19 40  1  0
 19 41  1  0
 20 42  1  0
 20 43  1  0
 21 22  1  0
 21 44  1  0
 21 45  1  0
 23 22  1  1
 22 46  1  0
 22 47  1  0
M  CHG  1  16   1
M  END
>  <i_m_ct_stereo_status>  (76) 
1

>  <s_m_source_file>  (76) 
/var/tmp/pbs.5076255.sched01/tmp7hrp_b9g/014g_j70o.sdf

>  <i_m_source_file_index>  (76) 
35

>  <i_lp_mmshare_version>  (76) 
48012

>  <i_f3d_flags>  (76) 
0

>  <s_epik_input>  (76) 
W0NAXTEyM2M0YzVbY0hdW2NIXWMoT1tDSDNdKWM0T1tDQEBIXTFbTkhdW0NIMl1bQ0BASF0yW0NAQEhdKFtDSDJdNSlOKFtDSDJdW0NIMl0zKVtDSDJdW0NIXTZbQ0gyXVtDSDJdNg==

>  <s_epik_cmdline>  (76) 
J2VwaWtfcHl0aG9uJywgJy1waHQnLCAnMi4wJywgJy1waCcsICc3LjAnLCAnLXRuJywgJzgnLCAnLW1hJywgJzIwMCcsICctaW1hZScsICc8aW5maWxlLm1hZT4nLCAnLW9tYWUnLCAnPG91dGZpbGUubWFlPic=

>  <r_lp_tautomer_probability>  (76) 
1

>  <r_epik_Ionization_Penalty>  (76) 
0.0592627

>  <r_epik_Ionization_Penalty_Charging>  (76) 
0.0191932

>  <r_epik_Ionization_Penalty_Neutral>  (76) 
0.0400694

>  <r_epik_State_Penalty>  (76) 
0.0644046

>  <r_epik_Charging_Adjusted_Penalty>  (76) 
0.0835978

>  <i_epik_Tot_Q>  (76) 
1

>  <i_epik_Tot_abs_Q>  (76) 
1

>  <s_epik_Chemistry_Notes>  (76) 
This compound contains an acetal/aminal-like group ( X-CH(R)-Y where X, Y are N, S, or O) that may be acid/base labile, releasing an aldehyde.

>  <s_lp_Force_Field>  (76) 
OPLS3e

>  <r_lp_Energy>  (76) 
106.424

>  <b_lp_Chiralities_Consistent>  (76) 
1

>  <s_lp_Variant>  (76) 
22:0-1

>  <s_i_glide_gridfile>  (76) 
pfpi4k_grid

>  <i_i_glide_lignum>  (76) 
35

>  <i_i_glide_rotatable_bonds>  (76) 
3

>  <r_i_docking_score>  (76) 
-3.60028

>  <r_i_glide_ligand_efficiency>  (76) 
-0.156534

>  <r_i_glide_ligand_efficiency_sa>  (76) 
-0.445161

>  <r_i_glide_ligand_efficiency_ln>  (76) 
-0.87058

>  <r_i_glide_gscore>  (76) 
-3.60028

>  <r_i_glide_lipo>  (76) 
-0.0922002

>  <r_i_glide_hbond>  (76) 
-0.286884

>  <r_i_glide_metal>  (76) 
-0

>  <r_i_glide_rewards>  (76) 
-1.27218

>  <r_i_glide_evdw>  (76) 
-22.0174

>  <r_i_glide_ecoul>  (76) 
-7.36192

>  <r_i_glide_erotb>  (76) 
0.378175

>  <r_i_glide_esite>  (76) 
-0.122036

>  <r_i_glide_emodel>  (76) 
-31.4312

>  <r_i_glide_energy>  (76) 
-29.3793

>  <r_i_glide_einternal>  (76) 
9.23267

>  <r_i_glide_intrahb_reward>  (76) 
-0

>  <i_i_glide_confnum>  (76) 
2

>  <i_i_glide_posenum>  (76) 
10

>  <r_i_glide_eff_state_penalty>  (76) 
0

>  <ligand_id>  (76) 
22

>  <original_smiles>  (76) 
COc1ccc2c3c1OC1NCC4C(C2)N(CC2CC2)CCC314

>  <smiles>  (76) 
[H]c1c([H])c2c3c(c1OC([H])([H])[H])OC1([H])N([H])C([H])([H])C4([H])C31C([H])([H])C([H])([H])[N+]([H])(C([H])([H])C1([H])C([H])([H])C1([H])[H])C4([H])C2([H])[H]

$$$$
22:0:2
     RDKit          3D

 48 53  0  0  1  0  0  0  0  0999 V2000
    3.3495   -5.4662    0.0222 C   0  0  0  0  0  0  0  0  0  0  0  0
    4.2710   -6.5546    0.1383 O   0  0  0  0  0  0  0  0  0  0  0  0
    3.9721   -7.5519    1.0443 C   0  0  0  0  0  0  0  0  0  0  0  0
    4.8769   -8.6488    1.2304 C   0  0  0  0  0  0  0  0  0  0  0  0
    4.6173   -9.7422    2.1141 C   0  0  0  0  0  0  0  0  0  0  0  0
    3.4059   -9.7404    2.8708 C   0  0  0  0  0  0  0  0  0  0  0  0
    2.6244   -8.6357    2.6224 C   0  0  0  0  0  0  0  0  0  0  0  0
    2.7636   -7.5589    1.7690 C   0  0  0  0  0  0  0  0  0  0  0  0
    1.6224   -6.7587    1.7883 O   0  0  0  0  0  0  0  0  0  0  0  0
    0.6611   -7.6581    2.2781 C   0  0  2  0  0  0  0  0  0  0  0  0
   -0.5939   -7.3977    2.8967 N   0  0  0  0  0  0  0  0  0  0  0  0
   -0.8140   -8.6403    3.7188 C   0  0  0  0  0  0  0  0  0  0  0  0
    0.5327   -9.4896    3.5917 C   0  0  2  0  0  0  0  0  0  0  0  0
    1.3948  -10.3352    4.5959 C   0  0  1  0  0  0  0  0  0  0  0  0
    2.7566  -10.7661    3.8542 C   0  0  0  0  0  0  0  0  0  0  0  0
    1.7211   -9.5982    5.8732 N   0  0  2  0  0  0  0  0  0  0  0  0
    0.5826   -9.5056    6.8310 C   0  0  0  0  0  0  0  0  0  0  0  0
    0.9410   -8.8688    8.1759 C   0  0  0  0  0  0  0  0  0  0  0  0
    0.9908   -9.6910    9.4386 C   0  0  0  0  0  0  0  0  0  0  0  0
   -0.1233   -8.6966    9.2279 C   0  0  0  0  0  0  0  0  0  0  0  0
    2.4779   -8.3329    5.6170 C   0  0  0  0  0  0  0  0  0  0  0  0
    1.7493   -7.4796    4.5814 C   0  0  0  0  0  0  0  0  0  0  0  0
    1.4103   -8.3496    3.3326 C   0  0  1  0  0  0  0  0  0  0  0  0
    3.6675   -4.7211   -0.7154 H   0  0  0  0  0  0  0  0  0  0  0  0
    3.2419   -4.9623    0.9850 H   0  0  0  0  0  0  0  0  0  0  0  0
    2.3736   -5.8244   -0.3122 H   0  0  0  0  0  0  0  0  0  0  0  0
    5.7796   -8.6535    0.6464 H   0  0  0  0  0  0  0  0  0  0  0  0
    5.3130  -10.5704    2.1773 H   0  0  0  0  0  0  0  0  0  0  0  0
    0.4399   -8.3178    1.4354 H   0  0  0  0  0  0  0  0  0  0  0  0
   -1.3213   -7.3061    2.2036 H   0  0  0  0  0  0  0  0  0  0  0  0
   -1.0782   -8.3039    4.7220 H   0  0  0  0  0  0  0  0  0  0  0  0
   -1.6560   -9.2023    3.3021 H   0  0  0  0  0  0  0  0  0  0  0  0
    0.4386  -10.0997    2.6842 H   0  0  0  0  0  0  0  0  0  0  0  0
    0.8439  -11.2381    4.8568 H   0  0  0  0  0  0  0  0  0  0  0  0
    2.5407  -11.6510    3.2537 H   0  0  0  0  0  0  0  0  0  0  0  0
    3.4996  -11.0760    4.5955 H   0  0  0  0  0  0  0  0  0  0  0  0
   -0.2364   -8.9323    6.4163 H   0  0  0  0  0  0  0  0  0  0  0  0
    0.1886  -10.5147    6.9811 H   0  0  0  0  0  0  0  0  0  0  0  0
    1.5645   -7.9726    8.1362 H   0  0  0  0  0  0  0  0  0  0  0  0
    0.7822  -10.7582    9.3314 H   0  0  0  0  0  0  0  0  0  0  0  0
    1.8066   -9.4386   10.1171 H   0  0  0  0  0  0  0  0  0  0  0  0
   -0.0912   -7.7728    9.8051 H   0  0  0  0  0  0  0  0  0  0  0  0
   -1.1228   -9.0509    8.9765 H   0  0  0  0  0  0  0  0  0  0  0  0
    2.6634   -7.7135    6.4868 H   0  0  0  0  0  0  0  0  0  0  0  0
    3.4690   -8.5884    5.2380 H   0  0  0  0  0  0  0  0  0  0  0  0
    0.8439   -7.0683    5.0226 H   0  0  0  0  0  0  0  0  0  0  0  0
    2.3701   -6.6240    4.3109 H   0  0  0  0  0  0  0  0  0  0  0  0
    2.3696  -10.2185    6.3436 H   0  0  0  0  0  0  0  0  0  0  0  0
  1  2  1  0
  1 24  1  0
  1 25  1  0
  1 26  1  0
  2  3  1  0
  3  8  2  0
  3  4  1  0
  4  5  2  0
  4 27  1  0
  5  6  1  0
  5 28  1  0
  6 15  1  0
  6  7  2  0
  7 23  1  0
  7  8  1  0
  8  9  1  0
  9 10  1  0
 10 23  1  0
 10 11  1  0
 10 29  1  6
 11 12  1  0
 11 30  1  0
 12 13  1  0
 12 31  1  0
 12 32  1  0
 13 23  1  0
 13 14  1  0
 13 33  1  6
 14 15  1  0
 14 16  1  0
 14 34  1  1
 15 35  1  0
 15 36  1  0
 16 17  1  0
 16 21  1  0
 16 48  1  1
 17 18  1  0
 17 37  1  0
 17 38  1  0
 18 20  1  0
 18 19  1  0
 18 39  1  0
 19 20  1  0
 19 40  1  0
 19 41  1  0
 20 42  1  0
 20 43  1  0
 21 22  1  0
 21 44  1  0
 21 45  1  0
 23 22  1  1
 22 46  1  0
 22 47  1  0
M  CHG  1  16   1
M  END
>  <i_m_ct_stereo_status>  (77) 
1

>  <s_m_source_file>  (77) 
/var/tmp/pbs.5076255.sched01/tmp7hrp_b9g/014g_j70o.sdf

>  <i_m_source_file_index>  (77) 
35

>  <i_lp_mmshare_version>  (77) 
48012

>  <i_f3d_flags>  (77) 
0

>  <s_epik_input>  (77) 
W0NAXTEyM2M0YzVbY0hdW2NIXWMoT1tDSDNdKWM0T1tDQEBIXTFbTkhdW0NIMl1bQ0BASF0yW0NAQEhdKFtDSDJdNSlOKFtDSDJdW0NIMl0zKVtDSDJdW0NIXTZbQ0gyXVtDSDJdNg==

>  <s_epik_cmdline>  (77) 
J2VwaWtfcHl0aG9uJywgJy1waHQnLCAnMi4wJywgJy1waCcsICc3LjAnLCAnLXRuJywgJzgnLCAnLW1hJywgJzIwMCcsICctaW1hZScsICc8aW5maWxlLm1hZT4nLCAnLW9tYWUnLCAnPG91dGZpbGUubWFlPic=

>  <r_lp_tautomer_probability>  (77) 
1

>  <r_epik_Ionization_Penalty>  (77) 
0.0592627

>  <r_epik_Ionization_Penalty_Charging>  (77) 
0.0191932

>  <r_epik_Ionization_Penalty_Neutral>  (77) 
0.0400694

>  <r_epik_State_Penalty>  (77) 
0.0644046

>  <r_epik_Charging_Adjusted_Penalty>  (77) 
0.0835978

>  <i_epik_Tot_Q>  (77) 
1

>  <i_epik_Tot_abs_Q>  (77) 
1

>  <s_epik_Chemistry_Notes>  (77) 
This compound contains an acetal/aminal-like group ( X-CH(R)-Y where X, Y are N, S, or O) that may be acid/base labile, releasing an aldehyde.

>  <s_lp_Force_Field>  (77) 
OPLS3e

>  <r_lp_Energy>  (77) 
106.424

>  <b_lp_Chiralities_Consistent>  (77) 
1

>  <s_lp_Variant>  (77) 
22:0-1

>  <s_i_glide_gridfile>  (77) 
pfpi4k_grid

>  <i_i_glide_lignum>  (77) 
35

>  <i_i_glide_rotatable_bonds>  (77) 
3

>  <r_i_docking_score>  (77) 
-2.73264

>  <r_i_glide_ligand_efficiency>  (77) 
-0.118811

>  <r_i_glide_ligand_efficiency_sa>  (77) 
-0.337882

>  <r_i_glide_ligand_efficiency_ln>  (77) 
-0.660778

>  <r_i_glide_gscore>  (77) 
-2.73264

>  <r_i_glide_lipo>  (77) 
-0.0807253

>  <r_i_glide_hbond>  (77) 
-0.00224366

>  <r_i_glide_metal>  (77) 
-0

>  <r_i_glide_rewards>  (77) 
-1.27218

>  <r_i_glide_evdw>  (77) 
-19.5939

>  <r_i_glide_ecoul>  (77) 
-4.49092

>  <r_i_glide_erotb>  (77) 
0.378175

>  <r_i_glide_esite>  (77) 
-0.102337

>  <r_i_glide_emodel>  (77) 
-27.1213

>  <r_i_glide_energy>  (77) 
-24.0849

>  <r_i_glide_einternal>  (77) 
6.67403

>  <r_i_glide_intrahb_reward>  (77) 
-0

>  <i_i_glide_confnum>  (77) 
2

>  <i_i_glide_posenum>  (77) 
14

>  <r_i_glide_eff_state_penalty>  (77) 
0

>  <ligand_id>  (77) 
22

>  <original_smiles>  (77) 
COc1ccc2c3c1OC1NCC4C(C2)N(CC2CC2)CCC314

>  <smiles>  (77) 
[H]c1c([H])c2c3c(c1OC([H])([H])[H])OC1([H])N([H])C([H])([H])C4([H])C31C([H])([H])C([H])([H])[N+]([H])(C([H])([H])C1([H])C([H])([H])C1([H])[H])C4([H])C2([H])[H]

$$$$
22:1:0
     RDKit          3D

 49 54  0  0  1  0  0  0  0  0999 V2000
   -2.9950    3.5239    8.3665 C   0  0  0  0  0  0  0  0  0  0  0  0
   -2.3233    3.7602    7.1309 O   0  0  0  0  0  0  0  0  0  0  0  0
   -1.3215    2.8925    6.7605 C   0  0  0  0  0  0  0  0  0  0  0  0
   -0.9854    1.6962    7.4742 C   0  0  0  0  0  0  0  0  0  0  0  0
    0.0917    0.8256    7.1013 C   0  0  0  0  0  0  0  0  0  0  0  0
    0.8499    1.1381    5.9487 C   0  0  0  0  0  0  0  0  0  0  0  0
    0.4203    2.2952    5.3207 C   0  0  0  0  0  0  0  0  0  0  0  0
   -0.5567    3.2343    5.5981 C   0  0  0  0  0  0  0  0  0  0  0  0
   -0.4915    4.3254    4.7333 O   0  0  0  0  0  0  0  0  0  0  0  0
    0.8541    4.2466    4.3434 C   0  0  2  0  0  0  0  0  0  0  0  0
    1.4136    4.6300    2.8970 N   0  0  0  0  0  0  0  0  0  0  0  0
    2.5324    3.6450    2.6825 C   0  0  0  0  0  0  0  0  0  0  0  0
    2.4031    2.5693    3.8333 C   0  0  2  0  0  0  0  0  0  0  0  0
    2.5424    1.0108    3.8504 C   0  0  1  0  0  0  0  0  0  0  0  0
    2.0948    0.4851    5.2811 C   0  0  0  0  0  0  0  0  0  0  0  0
    1.7538    0.3136    2.7956 N   0  0  2  0  0  0  0  0  0  0  0  0
    2.3610    0.3842    1.4535 C   0  0  0  0  0  0  0  0  0  0  0  0
    3.1458   -0.8690    1.1285 C   0  0  0  0  0  0  0  0  0  0  0  0
    4.6142   -0.9637    1.4980 C   0  0  0  0  0  0  0  0  0  0  0  0
    4.2211   -0.8216    0.0574 C   0  0  0  0  0  0  0  0  0  0  0  0
    0.3120    0.6365    2.8156 C   0  0  0  0  0  0  0  0  0  0  0  0
    0.0854    2.1556    2.9179 C   0  0  0  0  0  0  0  0  0  0  0  0
    0.9704    2.7667    4.0748 C   0  0  1  0  0  0  0  0  0  0  0  0
   -3.7603    4.2863    8.4976 H   0  0  0  0  0  0  0  0  0  0  0  0
   -2.3162    3.5969    9.2155 H   0  0  0  0  0  0  0  0  0  0  0  0
   -3.4995    2.5587    8.3841 H   0  0  0  0  0  0  0  0  0  0  0  0
   -1.5420    1.4084    8.3602 H   0  0  0  0  0  0  0  0  0  0  0  0
    0.3321   -0.0572    7.6785 H   0  0  0  0  0  0  0  0  0  0  0  0
    1.5133    4.6186    5.1500 H   0  0  0  0  0  0  0  0  0  0  0  0
    0.7186    4.5106    2.1386 H   0  0  0  0  0  0  0  0  0  0  0  0
    2.4282    3.2552    1.6763 H   0  0  0  0  0  0  0  0  0  0  0  0
    3.4889    4.1607    2.7594 H   0  0  0  0  0  0  0  0  0  0  0  0
    2.9660    2.9446    4.6901 H   0  0  0  0  0  0  0  0  0  0  0  0
    3.5828    0.7440    3.7140 H   0  0  0  0  0  0  0  0  0  0  0  0
    2.9197    0.6573    5.9686 H   0  0  0  0  0  0  0  0  0  0  0  0
    1.9535   -0.5915    5.2654 H   0  0  0  0  0  0  0  0  0  0  0  0
    1.6164    0.5402    0.6827 H   0  0  0  0  0  0  0  0  0  0  0  0
    3.0361    1.2239    1.3686 H   0  0  0  0  0  0  0  0  0  0  0  0
    2.5731   -1.7977    1.1412 H   0  0  0  0  0  0  0  0  0  0  0  0
    5.0534   -0.0986    1.9904 H   0  0  0  0  0  0  0  0  0  0  0  0
    4.9911   -1.9321    1.8282 H   0  0  0  0  0  0  0  0  0  0  0  0
    4.3650   -1.6963   -0.5794 H   0  0  0  0  0  0  0  0  0  0  0  0
    4.4155    0.1356   -0.4207 H   0  0  0  0  0  0  0  0  0  0  0  0
   -0.1943    0.2141    1.9498 H   0  0  0  0  0  0  0  0  0  0  0  0
   -0.1586    0.1452    3.6613 H   0  0  0  0  0  0  0  0  0  0  0  0
    0.3083    2.5485    1.9309 H   0  0  0  0  0  0  0  0  0  0  0  0
   -0.9840    2.3564    3.0525 H   0  0  0  0  0  0  0  0  0  0  0  0
    1.7879   -0.6639    3.0253 H   0  0  0  0  0  0  0  0  0  0  0  0
    1.7431    5.5795    2.8726 H   0  0  0  0  0  0  0  0  0  0  0  0
  1  2  1  0
  1 24  1  0
  1 25  1  0
  1 26  1  0
  2  3  1  0
  3  8  2  0
  3  4  1  0
  4  5  2  0
  4 27  1  0
  5  6  1  0
  5 28  1  0
  6 15  1  0
  6  7  2  0
  7 23  1  0
  7  8  1  0
  8  9  1  0
  9 10  1  0
 10 23  1  0
 10 11  1  0
 10 29  1  1
 11 12  1  0
 11 30  1  0
 11 49  1  0
 12 13  1  0
 12 31  1  0
 12 32  1  0
 13 23  1  0
 13 14  1  0
 13 33  1  1
 14 15  1  0
 14 16  1  0
 14 34  1  6
 15 35  1  0
 15 36  1  0
 16 17  1  0
 16 21  1  0
 16 48  1  1
 17 18  1  0
 17 37  1  0
 17 38  1  0
 18 20  1  0
 18 19  1  0
 18 39  1  0
 19 20  1  0
 19 40  1  0
 19 41  1  0
 20 42  1  0
 20 43  1  0
 21 22  1  0
 21 44  1  0
 21 45  1  0
 23 22  1  6
 22 46  1  0
 22 47  1  0
M  CHG  2  11   1  16   1
M  END
>  <i_m_ct_stereo_status>  (78) 
1

>  <s_m_source_file>  (78) 
/var/tmp/pbs.5076255.sched01/tmp7hrp_b9g/014g_j70o.sdf

>  <i_m_source_file_index>  (78) 
36

>  <i_lp_mmshare_version>  (78) 
48012

>  <i_f3d_flags>  (78) 
0

>  <s_epik_input>  (78) 
W0NAXTEyM2M0YzVbY0hdW2NIXWMoT1tDSDNdKWM0T1tDQEBIXTFbTkhdW0NIMl1bQ0BASF0yW0NAQEhdKFtDSDJdNSlOKFtDSDJdW0NIMl0zKVtDSDJdW0NIXTZbQ0gyXVtDSDJdNg==

>  <s_epik_cmdline>  (78) 
J2VwaWtfcHl0aG9uJywgJy1waHQnLCAnMi4wJywgJy1waCcsICc3LjAnLCAnLXRuJywgJzgnLCAnLW1hJywgJzIwMCcsICctaW1hZScsICc8aW5maWxlLm1hZT4nLCAnLW9tYWUnLCAnPG91dGZpbGUubWFlPic=

>  <r_lp_tautomer_probability>  (78) 
1

>  <r_epik_Ionization_Penalty>  (78) 
1.78896

>  <r_epik_Ionization_Penalty_Charging>  (78) 
1.78896

>  <r_epik_Ionization_Penalty_Neutral>  (78) 
0

>  <r_epik_State_Penalty>  (78) 
1.66111

>  <r_epik_Charging_Adjusted_Penalty>  (78) 
3.45007

>  <i_epik_Tot_Q>  (78) 
2

>  <i_epik_Tot_abs_Q>  (78) 
2

>  <s_epik_Chemistry_Notes>  (78) 
This compound contains an acetal/aminal-like group ( X-CH(R)-Y where X, Y are N, S, or O) that may be acid/base labile, releasing an aldehyde.

>  <s_lp_Force_Field>  (78) 
OPLS3e

>  <r_lp_Energy>  (78) 
112.773

>  <b_lp_Chiralities_Consistent>  (78) 
1

>  <s_lp_Variant>  (78) 
22:0-2

>  <s_i_glide_gridfile>  (78) 
pfpi4k_grid

>  <i_i_glide_lignum>  (78) 
36

>  <i_i_glide_rotatable_bonds>  (78) 
3

>  <r_i_docking_score>  (78) 
-3.98898

>  <r_i_glide_ligand_efficiency>  (78) 
-0.173434

>  <r_i_glide_ligand_efficiency_sa>  (78) 
-0.493223

>  <r_i_glide_ligand_efficiency_ln>  (78) 
-0.964571

>  <r_i_glide_gscore>  (78) 
-3.98898

>  <r_i_glide_lipo>  (78) 
-0.207901

>  <r_i_glide_hbond>  (78) 
-0.193237

>  <r_i_glide_metal>  (78) 
-0

>  <r_i_glide_rewards>  (78) 
-1.2653

>  <r_i_glide_evdw>  (78) 
-16.0923

>  <r_i_glide_ecoul>  (78) 
-11.6037

>  <r_i_glide_erotb>  (78) 
0.376046

>  <r_i_glide_esite>  (78) 
-0.153408

>  <r_i_glide_emodel>  (78) 
-36.8177

>  <r_i_glide_energy>  (78) 
-27.696

>  <r_i_glide_einternal>  (78) 
1.75066

>  <r_i_glide_intrahb_reward>  (78) 
-0

>  <i_i_glide_confnum>  (78) 
4

>  <i_i_glide_posenum>  (78) 
21

>  <r_i_glide_eff_state_penalty>  (78) 
0

>  <ligand_id>  (78) 
22

>  <original_smiles>  (78) 
COc1ccc2c3c1OC1NCC4C(C2)N(CC2CC2)CCC314

>  <smiles>  (78) 
[H]c1c([H])c2c3c(c1OC([H])([H])[H])OC1([H])C34C([H])([H])C([H])([H])[N+]([H])(C([H])([H])C3([H])C([H])([H])C3([H])[H])C([H])(C2([H])[H])C4([H])C([H])([H])[N+]1([H])[H]

$$$$
22:1:1
     RDKit          3D

 49 54  0  0  1  0  0  0  0  0999 V2000
   -3.2922    3.6275    8.8226 C   0  0  0  0  0  0  0  0  0  0  0  0
   -2.5854    3.9986    7.6466 O   0  0  0  0  0  0  0  0  0  0  0  0
   -1.4322    3.3127    7.3326 C   0  0  0  0  0  0  0  0  0  0  0  0
   -0.8584    2.2797    8.1496 C   0  0  0  0  0  0  0  0  0  0  0  0
    0.3794    1.6340    7.8299 C   0  0  0  0  0  0  0  0  0  0  0  0
    1.0562    1.9894    6.6447 C   0  0  0  0  0  0  0  0  0  0  0  0
    0.4022    2.9647    5.9123 C   0  0  0  0  0  0  0  0  0  0  0  0
   -0.7559    3.6875    6.1492 C   0  0  0  0  0  0  0  0  0  0  0  0
   -0.9269    4.6816    5.1838 O   0  0  0  0  0  0  0  0  0  0  0  0
    0.4008    4.8582    4.7632 C   0  0  2  0  0  0  0  0  0  0  0  0
    0.8685    5.2112    3.2800 N   0  0  0  0  0  0  0  0  0  0  0  0
    2.1827    4.4635    3.1317 C   0  0  0  0  0  0  0  0  0  0  0  0
    2.2745    3.5010    4.3801 C   0  0  2  0  0  0  0  0  0  0  0  0
    2.7414    2.0150    4.5399 C   0  0  1  0  0  0  0  0  0  0  0  0
    2.4134    1.5487    6.0248 C   0  0  0  0  0  0  0  0  0  0  0  0
    2.1136    1.0637    3.5693 N   0  0  2  0  0  0  0  0  0  0  0  0
    2.7000    1.1069    2.2102 C   0  0  0  0  0  0  0  0  0  0  0  0
    2.5920   -0.2253    1.4938 C   0  0  0  0  0  0  0  0  0  0  0  0
    3.6205   -1.3084    1.7344 C   0  0  0  0  0  0  0  0  0  0  0  0
    3.5936   -0.5846    0.4157 C   0  0  0  0  0  0  0  0  0  0  0  0
    0.6283    1.0862    3.5844 C   0  0  0  0  0  0  0  0  0  0  0  0
    0.0925    2.5317    3.5371 C   0  0  0  0  0  0  0  0  0  0  0  0
    0.8283    3.4233    4.6161 C   0  0  1  0  0  0  0  0  0  0  0  0
   -4.1963    4.2306    8.8898 H   0  0  0  0  0  0  0  0  0  0  0  0
   -2.7062    3.8152    9.7226 H   0  0  0  0  0  0  0  0  0  0  0  0
   -3.6037    2.5823    8.8076 H   0  0  0  0  0  0  0  0  0  0  0  0
   -1.3436    1.9721    9.0610 H   0  0  0  0  0  0  0  0  0  0  0  0
    0.7946    0.8809    8.4879 H   0  0  0  0  0  0  0  0  0  0  0  0
    0.9715    5.4293    5.5046 H   0  0  0  0  0  0  0  0  0  0  0  0
    0.2254    4.8803    2.5678 H   0  0  0  0  0  0  0  0  0  0  0  0
    2.2156    3.9781    2.1561 H   0  0  0  0  0  0  0  0  0  0  0  0
    3.0017    5.1837    3.1555 H   0  0  0  0  0  0  0  0  0  0  0  0
    2.7504    4.0669    5.1827 H   0  0  0  0  0  0  0  0  0  0  0  0
    3.8225    1.9611    4.4106 H   0  0  0  0  0  0  0  0  0  0  0  0
    3.1858    1.9526    6.6782 H   0  0  0  0  0  0  0  0  0  0  0  0
    2.4996    0.4667    6.1101 H   0  0  0  0  0  0  0  0  0  0  0  0
    2.2147    1.8658    1.6020 H   0  0  0  0  0  0  0  0  0  0  0  0
    3.7591    1.3451    2.2796 H   0  0  0  0  0  0  0  0  0  0  0  0
    1.5725   -0.5530    1.2840 H   0  0  0  0  0  0  0  0  0  0  0  0
    4.4283   -1.0775    2.4277 H   0  0  0  0  0  0  0  0  0  0  0  0
    3.2616   -2.3373    1.7487 H   0  0  0  0  0  0  0  0  0  0  0  0
    3.2280   -1.1410   -0.4462 H   0  0  0  0  0  0  0  0  0  0  0  0
    4.3888    0.1284    0.2049 H   0  0  0  0  0  0  0  0  0  0  0  0
    0.2177    0.4883    2.7695 H   0  0  0  0  0  0  0  0  0  0  0  0
    0.2800    0.5875    4.4902 H   0  0  0  0  0  0  0  0  0  0  0  0
    0.2218    2.8772    2.5107 H   0  0  0  0  0  0  0  0  0  0  0  0
   -0.9890    2.5086    3.6858 H   0  0  0  0  0  0  0  0  0  0  0  0
    2.3741    0.1500    3.9060 H   0  0  0  0  0  0  0  0  0  0  0  0
    0.9949    6.2076    3.1710 H   0  0  0  0  0  0  0  0  0  0  0  0
  1  2  1  0
  1 24  1  0
  1 25  1  0
  1 26  1  0
  2  3  1  0
  3  8  2  0
  3  4  1  0
  4  5  2  0
  4 27  1  0
  5  6  1  0
  5 28  1  0
  6 15  1  0
  6  7  2  0
  7 23  1  0
  7  8  1  0
  8  9  1  0
  9 10  1  0
 10 23  1  0
 10 11  1  0
 10 29  1  1
 11 12  1  0
 11 30  1  0
 11 49  1  0
 12 13  1  0
 12 31  1  0
 12 32  1  0
 13 23  1  0
 13 14  1  0
 13 33  1  1
 14 15  1  0
 14 16  1  0
 14 34  1  1
 15 35  1  0
 15 36  1  0
 16 17  1  0
 16 21  1  0
 16 48  1  1
 17 18  1  0
 17 37  1  0
 17 38  1  0
 18 20  1  0
 18 19  1  0
 18 39  1  0
 19 20  1  0
 19 40  1  0
 19 41  1  0
 20 42  1  0
 20 43  1  0
 21 22  1  0
 21 44  1  0
 21 45  1  0
 23 22  1  6
 22 46  1  0
 22 47  1  0
M  CHG  2  11   1  16   1
M  END
>  <i_m_ct_stereo_status>  (79) 
1

>  <s_m_source_file>  (79) 
/var/tmp/pbs.5076255.sched01/tmp7hrp_b9g/014g_j70o.sdf

>  <i_m_source_file_index>  (79) 
36

>  <i_lp_mmshare_version>  (79) 
48012

>  <i_f3d_flags>  (79) 
0

>  <s_epik_input>  (79) 
W0NAXTEyM2M0YzVbY0hdW2NIXWMoT1tDSDNdKWM0T1tDQEBIXTFbTkhdW0NIMl1bQ0BASF0yW0NAQEhdKFtDSDJdNSlOKFtDSDJdW0NIMl0zKVtDSDJdW0NIXTZbQ0gyXVtDSDJdNg==

>  <s_epik_cmdline>  (79) 
J2VwaWtfcHl0aG9uJywgJy1waHQnLCAnMi4wJywgJy1waCcsICc3LjAnLCAnLXRuJywgJzgnLCAnLW1hJywgJzIwMCcsICctaW1hZScsICc8aW5maWxlLm1hZT4nLCAnLW9tYWUnLCAnPG91dGZpbGUubWFlPic=

>  <r_lp_tautomer_probability>  (79) 
1

>  <r_epik_Ionization_Penalty>  (79) 
1.78896

>  <r_epik_Ionization_Penalty_Charging>  (79) 
1.78896

>  <r_epik_Ionization_Penalty_Neutral>  (79) 
0

>  <r_epik_State_Penalty>  (79) 
1.66111

>  <r_epik_Charging_Adjusted_Penalty>  (79) 
3.45007

>  <i_epik_Tot_Q>  (79) 
2

>  <i_epik_Tot_abs_Q>  (79) 
2

>  <s_epik_Chemistry_Notes>  (79) 
This compound contains an acetal/aminal-like group ( X-CH(R)-Y where X, Y are N, S, or O) that may be acid/base labile, releasing an aldehyde.

>  <s_lp_Force_Field>  (79) 
OPLS3e

>  <r_lp_Energy>  (79) 
112.773

>  <b_lp_Chiralities_Consistent>  (79) 
1

>  <s_lp_Variant>  (79) 
22:0-2

>  <s_i_glide_gridfile>  (79) 
pfpi4k_grid

>  <i_i_glide_lignum>  (79) 
36

>  <i_i_glide_rotatable_bonds>  (79) 
3

>  <r_i_docking_score>  (79) 
-3.56764

>  <r_i_glide_ligand_efficiency>  (79) 
-0.155115

>  <r_i_glide_ligand_efficiency_sa>  (79) 
-0.441126

>  <r_i_glide_ligand_efficiency_ln>  (79) 
-0.862689

>  <r_i_glide_gscore>  (79) 
-3.56764

>  <r_i_glide_lipo>  (79) 
-0.0989769

>  <r_i_glide_hbond>  (79) 
-0.175589

>  <r_i_glide_metal>  (79) 
-0

>  <r_i_glide_rewards>  (79) 
-1.2653

>  <r_i_glide_evdw>  (79) 
-16.1503

>  <r_i_glide_ecoul>  (79) 
-9.71332

>  <r_i_glide_erotb>  (79) 
0.376046

>  <r_i_glide_esite>  (79) 
-0.139306

>  <r_i_glide_emodel>  (79) 
-34.6862

>  <r_i_glide_energy>  (79) 
-25.8636

>  <r_i_glide_einternal>  (79) 
0.470243

>  <r_i_glide_intrahb_reward>  (79) 
-0

>  <i_i_glide_confnum>  (79) 
4

>  <i_i_glide_posenum>  (79) 
15

>  <r_i_glide_eff_state_penalty>  (79) 
0

>  <ligand_id>  (79) 
22

>  <original_smiles>  (79) 
COc1ccc2c3c1OC1NCC4C(C2)N(CC2CC2)CCC314

>  <smiles>  (79) 
[H]c1c([H])c2c3c(c1OC([H])([H])[H])OC1([H])C34C([H])([H])C([H])([H])[N+]([H])(C([H])([H])C3([H])C([H])([H])C3([H])[H])C([H])(C2([H])[H])C4([H])C([H])([H])[N+]1([H])[H]

$$$$
22:1:2
     RDKit          3D

 49 54  0  0  1  0  0  0  0  0999 V2000
   -2.4062    2.4510    7.0341 C   0  0  0  0  0  0  0  0  0  0  0  0
   -1.7514    1.3199    7.6161 O   0  0  0  0  0  0  0  0  0  0  0  0
   -0.5664    0.9105    7.0317 C   0  0  0  0  0  0  0  0  0  0  0  0
    0.1706   -0.1666    7.6263 C   0  0  0  0  0  0  0  0  0  0  0  0
    1.4282   -0.6330    7.1209 C   0  0  0  0  0  0  0  0  0  0  0  0
    1.9755   -0.0300    5.9712 C   0  0  0  0  0  0  0  0  0  0  0  0
    1.1704    0.9839    5.4628 C   0  0  0  0  0  0  0  0  0  0  0  0
   -0.0232    1.5292    5.8864 C   0  0  0  0  0  0  0  0  0  0  0  0
   -0.3659    2.6442    5.1193 O   0  0  0  0  0  0  0  0  0  0  0  0
    0.8926    3.0263    4.6764 C   0  0  2  0  0  0  0  0  0  0  0  0
    1.1875    3.6711    3.2719 N   0  0  0  0  0  0  0  0  0  0  0  0
    2.5352    3.0992    2.8777 C   0  0  0  0  0  0  0  0  0  0  0  0
    2.8416    1.9649    3.9340 C   0  0  2  0  0  0  0  0  0  0  0  0
    3.4473    0.5288    3.7962 C   0  0  1  0  0  0  0  0  0  0  0  0
    3.3026   -0.2171    5.1886 C   0  0  0  0  0  0  0  0  0  0  0  0
    2.8234   -0.2990    2.7175 N   0  0  2  0  0  0  0  0  0  0  0  0
    3.2723    0.0500    1.3569 C   0  0  0  0  0  0  0  0  0  0  0  0
    3.5251   -1.1883    0.5163 C   0  0  0  0  0  0  0  0  0  0  0  0
    4.7919   -1.9942    0.7142 C   0  0  0  0  0  0  0  0  0  0  0  0
    4.6187   -1.1689   -0.5320 C   0  0  0  0  0  0  0  0  0  0  0  0
    1.3489   -0.4448    2.8366 C   0  0  0  0  0  0  0  0  0  0  0  0
    0.6795    0.9215    3.0858 C   0  0  0  0  0  0  0  0  0  0  0  0
    1.4392    1.6906    4.2472 C   0  0  1  0  0  0  0  0  0  0  0  0
   -3.3416    2.7115    7.5372 H   0  0  0  0  0  0  0  0  0  0  0  0
   -2.6472    2.2490    5.9865 H   0  0  0  0  0  0  0  0  0  0  0  0
   -1.7532    3.3278    7.0854 H   0  0  0  0  0  0  0  0  0  0  0  0
   -0.2233   -0.6362    8.5089 H   0  0  0  0  0  0  0  0  0  0  0  0
    1.9467   -1.4410    7.6226 H   0  0  0  0  0  0  0  0  0  0  0  0
    1.4652    3.5134    5.4735 H   0  0  0  0  0  0  0  0  0  0  0  0
    0.4866    3.4230    2.5720 H   0  0  0  0  0  0  0  0  0  0  0  0
    2.4938    2.7591    1.8414 H   0  0  0  0  0  0  0  0  0  0  0  0
    3.2784    3.8983    2.9582 H   0  0  0  0  0  0  0  0  0  0  0  0
    3.3281    2.4374    4.7901 H   0  0  0  0  0  0  0  0  0  0  0  0
    4.5117    0.6138    3.5816 H   0  0  0  0  0  0  0  0  0  0  0  0
    4.0814    0.1631    5.8483 H   0  0  0  0  0  0  0  0  0  0  0  0
    3.4936   -1.2843    5.0756 H   0  0  0  0  0  0  0  0  0  0  0  0
    2.5280    0.6722    0.8724 H   0  0  0  0  0  0  0  0  0  0  0  0
    4.2039    0.6169    1.3884 H   0  0  0  0  0  0  0  0  0  0  0  0
    2.6268   -1.7504    0.2478 H   0  0  0  0  0  0  0  0  0  0  0  0
    5.4880   -1.6418    1.4751 H   0  0  0  0  0  0  0  0  0  0  0  0
    4.7140   -3.0775    0.6150 H   0  0  0  0  0  0  0  0  0  0  0  0
    4.4529   -1.7134   -1.4598 H   0  0  0  0  0  0  0  0  0  0  0  0
    5.2173   -0.2639   -0.6245 H   0  0  0  0  0  0  0  0  0  0  0  0
    0.9392   -0.9368    1.9507 H   0  0  0  0  0  0  0  0  0  0  0  0
    1.1278   -1.1229    3.6632 H   0  0  0  0  0  0  0  0  0  0  0  0
    0.6629    1.4546    2.1374 H   0  0  0  0  0  0  0  0  0  0  0  0
   -0.3734    0.7571    3.3261 H   0  0  0  0  0  0  0  0  0  0  0  0
    3.1933   -1.2265    2.8650 H   0  0  0  0  0  0  0  0  0  0  0  0
    1.2111    4.6754    3.3264 H   0  0  0  0  0  0  0  0  0  0  0  0
  1  2  1  0
  1 24  1  0
  1 25  1  0
  1 26  1  0
  2  3  1  0
  3  8  2  0
  3  4  1  0
  4  5  2  0
  4 27  1  0
  5  6  1  0
  5 28  1  0
  6 15  1  0
  6  7  2  0
  7 23  1  0
  7  8  1  0
  8  9  1  0
  9 10  1  0
 10 23  1  0
 10 11  1  0
 10 29  1  1
 11 12  1  0
 11 30  1  0
 11 49  1  0
 12 13  1  0
 12 31  1  0
 12 32  1  0
 13 23  1  0
 13 14  1  0
 13 33  1  1
 14 15  1  0
 14 16  1  0
 14 34  1  6
 15 35  1  0
 15 36  1  0
 16 17  1  0
 16 21  1  0
 16 48  1  1
 17 18  1  0
 17 37  1  0
 17 38  1  0
 18 20  1  0
 18 19  1  0
 18 39  1  0
 19 20  1  0
 19 40  1  0
 19 41  1  0
 20 42  1  0
 20 43  1  0
 21 22  1  0
 21 44  1  0
 21 45  1  0
 23 22  1  6
 22 46  1  0
 22 47  1  0
M  CHG  2  11   1  16   1
M  END
>  <i_m_ct_stereo_status>  (80) 
1

>  <s_m_source_file>  (80) 
/var/tmp/pbs.5076255.sched01/tmp7hrp_b9g/014g_j70o.sdf

>  <i_m_source_file_index>  (80) 
36

>  <i_lp_mmshare_version>  (80) 
48012

>  <i_f3d_flags>  (80) 
0

>  <s_epik_input>  (80) 
W0NAXTEyM2M0YzVbY0hdW2NIXWMoT1tDSDNdKWM0T1tDQEBIXTFbTkhdW0NIMl1bQ0BASF0yW0NAQEhdKFtDSDJdNSlOKFtDSDJdW0NIMl0zKVtDSDJdW0NIXTZbQ0gyXVtDSDJdNg==

>  <s_epik_cmdline>  (80) 
J2VwaWtfcHl0aG9uJywgJy1waHQnLCAnMi4wJywgJy1waCcsICc3LjAnLCAnLXRuJywgJzgnLCAnLW1hJywgJzIwMCcsICctaW1hZScsICc8aW5maWxlLm1hZT4nLCAnLW9tYWUnLCAnPG91dGZpbGUubWFlPic=

>  <r_lp_tautomer_probability>  (80) 
1

>  <r_epik_Ionization_Penalty>  (80) 
1.78896

>  <r_epik_Ionization_Penalty_Charging>  (80) 
1.78896

>  <r_epik_Ionization_Penalty_Neutral>  (80) 
0

>  <r_epik_State_Penalty>  (80) 
1.66111

>  <r_epik_Charging_Adjusted_Penalty>  (80) 
3.45007

>  <i_epik_Tot_Q>  (80) 
2

>  <i_epik_Tot_abs_Q>  (80) 
2

>  <s_epik_Chemistry_Notes>  (80) 
This compound contains an acetal/aminal-like group ( X-CH(R)-Y where X, Y are N, S, or O) that may be acid/base labile, releasing an aldehyde.

>  <s_lp_Force_Field>  (80) 
OPLS3e

>  <r_lp_Energy>  (80) 
112.773

>  <b_lp_Chiralities_Consistent>  (80) 
1

>  <s_lp_Variant>  (80) 
22:0-2

>  <s_i_glide_gridfile>  (80) 
pfpi4k_grid

>  <i_i_glide_lignum>  (80) 
36

>  <i_i_glide_rotatable_bonds>  (80) 
3

>  <r_i_docking_score>  (80) 
-3.37286

>  <r_i_glide_ligand_efficiency>  (80) 
-0.146646

>  <r_i_glide_ligand_efficiency_sa>  (80) 
-0.417043

>  <r_i_glide_ligand_efficiency_ln>  (80) 
-0.815589

>  <r_i_glide_gscore>  (80) 
-3.37286

>  <r_i_glide_lipo>  (80) 
-0.114013

>  <r_i_glide_hbond>  (80) 
-0.218692

>  <r_i_glide_metal>  (80) 
-0

>  <r_i_glide_rewards>  (80) 
-1.2653

>  <r_i_glide_evdw>  (80) 
-15.1953

>  <r_i_glide_ecoul>  (80) 
-8.50935

>  <r_i_glide_erotb>  (80) 
0.376046

>  <r_i_glide_esite>  (80) 
-0.114732

>  <r_i_glide_emodel>  (80) 
-28.5666

>  <r_i_glide_energy>  (80) 
-23.7047

>  <r_i_glide_einternal>  (80) 
6.67545

>  <r_i_glide_intrahb_reward>  (80) 
-0

>  <i_i_glide_confnum>  (80) 
4

>  <i_i_glide_posenum>  (80) 
27

>  <r_i_glide_eff_state_penalty>  (80) 
0

>  <ligand_id>  (80) 
22

>  <original_smiles>  (80) 
COc1ccc2c3c1OC1NCC4C(C2)N(CC2CC2)CCC314

>  <smiles>  (80) 
[H]c1c([H])c2c3c(c1OC([H])([H])[H])OC1([H])C34C([H])([H])C([H])([H])[N+]([H])(C([H])([H])C3([H])C([H])([H])C3([H])[H])C([H])(C2([H])[H])C4([H])C([H])([H])[N+]1([H])[H]

$$$$
22:2:0
     RDKit          3D

 48 53  0  0  1  0  0  0  0  0999 V2000
   -2.9949    3.4155    8.4628 C   0  0  0  0  0  0  0  0  0  0  0  0
   -2.3844    3.7533    7.2213 O   0  0  0  0  0  0  0  0  0  0  0  0
   -1.1648    3.1846    6.9228 C   0  0  0  0  0  0  0  0  0  0  0  0
   -0.5025    2.2159    7.7474 C   0  0  0  0  0  0  0  0  0  0  0  0
    0.7862    1.6660    7.4374 C   0  0  0  0  0  0  0  0  0  0  0  0
    1.4318    2.0575    6.2463 C   0  0  0  0  0  0  0  0  0  0  0  0
    0.7029    2.9851    5.5227 C   0  0  0  0  0  0  0  0  0  0  0  0
   -0.5142    3.6200    5.7241 C   0  0  0  0  0  0  0  0  0  0  0  0
   -0.7585    4.5964    4.7584 O   0  0  0  0  0  0  0  0  0  0  0  0
    0.5625    4.8786    4.3729 C   0  0  2  0  0  0  0  0  0  0  0  0
    1.0230    5.2929    2.9027 N   0  0  0  0  0  0  0  0  0  0  0  0
    2.4021    4.6664    2.7822 C   0  0  0  0  0  0  0  0  0  0  0  0
    2.5667    3.7352    4.0414 C   0  0  2  0  0  0  0  0  0  0  0  0
    3.1631    2.3040    4.1708 C   0  0  1  0  0  0  0  0  0  0  0  0
    2.8019    1.6956    5.6049 C   0  0  0  0  0  0  0  0  0  0  0  0
    2.7155    1.4381    3.0622 N   0  0  0  0  0  0  0  0  0  0  0  0
    3.4765    0.1851    3.0126 C   0  0  0  0  0  0  0  0  0  0  0  0
    3.3783   -0.5071    1.6599 C   0  0  0  0  0  0  0  0  0  0  0  0
    4.2445   -1.7107    1.3620 C   0  0  0  0  0  0  0  0  0  0  0  0
    4.5041   -0.4056    0.6582 C   0  0  0  0  0  0  0  0  0  0  0  0
    1.2689    1.1998    3.0835 C   0  0  0  0  0  0  0  0  0  0  0  0
    0.5155    2.5382    3.1488 C   0  0  0  0  0  0  0  0  0  0  0  0
    1.1322    3.4879    4.2459 C   0  0  1  0  0  0  0  0  0  0  0  0
   -3.9483    3.9327    8.5398 H   0  0  0  0  0  0  0  0  0  0  0  0
   -2.3914    3.7261    9.3146 H   0  0  0  0  0  0  0  0  0  0  0  0
   -3.2038    2.3505    8.5381 H   0  0  0  0  0  0  0  0  0  0  0  0
   -0.9639    1.8676    8.6657 H   0  0  0  0  0  0  0  0  0  0  0  0
    1.2542    0.9501    8.0981 H   0  0  0  0  0  0  0  0  0  0  0  0
    1.0563    5.5029    5.1417 H   0  0  0  0  0  0  0  0  0  0  0  0
    0.4500    4.8817    2.1494 H   0  0  0  0  0  0  0  0  0  0  0  0
    2.4935    4.1298    1.8349 H   0  0  0  0  0  0  0  0  0  0  0  0
    3.1690    5.4402    2.7943 H   0  0  0  0  0  0  0  0  0  0  0  0
    2.9494    4.3379    4.8656 H   0  0  0  0  0  0  0  0  0  0  0  0
    4.2413    2.3872    4.0938 H   0  0  0  0  0  0  0  0  0  0  0  0
    3.5393    2.0675    6.3053 H   0  0  0  0  0  0  0  0  0  0  0  0
    2.9102    0.6147    5.6261 H   0  0  0  0  0  0  0  0  0  0  0  0
    4.5303    0.3881    3.1978 H   0  0  0  0  0  0  0  0  0  0  0  0
    3.1546   -0.5122    3.7865 H   0  0  0  0  0  0  0  0  0  0  0  0
    2.3779   -0.5990    1.2474 H   0  0  0  0  0  0  0  0  0  0  0  0
    4.9471   -2.0297    2.1285 H   0  0  0  0  0  0  0  0  0  0  0  0
    3.7992   -2.5107    0.7714 H   0  0  0  0  0  0  0  0  0  0  0  0
    4.2182   -0.3287   -0.3892 H   0  0  0  0  0  0  0  0  0  0  0  0
    5.3810    0.1672    0.9485 H   0  0  0  0  0  0  0  0  0  0  0  0
    0.9532    0.6841    2.1760 H   0  0  0  0  0  0  0  0  0  0  0  0
    0.9920    0.5539    3.9179 H   0  0  0  0  0  0  0  0  0  0  0  0
    0.5772    2.9328    2.1399 H   0  0  0  0  0  0  0  0  0  0  0  0
   -0.5511    2.3484    3.3022 H   0  0  0  0  0  0  0  0  0  0  0  0
    1.0503    6.2988    2.7807 H   0  0  0  0  0  0  0  0  0  0  0  0
  1  2  1  0
  1 24  1  0
  1 25  1  0
  1 26  1  0
  2  3  1  0
  3  8  2  0
  3  4  1  0
  4  5  2  0
  4 27  1  0
  5  6  1  0
  5 28  1  0
  6 15  1  0
  6  7  2  0
  7 23  1  0
  7  8  1  0
  8  9  1  0
  9 10  1  0
 10 23  1  0
 10 11  1  0
 10 29  1  1
 11 12  1  0
 11 30  1  0
 11 48  1  0
 12 13  1  0
 12 31  1  0
 12 32  1  0
 13 23  1  0
 13 14  1  0
 13 33  1  1
 14 15  1  0
 14 16  1  0
 14 34  1  1
 15 35  1  0
 15 36  1  0
 16 17  1  0
 16 21  1  0
 17 18  1  0
 17 37  1  0
 17 38  1  0
 18 20  1  0
 18 19  1  0
 18 39  1  0
 19 20  1  0
 19 40  1  0
 19 41  1  0
 20 42  1  0
 20 43  1  0
 21 22  1  0
 21 44  1  0
 21 45  1  0
 23 22  1  6
 22 46  1  0
 22 47  1  0
M  CHG  1  11   1
M  END
>  <i_m_ct_stereo_status>  (81) 
1

>  <s_m_source_file>  (81) 
/var/tmp/pbs.5076255.sched01/tmp7hrp_b9g/014g_j70o.sdf

>  <i_m_source_file_index>  (81) 
37

>  <i_lp_mmshare_version>  (81) 
48012

>  <i_f3d_flags>  (81) 
0

>  <s_epik_input>  (81) 
W0NAXTEyM2M0YzVbY0hdW2NIXWMoT1tDSDNdKWM0T1tDQEBIXTFbTkhdW0NIMl1bQ0BASF0yW0NAQEhdKFtDSDJdNSlOKFtDSDJdW0NIMl0zKVtDSDJdW0NIXTZbQ0gyXVtDSDJdNg==

>  <s_epik_cmdline>  (81) 
J2VwaWtfcHl0aG9uJywgJy1waHQnLCAnMi4wJywgJy1waCcsICc3LjAnLCAnLXRuJywgJzgnLCAnLW1hJywgJzIwMCcsICctaW1hZScsICc8aW5maWxlLm1hZT4nLCAnLW9tYWUnLCAnPG91dGZpbGUubWFlPic=

>  <r_epik_Ionization_Penalty>  (81) 
1.16549

>  <r_epik_Ionization_Penalty_Charging>  (81) 
0.351877

>  <r_epik_Ionization_Penalty_Neutral>  (81) 
0.81361

>  <r_epik_State_Penalty>  (81) 
2.2598

>  <r_epik_Charging_Adjusted_Penalty>  (81) 
2.61168

>  <i_epik_Tot_Q>  (81) 
1

>  <i_epik_Tot_abs_Q>  (81) 
1

>  <s_epik_Chemistry_Notes>  (81) 
This compound contains an acetal/aminal-like group ( X-CH(R)-Y where X, Y are N, S, or O) that may be acid/base labile, releasing an aldehyde.

>  <s_lp_Force_Field>  (81) 
OPLS3e

>  <r_lp_Energy>  (81) 
104.725

>  <b_lp_Chiralities_Consistent>  (81) 
1

>  <s_lp_Variant>  (81) 
22:0-3

>  <s_i_glide_gridfile>  (81) 
pfpi4k_grid

>  <i_i_glide_lignum>  (81) 
37

>  <i_i_glide_rotatable_bonds>  (81) 
3

>  <r_i_docking_score>  (81) 
-3.55752

>  <r_i_glide_ligand_efficiency>  (81) 
-0.154675

>  <r_i_glide_ligand_efficiency_sa>  (81) 
-0.439874

>  <r_i_glide_ligand_efficiency_ln>  (81) 
-0.86024

>  <r_i_glide_gscore>  (81) 
-3.55752

>  <r_i_glide_lipo>  (81) 
-0.256002

>  <r_i_glide_hbond>  (81) 
-0.194417

>  <r_i_glide_metal>  (81) 
-0

>  <r_i_glide_rewards>  (81) 
-1.27218

>  <r_i_glide_evdw>  (81) 
-15.6423

>  <r_i_glide_ecoul>  (81) 
-8.58027

>  <r_i_glide_erotb>  (81) 
0.378175

>  <r_i_glide_esite>  (81) 
-0.143938

>  <r_i_glide_emodel>  (81) 
-31.8842

>  <r_i_glide_energy>  (81) 
-24.2226

>  <r_i_glide_einternal>  (81) 
0.276779

>  <r_i_glide_intrahb_reward>  (81) 
-0

>  <i_i_glide_confnum>  (81) 
2

>  <i_i_glide_posenum>  (81) 
26

>  <r_i_glide_eff_state_penalty>  (81) 
0

>  <ligand_id>  (81) 
22

>  <original_smiles>  (81) 
COc1ccc2c3c1OC1NCC4C(C2)N(CC2CC2)CCC314

>  <smiles>  (81) 
[H]c1c([H])c2c3c(c1OC([H])([H])[H])OC1([H])C34C([H])([H])C([H])([H])N(C([H])([H])C3([H])C([H])([H])C3([H])[H])C([H])(C2([H])[H])C4([H])C([H])([H])[N+]1([H])[H]

$$$$
22:2:1
     RDKit          3D

 48 53  0  0  1  0  0  0  0  0999 V2000
   -2.7715    2.5501    6.5661 C   0  0  0  0  0  0  0  0  0  0  0  0
   -2.1525    1.3521    7.0383 O   0  0  0  0  0  0  0  0  0  0  0  0
   -0.9043    1.0514    6.5088 C   0  0  0  0  0  0  0  0  0  0  0  0
   -0.1770   -0.0537    7.0578 C   0  0  0  0  0  0  0  0  0  0  0  0
    1.1342   -0.4414    6.6359 C   0  0  0  0  0  0  0  0  0  0  0  0
    1.7448    0.2890    5.5971 C   0  0  0  0  0  0  0  0  0  0  0  0
    0.9703    1.3316    5.1253 C   0  0  0  0  0  0  0  0  0  0  0  0
   -0.2857    1.7958    5.4840 C   0  0  0  0  0  0  0  0  0  0  0  0
   -0.6053    2.9796    4.8003 O   0  0  0  0  0  0  0  0  0  0  0  0
    0.6973    3.4421    4.5495 C   0  0  2  0  0  0  0  0  0  0  0  0
    1.0886    4.2622    3.2844 N   0  0  0  0  0  0  0  0  0  0  0  0
    2.5124    3.7768    2.9715 C   0  0  0  0  0  0  0  0  0  0  0  0
    2.7524    2.5647    3.9460 C   0  0  2  0  0  0  0  0  0  0  0  0
    3.4339    1.1865    3.6813 C   0  0  1  0  0  0  0  0  0  0  0  0
    3.1334    0.1917    4.8977 C   0  0  0  0  0  0  0  0  0  0  0  0
    3.0230    0.6381    2.3760 N   0  0  0  0  0  0  0  0  0  0  0  0
    3.8589   -0.5047    1.9986 C   0  0  0  0  0  0  0  0  0  0  0  0
    3.7657   -0.8457    0.5163 C   0  0  0  0  0  0  0  0  0  0  0  0
    4.4989   -2.0498   -0.0277 C   0  0  0  0  0  0  0  0  0  0  0  0
    4.9527   -0.6615   -0.3962 C   0  0  0  0  0  0  0  0  0  0  0  0
    1.5866    0.3085    2.3265 C   0  0  0  0  0  0  0  0  0  0  0  0
    0.7577    1.5337    2.7350 C   0  0  0  0  0  0  0  0  0  0  0  0
    1.3371    2.1811    4.0566 C   0  0  1  0  0  0  0  0  0  0  0  0
   -3.7605    2.7369    7.0076 H   0  0  0  0  0  0  0  0  0  0  0  0
   -2.9252    2.5204    5.4843 H   0  0  0  0  0  0  0  0  0  0  0  0
   -2.1435    3.4142    6.8006 H   0  0  0  0  0  0  0  0  0  0  0  0
   -0.6115   -0.6377    7.8607 H   0  0  0  0  0  0  0  0  0  0  0  0
    1.6339   -1.2797    7.1013 H   0  0  0  0  0  0  0  0  0  0  0  0
    1.1402    3.8603    5.4660 H   0  0  0  0  0  0  0  0  0  0  0  0
    0.5325    4.0580    2.4327 H   0  0  0  0  0  0  0  0  0  0  0  0
    2.5947    3.5363    1.9229 H   0  0  0  0  0  0  0  0  0  0  0  0
    3.1973    4.5840    3.2021 H   0  0  0  0  0  0  0  0  0  0  0  0
    3.0988    2.9488    4.9032 H   0  0  0  0  0  0  0  0  0  0  0  0
    4.5102    1.3471    3.6694 H   0  0  0  0  0  0  0  0  0  0  0  0
    3.8396    0.4224    5.6817 H   0  0  0  0  0  0  0  0  0  0  0  0
    3.3065   -0.8452    4.6306 H   0  0  0  0  0  0  0  0  0  0  0  0
    4.8989   -0.2754    2.2212 H   0  0  0  0  0  0  0  0  0  0  0  0
    3.6008   -1.3911    2.5777 H   0  0  0  0  0  0  0  0  0  0  0  0
    2.7962   -0.6988    0.0647 H   0  0  0  0  0  0  0  0  0  0  0  0
    5.1085   -2.6276    0.6617 H   0  0  0  0  0  0  0  0  0  0  0  0
    3.9869   -2.6267   -0.7990 H   0  0  0  0  0  0  0  0  0  0  0  0
    4.7280   -0.3081   -1.4023 H   0  0  0  0  0  0  0  0  0  0  0  0
    5.8651   -0.2768    0.0496 H   0  0  0  0  0  0  0  0  0  0  0  0
    1.2726    0.0277    1.3203 H   0  0  0  0  0  0  0  0  0  0  0  0
    1.3659   -0.5495    2.9650 H   0  0  0  0  0  0  0  0  0  0  0  0
    0.7388    2.1950    1.8753 H   0  0  0  0  0  0  0  0  0  0  0  0
   -0.2883    1.2315    2.8499 H   0  0  0  0  0  0  0  0  0  0  0  0
    1.0699    5.2401    3.4236 H   0  0  0  0  0  0  0  0  0  0  0  0
  1  2  1  0
  1 24  1  0
  1 25  1  0
  1 26  1  0
  2  3  1  0
  3  8  2  0
  3  4  1  0
  4  5  2  0
  4 27  1  0
  5  6  1  0
  5 28  1  0
  6 15  1  0
  6  7  2  0
  7 23  1  0
  7  8  1  0
  8  9  1  0
  9 10  1  0
 10 23  1  0
 10 11  1  0
 10 29  1  1
 11 12  1  0
 11 30  1  0
 11 48  1  0
 12 13  1  0
 12 31  1  0
 12 32  1  0
 13 23  1  0
 13 14  1  0
 13 33  1  1
 14 15  1  0
 14 16  1  0
 14 34  1  6
 15 35  1  0
 15 36  1  0
 16 17  1  0
 16 21  1  0
 17 18  1  0
 17 37  1  0
 17 38  1  0
 18 20  1  0
 18 19  1  0
 18 39  1  0
 19 20  1  0
 19 40  1  0
 19 41  1  0
 20 42  1  0
 20 43  1  0
 21 22  1  0
 21 44  1  0
 21 45  1  0
 23 22  1  6
 22 46  1  0
 22 47  1  0
M  CHG  1  11   1
M  END
>  <i_m_ct_stereo_status>  (82) 
1

>  <s_m_source_file>  (82) 
/var/tmp/pbs.5076255.sched01/tmp7hrp_b9g/014g_j70o.sdf

>  <i_m_source_file_index>  (82) 
37

>  <i_lp_mmshare_version>  (82) 
48012

>  <i_f3d_flags>  (82) 
0

>  <s_epik_input>  (82) 
W0NAXTEyM2M0YzVbY0hdW2NIXWMoT1tDSDNdKWM0T1tDQEBIXTFbTkhdW0NIMl1bQ0BASF0yW0NAQEhdKFtDSDJdNSlOKFtDSDJdW0NIMl0zKVtDSDJdW0NIXTZbQ0gyXVtDSDJdNg==

>  <s_epik_cmdline>  (82) 
J2VwaWtfcHl0aG9uJywgJy1waHQnLCAnMi4wJywgJy1waCcsICc3LjAnLCAnLXRuJywgJzgnLCAnLW1hJywgJzIwMCcsICctaW1hZScsICc8aW5maWxlLm1hZT4nLCAnLW9tYWUnLCAnPG91dGZpbGUubWFlPic=

>  <r_epik_Ionization_Penalty>  (82) 
1.16549

>  <r_epik_Ionization_Penalty_Charging>  (82) 
0.351877

>  <r_epik_Ionization_Penalty_Neutral>  (82) 
0.81361

>  <r_epik_State_Penalty>  (82) 
2.2598

>  <r_epik_Charging_Adjusted_Penalty>  (82) 
2.61168

>  <i_epik_Tot_Q>  (82) 
1

>  <i_epik_Tot_abs_Q>  (82) 
1

>  <s_epik_Chemistry_Notes>  (82) 
This compound contains an acetal/aminal-like group ( X-CH(R)-Y where X, Y are N, S, or O) that may be acid/base labile, releasing an aldehyde.

>  <s_lp_Force_Field>  (82) 
OPLS3e

>  <r_lp_Energy>  (82) 
104.725

>  <b_lp_Chiralities_Consistent>  (82) 
1

>  <s_lp_Variant>  (82) 
22:0-3

>  <s_i_glide_gridfile>  (82) 
pfpi4k_grid

>  <i_i_glide_lignum>  (82) 
37

>  <i_i_glide_rotatable_bonds>  (82) 
3

>  <r_i_docking_score>  (82) 
-3.39719

>  <r_i_glide_ligand_efficiency>  (82) 
-0.147704

>  <r_i_glide_ligand_efficiency_sa>  (82) 
-0.42005

>  <r_i_glide_ligand_efficiency_ln>  (82) 
-0.821471

>  <r_i_glide_gscore>  (82) 
-3.39719

>  <r_i_glide_lipo>  (82) 
-0.208504

>  <r_i_glide_hbond>  (82) 
-0.310771

>  <r_i_glide_metal>  (82) 
-0

>  <r_i_glide_rewards>  (82) 
-1.27218

>  <r_i_glide_evdw>  (82) 
-17.2446

>  <r_i_glide_ecoul>  (82) 
-6.65692

>  <r_i_glide_erotb>  (82) 
0.378175

>  <r_i_glide_esite>  (82) 
-0.123144

>  <r_i_glide_emodel>  (82) 
-28.117

>  <r_i_glide_energy>  (82) 
-23.9015

>  <r_i_glide_einternal>  (82) 
5.72617

>  <r_i_glide_intrahb_reward>  (82) 
-0

>  <i_i_glide_confnum>  (82) 
2

>  <i_i_glide_posenum>  (82) 
16

>  <r_i_glide_eff_state_penalty>  (82) 
0

>  <ligand_id>  (82) 
22

>  <original_smiles>  (82) 
COc1ccc2c3c1OC1NCC4C(C2)N(CC2CC2)CCC314

>  <smiles>  (82) 
[H]c1c([H])c2c3c(c1OC([H])([H])[H])OC1([H])C34C([H])([H])C([H])([H])N(C([H])([H])C3([H])C([H])([H])C3([H])[H])C([H])(C2([H])[H])C4([H])C([H])([H])[N+]1([H])[H]

$$$$
22:2:2
     RDKit          3D

 48 53  0  0  1  0  0  0  0  0999 V2000
   -4.1695    4.1221    2.0786 C   0  0  0  0  0  0  0  0  0  0  0  0
   -2.9799    4.7530    2.5426 O   0  0  0  0  0  0  0  0  0  0  0  0
   -2.1420    4.0324    3.3686 C   0  0  0  0  0  0  0  0  0  0  0  0
   -2.5098    2.8112    4.0208 C   0  0  0  0  0  0  0  0  0  0  0  0
   -1.6366    2.1153    4.9212 C   0  0  0  0  0  0  0  0  0  0  0  0
   -0.3389    2.6074    5.1565 C   0  0  0  0  0  0  0  0  0  0  0  0
   -0.0826    3.7840    4.4761 C   0  0  0  0  0  0  0  0  0  0  0  0
   -0.8622    4.5640    3.6360 C   0  0  0  0  0  0  0  0  0  0  0  0
   -0.2054    5.7436    3.2917 O   0  0  0  0  0  0  0  0  0  0  0  0
    0.6806    5.8593    4.3723 C   0  0  2  0  0  0  0  0  0  0  0  0
    2.1576    6.4442    4.3099 N   0  0  0  0  0  0  0  0  0  0  0  0
    2.9104    5.6118    5.3426 C   0  0  0  0  0  0  0  0  0  0  0  0
    1.9398    4.4425    5.7466 C   0  0  2  0  0  0  0  0  0  0  0  0
    2.2305    2.9266    5.9697 C   0  0  1  0  0  0  0  0  0  0  0  0
    0.8452    2.1295    6.0410 C   0  0  0  0  0  0  0  0  0  0  0  0
    3.1455    2.4112    4.9271 N   0  0  0  0  0  0  0  0  0  0  0  0
    3.6438    1.0707    5.2608 C   0  0  0  0  0  0  0  0  0  0  0  0
    4.7756    0.5957    4.3587 C   0  0  0  0  0  0  0  0  0  0  0  0
    5.4244   -0.7436    4.6122 C   0  0  0  0  0  0  0  0  0  0  0  0
    6.1941    0.5269    4.8757 C   0  0  0  0  0  0  0  0  0  0  0  0
    2.5379    2.4594    3.5899 C   0  0  0  0  0  0  0  0  0  0  0  0
    2.0329    3.8742    3.2818 C   0  0  0  0  0  0  0  0  0  0  0  0
    1.1911    4.4462    4.4828 C   0  0  1  0  0  0  0  0  0  0  0  0
   -4.6985    4.8079    1.4188 H   0  0  0  0  0  0  0  0  0  0  0  0
   -4.8582    3.8600    2.8794 H   0  0  0  0  0  0  0  0  0  0  0  0
   -3.9411    3.2225    1.5090 H   0  0  0  0  0  0  0  0  0  0  0  0
   -3.4836    2.3889    3.8414 H   0  0  0  0  0  0  0  0  0  0  0  0
   -1.9725    1.2076    5.3986 H   0  0  0  0  0  0  0  0  0  0  0  0
    0.1484    6.2135    5.2611 H   0  0  0  0  0  0  0  0  0  0  0  0
    2.5457    6.3271    3.3845 H   0  0  0  0  0  0  0  0  0  0  0  0
    3.8693    5.2737    4.9382 H   0  0  0  0  0  0  0  0  0  0  0  0
    3.1202    6.2310    6.2170 H   0  0  0  0  0  0  0  0  0  0  0  0
    1.2934    4.7944    6.5549 H   0  0  0  0  0  0  0  0  0  0  0  0
    2.7431    2.8288    6.9260 H   0  0  0  0  0  0  0  0  0  0  0  0
    0.4797    2.2081    7.0617 H   0  0  0  0  0  0  0  0  0  0  0  0
    0.9803    1.0652    5.8634 H   0  0  0  0  0  0  0  0  0  0  0  0
    4.0036    1.0766    6.2899 H   0  0  0  0  0  0  0  0  0  0  0  0
    2.8467    0.3317    5.2237 H   0  0  0  0  0  0  0  0  0  0  0  0
    4.6445    0.7881    3.2952 H   0  0  0  0  0  0  0  0  0  0  0  0
    5.0781   -1.3289    5.4634 H   0  0  0  0  0  0  0  0  0  0  0  0
    5.7052   -1.3171    3.7301 H   0  0  0  0  0  0  0  0  0  0  0  0
    6.9741    0.8072    4.1705 H   0  0  0  0  0  0  0  0  0  0  0  0
    6.3628    0.8278    5.9101 H   0  0  0  0  0  0  0  0  0  0  0  0
    3.2627    2.2198    2.8143 H   0  0  0  0  0  0  0  0  0  0  0  0
    1.7342    1.7275    3.4998 H   0  0  0  0  0  0  0  0  0  0  0  0
    2.9141    4.4612    3.0210 H   0  0  0  0  0  0  0  0  0  0  0  0
    1.4562    3.8289    2.3619 H   0  0  0  0  0  0  0  0  0  0  0  0
    2.1520    7.4223    4.5539 H   0  0  0  0  0  0  0  0  0  0  0  0
  1  2  1  0
  1 24  1  0
  1 25  1  0
  1 26  1  0
  2  3  1  0
  3  8  2  0
  3  4  1  0
  4  5  2  0
  4 27  1  0
  5  6  1  0
  5 28  1  0
  6 15  1  0
  6  7  2  0
  7 23  1  0
  7  8  1  0
  8  9  1  0
  9 10  1  0
 10 23  1  0
 10 11  1  0
 10 29  1  1
 11 12  1  0
 11 30  1  0
 11 48  1  0
 12 13  1  0
 12 31  1  0
 12 32  1  0
 13 23  1  0
 13 14  1  0
 13 33  1  1
 14 15  1  0
 14 16  1  0
 14 34  1  1
 15 35  1  0
 15 36  1  0
 16 17  1  0
 16 21  1  0
 17 18  1  0
 17 37  1  0
 17 38  1  0
 18 20  1  0
 18 19  1  0
 18 39  1  0
 19 20  1  0
 19 40  1  0
 19 41  1  0
 20 42  1  0
 20 43  1  0
 21 22  1  0
 21 44  1  0
 21 45  1  0
 23 22  1  6
 22 46  1  0
 22 47  1  0
M  CHG  1  11   1
M  END
>  <i_m_ct_stereo_status>  (83) 
1

>  <s_m_source_file>  (83) 
/var/tmp/pbs.5076255.sched01/tmp7hrp_b9g/014g_j70o.sdf

>  <i_m_source_file_index>  (83) 
37

>  <i_lp_mmshare_version>  (83) 
48012

>  <i_f3d_flags>  (83) 
0

>  <s_epik_input>  (83) 
W0NAXTEyM2M0YzVbY0hdW2NIXWMoT1tDSDNdKWM0T1tDQEBIXTFbTkhdW0NIMl1bQ0BASF0yW0NAQEhdKFtDSDJdNSlOKFtDSDJdW0NIMl0zKVtDSDJdW0NIXTZbQ0gyXVtDSDJdNg==

>  <s_epik_cmdline>  (83) 
J2VwaWtfcHl0aG9uJywgJy1waHQnLCAnMi4wJywgJy1waCcsICc3LjAnLCAnLXRuJywgJzgnLCAnLW1hJywgJzIwMCcsICctaW1hZScsICc8aW5maWxlLm1hZT4nLCAnLW9tYWUnLCAnPG91dGZpbGUubWFlPic=

>  <r_epik_Ionization_Penalty>  (83) 
1.16549

>  <r_epik_Ionization_Penalty_Charging>  (83) 
0.351877

>  <r_epik_Ionization_Penalty_Neutral>  (83) 
0.81361

>  <r_epik_State_Penalty>  (83) 
2.2598

>  <r_epik_Charging_Adjusted_Penalty>  (83) 
2.61168

>  <i_epik_Tot_Q>  (83) 
1

>  <i_epik_Tot_abs_Q>  (83) 
1

>  <s_epik_Chemistry_Notes>  (83) 
This compound contains an acetal/aminal-like group ( X-CH(R)-Y where X, Y are N, S, or O) that may be acid/base labile, releasing an aldehyde.

>  <s_lp_Force_Field>  (83) 
OPLS3e

>  <r_lp_Energy>  (83) 
104.725

>  <b_lp_Chiralities_Consistent>  (83) 
1

>  <s_lp_Variant>  (83) 
22:0-3

>  <s_i_glide_gridfile>  (83) 
pfpi4k_grid

>  <i_i_glide_lignum>  (83) 
37

>  <i_i_glide_rotatable_bonds>  (83) 
3

>  <r_i_docking_score>  (83) 
-2.80376

>  <r_i_glide_ligand_efficiency>  (83) 
-0.121903

>  <r_i_glide_ligand_efficiency_sa>  (83) 
-0.346675

>  <r_i_glide_ligand_efficiency_ln>  (83) 
-0.677974

>  <r_i_glide_gscore>  (83) 
-2.80376

>  <r_i_glide_lipo>  (83) 
-0.392601

>  <r_i_glide_hbond>  (83) 
-0.137116

>  <r_i_glide_metal>  (83) 
-0

>  <r_i_glide_rewards>  (83) 
-1.27218

>  <r_i_glide_evdw>  (83) 
-18.2054

>  <r_i_glide_ecoul>  (83) 
-2.60961

>  <r_i_glide_erotb>  (83) 
0.378175

>  <r_i_glide_esite>  (83) 
-0.0783294

>  <r_i_glide_emodel>  (83) 
-26.4643

>  <r_i_glide_energy>  (83) 
-20.815

>  <r_i_glide_einternal>  (83) 
0.704316

>  <r_i_glide_intrahb_reward>  (83) 
-0

>  <i_i_glide_confnum>  (83) 
2

>  <i_i_glide_posenum>  (83) 
2

>  <r_i_glide_eff_state_penalty>  (83) 
0

>  <ligand_id>  (83) 
22

>  <original_smiles>  (83) 
COc1ccc2c3c1OC1NCC4C(C2)N(CC2CC2)CCC314

>  <smiles>  (83) 
[H]c1c([H])c2c3c(c1OC([H])([H])[H])OC1([H])C34C([H])([H])C([H])([H])N(C([H])([H])C3([H])C([H])([H])C3([H])[H])C([H])(C2([H])[H])C4([H])C([H])([H])[N+]1([H])[H]

$$$$
22:3:0
     RDKit          3D

 47 52  0  0  1  0  0  0  0  0999 V2000
    2.7916   -3.7750   -0.8685 C   0  0  0  0  0  0  0  0  0  0  0  0
    1.8721   -4.7022   -0.3193 O   0  0  0  0  0  0  0  0  0  0  0  0
    2.3273   -5.6161    0.6034 C   0  0  0  0  0  0  0  0  0  0  0  0
    3.7226   -5.9831    0.7494 C   0  0  0  0  0  0  0  0  0  0  0  0
    4.1568   -7.0032    1.6695 C   0  0  0  0  0  0  0  0  0  0  0  0
    3.2197   -7.6380    2.5103 C   0  0  0  0  0  0  0  0  0  0  0  0
    1.9312   -7.1616    2.3021 C   0  0  0  0  0  0  0  0  0  0  0  0
    1.3582   -6.2681    1.4041 C   0  0  0  0  0  0  0  0  0  0  0  0
   -0.0363   -6.2802    1.4605 O   0  0  0  0  0  0  0  0  0  0  0  0
   -0.2720   -7.5410    2.0503 C   0  0  2  0  0  0  0  0  0  0  0  0
   -1.4156   -8.0151    2.7333 N   0  0  0  0  0  0  0  0  0  0  0  0
   -0.8357   -9.1374    3.5653 C   0  0  0  0  0  0  0  0  0  0  0  0
    0.7392   -9.0498    3.3644 C   0  0  2  0  0  0  0  0  0  0  0  0
    1.9563   -9.2334    4.3195 C   0  0  1  0  0  0  0  0  0  0  0  0
    3.2796   -8.7757    3.5703 C   0  0  0  0  0  0  0  0  0  0  0  0
    1.8702   -8.4568    5.5740 N   0  0  0  0  0  0  0  0  0  0  0  0
    1.0026   -9.0908    6.5604 C   0  0  0  0  0  0  0  0  0  0  0  0
    1.1540   -8.5298    7.9619 C   0  0  0  0  0  0  0  0  0  0  0  0
    1.0387   -9.4353    9.1717 C   0  0  0  0  0  0  0  0  0  0  0  0
   -0.0573   -8.4577    8.8716 C   0  0  0  0  0  0  0  0  0  0  0  0
    1.6553   -7.0164    5.3754 C   0  0  0  0  0  0  0  0  0  0  0  0
    0.5650   -6.7260    4.3247 C   0  0  0  0  0  0  0  0  0  0  0  0
    0.8134   -7.6326    3.0645 C   0  0  1  0  0  0  0  0  0  0  0  0
    2.2577   -3.1170   -1.5556 H   0  0  0  0  0  0  0  0  0  0  0  0
    3.5917   -4.2387   -1.4381 H   0  0  0  0  0  0  0  0  0  0  0  0
    3.2271   -3.1498   -0.0898 H   0  0  0  0  0  0  0  0  0  0  0  0
    4.4745   -5.5336    0.1290 H   0  0  0  0  0  0  0  0  0  0  0  0
    5.1886   -7.2934    1.7209 H   0  0  0  0  0  0  0  0  0  0  0  0
   -0.0780   -8.2445    1.2368 H   0  0  0  0  0  0  0  0  0  0  0  0
   -2.1021   -8.3880    2.0908 H   0  0  0  0  0  0  0  0  0  0  0  0
   -1.1593   -9.0154    4.5928 H   0  0  0  0  0  0  0  0  0  0  0  0
   -1.2001  -10.1001    3.2115 H   0  0  0  0  0  0  0  0  0  0  0  0
    0.9671   -9.6380    2.4712 H   0  0  0  0  0  0  0  0  0  0  0  0
    2.0712  -10.2803    4.5913 H   0  0  0  0  0  0  0  0  0  0  0  0
    3.6561   -9.6417    3.0085 H   0  0  0  0  0  0  0  0  0  0  0  0
    4.0782   -8.5355    4.2714 H   0  0  0  0  0  0  0  0  0  0  0  0
   -0.0389   -9.0167    6.2692 H   0  0  0  0  0  0  0  0  0  0  0  0
    1.2508  -10.1544    6.6146 H   0  0  0  0  0  0  0  0  0  0  0  0
    1.8815   -7.7229    8.0857 H   0  0  0  0  0  0  0  0  0  0  0  0
    0.8613  -10.4893    8.9712 H   0  0  0  0  0  0  0  0  0  0  0  0
    1.6854   -9.2268   10.0191 H   0  0  0  0  0  0  0  0  0  0  0  0
   -0.1519   -7.5962    9.5235 H   0  0  0  0  0  0  0  0  0  0  0  0
   -0.9870   -8.8514    8.4708 H   0  0  0  0  0  0  0  0  0  0  0  0
    1.4033   -6.5090    6.3063 H   0  0  0  0  0  0  0  0  0  0  0  0
    2.5906   -6.5719    5.0429 H   0  0  0  0  0  0  0  0  0  0  0  0
   -0.4034   -6.8920    4.8005 H   0  0  0  0  0  0  0  0  0  0  0  0
    0.5835   -5.6637    4.0711 H   0  0  0  0  0  0  0  0  0  0  0  0
  1  2  1  0
  1 24  1  0
  1 25  1  0
  1 26  1  0
  2  3  1  0
  3  8  2  0
  3  4  1  0
  4  5  2  0
  4 27  1  0
  5  6  1  0
  5 28  1  0
  6 15  1  0
  6  7  2  0
  7 23  1  0
  7  8  1  0
  8  9  1  0
  9 10  1  0
 10 23  1  0
 10 11  1  0
 10 29  1  6
 11 12  1  0
 11 30  1  0
 12 13  1  0
 12 31  1  0
 12 32  1  0
 13 23  1  0
 13 14  1  0
 13 33  1  6
 14 15  1  0
 14 16  1  0
 14 34  1  1
 15 35  1  0
 15 36  1  0
 16 17  1  0
 16 21  1  0
 17 18  1  0
 17 37  1  0
 17 38  1  0
 18 20  1  0
 18 19  1  0
 18 39  1  0
 19 20  1  0
 19 40  1  0
 19 41  1  0
 20 42  1  0
 20 43  1  0
 21 22  1  0
 21 44  1  0
 21 45  1  0
 23 22  1  1
 22 46  1  0
 22 47  1  0
M  END
>  <i_m_ct_stereo_status>  (84) 
1

>  <s_m_source_file>  (84) 
/var/tmp/pbs.5076255.sched01/tmp7hrp_b9g/014g_j70o.sdf

>  <i_m_source_file_index>  (84) 
38

>  <i_lp_mmshare_version>  (84) 
48012

>  <i_f3d_flags>  (84) 
0

>  <s_epik_input>  (84) 
W0NAXTEyM2M0YzVbY0hdW2NIXWMoT1tDSDNdKWM0T1tDQEBIXTFbTkhdW0NIMl1bQ0BASF0yW0NAQEhdKFtDSDJdNSlOKFtDSDJdW0NIMl0zKVtDSDJdW0NIXTZbQ0gyXVtDSDJdNg==

>  <s_epik_cmdline>  (84) 
J2VwaWtfcHl0aG9uJywgJy1waHQnLCAnMi4wJywgJy1waCcsICc3LjAnLCAnLXRuJywgJzgnLCAnLW1hJywgJzIwMCcsICctaW1hZScsICc8aW5maWxlLm1hZT4nLCAnLW9tYWUnLCAnPG91dGZpbGUubWFlPic=

>  <r_lp_tautomer_probability>  (84) 
1

>  <r_epik_Ionization_Penalty>  (84) 
2.51763

>  <r_epik_Ionization_Penalty_Charging>  (84) 
0

>  <r_epik_Ionization_Penalty_Neutral>  (84) 
2.51763

>  <r_epik_State_Penalty>  (84) 
2.30738

>  <r_epik_Charging_Adjusted_Penalty>  (84) 
2.30738

>  <i_epik_Tot_Q>  (84) 
0

>  <i_epik_Tot_abs_Q>  (84) 
0

>  <s_epik_Chemistry_Notes>  (84) 
This compound contains an acetal/aminal-like group ( X-CH(R)-Y where X, Y are N, S, or O) that may be acid/base labile, releasing an aldehyde.

>  <s_lp_Force_Field>  (84) 
OPLS3e

>  <r_lp_Energy>  (84) 
109.357

>  <b_lp_Chiralities_Consistent>  (84) 
1

>  <s_lp_Variant>  (84) 
22:0-4

>  <s_i_glide_gridfile>  (84) 
pfpi4k_grid

>  <i_i_glide_lignum>  (84) 
38

>  <i_i_glide_rotatable_bonds>  (84) 
3

>  <r_i_docking_score>  (84) 
-3.21409

>  <r_i_glide_ligand_efficiency>  (84) 
-0.139743

>  <r_i_glide_ligand_efficiency_sa>  (84) 
-0.39741

>  <r_i_glide_ligand_efficiency_ln>  (84) 
-0.777196

>  <r_i_glide_gscore>  (84) 
-3.21409

>  <r_i_glide_lipo>  (84) 
-0.0978004

>  <r_i_glide_hbond>  (84) 
-0.320921

>  <r_i_glide_metal>  (84) 
-0

>  <r_i_glide_rewards>  (84) 
-1.27905

>  <r_i_glide_evdw>  (84) 
-19.397

>  <r_i_glide_ecoul>  (84) 
-5.66504

>  <r_i_glide_erotb>  (84) 
0.380322

>  <r_i_glide_esite>  (84) 
-0.077036

>  <r_i_glide_emodel>  (84) 
-30.1311

>  <r_i_glide_energy>  (84) 
-25.062

>  <r_i_glide_einternal>  (84) 
1.41466

>  <r_i_glide_intrahb_reward>  (84) 
-0

>  <i_i_glide_confnum>  (84) 
3

>  <i_i_glide_posenum>  (84) 
3

>  <r_i_glide_eff_state_penalty>  (84) 
0

>  <ligand_id>  (84) 
22

>  <original_smiles>  (84) 
COc1ccc2c3c1OC1NCC4C(C2)N(CC2CC2)CCC314

>  <smiles>  (84) 
[H]c1c([H])c2c3c(c1OC([H])([H])[H])OC1([H])N([H])C([H])([H])C4([H])C([H])(N(C([H])([H])C5([H])C([H])([H])C5([H])[H])C([H])([H])C([H])([H])C314)C2([H])[H]

$$$$
22:3:1
     RDKit          3D

 47 52  0  0  1  0  0  0  0  0999 V2000
    7.5272   -2.8304   -1.7049 C   0  0  0  0  0  0  0  0  0  0  0  0
    7.0508   -1.8576   -0.7649 O   0  0  0  0  0  0  0  0  0  0  0  0
    5.9481   -2.2113   -0.0281 C   0  0  0  0  0  0  0  0  0  0  0  0
    5.0046   -1.1796    0.3335 C   0  0  0  0  0  0  0  0  0  0  0  0
    3.8343   -1.4467    1.1320 C   0  0  0  0  0  0  0  0  0  0  0  0
    3.5786   -2.7641    1.5742 C   0  0  0  0  0  0  0  0  0  0  0  0
    4.5583   -3.6534    1.1585 C   0  0  0  0  0  0  0  0  0  0  0  0
    5.7460   -3.5272    0.4520 C   0  0  0  0  0  0  0  0  0  0  0  0
    6.4955   -4.6956    0.4687 O   0  0  0  0  0  0  0  0  0  0  0  0
    5.9686   -5.3490    1.5791 C   0  0  2  0  0  0  0  0  0  0  0  0
    6.0050   -6.7188    1.9106 N   0  0  0  0  0  0  0  0  0  0  0  0
    4.8136   -6.8550    2.8285 C   0  0  0  0  0  0  0  0  0  0  0  0
    4.0901   -5.4396    2.7840 C   0  0  2  0  0  0  0  0  0  0  0  0
    2.5954   -4.9951    2.7607 C   0  0  1  0  0  0  0  0  0  0  0  0
    2.5032   -3.4394    2.4728 C   0  0  0  0  0  0  0  0  0  0  0  0
    1.7654   -5.6914    1.7544 N   0  0  0  0  0  0  0  0  0  0  0  0
    1.4123   -7.0511    2.1494 C   0  0  0  0  0  0  0  0  0  0  0  0
   -0.0197   -7.3755    1.7697 C   0  0  0  0  0  0  0  0  0  0  0  0
   -1.1377   -7.2999    2.7972 C   0  0  0  0  0  0  0  0  0  0  0  0
   -0.6555   -8.6405    2.3181 C   0  0  0  0  0  0  0  0  0  0  0  0
    2.2814   -5.5773    0.3798 C   0  0  0  0  0  0  0  0  0  0  0  0
    3.8054   -5.8406    0.3078 C   0  0  0  0  0  0  0  0  0  0  0  0
    4.5225   -5.0528    1.4564 C   0  0  1  0  0  0  0  0  0  0  0  0
    8.4392   -2.4466   -2.1761 H   0  0  0  0  0  0  0  0  0  0  0  0
    6.7675   -2.9840   -2.4784 H   0  0  0  0  0  0  0  0  0  0  0  0
    7.8110   -3.7863   -1.2765 H   0  0  0  0  0  0  0  0  0  0  0  0
    5.1697   -0.1696   -0.0031 H   0  0  0  0  0  0  0  0  0  0  0  0
    3.1510   -0.6512    1.3904 H   0  0  0  0  0  0  0  0  0  0  0  0
    6.4049   -4.8075    2.4255 H   0  0  0  0  0  0  0  0  0  0  0  0
    6.8767   -6.9700    2.3574 H   0  0  0  0  0  0  0  0  0  0  0  0
    4.1853   -7.6725    2.4762 H   0  0  0  0  0  0  0  0  0  0  0  0
    5.1552   -7.0802    3.8394 H   0  0  0  0  0  0  0  0  0  0  0  0
    4.5818   -4.8132    3.5345 H   0  0  0  0  0  0  0  0  0  0  0  0
    2.1475   -5.1747    3.7354 H   0  0  0  0  0  0  0  0  0  0  0  0
    2.6078   -2.9238    3.4311 H   0  0  0  0  0  0  0  0  0  0  0  0
    1.5247   -3.1520    2.0976 H   0  0  0  0  0  0  0  0  0  0  0  0
    2.0909   -7.7858    1.7194 H   0  0  0  0  0  0  0  0  0  0  0  0
    1.4722   -7.1495    3.2358 H   0  0  0  0  0  0  0  0  0  0  0  0
   -0.2907   -7.1494    0.7345 H   0  0  0  0  0  0  0  0  0  0  0  0
   -0.8689   -7.0012    3.8095 H   0  0  0  0  0  0  0  0  0  0  0  0
   -2.1344   -7.0102    2.4802 H   0  0  0  0  0  0  0  0  0  0  0  0
   -1.3243   -9.2062    1.6768 H   0  0  0  0  0  0  0  0  0  0  0  0
   -0.0552   -9.2418    3.0004 H   0  0  0  0  0  0  0  0  0  0  0  0
    1.7457   -6.2453   -0.2929 H   0  0  0  0  0  0  0  0  0  0  0  0
    2.0974   -4.5701    0.0080 H   0  0  0  0  0  0  0  0  0  0  0  0
    3.9708   -6.9150    0.3622 H   0  0  0  0  0  0  0  0  0  0  0  0
    4.1901   -5.5433   -0.6733 H   0  0  0  0  0  0  0  0  0  0  0  0
  1  2  1  0
  1 24  1  0
  1 25  1  0
  1 26  1  0
  2  3  1  0
  3  8  2  0
  3  4  1  0
  4  5  2  0
  4 27  1  0
  5  6  1  0
  5 28  1  0
  6 15  1  0
  6  7  2  0
  7 23  1  0
  7  8  1  0
  8  9  1  0
  9 10  1  0
 10 23  1  0
 10 11  1  0
 10 29  1  1
 11 12  1  0
 11 30  1  0
 12 13  1  0
 12 31  1  0
 12 32  1  0
 13 23  1  0
 13 14  1  0
 13 33  1  1
 14 15  1  0
 14 16  1  0
 14 34  1  1
 15 35  1  0
 15 36  1  0
 16 17  1  0
 16 21  1  0
 17 18  1  0
 17 37  1  0
 17 38  1  0
 18 20  1  0
 18 19  1  0
 18 39  1  0
 19 20  1  0
 19 40  1  0
 19 41  1  0
 20 42  1  0
 20 43  1  0
 21 22  1  0
 21 44  1  0
 21 45  1  0
 23 22  1  6
 22 46  1  0
 22 47  1  0
M  END
>  <i_m_ct_stereo_status>  (85) 
1

>  <s_m_source_file>  (85) 
/var/tmp/pbs.5076255.sched01/tmp7hrp_b9g/014g_j70o.sdf

>  <i_m_source_file_index>  (85) 
38

>  <i_lp_mmshare_version>  (85) 
48012

>  <i_f3d_flags>  (85) 
0

>  <s_epik_input>  (85) 
W0NAXTEyM2M0YzVbY0hdW2NIXWMoT1tDSDNdKWM0T1tDQEBIXTFbTkhdW0NIMl1bQ0BASF0yW0NAQEhdKFtDSDJdNSlOKFtDSDJdW0NIMl0zKVtDSDJdW0NIXTZbQ0gyXVtDSDJdNg==

>  <s_epik_cmdline>  (85) 
J2VwaWtfcHl0aG9uJywgJy1waHQnLCAnMi4wJywgJy1waCcsICc3LjAnLCAnLXRuJywgJzgnLCAnLW1hJywgJzIwMCcsICctaW1hZScsICc8aW5maWxlLm1hZT4nLCAnLW9tYWUnLCAnPG91dGZpbGUubWFlPic=

>  <r_lp_tautomer_probability>  (85) 
1

>  <r_epik_Ionization_Penalty>  (85) 
2.51763

>  <r_epik_Ionization_Penalty_Charging>  (85) 
0

>  <r_epik_Ionization_Penalty_Neutral>  (85) 
2.51763

>  <r_epik_State_Penalty>  (85) 
2.30738

>  <r_epik_Charging_Adjusted_Penalty>  (85) 
2.30738

>  <i_epik_Tot_Q>  (85) 
0

>  <i_epik_Tot_abs_Q>  (85) 
0

>  <s_epik_Chemistry_Notes>  (85) 
This compound contains an acetal/aminal-like group ( X-CH(R)-Y where X, Y are N, S, or O) that may be acid/base labile, releasing an aldehyde.

>  <s_lp_Force_Field>  (85) 
OPLS3e

>  <r_lp_Energy>  (85) 
109.357

>  <b_lp_Chiralities_Consistent>  (85) 
1

>  <s_lp_Variant>  (85) 
22:0-4

>  <s_i_glide_gridfile>  (85) 
pfpi4k_grid

>  <i_i_glide_lignum>  (85) 
38

>  <i_i_glide_rotatable_bonds>  (85) 
3

>  <r_i_docking_score>  (85) 
-3.07173

>  <r_i_glide_ligand_efficiency>  (85) 
-0.133554

>  <r_i_glide_ligand_efficiency_sa>  (85) 
-0.379809

>  <r_i_glide_ligand_efficiency_ln>  (85) 
-0.742773

>  <r_i_glide_gscore>  (85) 
-3.07173

>  <r_i_glide_lipo>  (85) 
-0.206145

>  <r_i_glide_hbond>  (85) 
-0.182857

>  <r_i_glide_metal>  (85) 
-0

>  <r_i_glide_rewards>  (85) 
-1.36791

>  <r_i_glide_evdw>  (85) 
-21.6957

>  <r_i_glide_ecoul>  (85) 
-4.06907

>  <r_i_glide_erotb>  (85) 
0.380322

>  <r_i_glide_esite>  (85) 
0

>  <r_i_glide_emodel>  (85) 
-27.8965

>  <r_i_glide_energy>  (85) 
-25.7648

>  <r_i_glide_einternal>  (85) 
6.54495

>  <r_i_glide_intrahb_reward>  (85) 
-0

>  <i_i_glide_confnum>  (85) 
3

>  <i_i_glide_posenum>  (85) 
40

>  <r_i_glide_eff_state_penalty>  (85) 
0

>  <ligand_id>  (85) 
22

>  <original_smiles>  (85) 
COc1ccc2c3c1OC1NCC4C(C2)N(CC2CC2)CCC314

>  <smiles>  (85) 
[H]c1c([H])c2c3c(c1OC([H])([H])[H])OC1([H])N([H])C([H])([H])C4([H])C([H])(N(C([H])([H])C5([H])C([H])([H])C5([H])[H])C([H])([H])C([H])([H])C314)C2([H])[H]

$$$$
22:3:2
     RDKit          3D

 47 52  0  0  1  0  0  0  0  0999 V2000
    7.5253   -1.6311    0.3025 C   0  0  0  0  0  0  0  0  0  0  0  0
    7.1149   -2.9703    0.4958 O   0  0  0  0  0  0  0  0  0  0  0  0
    5.9530   -3.2118    1.1970 C   0  0  0  0  0  0  0  0  0  0  0  0
    5.0970   -2.1619    1.7192 C   0  0  0  0  0  0  0  0  0  0  0  0
    3.9248   -2.4423    2.4995 C   0  0  0  0  0  0  0  0  0  0  0  0
    3.5441   -3.7769    2.7358 C   0  0  0  0  0  0  0  0  0  0  0  0
    4.4144   -4.6842    2.1505 C   0  0  0  0  0  0  0  0  0  0  0  0
    5.5986   -4.5467    1.4476 C   0  0  0  0  0  0  0  0  0  0  0  0
    6.2235   -5.8003    1.2382 O   0  0  0  0  0  0  0  0  0  0  0  0
    5.6248   -6.5591    2.2619 C   0  0  2  0  0  0  0  0  0  0  0  0
    5.5031   -7.9797    2.3829 N   0  0  0  0  0  0  0  0  0  0  0  0
    4.3213   -8.1183    3.3110 C   0  0  0  0  0  0  0  0  0  0  0  0
    3.7579   -6.6464    3.5058 C   0  0  2  0  0  0  0  0  0  0  0  0
    2.3207   -6.0489    3.6013 C   0  0  1  0  0  0  0  0  0  0  0  0
    2.4084   -4.4590    3.5649 C   0  0  0  0  0  0  0  0  0  0  0  0
    1.3954   -6.4705    2.5321 N   0  0  0  0  0  0  0  0  0  0  0  0
    0.8846   -7.8239    2.7362 C   0  0  0  0  0  0  0  0  0  0  0  0
   -0.4876   -8.0130    2.1142 C   0  0  0  0  0  0  0  0  0  0  0  0
   -1.7431   -7.8800    2.9496 C   0  0  0  0  0  0  0  0  0  0  0  0
   -1.2975   -9.2389    2.4832 C   0  0  0  0  0  0  0  0  0  0  0  0
    1.9093   -6.2186    1.1747 C   0  0  0  0  0  0  0  0  0  0  0  0
    3.3863   -6.6268    1.0148 C   0  0  0  0  0  0  0  0  0  0  0  0
    4.2183   -6.1032    2.2318 C   0  0  1  0  0  0  0  0  0  0  0  0
    8.4545   -1.6301   -0.2670 H   0  0  0  0  0  0  0  0  0  0  0  0
    7.7169   -1.1177    1.2439 H   0  0  0  0  0  0  0  0  0  0  0  0
    6.7849   -1.0678   -0.2646 H   0  0  0  0  0  0  0  0  0  0  0  0
    5.3339   -1.1237    1.5545 H   0  0  0  0  0  0  0  0  0  0  0  0
    3.3334   -1.6410    2.9084 H   0  0  0  0  0  0  0  0  0  0  0  0
    6.1356   -6.2179    3.1653 H   0  0  0  0  0  0  0  0  0  0  0  0
    6.3389   -8.3946    2.7649 H   0  0  0  0  0  0  0  0  0  0  0  0
    3.6023   -8.8063    2.8705 H   0  0  0  0  0  0  0  0  0  0  0  0
    4.6429   -8.5322    4.2680 H   0  0  0  0  0  0  0  0  0  0  0  0
    4.3235   -6.2088    4.3291 H   0  0  0  0  0  0  0  0  0  0  0  0
    1.8698   -6.3280    4.5523 H   0  0  0  0  0  0  0  0  0  0  0  0
    2.5746   -4.1194    4.5853 H   0  0  0  0  0  0  0  0  0  0  0  0
    1.4603   -4.0184    3.2630 H   0  0  0  0  0  0  0  0  0  0  0  0
    1.5668   -8.5768    2.3479 H   0  0  0  0  0  0  0  0  0  0  0  0
    0.7644   -8.0079    3.8052 H   0  0  0  0  0  0  0  0  0  0  0  0
   -0.5710   -7.7288    1.0657 H   0  0  0  0  0  0  0  0  0  0  0  0
   -1.6212   -7.6390    4.0035 H   0  0  0  0  0  0  0  0  0  0  0  0
   -2.6210   -7.4573    2.4757 H   0  0  0  0  0  0  0  0  0  0  0  0
   -1.8767   -9.7173    1.6982 H   0  0  0  0  0  0  0  0  0  0  0  0
   -0.8750   -9.9148    3.2252 H   0  0  0  0  0  0  0  0  0  0  0  0
    1.2985   -6.7180    0.4245 H   0  0  0  0  0  0  0  0  0  0  0  0
    1.8293   -5.1517    0.9690 H   0  0  0  0  0  0  0  0  0  0  0  0
    3.4264   -7.7139    0.9079 H   0  0  0  0  0  0  0  0  0  0  0  0
    3.7757   -6.2381    0.0687 H   0  0  0  0  0  0  0  0  0  0  0  0
  1  2  1  0
  1 24  1  0
  1 25  1  0
  1 26  1  0
  2  3  1  0
  3  8  2  0
  3  4  1  0
  4  5  2  0
  4 27  1  0
  5  6  1  0
  5 28  1  0
  6 15  1  0
  6  7  2  0
  7 23  1  0
  7  8  1  0
  8  9  1  0
  9 10  1  0
 10 23  1  0
 10 11  1  0
 10 29  1  1
 11 12  1  0
 11 30  1  0
 12 13  1  0
 12 31  1  0
 12 32  1  0
 13 23  1  0
 13 14  1  0
 13 33  1  1
 14 15  1  0
 14 16  1  0
 14 34  1  1
 15 35  1  0
 15 36  1  0
 16 17  1  0
 16 21  1  0
 17 18  1  0
 17 37  1  0
 17 38  1  0
 18 20  1  0
 18 19  1  0
 18 39  1  0
 19 20  1  0
 19 40  1  0
 19 41  1  0
 20 42  1  0
 20 43  1  0
 21 22  1  0
 21 44  1  0
 21 45  1  0
 23 22  1  6
 22 46  1  0
 22 47  1  0
M  END
>  <i_m_ct_stereo_status>  (86) 
1

>  <s_m_source_file>  (86) 
/var/tmp/pbs.5076255.sched01/tmp7hrp_b9g/014g_j70o.sdf

>  <i_m_source_file_index>  (86) 
38

>  <i_lp_mmshare_version>  (86) 
48012

>  <i_f3d_flags>  (86) 
0

>  <s_epik_input>  (86) 
W0NAXTEyM2M0YzVbY0hdW2NIXWMoT1tDSDNdKWM0T1tDQEBIXTFbTkhdW0NIMl1bQ0BASF0yW0NAQEhdKFtDSDJdNSlOKFtDSDJdW0NIMl0zKVtDSDJdW0NIXTZbQ0gyXVtDSDJdNg==

>  <s_epik_cmdline>  (86) 
J2VwaWtfcHl0aG9uJywgJy1waHQnLCAnMi4wJywgJy1waCcsICc3LjAnLCAnLXRuJywgJzgnLCAnLW1hJywgJzIwMCcsICctaW1hZScsICc8aW5maWxlLm1hZT4nLCAnLW9tYWUnLCAnPG91dGZpbGUubWFlPic=

>  <r_lp_tautomer_probability>  (86) 
1

>  <r_epik_Ionization_Penalty>  (86) 
2.51763

>  <r_epik_Ionization_Penalty_Charging>  (86) 
0

>  <r_epik_Ionization_Penalty_Neutral>  (86) 
2.51763

>  <r_epik_State_Penalty>  (86) 
2.30738

>  <r_epik_Charging_Adjusted_Penalty>  (86) 
2.30738

>  <i_epik_Tot_Q>  (86) 
0

>  <i_epik_Tot_abs_Q>  (86) 
0

>  <s_epik_Chemistry_Notes>  (86) 
This compound contains an acetal/aminal-like group ( X-CH(R)-Y where X, Y are N, S, or O) that may be acid/base labile, releasing an aldehyde.

>  <s_lp_Force_Field>  (86) 
OPLS3e

>  <r_lp_Energy>  (86) 
109.357

>  <b_lp_Chiralities_Consistent>  (86) 
1

>  <s_lp_Variant>  (86) 
22:0-4

>  <s_i_glide_gridfile>  (86) 
pfpi4k_grid

>  <i_i_glide_lignum>  (86) 
38

>  <i_i_glide_rotatable_bonds>  (86) 
3

>  <r_i_docking_score>  (86) 
-2.48707

>  <r_i_glide_ligand_efficiency>  (86) 
-0.108133

>  <r_i_glide_ligand_efficiency_sa>  (86) 
-0.307517

>  <r_i_glide_ligand_efficiency_ln>  (86) 
-0.601396

>  <r_i_glide_gscore>  (86) 
-2.48707

>  <r_i_glide_lipo>  (86) 
-0.469033

>  <r_i_glide_hbond>  (86) 
0

>  <r_i_glide_metal>  (86) 
-0

>  <r_i_glide_rewards>  (86) 
-1.30522

>  <r_i_glide_evdw>  (86) 
-20.4911

>  <r_i_glide_ecoul>  (86) 
-0.4572

>  <r_i_glide_erotb>  (86) 
0.380322

>  <r_i_glide_esite>  (86) 
0

>  <r_i_glide_emodel>  (86) 
-25.2757

>  <r_i_glide_energy>  (86) 
-20.9483

>  <r_i_glide_einternal>  (86) 
0.54971

>  <r_i_glide_intrahb_reward>  (86) 
-0

>  <i_i_glide_confnum>  (86) 
3

>  <i_i_glide_posenum>  (86) 
25

>  <r_i_glide_eff_state_penalty>  (86) 
0

>  <ligand_id>  (86) 
22

>  <original_smiles>  (86) 
COc1ccc2c3c1OC1NCC4C(C2)N(CC2CC2)CCC314

>  <smiles>  (86) 
[H]c1c([H])c2c3c(c1OC([H])([H])[H])OC1([H])N([H])C([H])([H])C4([H])C([H])(N(C([H])([H])C5([H])C([H])([H])C5([H])[H])C([H])([H])C([H])([H])C314)C2([H])[H]

$$$$
23:0:0
     RDKit          3D

 62 65  0  0  1  0  0  0  0  0999 V2000
    4.0596   -3.2900   -1.6208 C   0  0  0  0  0  0  0  0  0  0  0  0
    4.6876   -4.2769   -0.6200 C   0  0  0  0  0  0  0  0  0  0  0  0
    5.3817   -3.6585    0.6366 C   0  0  1  0  0  0  0  0  0  0  0  0
    4.3869   -2.9364    1.5506 C   0  0  0  0  0  0  0  0  0  0  0  0
    3.3967   -3.9615    2.1571 C   0  0  0  0  0  0  0  0  0  0  0  0
    3.9871   -5.2371    2.8760 C   0  0  2  0  0  0  0  0  0  0  0  0
    5.3349   -5.8274    2.2412 C   0  0  1  0  0  0  0  0  0  0  0  0
    6.2910   -6.3025    3.3863 C   0  0  0  0  0  0  0  0  0  0  0  0
    5.1309   -6.9926    1.2303 C   0  0  0  0  0  0  0  0  0  0  0  0
    4.5926   -8.3308    1.7572 C   0  0  0  0  0  0  0  0  0  0  0  0
    3.0613   -8.5055    1.8951 C   0  0  1  0  0  0  0  0  0  0  0  0
    2.7905   -9.8446    2.6172 C   0  0  0  0  0  0  0  0  0  0  0  0
    2.1998   -7.2727    2.3871 C   0  0  1  0  0  0  0  0  0  0  0  0
    1.6495   -6.5786    1.1060 C   0  0  0  0  0  0  0  0  0  0  0  0
    0.9113   -7.7262    3.1421 C   0  0  0  0  0  0  0  0  0  0  0  0
    0.4990   -6.5216    3.9622 C   0  0  0  0  0  0  0  0  0  0  0  0
   -0.5830   -6.4018    4.5335 O   0  0  0  0  0  0  0  0  0  0  0  0
    1.6095   -5.4809    3.9554 C   0  0  1  0  0  0  0  0  0  0  0  0
    1.7352   -4.7254    5.2951 C   0  0  0  0  0  0  0  0  0  0  0  0
    2.8707   -6.2553    3.4213 C   0  0  2  0  0  0  0  0  0  0  0  0
    3.4286   -7.0501    4.6473 C   0  0  0  0  0  0  0  0  0  0  0  0
    6.1201   -4.6438    1.5734 C   0  0  1  0  0  0  0  0  0  0  0  0
    7.4705   -4.8234    0.9019 C   0  0  0  0  0  0  0  0  0  0  0  0
    7.7629   -3.7698    0.1267 C   0  0  0  0  0  0  0  0  0  0  0  0
    6.6011   -2.8745    0.1257 C   0  0  0  0  0  0  0  0  0  0  0  0
    6.5691   -1.7003   -0.2504 O   0  0  0  0  0  0  0  0  0  0  0  0
    3.5461   -3.8458   -2.4071 H   0  0  0  0  0  0  0  0  0  0  0  0
    4.7973   -2.6503   -2.1036 H   0  0  0  0  0  0  0  0  0  0  0  0
    3.3098   -2.6564   -1.1448 H   0  0  0  0  0  0  0  0  0  0  0  0
    3.8710   -4.9213   -0.3304 H   0  0  0  0  0  0  0  0  0  0  0  0
    5.3939   -4.9132   -1.1599 H   0  0  0  0  0  0  0  0  0  0  0  0
    3.8455   -2.1583    1.0125 H   0  0  0  0  0  0  0  0  0  0  0  0
    4.9138   -2.4112    2.3485 H   0  0  0  0  0  0  0  0  0  0  0  0
    2.8158   -3.3887    2.8800 H   0  0  0  0  0  0  0  0  0  0  0  0
    2.6888   -4.2334    1.3849 H   0  0  0  0  0  0  0  0  0  0  0  0
    4.3443   -4.7629    3.7924 H   0  0  0  0  0  0  0  0  0  0  0  0
    7.2775   -6.5678    3.0086 H   0  0  0  0  0  0  0  0  0  0  0  0
    5.9505   -7.1740    3.9354 H   0  0  0  0  0  0  0  0  0  0  0  0
    6.4382   -5.5225    4.1371 H   0  0  0  0  0  0  0  0  0  0  0  0
    4.5469   -6.7223    0.3630 H   0  0  0  0  0  0  0  0  0  0  0  0
    6.1196   -7.2080    0.8380 H   0  0  0  0  0  0  0  0  0  0  0  0
    4.9041   -9.0811    1.0301 H   0  0  0  0  0  0  0  0  0  0  0  0
    5.1115   -8.6436    2.6567 H   0  0  0  0  0  0  0  0  0  0  0  0
    2.7235   -8.7182    0.8845 H   0  0  0  0  0  0  0  0  0  0  0  0
    3.0123   -9.7948    3.6830 H   0  0  0  0  0  0  0  0  0  0  0  0
    3.4080  -10.6385    2.1952 H   0  0  0  0  0  0  0  0  0  0  0  0
    1.7565  -10.1698    2.4974 H   0  0  0  0  0  0  0  0  0  0  0  0
    1.0273   -5.7135    1.3156 H   0  0  0  0  0  0  0  0  0  0  0  0
    1.0182   -7.2592    0.5280 H   0  0  0  0  0  0  0  0  0  0  0  0
    2.4384   -6.2622    0.4353 H   0  0  0  0  0  0  0  0  0  0  0  0
    0.1073   -8.0443    2.4799 H   0  0  0  0  0  0  0  0  0  0  0  0
    1.0901   -8.5312    3.8518 H   0  0  0  0  0  0  0  0  0  0  0  0
    1.2678   -4.7568    3.2220 H   0  0  0  0  0  0  0  0  0  0  0  0
    0.8502   -4.1129    5.4735 H   0  0  0  0  0  0  0  0  0  0  0  0
    2.5930   -4.0548    5.3006 H   0  0  0  0  0  0  0  0  0  0  0  0
    1.8295   -5.3990    6.1474 H   0  0  0  0  0  0  0  0  0  0  0  0
    2.6492   -7.4832    5.2771 H   0  0  0  0  0  0  0  0  0  0  0  0
    4.0274   -6.4166    5.3052 H   0  0  0  0  0  0  0  0  0  0  0  0
    4.0424   -7.8968    4.3664 H   0  0  0  0  0  0  0  0  0  0  0  0
    8.1246   -5.6637    1.0868 H   0  0  0  0  0  0  0  0  0  0  0  0
    8.6623   -3.5951   -0.4497 H   0  0  0  0  0  0  0  0  0  0  0  0
    6.4145   -4.0474    2.4383 H   0  0  0  0  0  0  0  0  0  0  0  0
  1  2  1  0
  1 27  1  0
  1 28  1  0
  1 29  1  0
  2 30  1  0
  2 31  1  0
  3  2  1  6
  3 25  1  0
  3 22  1  0
  3  4  1  0
  4  5  1  0
  4 32  1  0
  4 33  1  0
  5  6  1  0
  5 34  1  0
  5 35  1  0
  6 20  1  0
  6  7  1  0
  6 36  1  1
  7  8  1  1
  7  9  1  0
  7 22  1  0
  8 37  1  0
  8 38  1  0
  8 39  1  0
  9 10  1  0
  9 40  1  0
  9 41  1  0
 10 11  1  0
 10 42  1  0
 10 43  1  0
 11 12  1  0
 11 13  1  0
 11 44  1  6
 12 45  1  0
 12 46  1  0
 12 47  1  0
 13 20  1  0
 13 14  1  6
 13 15  1  0
 14 48  1  0
 14 49  1  0
 14 50  1  0
 15 16  1  0
 15 51  1  0
 15 52  1  0
 16 17  2  0
 16 18  1  0
 18 19  1  0
 18 20  1  0
 18 53  1  6
 19 54  1  0
 19 55  1  0
 19 56  1  0
 20 21  1  1
 21 57  1  0
 21 58  1  0
 21 59  1  0
 22 62  1  1
 22 23  1  0
 23 60  1  0
 23 24  2  0
 24 61  1  0
 24 25  1  0
 25 26  2  0
M  END
>  <i_m_ct_stereo_status>  (87) 
1

>  <s_m_source_file>  (87) 
/var/tmp/pbs.5076255.sched01/tmp7hrp_b9g/014g_j70o.sdf

>  <i_m_source_file_index>  (87) 
39

>  <i_lp_mmshare_version>  (87) 
48012

>  <i_f3d_flags>  (87) 
0

>  <s_epik_input>  (87) 
Tz1DMVtDSDJdW0NIXT1DKFtDQF0xMltDSDJdW0NIM10pW0NAQF0zKFtDSDNdKVtDQEBIXShbQ0gyXVtDSDJdMilbQ0BdNChbQ0gzXSlbQ0BAXShbQ0gzXSkoW0NASF0oW0NIM10pW0NIMl1bQ0gyXTMpW0NIMl1DKD1PKVtDQEhdNFtDSDNd

>  <s_epik_cmdline>  (87) 
J2VwaWtfcHl0aG9uJywgJy1waHQnLCAnMi4wJywgJy1waCcsICc3LjAnLCAnLXRuJywgJzgnLCAnLW1hJywgJzIwMCcsICctaW1hZScsICc8aW5maWxlLm1hZT4nLCAnLW9tYWUnLCAnPG91dGZpbGUubWFlPic=

>  <r_lp_tautomer_probability>  (87) 
1

>  <r_epik_Ionization_Penalty>  (87) 
5.81488e-14

>  <r_epik_Ionization_Penalty_Charging>  (87) 
0

>  <r_epik_Ionization_Penalty_Neutral>  (87) 
5.81488e-14

>  <r_epik_State_Penalty>  (87) 
-0

>  <r_epik_Charging_Adjusted_Penalty>  (87) 
0

>  <i_epik_Tot_Q>  (87) 
0

>  <i_epik_Tot_abs_Q>  (87) 
0

>  <s_lp_Force_Field>  (87) 
OPLS3e

>  <r_lp_Energy>  (87) 
74.6656

>  <b_lp_Chiralities_Consistent>  (87) 
1

>  <s_lp_Variant>  (87) 
23:0-1

>  <s_i_glide_gridfile>  (87) 
pfpi4k_grid

>  <i_i_glide_lignum>  (87) 
39

>  <i_i_glide_rotatable_bonds>  (87) 
1

>  <r_i_docking_score>  (87) 
-3.09356

>  <r_i_glide_ligand_efficiency>  (87) 
-0.118983

>  <r_i_glide_ligand_efficiency_sa>  (87) 
-0.352487

>  <r_i_glide_ligand_efficiency_ln>  (87) 
-0.726513

>  <r_i_glide_gscore>  (87) 
-3.09356

>  <r_i_glide_lipo>  (87) 
-0.542191

>  <r_i_glide_hbond>  (87) 
-0.0898642

>  <r_i_glide_metal>  (87) 
-0

>  <r_i_glide_rewards>  (87) 
-1.08176

>  <r_i_glide_evdw>  (87) 
-21.8675

>  <r_i_glide_ecoul>  (87) 
-1.70516

>  <r_i_glide_erotb>  (87) 
0

>  <r_i_glide_esite>  (87) 
-0.0306007

>  <r_i_glide_emodel>  (87) 
-28.384

>  <r_i_glide_energy>  (87) 
-23.5727

>  <r_i_glide_einternal>  (87) 
0.00235597

>  <r_i_glide_intrahb_reward>  (87) 
-0

>  <i_i_glide_confnum>  (87) 
1

>  <i_i_glide_posenum>  (87) 
33

>  <r_i_glide_eff_state_penalty>  (87) 
0

>  <ligand_id>  (87) 
23

>  <original_smiles>  (87) 
CCC12CCC3C(C)(CCC(C)C4(C)CC(=O)C(C)C34C)C1=CCC2=O

>  <smiles>  (87) 
[H]C1=C([H])C2([H])C(C([H])([H])C([H])([H])[H])(C1=O)C([H])([H])C([H])([H])C1([H])C2(C([H])([H])[H])C([H])([H])C([H])([H])C([H])(C([H])([H])[H])C2(C([H])([H])[H])C([H])([H])C(=O)C([H])(C([H])([H])[H])C12C([H])([H])[H]

$$$$
23:0:1
     RDKit          3D

 62 65  0  0  1  0  0  0  0  0999 V2000
    4.9589   -1.7357    5.1507 C   0  0  0  0  0  0  0  0  0  0  0  0
    3.7800   -1.5831    4.1511 C   0  0  0  0  0  0  0  0  0  0  0  0
    2.8860   -2.8390    3.8523 C   0  0  1  0  0  0  0  0  0  0  0  0
    1.8374   -2.5236    2.7801 C   0  0  0  0  0  0  0  0  0  0  0  0
    2.5424   -2.3136    1.4142 C   0  0  0  0  0  0  0  0  0  0  0  0
    3.5464   -3.4112    0.9087 C   0  0  2  0  0  0  0  0  0  0  0  0
    4.4029   -4.1301    2.0477 C   0  0  1  0  0  0  0  0  0  0  0  0
    4.5657   -5.6473    1.7246 C   0  0  0  0  0  0  0  0  0  0  0  0
    5.8043   -3.5084    2.2799 C   0  0  0  0  0  0  0  0  0  0  0  0
    6.8566   -3.6338    1.1698 C   0  0  0  0  0  0  0  0  0  0  0  0
    6.8662   -2.5650    0.0632 C   0  0  1  0  0  0  0  0  0  0  0  0
    7.8924   -3.0059   -1.0061 C   0  0  0  0  0  0  0  0  0  0  0  0
    5.4795   -2.0359   -0.4775 C   0  0  1  0  0  0  0  0  0  0  0  0
    5.1855   -0.7052    0.2749 C   0  0  0  0  0  0  0  0  0  0  0  0
    5.5669   -1.6144   -1.9694 C   0  0  0  0  0  0  0  0  0  0  0  0
    4.1543   -1.6523   -2.4731 C   0  0  0  0  0  0  0  0  0  0  0  0
    3.8058   -1.2086   -3.5811 O   0  0  0  0  0  0  0  0  0  0  0  0
    3.2512   -2.3216   -1.4629 C   0  0  1  0  0  0  0  0  0  0  0  0
    2.1338   -3.1604   -2.1163 C   0  0  0  0  0  0  0  0  0  0  0  0
    4.2480   -3.0400   -0.4872 C   0  0  2  0  0  0  0  0  0  0  0  0
    4.6819   -4.3456   -1.2120 C   0  0  0  0  0  0  0  0  0  0  0  0
    3.5482   -4.1385    3.3670 C   0  0  1  0  0  0  0  0  0  0  0  0
    3.9970   -4.8003    4.6541 C   0  0  0  0  0  0  0  0  0  0  0  0
    3.2447   -4.3967    5.6898 C   0  0  0  0  0  0  0  0  0  0  0  0
    2.3452   -3.3316    5.1973 C   0  0  0  0  0  0  0  0  0  0  0  0
    1.3473   -2.8661    5.7377 O   0  0  0  0  0  0  0  0  0  0  0  0
    5.4883   -0.7876    5.2715 H   0  0  0  0  0  0  0  0  0  0  0  0
    5.6930   -2.4687    4.8277 H   0  0  0  0  0  0  0  0  0  0  0  0
    4.6359   -2.0377    6.1454 H   0  0  0  0  0  0  0  0  0  0  0  0
    3.1248   -0.7932    4.5052 H   0  0  0  0  0  0  0  0  0  0  0  0
    4.1751   -1.1672    3.2309 H   0  0  0  0  0  0  0  0  0  0  0  0
    1.2439   -1.6511    3.0474 H   0  0  0  0  0  0  0  0  0  0  0  0
    1.1167   -3.3383    2.7118 H   0  0  0  0  0  0  0  0  0  0  0  0
    1.7346   -2.2560    0.6997 H   0  0  0  0  0  0  0  0  0  0  0  0
    2.9794   -1.3228    1.4125 H   0  0  0  0  0  0  0  0  0  0  0  0
    2.8269   -4.1872    0.6237 H   0  0  0  0  0  0  0  0  0  0  0  0
    5.0150   -6.1930    2.5583 H   0  0  0  0  0  0  0  0  0  0  0  0
    5.1865   -5.8685    0.8657 H   0  0  0  0  0  0  0  0  0  0  0  0
    3.6017   -6.1180    1.5189 H   0  0  0  0  0  0  0  0  0  0  0  0
    5.7504   -2.4688    2.5710 H   0  0  0  0  0  0  0  0  0  0  0  0
    6.2086   -4.0360    3.1361 H   0  0  0  0  0  0  0  0  0  0  0  0
    7.8296   -3.5409    1.6444 H   0  0  0  0  0  0  0  0  0  0  0  0
    6.9021   -4.6418    0.7753 H   0  0  0  0  0  0  0  0  0  0  0  0
    7.3521   -1.6987    0.5299 H   0  0  0  0  0  0  0  0  0  0  0  0
    7.5239   -3.8394   -1.6058 H   0  0  0  0  0  0  0  0  0  0  0  0
    8.8165   -3.3402   -0.5321 H   0  0  0  0  0  0  0  0  0  0  0  0
    8.1821   -2.2094   -1.6885 H   0  0  0  0  0  0  0  0  0  0  0  0
    4.2552   -0.2272   -0.0281 H   0  0  0  0  0  0  0  0  0  0  0  0
    5.9690    0.0332    0.0898 H   0  0  0  0  0  0  0  0  0  0  0  0
    5.1561   -0.8344    1.3478 H   0  0  0  0  0  0  0  0  0  0  0  0
    5.9727   -0.6158   -2.1133 H   0  0  0  0  0  0  0  0  0  0  0  0
    6.1247   -2.3185   -2.5862 H   0  0  0  0  0  0  0  0  0  0  0  0
    2.7768   -1.4901   -0.9574 H   0  0  0  0  0  0  0  0  0  0  0  0
    1.4290   -2.5246   -2.6474 H   0  0  0  0  0  0  0  0  0  0  0  0
    1.5622   -3.7219   -1.3806 H   0  0  0  0  0  0  0  0  0  0  0  0
    2.5161   -3.8524   -2.8591 H   0  0  0  0  0  0  0  0  0  0  0  0
    4.8113   -4.2413   -2.2906 H   0  0  0  0  0  0  0  0  0  0  0  0
    3.9141   -5.0919   -1.0654 H   0  0  0  0  0  0  0  0  0  0  0  0
    5.6110   -4.7695   -0.8659 H   0  0  0  0  0  0  0  0  0  0  0  0
    4.8087   -5.5098    4.7259 H   0  0  0  0  0  0  0  0  0  0  0  0
    3.3457   -4.6620    6.7381 H   0  0  0  0  0  0  0  0  0  0  0  0
    2.7225   -4.8096    3.1021 H   0  0  0  0  0  0  0  0  0  0  0  0
  1  2  1  0
  1 27  1  0
  1 28  1  0
  1 29  1  0
  2 30  1  0
  2 31  1  0
  3  2  1  1
  3 25  1  0
  3 22  1  0
  3  4  1  0
  4  5  1  0
  4 32  1  0
  4 33  1  0
  5  6  1  0
  5 34  1  0
  5 35  1  0
  6 20  1  0
  6  7  1  0
  6 36  1  6
  7  8  1  6
  7  9  1  0
  7 22  1  0
  8 37  1  0
  8 38  1  0
  8 39  1  0
  9 10  1  0
  9 40  1  0
  9 41  1  0
 10 11  1  0
 10 42  1  0
 10 43  1  0
 11 12  1  0
 11 13  1  0
 11 44  1  1
 12 45  1  0
 12 46  1  0
 12 47  1  0
 13 20  1  0
 13 14  1  1
 13 15  1  0
 14 48  1  0
 14 49  1  0
 14 50  1  0
 15 16  1  0
 15 51  1  0
 15 52  1  0
 16 17  2  0
 16 18  1  0
 18 19  1  0
 18 20  1  0
 18 53  1  1
 19 54  1  0
 19 55  1  0
 19 56  1  0
 20 21  1  6
 21 57  1  0
 21 58  1  0
 21 59  1  0
 22 62  1  6
 22 23  1  0
 23 60  1  0
 23 24  2  0
 24 61  1  0
 24 25  1  0
 25 26  2  0
M  END
>  <i_m_ct_stereo_status>  (88) 
1

>  <s_m_source_file>  (88) 
/var/tmp/pbs.5076255.sched01/tmp7hrp_b9g/014g_j70o.sdf

>  <i_m_source_file_index>  (88) 
39

>  <i_lp_mmshare_version>  (88) 
48012

>  <i_f3d_flags>  (88) 
0

>  <s_epik_input>  (88) 
Tz1DMVtDSDJdW0NIXT1DKFtDQF0xMltDSDJdW0NIM10pW0NAQF0zKFtDSDNdKVtDQEBIXShbQ0gyXVtDSDJdMilbQ0BdNChbQ0gzXSlbQ0BAXShbQ0gzXSkoW0NASF0oW0NIM10pW0NIMl1bQ0gyXTMpW0NIMl1DKD1PKVtDQEhdNFtDSDNd

>  <s_epik_cmdline>  (88) 
J2VwaWtfcHl0aG9uJywgJy1waHQnLCAnMi4wJywgJy1waCcsICc3LjAnLCAnLXRuJywgJzgnLCAnLW1hJywgJzIwMCcsICctaW1hZScsICc8aW5maWxlLm1hZT4nLCAnLW9tYWUnLCAnPG91dGZpbGUubWFlPic=

>  <r_lp_tautomer_probability>  (88) 
1

>  <r_epik_Ionization_Penalty>  (88) 
5.81488e-14

>  <r_epik_Ionization_Penalty_Charging>  (88) 
0

>  <r_epik_Ionization_Penalty_Neutral>  (88) 
5.81488e-14

>  <r_epik_State_Penalty>  (88) 
-0

>  <r_epik_Charging_Adjusted_Penalty>  (88) 
0

>  <i_epik_Tot_Q>  (88) 
0

>  <i_epik_Tot_abs_Q>  (88) 
0

>  <s_lp_Force_Field>  (88) 
OPLS3e

>  <r_lp_Energy>  (88) 
74.6656

>  <b_lp_Chiralities_Consistent>  (88) 
1

>  <s_lp_Variant>  (88) 
23:0-1

>  <s_i_glide_gridfile>  (88) 
pfpi4k_grid

>  <i_i_glide_lignum>  (88) 
39

>  <i_i_glide_rotatable_bonds>  (88) 
1

>  <r_i_docking_score>  (88) 
-2.76924

>  <r_i_glide_ligand_efficiency>  (88) 
-0.106509

>  <r_i_glide_ligand_efficiency_sa>  (88) 
-0.315533

>  <r_i_glide_ligand_efficiency_ln>  (88) 
-0.650347

>  <r_i_glide_gscore>  (88) 
-2.76924

>  <r_i_glide_lipo>  (88) 
-0.479699

>  <r_i_glide_hbond>  (88) 
0

>  <r_i_glide_metal>  (88) 
-0

>  <r_i_glide_rewards>  (88) 
-0.978127

>  <r_i_glide_evdw>  (88) 
-20.8457

>  <r_i_glide_ecoul>  (88) 
-1.64598

>  <r_i_glide_erotb>  (88) 
0

>  <r_i_glide_esite>  (88) 
-0.0222301

>  <r_i_glide_emodel>  (88) 
-25.5234

>  <r_i_glide_energy>  (88) 
-22.4917

>  <r_i_glide_einternal>  (88) 
2.03744

>  <r_i_glide_intrahb_reward>  (88) 
-0

>  <i_i_glide_confnum>  (88) 
2

>  <i_i_glide_posenum>  (88) 
34

>  <r_i_glide_eff_state_penalty>  (88) 
0

>  <ligand_id>  (88) 
23

>  <original_smiles>  (88) 
CCC12CCC3C(C)(CCC(C)C4(C)CC(=O)C(C)C34C)C1=CCC2=O

>  <smiles>  (88) 
[H]C1=C([H])C2([H])C(C([H])([H])C([H])([H])[H])(C1=O)C([H])([H])C([H])([H])C1([H])C2(C([H])([H])[H])C([H])([H])C([H])([H])C([H])(C([H])([H])[H])C2(C([H])([H])[H])C([H])([H])C(=O)C([H])(C([H])([H])[H])C12C([H])([H])[H]

$$$$
23:0:2
     RDKit          3D

 62 65  0  0  1  0  0  0  0  0999 V2000
    2.9613   -1.9012    5.2292 C   0  0  0  0  0  0  0  0  0  0  0  0
    3.7472   -2.9466    4.4169 C   0  0  0  0  0  0  0  0  0  0  0  0
    2.9216   -4.1170    3.7927 C   0  0  1  0  0  0  0  0  0  0  0  0
    1.9103   -3.6264    2.7578 C   0  0  0  0  0  0  0  0  0  0  0  0
    2.6607   -3.0355    1.5393 C   0  0  0  0  0  0  0  0  0  0  0  0
    3.7778   -3.9132    0.8534 C   0  0  2  0  0  0  0  0  0  0  0  0
    4.6317   -4.8462    1.8388 C   0  0  1  0  0  0  0  0  0  0  0  0
    4.9128   -6.2227    1.1484 C   0  0  0  0  0  0  0  0  0  0  0  0
    5.9799   -4.2379    2.3207 C   0  0  0  0  0  0  0  0  0  0  0  0
    7.0898   -4.0272    1.2766 C   0  0  0  0  0  0  0  0  0  0  0  0
    7.0759   -2.7162    0.4549 C   0  0  1  0  0  0  0  0  0  0  0  0
    8.1820   -2.8197   -0.6228 C   0  0  0  0  0  0  0  0  0  0  0  0
    5.6803   -2.1416   -0.0208 C   0  0  1  0  0  0  0  0  0  0  0  0
    5.2646   -1.0557    1.0162 C   0  0  0  0  0  0  0  0  0  0  0  0
    5.8102   -1.3448   -1.3454 C   0  0  0  0  0  0  0  0  0  0  0  0
    4.4228   -1.3226   -1.9428 C   0  0  0  0  0  0  0  0  0  0  0  0
    4.1062   -0.6506   -2.9210 O   0  0  0  0  0  0  0  0  0  0  0  0
    3.5206   -2.2790   -1.1816 C   0  0  1  0  0  0  0  0  0  0  0  0
    2.5043   -2.9919   -2.0961 C   0  0  0  0  0  0  0  0  0  0  0  0
    4.5188   -3.1758   -0.3616 C   0  0  2  0  0  0  0  0  0  0  0  0
    5.0669   -4.2263   -1.3712 C   0  0  0  0  0  0  0  0  0  0  0  0
    3.7208   -5.2217    3.0591 C   0  0  1  0  0  0  0  0  0  0  0  0
    4.1823   -6.1272    4.1847 C   0  0  0  0  0  0  0  0  0  0  0  0
    3.3724   -6.0174    5.2471 C   0  0  0  0  0  0  0  0  0  0  0  0
    2.3954   -4.9592    4.9602 C   0  0  0  0  0  0  0  0  0  0  0  0
    1.3282   -4.7379    5.5376 O   0  0  0  0  0  0  0  0  0  0  0  0
    3.6356   -1.1031    5.5441 H   0  0  0  0  0  0  0  0  0  0  0  0
    2.5047   -2.3170    6.1270 H   0  0  0  0  0  0  0  0  0  0  0  0
    2.1815   -1.4317    4.6288 H   0  0  0  0  0  0  0  0  0  0  0  0
    4.2346   -2.3701    3.6456 H   0  0  0  0  0  0  0  0  0  0  0  0
    4.5443   -3.3483    5.0497 H   0  0  0  0  0  0  0  0  0  0  0  0
    1.2279   -2.8893    3.1797 H   0  0  0  0  0  0  0  0  0  0  0  0
    1.2730   -4.4558    2.4545 H   0  0  0  0  0  0  0  0  0  0  0  0
    1.8858   -2.8171    0.8054 H   0  0  0  0  0  0  0  0  0  0  0  0
    3.0421   -2.0636    1.8254 H   0  0  0  0  0  0  0  0  0  0  0  0
    3.1394   -4.6314    0.3362 H   0  0  0  0  0  0  0  0  0  0  0  0
    5.3551   -6.9383    1.8403 H   0  0  0  0  0  0  0  0  0  0  0  0
    5.5902   -6.1802    0.3018 H   0  0  0  0  0  0  0  0  0  0  0  0
    3.9951   -6.6751    0.7644 H   0  0  0  0  0  0  0  0  0  0  0  0
    5.8574   -3.3171    2.8699 H   0  0  0  0  0  0  0  0  0  0  0  0
    6.3804   -4.9339    3.0542 H   0  0  0  0  0  0  0  0  0  0  0  0
    8.0301   -4.0154    1.8220 H   0  0  0  0  0  0  0  0  0  0  0  0
    7.2222   -4.8990    0.6473 H   0  0  0  0  0  0  0  0  0  0  0  0
    7.4743   -1.9611    1.1345 H   0  0  0  0  0  0  0  0  0  0  0  0
    7.9074   -3.4900   -1.4359 H   0  0  0  0  0  0  0  0  0  0  0  0
    9.1037   -3.2067   -0.1889 H   0  0  0  0  0  0  0  0  0  0  0  0
    8.4434   -1.8599   -1.0500 H   0  0  0  0  0  0  0  0  0  0  0  0
    4.3190   -0.5627    0.7857 H   0  0  0  0  0  0  0  0  0  0  0  0
    6.0056   -0.2532    1.0659 H   0  0  0  0  0  0  0  0  0  0  0  0
    5.1971   -1.4539    2.0204 H   0  0  0  0  0  0  0  0  0  0  0  0
    6.1605   -0.3319   -1.1785 H   0  0  0  0  0  0  0  0  0  0  0  0
    6.4421   -1.8374   -2.0821 H   0  0  0  0  0  0  0  0  0  0  0  0
    2.9667   -1.6199   -0.5179 H   0  0  0  0  0  0  0  0  0  0  0  0
    1.8004   -2.2638   -2.4960 H   0  0  0  0  0  0  0  0  0  0  0  0
    1.9324   -3.7412   -1.5540 H   0  0  0  0  0  0  0  0  0  0  0  0
    2.9702   -3.4760   -2.9534 H   0  0  0  0  0  0  0  0  0  0  0  0
    5.2563   -3.8294   -2.3716 H   0  0  0  0  0  0  0  0  0  0  0  0
    4.3815   -5.0571   -1.4913 H   0  0  0  0  0  0  0  0  0  0  0  0
    6.0060   -4.6480   -1.0546 H   0  0  0  0  0  0  0  0  0  0  0  0
    5.0133   -6.8134    4.1029 H   0  0  0  0  0  0  0  0  0  0  0  0
    3.4301   -6.5615    6.1799 H   0  0  0  0  0  0  0  0  0  0  0  0
    2.9688   -5.8676    2.5995 H   0  0  0  0  0  0  0  0  0  0  0  0
  1  2  1  0
  1 27  1  0
  1 28  1  0
  1 29  1  0
  2 30  1  0
  2 31  1  0
  3  2  1  1
  3 25  1  0
  3 22  1  0
  3  4  1  0
  4  5  1  0
  4 32  1  0
  4 33  1  0
  5  6  1  0
  5 34  1  0
  5 35  1  0
  6 20  1  0
  6  7  1  0
  6 36  1  6
  7  8  1  6
  7  9  1  0
  7 22  1  0
  8 37  1  0
  8 38  1  0
  8 39  1  0
  9 10  1  0
  9 40  1  0
  9 41  1  0
 10 11  1  0
 10 42  1  0
 10 43  1  0
 11 12  1  0
 11 13  1  0
 11 44  1  1
 12 45  1  0
 12 46  1  0
 12 47  1  0
 13 20  1  0
 13 14  1  1
 13 15  1  0
 14 48  1  0
 14 49  1  0
 14 50  1  0
 15 16  1  0
 15 51  1  0
 15 52  1  0
 16 17  2  0
 16 18  1  0
 18 19  1  0
 18 20  1  0
 18 53  1  1
 19 54  1  0
 19 55  1  0
 19 56  1  0
 20 21  1  6
 21 57  1  0
 21 58  1  0
 21 59  1  0
 22 62  1  6
 22 23  1  0
 23 60  1  0
 23 24  2  0
 24 61  1  0
 24 25  1  0
 25 26  2  0
M  END
>  <i_m_ct_stereo_status>  (89) 
1

>  <s_m_source_file>  (89) 
/var/tmp/pbs.5076255.sched01/tmp7hrp_b9g/014g_j70o.sdf

>  <i_m_source_file_index>  (89) 
39

>  <i_lp_mmshare_version>  (89) 
48012

>  <i_f3d_flags>  (89) 
0

>  <s_epik_input>  (89) 
Tz1DMVtDSDJdW0NIXT1DKFtDQF0xMltDSDJdW0NIM10pW0NAQF0zKFtDSDNdKVtDQEBIXShbQ0gyXVtDSDJdMilbQ0BdNChbQ0gzXSlbQ0BAXShbQ0gzXSkoW0NASF0oW0NIM10pW0NIMl1bQ0gyXTMpW0NIMl1DKD1PKVtDQEhdNFtDSDNd

>  <s_epik_cmdline>  (89) 
J2VwaWtfcHl0aG9uJywgJy1waHQnLCAnMi4wJywgJy1waCcsICc3LjAnLCAnLXRuJywgJzgnLCAnLW1hJywgJzIwMCcsICctaW1hZScsICc8aW5maWxlLm1hZT4nLCAnLW9tYWUnLCAnPG91dGZpbGUubWFlPic=

>  <r_lp_tautomer_probability>  (89) 
1

>  <r_epik_Ionization_Penalty>  (89) 
5.81488e-14

>  <r_epik_Ionization_Penalty_Charging>  (89) 
0

>  <r_epik_Ionization_Penalty_Neutral>  (89) 
5.81488e-14

>  <r_epik_State_Penalty>  (89) 
-0

>  <r_epik_Charging_Adjusted_Penalty>  (89) 
0

>  <i_epik_Tot_Q>  (89) 
0

>  <i_epik_Tot_abs_Q>  (89) 
0

>  <s_lp_Force_Field>  (89) 
OPLS3e

>  <r_lp_Energy>  (89) 
74.6656

>  <b_lp_Chiralities_Consistent>  (89) 
1

>  <s_lp_Variant>  (89) 
23:0-1

>  <s_i_glide_gridfile>  (89) 
pfpi4k_grid

>  <i_i_glide_lignum>  (89) 
39

>  <i_i_glide_rotatable_bonds>  (89) 
1

>  <r_i_docking_score>  (89) 
-2.64655

>  <r_i_glide_ligand_efficiency>  (89) 
-0.10179

>  <r_i_glide_ligand_efficiency_sa>  (89) 
-0.301553

>  <r_i_glide_ligand_efficiency_ln>  (89) 
-0.621533

>  <r_i_glide_gscore>  (89) 
-2.64655

>  <r_i_glide_lipo>  (89) 
-0.498747

>  <r_i_glide_hbond>  (89) 
0

>  <r_i_glide_metal>  (89) 
-0

>  <r_i_glide_rewards>  (89) 
-0.978127

>  <r_i_glide_evdw>  (89) 
-20.7686

>  <r_i_glide_ecoul>  (89) 
-0.573298

>  <r_i_glide_erotb>  (89) 
0

>  <r_i_glide_esite>  (89) 
-0.0452504

>  <r_i_glide_emodel>  (89) 
-25.3815

>  <r_i_glide_energy>  (89) 
-21.3418

>  <r_i_glide_einternal>  (89) 
0.001921

>  <r_i_glide_intrahb_reward>  (89) 
-0

>  <i_i_glide_confnum>  (89) 
1

>  <i_i_glide_posenum>  (89) 
14

>  <r_i_glide_eff_state_penalty>  (89) 
0

>  <ligand_id>  (89) 
23

>  <original_smiles>  (89) 
CCC12CCC3C(C)(CCC(C)C4(C)CC(=O)C(C)C34C)C1=CCC2=O

>  <smiles>  (89) 
[H]C1=C([H])C2([H])C(C([H])([H])C([H])([H])[H])(C1=O)C([H])([H])C([H])([H])C1([H])C2(C([H])([H])[H])C([H])([H])C([H])([H])C([H])(C([H])([H])[H])C2(C([H])([H])[H])C([H])([H])C(=O)C([H])(C([H])([H])[H])C12C([H])([H])[H]

$$$$
24:0:0
     RDKit          3D

 87 94  0  0  1  0  0  0  0  0999 V2000
    1.1128    0.1193    2.1236 C   0  0  0  0  0  0  0  0  0  0  0  0
    2.3555   -0.4988    1.7995 O   0  0  0  0  0  0  0  0  0  0  0  0
    2.2651   -1.8789    1.6099 C   0  0  2  0  0  0  0  0  0  0  0  0
    2.1671   -2.4962    2.8561 O   0  0  0  0  0  0  0  0  0  0  0  0
    2.1961   -3.9049    2.7740 C   0  0  2  0  0  0  0  0  0  0  0  0
    1.1865   -4.5649    3.8661 C   0  0  2  0  0  0  0  0  0  0  0  0
    0.5106   -3.8725    4.9298 O   0  0  0  0  0  0  0  0  0  0  0  0
    1.5943   -4.7138    5.3787 C   0  0  2  0  0  0  0  0  0  0  0  0
    2.8486   -4.4442    5.1230 C   0  0  0  0  0  0  0  0  0  0  0  0
    3.3521   -3.3248    5.3050 O   0  0  0  0  0  0  0  0  0  0  0  0
    3.3420   -5.7915    4.4787 O   0  0  0  0  0  0  0  0  0  0  0  0
    4.5733   -6.1245    3.9605 C   0  0  0  0  0  0  0  0  0  0  0  0
    5.4169   -7.2542    4.1810 C   0  0  0  0  0  0  0  0  0  0  0  0
    6.7204   -6.8049    4.5573 C   0  0  0  0  0  0  0  0  0  0  0  0
    6.8657   -5.4560    5.0109 C   0  0  0  0  0  0  0  0  0  0  0  0
    5.5799   -4.8636    5.0584 C   0  0  0  0  0  0  0  0  0  0  0  0
    5.0413   -4.9428    3.6335 C   0  0  0  0  0  0  0  0  0  0  0  0
    3.7657   -4.5029    2.5210 C   0  0  1  0  0  0  0  0  0  0  0  0
    3.1425   -5.9058    1.7714 C   0  0  1  0  0  0  0  0  0  0  0  0
    4.1254   -6.5312    0.9854 O   0  0  0  0  0  0  0  0  0  0  0  0
    2.4796   -7.2639    2.4906 C   0  0  0  0  0  0  0  0  0  0  0  0
    1.3247   -7.3917    3.6080 C   0  0  2  0  0  0  0  0  0  0  0  0
    1.0937   -7.0964    5.1645 C   0  0  1  0  0  0  0  0  0  0  0  0
    1.3732   -8.5040    4.6873 C   0  0  0  0  0  0  0  0  0  0  0  0
    0.2409   -9.5184    4.6777 C   0  0  0  0  0  0  0  0  0  0  0  0
    2.6364   -9.2096    5.0938 C   0  0  0  0  0  0  0  0  0  0  0  0
    1.7611   -6.0512    6.2063 C   0  0  2  0  0  0  0  0  0  0  0  0
    0.8397   -5.9380    7.4465 C   0  0  0  0  0  0  0  0  0  0  0  0
    3.3925   -6.2448    6.8877 C   0  0  0  0  0  0  0  0  0  0  0  0
    4.8753   -5.3389    6.5709 C   0  0  1  0  0  0  0  0  0  0  0  0
    5.9172   -5.8736    7.5801 C   0  0  0  0  0  0  0  0  0  0  0  0
    4.4850   -3.3019    1.6614 C   0  0  1  0  0  0  0  0  0  0  0  0
    5.3255   -2.3631    2.5784 C   0  0  0  0  0  0  0  0  0  0  0  0
    5.3890   -3.7630    0.4670 C   0  0  1  0  0  0  0  0  0  0  0  0
    6.5092   -4.8288    0.6377 C   0  0  0  0  0  0  0  0  0  0  0  0
    7.9254   -4.2743    0.9066 C   0  0  0  0  0  0  0  0  0  0  0  0
    8.5602   -3.6193   -0.3290 C   0  0  0  0  0  0  0  0  0  0  0  0
    8.8488   -5.3649    1.4768 C   0  0  0  0  0  0  0  0  0  0  0  0
    4.4165   -4.0643   -0.5300 O   0  0  0  0  0  0  0  0  0  0  0  0
    3.2876   -3.3600   -0.3488 C   0  0  0  0  0  0  0  0  0  0  0  0
    2.2407   -3.4575   -0.9901 O   0  0  0  0  0  0  0  0  0  0  0  0
    3.5205   -2.3969    0.8158 C   0  0  1  0  0  0  0  0  0  0  0  0
    4.1688   -1.2750    0.2209 O   0  0  0  0  0  0  0  0  0  0  0  0
    1.2612    1.1856    2.2885 H   0  0  0  0  0  0  0  0  0  0  0  0
    0.6688   -0.3027    3.0265 H   0  0  0  0  0  0  0  0  0  0  0  0
    0.4002    0.0183    1.3050 H   0  0  0  0  0  0  0  0  0  0  0  0
    1.3649   -2.0699    1.0312 H   0  0  0  0  0  0  0  0  0  0  0  0
    1.6086   -4.0787    1.8784 H   0  0  0  0  0  0  0  0  0  0  0  0
    0.4233   -5.1606    3.3918 H   0  0  0  0  0  0  0  0  0  0  0  0
    5.1355   -8.2938    4.2072 H   0  0  0  0  0  0  0  0  0  0  0  0
    7.5282   -7.5152    4.6819 H   0  0  0  0  0  0  0  0  0  0  0  0
    7.7092   -5.1730    5.6177 H   0  0  0  0  0  0  0  0  0  0  0  0
    2.4347   -5.6330    0.9906 H   0  0  0  0  0  0  0  0  0  0  0  0
    4.7910   -6.8682    1.5677 H   0  0  0  0  0  0  0  0  0  0  0  0
    2.0550   -7.8203    1.6488 H   0  0  0  0  0  0  0  0  0  0  0  0
    3.2680   -7.9485    2.7998 H   0  0  0  0  0  0  0  0  0  0  0  0
    0.3761   -7.3461    3.0781 H   0  0  0  0  0  0  0  0  0  0  0  0
    0.0253   -6.9890    5.3337 H   0  0  0  0  0  0  0  0  0  0  0  0
    0.1243   -9.9817    5.6577 H   0  0  0  0  0  0  0  0  0  0  0  0
    0.4414  -10.3036    3.9485 H   0  0  0  0  0  0  0  0  0  0  0  0
   -0.7042   -9.0482    4.4094 H   0  0  0  0  0  0  0  0  0  0  0  0
    2.5157   -9.6976    6.0620 H   0  0  0  0  0  0  0  0  0  0  0  0
    3.4148   -8.4801    5.1877 H   0  0  0  0  0  0  0  0  0  0  0  0
    2.9206   -9.9475    4.3428 H   0  0  0  0  0  0  0  0  0  0  0  0
    0.8197   -6.8647    8.0268 H   0  0  0  0  0  0  0  0  0  0  0  0
   -0.1940   -5.6977    7.1732 H   0  0  0  0  0  0  0  0  0  0  0  0
    1.1697   -5.1381    8.1145 H   0  0  0  0  0  0  0  0  0  0  0  0
    3.2534   -6.1185    7.9589 H   0  0  0  0  0  0  0  0  0  0  0  0
    3.6477   -7.2948    6.8232 H   0  0  0  0  0  0  0  0  0  0  0  0
    4.6818   -4.3622    7.0189 H   0  0  0  0  0  0  0  0  0  0  0  0
    6.7872   -5.2180    7.6466 H   0  0  0  0  0  0  0  0  0  0  0  0
    6.2596   -6.8756    7.3172 H   0  0  0  0  0  0  0  0  0  0  0  0
    5.5027   -5.9227    8.5846 H   0  0  0  0  0  0  0  0  0  0  0  0
    5.7263   -1.4923    2.0608 H   0  0  0  0  0  0  0  0  0  0  0  0
    6.2024   -2.8517    2.9858 H   0  0  0  0  0  0  0  0  0  0  0  0
    4.7331   -1.9911    3.4160 H   0  0  0  0  0  0  0  0  0  0  0  0
    5.9103   -2.8825    0.0863 H   0  0  0  0  0  0  0  0  0  0  0  0
    6.2814   -5.5303    1.4309 H   0  0  0  0  0  0  0  0  0  0  0  0
    6.5437   -5.4185   -0.2765 H   0  0  0  0  0  0  0  0  0  0  0  0
    7.8438   -3.5047    1.6719 H   0  0  0  0  0  0  0  0  0  0  0  0
    8.6969   -4.3428   -1.1282 H   0  0  0  0  0  0  0  0  0  0  0  0
    9.5372   -3.1980   -0.0942 H   0  0  0  0  0  0  0  0  0  0  0  0
    7.9469   -2.8095   -0.7177 H   0  0  0  0  0  0  0  0  0  0  0  0
    8.9636   -6.2034    0.7886 H   0  0  0  0  0  0  0  0  0  0  0  0
    8.4660   -5.7624    2.4178 H   0  0  0  0  0  0  0  0  0  0  0  0
    9.8372   -4.9626    1.6896 H   0  0  0  0  0  0  0  0  0  0  0  0
    3.5075   -0.7870   -0.2496 H   0  0  0  0  0  0  0  0  0  0  0  0
  1  2  1  0
  1 44  1  0
  1 45  1  0
  1 46  1  0
  2  3  1  0
  3 42  1  0
  3  4  1  0
  3 47  1  6
  4  5  1  0
  5 18  1  0
  5  6  1  0
  5 48  1  6
  6  8  1  0
  6  7  1  0
  6 49  1  6
  8  7  1  1
  8 27  1  0
  8  9  1  0
  9 10  2  0
  9 11  1  0
 11 12  1  0
 12 17  2  0
 12 13  1  0
 13 14  2  0
 13 50  1  0
 14 15  1  0
 14 51  1  0
 15 16  2  0
 15 52  1  0
 16 30  1  0
 16 17  1  0
 18 17  1  1
 18 19  1  0
 18 32  1  0
 19 20  1  0
 19 21  1  0
 19 53  1  6
 20 54  1  0
 21 22  1  0
 21 55  1  0
 21 56  1  0
 22 24  1  0
 22 23  1  0
 22 57  1  6
 23 24  1  0
 23 27  1  0
 23 58  1  6
 24 25  1  0
 24 26  1  0
 25 59  1  0
 25 60  1  0
 25 61  1  0
 26 62  1  0
 26 63  1  0
 26 64  1  0
 27 28  1  1
 27 29  1  0
 28 65  1  0
 28 66  1  0
 28 67  1  0
 29 30  1  0
 29 68  1  0
 29 69  1  0
 30 31  1  0
 30 70  1  1
 31 71  1  0
 31 72  1  0
 31 73  1  0
 32 42  1  0
 32 33  1  1
 32 34  1  0
 33 74  1  0
 33 75  1  0
 33 76  1  0
 34 35  1  0
 34 39  1  0
 34 77  1  6
 35 36  1  0
 35 78  1  0
 35 79  1  0
 36 37  1  0
 36 38  1  0
 36 80  1  0
 37 81  1  0
 37 82  1  0
 37 83  1  0
 38 84  1  0
 38 85  1  0
 38 86  1  0
 39 40  1  0
 40 41  2  0
 40 42  1  0
 42 43  1  6
 43 87  1  0
M  END
>  <i_m_ct_stereo_status>  (90) 
1

>  <s_m_source_file>  (90) 
/var/tmp/pbs.5076255.sched01/tmp7hrp_b9g/014g_j70o.sdf

>  <i_m_source_file_index>  (90) 
40

>  <i_lp_mmshare_version>  (90) 
48012

>  <i_f3d_flags>  (90) 
0

>  <s_epik_input>  (90) 
W0NIM11bQ0hdKFtDSDNdKVtDSDJdW0NASF0xT0MoPU8pW0NAQF0oW09IXSkoW0NAQEhdKE8yKU9bQ0gzXSlbQ0BAXTEoW0NIM10pW0NAXTMoW0NASF0yW0NIXShPNClDNDU2KWM3YyhPQzU9TylbY0hdW2NIXVtjSF1jN1tDQEhdKFtDSDNdKVtDSDJdW0NAXTYoW0NIM10pW0NASF04W0NASF0oQzgoW0NIM10pW0NIM10pW0NIMl1bQ0BASF0zW09IXQ==

>  <s_epik_cmdline>  (90) 
J2VwaWtfcHl0aG9uJywgJy1waHQnLCAnMi4wJywgJy1waCcsICc3LjAnLCAnLXRuJywgJzgnLCAnLW1hJywgJzIwMCcsICctaW1hZScsICc8aW5maWxlLm1hZT4nLCAnLW9tYWUnLCAnPG91dGZpbGUubWFlPic=

>  <r_lp_tautomer_probability>  (90) 
1

>  <r_epik_Ionization_Penalty>  (90) 
1.2042e-05

>  <r_epik_Ionization_Penalty_Charging>  (90) 
0

>  <r_epik_Ionization_Penalty_Neutral>  (90) 
1.2042e-05

>  <r_epik_State_Penalty>  (90) 
-0

>  <r_epik_Charging_Adjusted_Penalty>  (90) 
0

>  <i_epik_Tot_Q>  (90) 
0

>  <i_epik_Tot_abs_Q>  (90) 
0

>  <s_epik_Chemistry_Notes>  (90) 
This compound has an ester and may undergo hydrolysis at high or low pH. This compound contains an acetal/aminal-like group ( X-CH(R)-Y where X, Y are N, S, or O) that may be acid/base labile, releasing an aldehyde.

>  <s_lp_Force_Field>  (90) 
OPLS3e

>  <r_lp_Energy>  (90) 
687.107

>  <b_lp_Chiralities_Consistent>  (90) 
1

>  <s_lp_Variant>  (90) 
24:0-1

>  <s_i_glide_gridfile>  (90) 
pfpi4k_grid

>  <i_i_glide_lignum>  (90) 
40

>  <i_i_glide_rotatable_bonds>  (90) 
5

>  <r_i_docking_score>  (90) 
-1.84957

>  <r_i_glide_ligand_efficiency>  (90) 
-0.0430132

>  <r_i_glide_ligand_efficiency_sa>  (90) 
-0.150692

>  <r_i_glide_ligand_efficiency_ln>  (90) 
-0.388467

>  <r_i_glide_gscore>  (90) 
-1.84957

>  <r_i_glide_lipo>  (90) 
-0.449101

>  <r_i_glide_hbond>  (90) 
0

>  <r_i_glide_metal>  (90) 
-0

>  <r_i_glide_rewards>  (90) 
-0.0656558

>  <r_i_glide_evdw>  (90) 
-26.8154

>  <r_i_glide_ecoul>  (90) 
0.0143525

>  <r_i_glide_erotb>  (90) 
0.0589323

>  <r_i_glide_esite>  (90) 
-0.0551255

>  <r_i_glide_emodel>  (90) 
-27.052

>  <r_i_glide_energy>  (90) 
-26.8011

>  <r_i_glide_einternal>  (90) 
5.00328

>  <r_i_glide_intrahb_reward>  (90) 
-0

>  <i_i_glide_confnum>  (90) 
6

>  <i_i_glide_posenum>  (90) 
11

>  <r_i_glide_eff_state_penalty>  (90) 
0

>  <ligand_id>  (90) 
24

>  <original_smiles>  (90) 
COC1OC2C3OC34C(=O)Oc3cccc5c3C2(C(O)CC2C(C2(C)C)C4(C)CC5C)C2(C)C(CC(C)C)OC(=O)C12O

>  <smiles>  (90) 
[H]OC1([H])C([H])([H])C2([H])C([H])(C3(C([H])([H])[H])C([H])([H])C([H])(C([H])([H])[H])c4c([H])c([H])c([H])c5c4C14C([H])(OC([H])(OC([H])([H])[H])C1(O[H])C(=O)OC([H])(C([H])([H])C([H])(C([H])([H])[H])C([H])([H])[H])C14C([H])([H])[H])C1([H])OC13C(=O)O5)C2(C([H])([H])[H])C([H])([H])[H]

$$$$
24:0:1
     RDKit          3D

 87 94  0  0  1  0  0  0  0  0999 V2000
    1.0616    0.0706    2.2278 C   0  0  0  0  0  0  0  0  0  0  0  0
    2.3657   -0.4484    1.9951 O   0  0  0  0  0  0  0  0  0  0  0  0
    2.3838   -1.8021    1.6662 C   0  0  2  0  0  0  0  0  0  0  0  0
    2.1599   -2.5421    2.8310 O   0  0  0  0  0  0  0  0  0  0  0  0
    2.2917   -3.9261    2.6327 C   0  0  2  0  0  0  0  0  0  0  0  0
    1.1931   -4.7467    3.4989 C   0  0  2  0  0  0  0  0  0  0  0  0
    0.3257   -4.1869    4.5004 O   0  0  0  0  0  0  0  0  0  0  0  0
    1.3837   -5.0179    5.0303 C   0  0  2  0  0  0  0  0  0  0  0  0
    2.6335   -4.6746    4.9831 C   0  0  0  0  0  0  0  0  0  0  0  0
    3.0335   -3.5548    5.3397 O   0  0  0  0  0  0  0  0  0  0  0  0
    3.3069   -5.9116    4.2980 O   0  0  0  0  0  0  0  0  0  0  0  0
    4.6196   -6.1179    3.9320 C   0  0  0  0  0  0  0  0  0  0  0  0
    5.4846   -7.2345    4.1910 C   0  0  0  0  0  0  0  0  0  0  0  0
    6.6874   -6.7470    4.7950 C   0  0  0  0  0  0  0  0  0  0  0  0
    6.6866   -5.4514    5.3910 C   0  0  0  0  0  0  0  0  0  0  0  0
    5.3561   -4.9434    5.2805 C   0  0  0  0  0  0  0  0  0  0  0  0
    5.0643   -4.8971    3.7880 C   0  0  0  0  0  0  0  0  0  0  0  0
    3.9132   -4.4199    2.5523 C   0  0  1  0  0  0  0  0  0  0  0  0
    3.4538   -5.7759    1.6066 C   0  0  1  0  0  0  0  0  0  0  0  0
    4.5401   -6.3215    0.8976 O   0  0  0  0  0  0  0  0  0  0  0  0
    2.8091   -7.2284    2.0958 C   0  0  0  0  0  0  0  0  0  0  0  0
    1.5293   -7.5183    3.0053 C   0  0  2  0  0  0  0  0  0  0  0  0
    1.0689   -7.3891    4.5222 C   0  0  1  0  0  0  0  0  0  0  0  0
    1.4988   -8.7312    3.9708 C   0  0  0  0  0  0  0  0  0  0  0  0
    0.4539   -9.7994    3.6893 C   0  0  0  0  0  0  0  0  0  0  0  0
    2.7328   -9.4099    4.4881 C   0  0  0  0  0  0  0  0  0  0  0  0
    1.5138   -6.4204    5.7404 C   0  0  2  0  0  0  0  0  0  0  0  0
    0.4182   -6.4815    6.8315 C   0  0  0  0  0  0  0  0  0  0  0  0
    3.0363   -6.6016    6.6377 C   0  0  0  0  0  0  0  0  0  0  0  0
    4.4862   -5.5990    6.6293 C   0  0  1  0  0  0  0  0  0  0  0  0
    5.4016   -6.1809    7.7288 C   0  0  0  0  0  0  0  0  0  0  0  0
    4.6661   -3.1124    1.9197 C   0  0  1  0  0  0  0  0  0  0  0  0
    5.3076   -2.2218    3.0343 C   0  0  0  0  0  0  0  0  0  0  0  0
    5.7734   -3.3934    0.8372 C   0  0  1  0  0  0  0  0  0  0  0  0
    6.9533   -4.3859    1.0755 C   0  0  0  0  0  0  0  0  0  0  0  0
    8.1209   -4.2838    0.0856 C   0  0  0  0  0  0  0  0  0  0  0  0
    8.9116   -5.6034    0.0793 C   0  0  0  0  0  0  0  0  0  0  0  0
    9.0376   -3.0976    0.3830 C   0  0  0  0  0  0  0  0  0  0  0  0
    4.9827   -3.6238   -0.3252 O   0  0  0  0  0  0  0  0  0  0  0  0
    3.7862   -2.9965   -0.2485 C   0  0  0  0  0  0  0  0  0  0  0  0
    2.8666   -3.0450   -1.0515 O   0  0  0  0  0  0  0  0  0  0  0  0
    3.7799   -2.1686    1.0308 C   0  0  1  0  0  0  0  0  0  0  0  0
    4.4436   -0.9560    0.6637 O   0  0  0  0  0  0  0  0  0  0  0  0
    1.1148    1.1218    2.5098 H   0  0  0  0  0  0  0  0  0  0  0  0
    0.5417   -0.4622    3.0270 H   0  0  0  0  0  0  0  0  0  0  0  0
    0.4561    0.0172    1.3229 H   0  0  0  0  0  0  0  0  0  0  0  0
    1.5754   -1.9698    0.9484 H   0  0  0  0  0  0  0  0  0  0  0  0
    1.8396   -4.0286    1.6486 H   0  0  0  0  0  0  0  0  0  0  0  0
    0.5453   -5.3222    2.8679 H   0  0  0  0  0  0  0  0  0  0  0  0
    5.2745   -8.2895    4.0873 H   0  0  0  0  0  0  0  0  0  0  0  0
    7.5179   -7.4237    4.9804 H   0  0  0  0  0  0  0  0  0  0  0  0
    7.4080   -5.1863    6.1459 H   0  0  0  0  0  0  0  0  0  0  0  0
    2.8601   -5.4484    0.7514 H   0  0  0  0  0  0  0  0  0  0  0  0
    5.1525   -6.6411    1.5433 H   0  0  0  0  0  0  0  0  0  0  0  0
    2.5451   -7.7255    1.1566 H   0  0  0  0  0  0  0  0  0  0  0  0
    3.5908   -7.8957    2.4599 H   0  0  0  0  0  0  0  0  0  0  0  0
    0.6653   -7.4688    2.3505 H   0  0  0  0  0  0  0  0  0  0  0  0
   -0.0162   -7.3601    4.5419 H   0  0  0  0  0  0  0  0  0  0  0  0
    0.2267  -10.3639    4.5953 H   0  0  0  0  0  0  0  0  0  0  0  0
    0.8136  -10.4919    2.9257 H   0  0  0  0  0  0  0  0  0  0  0  0
   -0.4693   -9.3517    3.3281 H   0  0  0  0  0  0  0  0  0  0  0  0
    2.5070   -9.9988    5.3786 H   0  0  0  0  0  0  0  0  0  0  0  0
    3.4358   -8.6533    4.7632 H   0  0  0  0  0  0  0  0  0  0  0  0
    3.1723  -10.0492    3.7204 H   0  0  0  0  0  0  0  0  0  0  0  0
    0.3599   -7.4640    7.3102 H   0  0  0  0  0  0  0  0  0  0  0  0
   -0.5755   -6.2550    6.4303 H   0  0  0  0  0  0  0  0  0  0  0  0
    0.5912   -5.7429    7.6200 H   0  0  0  0  0  0  0  0  0  0  0  0
    2.7343   -6.5912    7.6791 H   0  0  0  0  0  0  0  0  0  0  0  0
    3.3598   -7.6243    6.5220 H   0  0  0  0  0  0  0  0  0  0  0  0
    4.1710   -4.6849    7.1322 H   0  0  0  0  0  0  0  0  0  0  0  0
    6.2098   -5.4941    7.9931 H   0  0  0  0  0  0  0  0  0  0  0  0
    5.8432   -7.1341    7.4321 H   0  0  0  0  0  0  0  0  0  0  0  0
    4.8504   -6.3527    8.6511 H   0  0  0  0  0  0  0  0  0  0  0  0
    5.7245   -1.2823    2.6738 H   0  0  0  0  0  0  0  0  0  0  0  0
    6.1483   -2.7008    3.5199 H   0  0  0  0  0  0  0  0  0  0  0  0
    4.5834   -1.9709    3.8093 H   0  0  0  0  0  0  0  0  0  0  0  0
    6.2851   -2.4443    0.6673 H   0  0  0  0  0  0  0  0  0  0  0  0
    7.3433   -4.2681    2.0782 H   0  0  0  0  0  0  0  0  0  0  0  0
    6.6541   -5.4265    1.0160 H   0  0  0  0  0  0  0  0  0  0  0  0
    7.7127   -4.1272   -0.9075 H   0  0  0  0  0  0  0  0  0  0  0  0
    9.3642   -5.8231    1.0495 H   0  0  0  0  0  0  0  0  0  0  0  0
    9.6853   -5.5704   -0.6789 H   0  0  0  0  0  0  0  0  0  0  0  0
    8.2882   -6.4603   -0.1760 H   0  0  0  0  0  0  0  0  0  0  0  0
    9.4807   -3.1829    1.3728 H   0  0  0  0  0  0  0  0  0  0  0  0
    8.5095   -2.1468    0.3034 H   0  0  0  0  0  0  0  0  0  0  0  0
    9.8626   -3.0598   -0.3152 H   0  0  0  0  0  0  0  0  0  0  0  0
    3.8137   -0.4394    0.1796 H   0  0  0  0  0  0  0  0  0  0  0  0
  1  2  1  0
  1 44  1  0
  1 45  1  0
  1 46  1  0
  2  3  1  0
  3 42  1  0
  3  4  1  0
  3 47  1  6
  4  5  1  0
  5 18  1  0
  5  6  1  0
  5 48  1  6
  6  8  1  0
  6  7  1  0
  6 49  1  6
  8  7  1  1
  8 27  1  0
  8  9  1  0
  9 10  2  0
  9 11  1  0
 11 12  1  0
 12 17  2  0
 12 13  1  0
 13 14  2  0
 13 50  1  0
 14 15  1  0
 14 51  1  0
 15 16  2  0
 15 52  1  0
 16 30  1  0
 16 17  1  0
 18 17  1  1
 18 19  1  0
 18 32  1  0
 19 20  1  0
 19 21  1  0
 19 53  1  6
 20 54  1  0
 21 22  1  0
 21 55  1  0
 21 56  1  0
 22 24  1  0
 22 23  1  0
 22 57  1  6
 23 24  1  0
 23 27  1  0
 23 58  1  6
 24 25  1  0
 24 26  1  0
 25 59  1  0
 25 60  1  0
 25 61  1  0
 26 62  1  0
 26 63  1  0
 26 64  1  0
 27 28  1  1
 27 29  1  0
 28 65  1  0
 28 66  1  0
 28 67  1  0
 29 30  1  0
 29 68  1  0
 29 69  1  0
 30 31  1  0
 30 70  1  1
 31 71  1  0
 31 72  1  0
 31 73  1  0
 32 42  1  0
 32 33  1  1
 32 34  1  0
 33 74  1  0
 33 75  1  0
 33 76  1  0
 34 35  1  0
 34 39  1  0
 34 77  1  6
 35 36  1  0
 35 78  1  0
 35 79  1  0
 36 37  1  0
 36 38  1  0
 36 80  1  0
 37 81  1  0
 37 82  1  0
 37 83  1  0
 38 84  1  0
 38 85  1  0
 38 86  1  0
 39 40  1  0
 40 41  2  0
 40 42  1  0
 42 43  1  6
 43 87  1  0
M  END
>  <i_m_ct_stereo_status>  (91) 
1

>  <s_m_source_file>  (91) 
/var/tmp/pbs.5076255.sched01/tmp7hrp_b9g/014g_j70o.sdf

>  <i_m_source_file_index>  (91) 
40

>  <i_lp_mmshare_version>  (91) 
48012

>  <i_f3d_flags>  (91) 
0

>  <s_epik_input>  (91) 
W0NIM11bQ0hdKFtDSDNdKVtDSDJdW0NASF0xT0MoPU8pW0NAQF0oW09IXSkoW0NAQEhdKE8yKU9bQ0gzXSlbQ0BAXTEoW0NIM10pW0NAXTMoW0NASF0yW0NIXShPNClDNDU2KWM3YyhPQzU9TylbY0hdW2NIXVtjSF1jN1tDQEhdKFtDSDNdKVtDSDJdW0NAXTYoW0NIM10pW0NASF04W0NASF0oQzgoW0NIM10pW0NIM10pW0NIMl1bQ0BASF0zW09IXQ==

>  <s_epik_cmdline>  (91) 
J2VwaWtfcHl0aG9uJywgJy1waHQnLCAnMi4wJywgJy1waCcsICc3LjAnLCAnLXRuJywgJzgnLCAnLW1hJywgJzIwMCcsICctaW1hZScsICc8aW5maWxlLm1hZT4nLCAnLW9tYWUnLCAnPG91dGZpbGUubWFlPic=

>  <r_lp_tautomer_probability>  (91) 
1

>  <r_epik_Ionization_Penalty>  (91) 
1.2042e-05

>  <r_epik_Ionization_Penalty_Charging>  (91) 
0

>  <r_epik_Ionization_Penalty_Neutral>  (91) 
1.2042e-05

>  <r_epik_State_Penalty>  (91) 
-0

>  <r_epik_Charging_Adjusted_Penalty>  (91) 
0

>  <i_epik_Tot_Q>  (91) 
0

>  <i_epik_Tot_abs_Q>  (91) 
0

>  <s_epik_Chemistry_Notes>  (91) 
This compound has an ester and may undergo hydrolysis at high or low pH. This compound contains an acetal/aminal-like group ( X-CH(R)-Y where X, Y are N, S, or O) that may be acid/base labile, releasing an aldehyde.

>  <s_lp_Force_Field>  (91) 
OPLS3e

>  <r_lp_Energy>  (91) 
687.107

>  <b_lp_Chiralities_Consistent>  (91) 
1

>  <s_lp_Variant>  (91) 
24:0-1

>  <s_i_glide_gridfile>  (91) 
pfpi4k_grid

>  <i_i_glide_lignum>  (91) 
40

>  <i_i_glide_rotatable_bonds>  (91) 
5

>  <r_i_docking_score>  (91) 
-1.71703

>  <r_i_glide_ligand_efficiency>  (91) 
-0.0399309

>  <r_i_glide_ligand_efficiency_sa>  (91) 
-0.139894

>  <r_i_glide_ligand_efficiency_ln>  (91) 
-0.36063

>  <r_i_glide_gscore>  (91) 
-1.71703

>  <r_i_glide_lipo>  (91) 
-0.552473

>  <r_i_glide_hbond>  (91) 
0

>  <r_i_glide_metal>  (91) 
-0

>  <r_i_glide_rewards>  (91) 
0

>  <r_i_glide_evdw>  (91) 
-26.0661

>  <r_i_glide_ecoul>  (91) 
0.89735

>  <r_i_glide_erotb>  (91) 
0.0589323

>  <r_i_glide_esite>  (91) 
-0.0547884

>  <r_i_glide_emodel>  (91) 
-25.9965

>  <r_i_glide_energy>  (91) 
-25.1687

>  <r_i_glide_einternal>  (91) 
2.51288

>  <r_i_glide_intrahb_reward>  (91) 
-0

>  <i_i_glide_confnum>  (91) 
1

>  <i_i_glide_posenum>  (91) 
1

>  <r_i_glide_eff_state_penalty>  (91) 
0

>  <ligand_id>  (91) 
24

>  <original_smiles>  (91) 
COC1OC2C3OC34C(=O)Oc3cccc5c3C2(C(O)CC2C(C2(C)C)C4(C)CC5C)C2(C)C(CC(C)C)OC(=O)C12O

>  <smiles>  (91) 
[H]OC1([H])C([H])([H])C2([H])C([H])(C3(C([H])([H])[H])C([H])([H])C([H])(C([H])([H])[H])c4c([H])c([H])c([H])c5c4C14C([H])(OC([H])(OC([H])([H])[H])C1(O[H])C(=O)OC([H])(C([H])([H])C([H])(C([H])([H])[H])C([H])([H])[H])C14C([H])([H])[H])C1([H])OC13C(=O)O5)C2(C([H])([H])[H])C([H])([H])[H]

$$$$
24:0:2
     RDKit          3D

 87 94  0  0  1  0  0  0  0  0999 V2000
    1.3522    0.5784    2.2735 C   0  0  0  0  0  0  0  0  0  0  0  0
    2.6305   -0.0300    2.1014 O   0  0  0  0  0  0  0  0  0  0  0  0
    2.5568   -1.3746    1.7331 C   0  0  2  0  0  0  0  0  0  0  0  0
    2.2499   -2.1277    2.8681 O   0  0  0  0  0  0  0  0  0  0  0  0
    2.2789   -3.5142    2.6332 C   0  0  2  0  0  0  0  0  0  0  0  0
    1.1082   -4.2770    3.4613 C   0  0  2  0  0  0  0  0  0  0  0  0
    0.2606   -3.6953    4.4744 O   0  0  0  0  0  0  0  0  0  0  0  0
    1.2482   -4.6202    4.9860 C   0  0  2  0  0  0  0  0  0  0  0  0
    2.5213   -4.3573    4.9651 C   0  0  0  0  0  0  0  0  0  0  0  0
    2.9881   -3.2830    5.3624 O   0  0  0  0  0  0  0  0  0  0  0  0
    3.1158   -5.6253    4.2519 O   0  0  0  0  0  0  0  0  0  0  0  0
    4.4148   -5.9142    3.9040 C   0  0  0  0  0  0  0  0  0  0  0  0
    5.2013   -7.0924    4.1423 C   0  0  0  0  0  0  0  0  0  0  0  0
    6.4220   -6.7122    4.7838 C   0  0  0  0  0  0  0  0  0  0  0  0
    6.4949   -5.4282    5.4174 C   0  0  0  0  0  0  0  0  0  0  0  0
    5.2132   -4.8286    5.3036 C   0  0  0  0  0  0  0  0  0  0  0  0
    4.9418   -4.7232    3.8061 C   0  0  0  0  0  0  0  0  0  0  0  0
    3.8608   -4.1276    2.5647 C   0  0  1  0  0  0  0  0  0  0  0  0
    3.3356   -5.4140    1.5622 C   0  0  1  0  0  0  0  0  0  0  0  0
    4.3913   -6.0020    0.8584 O   0  0  0  0  0  0  0  0  0  0  0  0
    2.5761   -6.8334    1.9957 C   0  0  0  0  0  0  0  0  0  0  0  0
    1.2587   -7.0622    2.8721 C   0  0  2  0  0  0  0  0  0  0  0  0
    0.7732   -6.9463    4.3870 C   0  0  1  0  0  0  0  0  0  0  0  0
    1.1213   -8.2985    3.7986 C   0  0  0  0  0  0  0  0  0  0  0  0
    0.0106   -9.2773    3.4624 C   0  0  0  0  0  0  0  0  0  0  0  0
    2.2947   -9.0757    4.3180 C   0  0  0  0  0  0  0  0  0  0  0  0
    1.2611   -6.0506    5.6444 C   0  0  2  0  0  0  0  0  0  0  0  0
    0.1373   -6.0673    6.7119 C   0  0  0  0  0  0  0  0  0  0  0  0
    2.7483   -6.3648    6.5630 C   0  0  0  0  0  0  0  0  0  0  0  0
    4.2655   -5.4647    6.6132 C   0  0  1  0  0  0  0  0  0  0  0  0
    5.1148   -6.1414    7.7128 C   0  0  0  0  0  0  0  0  0  0  0  0
    4.7238   -2.8566    1.9897 C   0  0  1  0  0  0  0  0  0  0  0  0
    5.3956   -2.0557    3.1513 C   0  0  0  0  0  0  0  0  0  0  0  0
    5.8282   -3.1905    0.9179 C   0  0  1  0  0  0  0  0  0  0  0  0
    6.9170   -4.2848    1.1450 C   0  0  0  0  0  0  0  0  0  0  0  0
    8.0083   -4.3463    0.0699 C   0  0  0  0  0  0  0  0  0  0  0  0
    8.6862   -5.7269    0.0859 C   0  0  0  0  0  0  0  0  0  0  0  0
    9.0451   -3.2314    0.2105 C   0  0  0  0  0  0  0  0  0  0  0  0
    5.0486   -3.3234   -0.2631 O   0  0  0  0  0  0  0  0  0  0  0  0
    3.9117   -2.6125   -0.1914 C   0  0  0  0  0  0  0  0  0  0  0  0
    3.0083   -2.6017   -1.0143 O   0  0  0  0  0  0  0  0  0  0  0  0
    3.9310   -1.8222    1.1142 C   0  0  1  0  0  0  0  0  0  0  0  0
    4.7010   -0.6499    0.8346 O   0  0  0  0  0  0  0  0  0  0  0  0
    1.4621    1.6149    2.5927 H   0  0  0  0  0  0  0  0  0  0  0  0
    0.7407    0.0664    3.0203 H   0  0  0  0  0  0  0  0  0  0  0  0
    0.8012    0.5904    1.3320 H   0  0  0  0  0  0  0  0  0  0  0  0
    1.7695   -1.4730    0.9876 H   0  0  0  0  0  0  0  0  0  0  0  0
    1.8393   -3.5562    1.6388 H   0  0  0  0  0  0  0  0  0  0  0  0
    0.4574   -4.8249    2.8111 H   0  0  0  0  0  0  0  0  0  0  0  0
    4.9201   -8.1227    4.0012 H   0  0  0  0  0  0  0  0  0  0  0  0
    7.1971   -7.4454    4.9675 H   0  0  0  0  0  0  0  0  0  0  0  0
    7.2172   -5.2456    6.1963 H   0  0  0  0  0  0  0  0  0  0  0  0
    2.7727   -5.0215    0.7134 H   0  0  0  0  0  0  0  0  0  0  0  0
    4.9942   -6.3491    1.5005 H   0  0  0  0  0  0  0  0  0  0  0  0
    2.2974   -7.2801    1.0363 H   0  0  0  0  0  0  0  0  0  0  0  0
    3.2992   -7.5641    2.3550 H   0  0  0  0  0  0  0  0  0  0  0  0
    0.4145   -6.9362    2.2003 H   0  0  0  0  0  0  0  0  0  0  0  0
   -0.3073   -6.8395    4.3854 H   0  0  0  0  0  0  0  0  0  0  0  0
   -0.2722   -9.8485    4.3470 H   0  0  0  0  0  0  0  0  0  0  0  0
    0.3337   -9.9723    2.6851 H   0  0  0  0  0  0  0  0  0  0  0  0
   -0.8709   -8.7554    3.0958 H   0  0  0  0  0  0  0  0  0  0  0  0
    2.0108   -9.6734    5.1865 H   0  0  0  0  0  0  0  0  0  0  0  0
    3.0465   -8.3805    4.6305 H   0  0  0  0  0  0  0  0  0  0  0  0
    2.7037   -9.7248    3.5408 H   0  0  0  0  0  0  0  0  0  0  0  0
    0.0118   -7.0543    7.1643 H   0  0  0  0  0  0  0  0  0  0  0  0
   -0.8343   -5.7712    6.2999 H   0  0  0  0  0  0  0  0  0  0  0  0
    0.3452   -5.3622    7.5216 H   0  0  0  0  0  0  0  0  0  0  0  0
    2.4238   -6.3662    7.5988 H   0  0  0  0  0  0  0  0  0  0  0  0
    3.0016   -7.4043    6.4175 H   0  0  0  0  0  0  0  0  0  0  0  0
    4.0006   -4.5480    7.1409 H   0  0  0  0  0  0  0  0  0  0  0  0
    5.9617   -5.5210    8.0131 H   0  0  0  0  0  0  0  0  0  0  0  0
    5.4927   -7.1144    7.3963 H   0  0  0  0  0  0  0  0  0  0  0  0
    4.5317   -6.3016    8.6180 H   0  0  0  0  0  0  0  0  0  0  0  0
    5.9004   -1.1419    2.8414 H   0  0  0  0  0  0  0  0  0  0  0  0
    6.1771   -2.6273    3.6306 H   0  0  0  0  0  0  0  0  0  0  0  0
    4.6731   -1.7697    3.9173 H   0  0  0  0  0  0  0  0  0  0  0  0
    6.4150   -2.2768    0.7819 H   0  0  0  0  0  0  0  0  0  0  0  0
    7.4263   -4.1104    2.0874 H   0  0  0  0  0  0  0  0  0  0  0  0
    6.5246   -5.2870    1.2369 H   0  0  0  0  0  0  0  0  0  0  0  0
    7.5333   -4.2030   -0.8932 H   0  0  0  0  0  0  0  0  0  0  0  0
    9.1913   -5.9198    1.0334 H   0  0  0  0  0  0  0  0  0  0  0  0
    9.4113   -5.8244   -0.7183 H   0  0  0  0  0  0  0  0  0  0  0  0
    7.9633   -6.5336   -0.0371 H   0  0  0  0  0  0  0  0  0  0  0  0
    9.5504   -3.2680    1.1761 H   0  0  0  0  0  0  0  0  0  0  0  0
    8.6030   -2.2431    0.0876 H   0  0  0  0  0  0  0  0  0  0  0  0
    9.7869   -3.3563   -0.5725 H   0  0  0  0  0  0  0  0  0  0  0  0
    4.5080   -0.0268    1.5234 H   0  0  0  0  0  0  0  0  0  0  0  0
  1  2  1  0
  1 44  1  0
  1 45  1  0
  1 46  1  0
  2  3  1  0
  3 42  1  0
  3  4  1  0
  3 47  1  6
  4  5  1  0
  5 18  1  0
  5  6  1  0
  5 48  1  6
  6  8  1  0
  6  7  1  0
  6 49  1  6
  8  7  1  1
  8 27  1  0
  8  9  1  0
  9 10  2  0
  9 11  1  0
 11 12  1  0
 12 17  2  0
 12 13  1  0
 13 14  2  0
 13 50  1  0
 14 15  1  0
 14 51  1  0
 15 16  2  0
 15 52  1  0
 16 30  1  0
 16 17  1  0
 18 17  1  1
 18 19  1  0
 18 32  1  0
 19 20  1  0
 19 21  1  0
 19 53  1  6
 20 54  1  0
 21 22  1  0
 21 55  1  0
 21 56  1  0
 22 24  1  0
 22 23  1  0
 22 57  1  6
 23 24  1  0
 23 27  1  0
 23 58  1  6
 24 25  1  0
 24 26  1  0
 25 59  1  0
 25 60  1  0
 25 61  1  0
 26 62  1  0
 26 63  1  0
 26 64  1  0
 27 28  1  1
 27 29  1  0
 28 65  1  0
 28 66  1  0
 28 67  1  0
 29 30  1  0
 29 68  1  0
 29 69  1  0
 30 31  1  0
 30 70  1  1
 31 71  1  0
 31 72  1  0
 31 73  1  0
 32 42  1  0
 32 33  1  1
 32 34  1  0
 33 74  1  0
 33 75  1  0
 33 76  1  0
 34 35  1  0
 34 39  1  0
 34 77  1  6
 35 36  1  0
 35 78  1  0
 35 79  1  0
 36 37  1  0
 36 38  1  0
 36 80  1  0
 37 81  1  0
 37 82  1  0
 37 83  1  0
 38 84  1  0
 38 85  1  0
 38 86  1  0
 39 40  1  0
 40 41  2  0
 40 42  1  0
 42 43  1  6
 43 87  1  0
M  END
>  <i_m_ct_stereo_status>  (92) 
1

>  <s_m_source_file>  (92) 
/var/tmp/pbs.5076255.sched01/tmp7hrp_b9g/014g_j70o.sdf

>  <i_m_source_file_index>  (92) 
40

>  <i_lp_mmshare_version>  (92) 
48012

>  <i_f3d_flags>  (92) 
0

>  <s_epik_input>  (92) 
W0NIM11bQ0hdKFtDSDNdKVtDSDJdW0NASF0xT0MoPU8pW0NAQF0oW09IXSkoW0NAQEhdKE8yKU9bQ0gzXSlbQ0BAXTEoW0NIM10pW0NAXTMoW0NASF0yW0NIXShPNClDNDU2KWM3YyhPQzU9TylbY0hdW2NIXVtjSF1jN1tDQEhdKFtDSDNdKVtDSDJdW0NAXTYoW0NIM10pW0NASF04W0NASF0oQzgoW0NIM10pW0NIM10pW0NIMl1bQ0BASF0zW09IXQ==

>  <s_epik_cmdline>  (92) 
J2VwaWtfcHl0aG9uJywgJy1waHQnLCAnMi4wJywgJy1waCcsICc3LjAnLCAnLXRuJywgJzgnLCAnLW1hJywgJzIwMCcsICctaW1hZScsICc8aW5maWxlLm1hZT4nLCAnLW9tYWUnLCAnPG91dGZpbGUubWFlPic=

>  <r_lp_tautomer_probability>  (92) 
1

>  <r_epik_Ionization_Penalty>  (92) 
1.2042e-05

>  <r_epik_Ionization_Penalty_Charging>  (92) 
0

>  <r_epik_Ionization_Penalty_Neutral>  (92) 
1.2042e-05

>  <r_epik_State_Penalty>  (92) 
-0

>  <r_epik_Charging_Adjusted_Penalty>  (92) 
0

>  <i_epik_Tot_Q>  (92) 
0

>  <i_epik_Tot_abs_Q>  (92) 
0

>  <s_epik_Chemistry_Notes>  (92) 
This compound has an ester and may undergo hydrolysis at high or low pH. This compound contains an acetal/aminal-like group ( X-CH(R)-Y where X, Y are N, S, or O) that may be acid/base labile, releasing an aldehyde.

>  <s_lp_Force_Field>  (92) 
OPLS3e

>  <r_lp_Energy>  (92) 
687.107

>  <b_lp_Chiralities_Consistent>  (92) 
1

>  <s_lp_Variant>  (92) 
24:0-1

>  <s_i_glide_gridfile>  (92) 
pfpi4k_grid

>  <i_i_glide_lignum>  (92) 
40

>  <i_i_glide_rotatable_bonds>  (92) 
5

>  <r_i_docking_score>  (92) 
-1.59335

>  <r_i_glide_ligand_efficiency>  (92) 
-0.0370546

>  <r_i_glide_ligand_efficiency_sa>  (92) 
-0.129817

>  <r_i_glide_ligand_efficiency_ln>  (92) 
-0.334653

>  <r_i_glide_gscore>  (92) 
-1.59335

>  <r_i_glide_lipo>  (92) 
-0.50267

>  <r_i_glide_hbond>  (92) 
0

>  <r_i_glide_metal>  (92) 
-0

>  <r_i_glide_rewards>  (92) 
0

>  <r_i_glide_evdw>  (92) 
-25.2398

>  <r_i_glide_ecoul>  (92) 
1.20438

>  <r_i_glide_erotb>  (92) 
0.0589323

>  <r_i_glide_esite>  (92) 
-0.0682782

>  <r_i_glide_emodel>  (92) 
-25.4062

>  <r_i_glide_energy>  (92) 
-24.0354

>  <r_i_glide_einternal>  (92) 
0.866443

>  <r_i_glide_intrahb_reward>  (92) 
-0

>  <i_i_glide_confnum>  (92) 
5

>  <i_i_glide_posenum>  (92) 
4

>  <r_i_glide_eff_state_penalty>  (92) 
0

>  <ligand_id>  (92) 
24

>  <original_smiles>  (92) 
COC1OC2C3OC34C(=O)Oc3cccc5c3C2(C(O)CC2C(C2(C)C)C4(C)CC5C)C2(C)C(CC(C)C)OC(=O)C12O

>  <smiles>  (92) 
[H]OC1([H])C([H])([H])C2([H])C([H])(C3(C([H])([H])[H])C([H])([H])C([H])(C([H])([H])[H])c4c([H])c([H])c([H])c5c4C14C([H])(OC([H])(OC([H])([H])[H])C1(O[H])C(=O)OC([H])(C([H])([H])C([H])(C([H])([H])[H])C([H])([H])[H])C14C([H])([H])[H])C1([H])OC13C(=O)O5)C2(C([H])([H])[H])C([H])([H])[H]

$$$$
25:0:0
     RDKit          3D

 68 73  0  0  1  0  0  0  0  0999 V2000
    1.8808    0.7137    1.7793 C   0  0  0  0  0  0  0  0  0  0  0  0
    2.2929   -0.4414    2.6946 C   0  0  2  0  0  0  0  0  0  0  0  0
    1.1809   -0.8143    3.7171 C   0  0  0  0  0  0  0  0  0  0  0  0
    1.4207   -1.8615    4.8623 C   0  0  1  0  0  0  0  0  0  0  0  0
    2.2173   -1.3108    5.8910 O   0  0  0  0  0  0  0  0  0  0  0  0
    0.0925   -2.1318    5.5980 C   0  0  0  0  0  0  0  0  0  0  0  0
    0.2404   -3.4979    6.2808 C   0  0  0  0  0  0  0  0  0  0  0  0
    1.5579   -4.1080    5.7674 C   0  0  1  0  0  0  0  0  0  0  0  0
    1.5063   -5.6463    5.6045 C   0  0  2  0  0  0  0  0  0  0  0  0
    2.8676   -6.3390    5.7780 C   0  0  0  0  0  0  0  0  0  0  0  0
    2.6848   -7.8516    5.8871 C   0  0  0  0  0  0  0  0  0  0  0  0
    1.7720   -8.4274    4.8165 C   0  0  0  0  0  0  0  0  0  0  0  0
    1.8179   -9.8162    4.5720 C   0  0  0  0  0  0  0  0  0  0  0  0
    0.9558  -10.4003    3.6249 C   0  0  0  0  0  0  0  0  0  0  0  0
    1.0073  -11.7425    3.3714 O   0  0  0  0  0  0  0  0  0  0  0  0
    0.0295   -9.5985    2.9312 C   0  0  0  0  0  0  0  0  0  0  0  0
   -0.0198   -8.2088    3.1666 C   0  0  0  0  0  0  0  0  0  0  0  0
    0.8605   -7.6117    4.0975 C   0  0  0  0  0  0  0  0  0  0  0  0
    0.8004   -6.1015    4.3112 C   0  0  2  0  0  0  0  0  0  0  0  0
    1.3639   -5.3581    3.0876 C   0  0  0  0  0  0  0  0  0  0  0  0
    1.2644   -3.8353    3.2639 C   0  0  0  0  0  0  0  0  0  0  0  0
    1.9728   -3.2871    4.5206 C   0  0  1  0  0  0  0  0  0  0  0  0
    3.5074   -3.3403    4.3414 C   0  0  0  0  0  0  0  0  0  0  0  0
    3.6243   -0.1389    3.2998 C   0  0  0  0  0  0  0  0  0  0  0  0
    3.8801    0.5402    4.4097 N   0  0  0  0  0  0  0  0  0  0  0  0
    5.2259    0.3867    4.4809 C   0  0  0  0  0  0  0  0  0  0  0  0
    5.9911    0.8966    5.6495 C   0  0  0  0  0  0  0  0  0  0  0  0
    7.4044    0.9445    5.6476 C   0  0  0  0  0  0  0  0  0  0  0  0
    8.1247    1.4664    6.7390 C   0  0  0  0  0  0  0  0  0  0  0  0
    7.4400    1.9535    7.8697 C   0  0  0  0  0  0  0  0  0  0  0  0
    6.0344    1.9039    7.8988 C   0  0  0  0  0  0  0  0  0  0  0  0
    5.3224    1.3779    6.8031 C   0  0  0  0  0  0  0  0  0  0  0  0
    5.8186   -0.2516    3.4771 N   0  0  0  0  0  0  0  0  0  0  0  0
    4.7394   -0.5226    2.6241 O   0  0  0  0  0  0  0  0  0  0  0  0
    2.6365    0.8728    1.0118 H   0  0  0  0  0  0  0  0  0  0  0  0
    1.7832    1.6396    2.3441 H   0  0  0  0  0  0  0  0  0  0  0  0
    0.9354    0.5132    1.2788 H   0  0  0  0  0  0  0  0  0  0  0  0
    2.4556   -1.3082    2.0546 H   0  0  0  0  0  0  0  0  0  0  0  0
    0.8628    0.1105    4.1958 H   0  0  0  0  0  0  0  0  0  0  0  0
    0.3167   -1.1158    3.1255 H   0  0  0  0  0  0  0  0  0  0  0  0
    2.9606   -0.8828    5.4930 H   0  0  0  0  0  0  0  0  0  0  0  0
   -0.1703   -1.3362    6.3036 H   0  0  0  0  0  0  0  0  0  0  0  0
   -0.7351   -2.1945    4.8872 H   0  0  0  0  0  0  0  0  0  0  0  0
    0.2829   -3.3827    7.3673 H   0  0  0  0  0  0  0  0  0  0  0  0
   -0.6232   -4.1224    6.0478 H   0  0  0  0  0  0  0  0  0  0  0  0
    2.2821   -3.8849    6.5520 H   0  0  0  0  0  0  0  0  0  0  0  0
    0.9045   -6.0085    6.4364 H   0  0  0  0  0  0  0  0  0  0  0  0
    3.5005   -6.1585    4.9130 H   0  0  0  0  0  0  0  0  0  0  0  0
    3.4061   -5.9575    6.6481 H   0  0  0  0  0  0  0  0  0  0  0  0
    3.6522   -8.3534    5.8603 H   0  0  0  0  0  0  0  0  0  0  0  0
    2.2343   -8.0851    6.8512 H   0  0  0  0  0  0  0  0  0  0  0  0
    2.5135  -10.4388    5.1206 H   0  0  0  0  0  0  0  0  0  0  0  0
    1.6416  -12.2141    3.8915 H   0  0  0  0  0  0  0  0  0  0  0  0
   -0.6450  -10.0542    2.2157 H   0  0  0  0  0  0  0  0  0  0  0  0
   -0.7401   -7.6084    2.6260 H   0  0  0  0  0  0  0  0  0  0  0  0
   -0.2524   -5.8373    4.3972 H   0  0  0  0  0  0  0  0  0  0  0  0
    2.3975   -5.6493    2.8955 H   0  0  0  0  0  0  0  0  0  0  0  0
    0.8142   -5.6481    2.1907 H   0  0  0  0  0  0  0  0  0  0  0  0
    1.6617   -3.3624    2.3688 H   0  0  0  0  0  0  0  0  0  0  0  0
    0.2121   -3.5567    3.3043 H   0  0  0  0  0  0  0  0  0  0  0  0
    3.8584   -4.3056    3.9973 H   0  0  0  0  0  0  0  0  0  0  0  0
    4.0381   -3.1118    5.2663 H   0  0  0  0  0  0  0  0  0  0  0  0
    3.8489   -2.6625    3.5788 H   0  0  0  0  0  0  0  0  0  0  0  0
    7.9510    0.5834    4.7890 H   0  0  0  0  0  0  0  0  0  0  0  0
    9.2075    1.5023    6.7028 H   0  0  0  0  0  0  0  0  0  0  0  0
    7.9914    2.3604    8.7070 H   0  0  0  0  0  0  0  0  0  0  0  0
    5.4954    2.2805    8.7653 H   0  0  0  0  0  0  0  0  0  0  0  0
    4.2411    1.3554    6.8510 H   0  0  0  0  0  0  0  0  0  0  0  0
  1  2  1  0
  1 35  1  0
  1 36  1  0
  1 37  1  0
  2  3  1  0
  2 24  1  0
  2 38  1  6
  3  4  1  0
  3 39  1  0
  3 40  1  0
  4 22  1  0
  4  5  1  1
  4  6  1  0
  5 41  1  0
  6  7  1  0
  6 42  1  0
  6 43  1  0
  7  8  1  0
  7 44  1  0
  7 45  1  0
  8 22  1  0
  8  9  1  0
  8 46  1  1
  9 19  1  0
  9 10  1  0
  9 47  1  1
 10 11  1  0
 10 48  1  0
 10 49  1  0
 11 12  1  0
 11 50  1  0
 11 51  1  0
 12 18  2  0
 12 13  1  0
 13 14  2  0
 13 52  1  0
 14 15  1  0
 14 16  1  0
 15 53  1  0
 16 17  2  0
 16 54  1  0
 17 18  1  0
 17 55  1  0
 18 19  1  0
 19 20  1  0
 19 56  1  1
 20 21  1  0
 20 57  1  0
 20 58  1  0
 21 22  1  0
 21 59  1  0
 21 60  1  0
 22 23  1  6
 23 61  1  0
 23 62  1  0
 23 63  1  0
 24 34  1  0
 24 25  2  0
 25 26  1  0
 26 27  1  0
 26 33  2  0
 27 32  1  0
 27 28  2  0
 28 29  1  0
 28 64  1  0
 29 30  2  0
 29 65  1  0
 30 31  1  0
 30 66  1  0
 31 32  2  0
 31 67  1  0
 32 68  1  0
 33 34  1  0
M  END
>  <i_m_ct_stereo_status>  (93) 
1

>  <s_m_source_file>  (93) 
/var/tmp/pbs.5076255.sched01/tmpcsrx8n8z/40wzjmt8mb.sdf

>  <i_m_source_file_index>  (93) 
1

>  <i_lp_mmshare_version>  (93) 
48012

>  <i_f3d_flags>  (93) 
0

>  <s_epik_input>  (93) 
W2NIXTFbY0hdW2NIXVtjSF1bY0hdYzEtYyhubzIpbmMyW0NASF0oW0NIM10pW0NIMl1bQ0BAXTMoW09IXSlbQ0gyXVtDSDJdW0NASF0oW0NAXTM0W0NIM10pW0NASF01W0NAQEhdKFtDSDJdW0NIMl00KWM2YyhbQ0gyXVtDSDJdNSlbY0hdYyhbT0hdKVtjSF1bY0hdNg==

>  <s_epik_cmdline>  (93) 
J2VwaWtfcHl0aG9uJywgJy1waHQnLCAnMi4wJywgJy1waCcsICc3LjAnLCAnLXRuJywgJzgnLCAnLW1hJywgJzIwMCcsICctaW1hZScsICc8aW5maWxlLm1hZT4nLCAnLW9tYWUnLCAnPG91dGZpbGUubWFlPic=

>  <r_lp_tautomer_probability>  (93) 
1

>  <r_epik_Ionization_Penalty>  (93) 
0.000119092

>  <r_epik_Ionization_Penalty_Charging>  (93) 
0

>  <r_epik_Ionization_Penalty_Neutral>  (93) 
0.000119092

>  <r_epik_State_Penalty>  (93) 
-0

>  <r_epik_Charging_Adjusted_Penalty>  (93) 
0

>  <i_epik_Tot_Q>  (93) 
0

>  <i_epik_Tot_abs_Q>  (93) 
0

>  <s_lp_Force_Field>  (93) 
OPLS3e

>  <r_lp_Energy>  (93) 
55.2458

>  <b_lp_Chiralities_Consistent>  (93) 
1

>  <s_lp_Variant>  (93) 
25:0-1

>  <s_i_glide_gridfile>  (93) 
pfpi4k_grid

>  <i_i_glide_lignum>  (93) 
1

>  <i_i_glide_rotatable_bonds>  (93) 
6

>  <r_i_docking_score>  (93) 
-2.65422

>  <r_i_glide_ligand_efficiency>  (93) 
-0.0780653

>  <r_i_glide_ligand_efficiency_sa>  (93) 
-0.252901

>  <r_i_glide_ligand_efficiency_ln>  (93) 
-0.586391

>  <r_i_glide_gscore>  (93) 
-2.65422

>  <r_i_glide_lipo>  (93) 
-0.382485

>  <r_i_glide_hbond>  (93) 
-0.00141961

>  <r_i_glide_metal>  (93) 
-0

>  <r_i_glide_rewards>  (93) 
-0.920751

>  <r_i_glide_evdw>  (93) 
-27.6419

>  <r_i_glide_ecoul>  (93) 
-2.33356

>  <r_i_glide_erotb>  (93) 
0.382565

>  <r_i_glide_esite>  (93) 
0

>  <r_i_glide_emodel>  (93) 
-38.3654

>  <r_i_glide_energy>  (93) 
-29.9754

>  <r_i_glide_einternal>  (93) 
1.29392

>  <r_i_glide_intrahb_reward>  (93) 
-0.5

>  <i_i_glide_confnum>  (93) 
2

>  <i_i_glide_posenum>  (93) 
39

>  <r_i_glide_eff_state_penalty>  (93) 
0

>  <ligand_id>  (93) 
25

>  <original_smiles>  (93) 
CC(CC1(O)CCC2C3CCc4cc(O)ccc4C3CCC21C)c1nc(-c2ccccc2)no1

>  <smiles>  (93) 
[H]Oc1c([H])c([H])c2c(c1[H])C([H])([H])C([H])([H])C1([H])C2([H])C([H])([H])C([H])([H])C2(C([H])([H])[H])C1([H])C([H])([H])C([H])([H])C2(O[H])C([H])([H])C([H])(c1nc(-c2c([H])c([H])c([H])c([H])c2[H])no1)C([H])([H])[H]

$$$$
25:0:1
     RDKit          3D

 68 73  0  0  1  0  0  0  0  0999 V2000
    2.5328    2.4436    3.5595 C   0  0  0  0  0  0  0  0  0  0  0  0
    1.1827    2.1946    4.2581 C   0  0  2  0  0  0  0  0  0  0  0  0
    0.6721    0.7467    3.9479 C   0  0  0  0  0  0  0  0  0  0  0  0
    0.5132   -0.3078    5.0981 C   0  0  1  0  0  0  0  0  0  0  0  0
    0.5910    0.3063    6.3735 O   0  0  0  0  0  0  0  0  0  0  0  0
   -0.9026   -0.9131    5.0989 C   0  0  0  0  0  0  0  0  0  0  0  0
   -0.7914   -2.2736    5.7955 C   0  0  0  0  0  0  0  0  0  0  0  0
    0.7036   -2.5754    5.9724 C   0  0  1  0  0  0  0  0  0  0  0  0
    1.0528   -4.0819    5.8138 C   0  0  2  0  0  0  0  0  0  0  0  0
    2.2818   -4.5288    6.6198 C   0  0  0  0  0  0  0  0  0  0  0  0
    2.3790   -6.0572    6.6460 C   0  0  0  0  0  0  0  0  0  0  0  0
    2.2198   -6.6960    5.2717 C   0  0  0  0  0  0  0  0  0  0  0  0
    2.6590   -8.0255    5.0851 C   0  0  0  0  0  0  0  0  0  0  0  0
    2.4764   -8.6679    3.8473 C   0  0  0  0  0  0  0  0  0  0  0  0
    2.9236   -9.9511    3.6795 O   0  0  0  0  0  0  0  0  0  0  0  0
    1.8400   -7.9908    2.7936 C   0  0  0  0  0  0  0  0  0  0  0  0
    1.4108   -6.6637    2.9680 C   0  0  0  0  0  0  0  0  0  0  0  0
    1.6086   -5.9992    4.1996 C   0  0  0  0  0  0  0  0  0  0  0  0
    1.1550   -4.5458    4.3440 C   0  0  2  0  0  0  0  0  0  0  0  0
    2.0518   -3.6031    3.5325 C   0  0  0  0  0  0  0  0  0  0  0  0
    1.5637   -2.1480    3.6138 C   0  0  0  0  0  0  0  0  0  0  0  0
    1.4536   -1.5659    5.0568 C   0  0  1  0  0  0  0  0  0  0  0  0
    2.8673   -1.2593    5.6153 C   0  0  0  0  0  0  0  0  0  0  0  0
    0.1711    3.2630    3.9017 C   0  0  0  0  0  0  0  0  0  0  0  0
   -1.0141    3.1250    3.3159 N   0  0  0  0  0  0  0  0  0  0  0  0
   -1.3874    4.4253    3.2005 C   0  0  0  0  0  0  0  0  0  0  0  0
   -2.6520    4.8105    2.5186 C   0  0  0  0  0  0  0  0  0  0  0  0
   -3.7287    3.8938    2.4582 C   0  0  0  0  0  0  0  0  0  0  0  0
   -4.9455    4.2445    1.8778 C   0  0  0  0  0  0  0  0  0  0  0  0
   -5.1208    5.5172    1.2978 C   0  0  0  0  0  0  0  0  0  0  0  0
   -4.0606    6.4464    1.3270 C   0  0  0  0  0  0  0  0  0  0  0  0
   -2.8391    6.0979    1.9269 C   0  0  0  0  0  0  0  0  0  0  0  0
   -0.5858    5.3342    3.7427 N   0  0  0  0  0  0  0  0  0  0  0  0
    0.4614    4.5554    4.2264 O   0  0  0  0  0  0  0  0  0  0  0  0
    2.9446    3.4118    3.8383 H   0  0  0  0  0  0  0  0  0  0  0  0
    2.4389    2.4215    2.4748 H   0  0  0  0  0  0  0  0  0  0  0  0
    3.2605    1.6903    3.8528 H   0  0  0  0  0  0  0  0  0  0  0  0
    1.3779    2.3577    5.3195 H   0  0  0  0  0  0  0  0  0  0  0  0
   -0.2920    0.7976    3.4521 H   0  0  0  0  0  0  0  0  0  0  0  0
    1.2583    0.3602    3.1177 H   0  0  0  0  0  0  0  0  0  0  0  0
    0.1850    1.1580    6.3168 H   0  0  0  0  0  0  0  0  0  0  0  0
   -1.6447   -0.2603    5.5697 H   0  0  0  0  0  0  0  0  0  0  0  0
   -1.2483   -1.0839    4.0789 H   0  0  0  0  0  0  0  0  0  0  0  0
   -1.2922   -2.2655    6.7620 H   0  0  0  0  0  0  0  0  0  0  0  0
   -1.2807   -3.0331    5.1963 H   0  0  0  0  0  0  0  0  0  0  0  0
    0.9157   -2.2997    7.0062 H   0  0  0  0  0  0  0  0  0  0  0  0
    0.2197   -4.6249    6.2526 H   0  0  0  0  0  0  0  0  0  0  0  0
    3.1901   -4.1458    6.1642 H   0  0  0  0  0  0  0  0  0  0  0  0
    2.2491   -4.1379    7.6417 H   0  0  0  0  0  0  0  0  0  0  0  0
    3.3232   -6.3672    7.0952 H   0  0  0  0  0  0  0  0  0  0  0  0
    1.5848   -6.4511    7.2791 H   0  0  0  0  0  0  0  0  0  0  0  0
    3.1350   -8.5580    5.9003 H   0  0  0  0  0  0  0  0  0  0  0  0
    2.7426  -10.3140    2.8207 H   0  0  0  0  0  0  0  0  0  0  0  0
    1.6855   -8.4893    1.8420 H   0  0  0  0  0  0  0  0  0  0  0  0
    0.9299   -6.1519    2.1448 H   0  0  0  0  0  0  0  0  0  0  0  0
    0.1601   -4.4908    3.9129 H   0  0  0  0  0  0  0  0  0  0  0  0
    3.0899   -3.6768    3.8554 H   0  0  0  0  0  0  0  0  0  0  0  0
    2.0520   -3.9020    2.4835 H   0  0  0  0  0  0  0  0  0  0  0  0
    2.2484   -1.5486    3.0156 H   0  0  0  0  0  0  0  0  0  0  0  0
    0.5934   -2.0899    3.1156 H   0  0  0  0  0  0  0  0  0  0  0  0
    3.5560   -2.0887    5.4643 H   0  0  0  0  0  0  0  0  0  0  0  0
    2.8447   -1.0752    6.6911 H   0  0  0  0  0  0  0  0  0  0  0  0
    3.3120   -0.3843    5.1426 H   0  0  0  0  0  0  0  0  0  0  0  0
   -3.6145    2.9006    2.8991 H   0  0  0  0  0  0  0  0  0  0  0  0
   -5.7610    3.5283    1.8735 H   0  0  0  0  0  0  0  0  0  0  0  0
   -6.0598    5.7674    0.8309 H   0  0  0  0  0  0  0  0  0  0  0  0
   -4.1839    7.4226    0.8748 H   0  0  0  0  0  0  0  0  0  0  0  0
   -2.0194    6.8075    1.9328 H   0  0  0  0  0  0  0  0  0  0  0  0
  1  2  1  0
  1 35  1  0
  1 36  1  0
  1 37  1  0
  2  3  1  0
  2 24  1  0
  2 38  1  1
  3  4  1  0
  3 39  1  0
  3 40  1  0
  4 22  1  0
  4  5  1  1
  4  6  1  0
  5 41  1  0
  6  7  1  0
  6 42  1  0
  6 43  1  0
  7  8  1  0
  7 44  1  0
  7 45  1  0
  8 22  1  0
  8  9  1  0
  8 46  1  1
  9 19  1  0
  9 10  1  0
  9 47  1  1
 10 11  1  0
 10 48  1  0
 10 49  1  0
 11 12  1  0
 11 50  1  0
 11 51  1  0
 12 18  2  0
 12 13  1  0
 13 14  2  0
 13 52  1  0
 14 15  1  0
 14 16  1  0
 15 53  1  0
 16 17  2  0
 16 54  1  0
 17 18  1  0
 17 55  1  0
 18 19  1  0
 19 20  1  0
 19 56  1  6
 20 21  1  0
 20 57  1  0
 20 58  1  0
 21 22  1  0
 21 59  1  0
 21 60  1  0
 22 23  1  1
 23 61  1  0
 23 62  1  0
 23 63  1  0
 24 34  1  0
 24 25  2  0
 25 26  1  0
 26 27  1  0
 26 33  2  0
 27 32  1  0
 27 28  2  0
 28 29  1  0
 28 64  1  0
 29 30  2  0
 29 65  1  0
 30 31  1  0
 30 66  1  0
 31 32  2  0
 31 67  1  0
 32 68  1  0
 33 34  1  0
M  END
>  <i_m_ct_stereo_status>  (94) 
1

>  <s_m_source_file>  (94) 
/var/tmp/pbs.5076255.sched01/tmpcsrx8n8z/40wzjmt8mb.sdf

>  <i_m_source_file_index>  (94) 
1

>  <i_lp_mmshare_version>  (94) 
48012

>  <i_f3d_flags>  (94) 
0

>  <s_epik_input>  (94) 
W2NIXTFbY0hdW2NIXVtjSF1bY0hdYzEtYyhubzIpbmMyW0NASF0oW0NIM10pW0NIMl1bQ0BAXTMoW09IXSlbQ0gyXVtDSDJdW0NASF0oW0NAXTM0W0NIM10pW0NASF01W0NAQEhdKFtDSDJdW0NIMl00KWM2YyhbQ0gyXVtDSDJdNSlbY0hdYyhbT0hdKVtjSF1bY0hdNg==

>  <s_epik_cmdline>  (94) 
J2VwaWtfcHl0aG9uJywgJy1waHQnLCAnMi4wJywgJy1waCcsICc3LjAnLCAnLXRuJywgJzgnLCAnLW1hJywgJzIwMCcsICctaW1hZScsICc8aW5maWxlLm1hZT4nLCAnLW9tYWUnLCAnPG91dGZpbGUubWFlPic=

>  <r_lp_tautomer_probability>  (94) 
1

>  <r_epik_Ionization_Penalty>  (94) 
0.000119092

>  <r_epik_Ionization_Penalty_Charging>  (94) 
0

>  <r_epik_Ionization_Penalty_Neutral>  (94) 
0.000119092

>  <r_epik_State_Penalty>  (94) 
-0

>  <r_epik_Charging_Adjusted_Penalty>  (94) 
0

>  <i_epik_Tot_Q>  (94) 
0

>  <i_epik_Tot_abs_Q>  (94) 
0

>  <s_lp_Force_Field>  (94) 
OPLS3e

>  <r_lp_Energy>  (94) 
55.2458

>  <b_lp_Chiralities_Consistent>  (94) 
1

>  <s_lp_Variant>  (94) 
25:0-1

>  <s_i_glide_gridfile>  (94) 
pfpi4k_grid

>  <i_i_glide_lignum>  (94) 
1

>  <i_i_glide_rotatable_bonds>  (94) 
6

>  <r_i_docking_score>  (94) 
-1.83761

>  <r_i_glide_ligand_efficiency>  (94) 
-0.0540473

>  <r_i_glide_ligand_efficiency_sa>  (94) 
-0.175092

>  <r_i_glide_ligand_efficiency_ln>  (94) 
-0.405979

>  <r_i_glide_gscore>  (94) 
-1.83761

>  <r_i_glide_lipo>  (94) 
-0.585259

>  <r_i_glide_hbond>  (94) 
0

>  <r_i_glide_metal>  (94) 
-0

>  <r_i_glide_rewards>  (94) 
-0.282328

>  <r_i_glide_evdw>  (94) 
-14.3386

>  <r_i_glide_ecoul>  (94) 
-2.53

>  <r_i_glide_erotb>  (94) 
0.382565

>  <r_i_glide_esite>  (94) 
-0.256157

>  <r_i_glide_emodel>  (94) 
-13.1633

>  <r_i_glide_energy>  (94) 
-16.8686

>  <r_i_glide_einternal>  (94) 
12.8755

>  <r_i_glide_intrahb_reward>  (94) 
-0

>  <i_i_glide_confnum>  (94) 
2

>  <i_i_glide_posenum>  (94) 
16

>  <r_i_glide_eff_state_penalty>  (94) 
0

>  <ligand_id>  (94) 
25

>  <original_smiles>  (94) 
CC(CC1(O)CCC2C3CCc4cc(O)ccc4C3CCC21C)c1nc(-c2ccccc2)no1

>  <smiles>  (94) 
[H]Oc1c([H])c([H])c2c(c1[H])C([H])([H])C([H])([H])C1([H])C2([H])C([H])([H])C([H])([H])C2(C([H])([H])[H])C1([H])C([H])([H])C([H])([H])C2(O[H])C([H])([H])C([H])(c1nc(-c2c([H])c([H])c([H])c([H])c2[H])no1)C([H])([H])[H]

$$$$
25:0:2
     RDKit          3D

 68 73  0  0  1  0  0  0  0  0999 V2000
    0.0578   -4.3841    7.1860 C   0  0  0  0  0  0  0  0  0  0  0  0
    1.3013   -4.6654    6.3016 C   0  0  2  0  0  0  0  0  0  0  0  0
    1.2158   -3.9764    4.8960 C   0  0  0  0  0  0  0  0  0  0  0  0
    1.9371   -2.6122    4.6358 C   0  0  1  0  0  0  0  0  0  0  0  0
    3.2008   -2.6129    5.2676 O   0  0  0  0  0  0  0  0  0  0  0  0
    2.2995   -2.5013    3.1400 C   0  0  0  0  0  0  0  0  0  0  0  0
    2.4313   -1.0114    2.8151 C   0  0  0  0  0  0  0  0  0  0  0  0
    1.9488   -0.2532    4.0603 C   0  0  1  0  0  0  0  0  0  0  0  0
    1.2249    1.0729    3.7229 C   0  0  2  0  0  0  0  0  0  0  0  0
    1.3320    2.1529    4.8189 C   0  0  0  0  0  0  0  0  0  0  0  0
    0.8343    3.5077    4.3159 C   0  0  0  0  0  0  0  0  0  0  0  0
   -0.5463    3.3968    3.7072 C   0  0  0  0  0  0  0  0  0  0  0  0
   -1.3152    4.5701    3.4951 C   0  0  0  0  0  0  0  0  0  0  0  0
   -2.5670    4.5128    2.8451 C   0  0  0  0  0  0  0  0  0  0  0  0
   -3.2257    5.6134    2.3672 O   0  0  0  0  0  0  0  0  0  0  0  0
   -3.0386    3.2721    2.4365 C   0  0  0  0  0  0  0  0  0  0  0  0
   -2.1989    2.1558    2.4779 C   0  0  0  0  0  0  0  0  0  0  0  0
   -1.0170    2.1585    3.2011 C   0  0  0  0  0  0  0  0  0  0  0  0
   -0.2406    0.8619    3.2996 C   0  0  2  0  0  0  0  0  0  0  0  0
   -0.9901   -0.0516    4.2719 C   0  0  0  0  0  0  0  0  0  0  0  0
   -0.2809   -1.3918    4.4776 C   0  0  0  0  0  0  0  0  0  0  0  0
    1.1881   -1.2786    4.9537 C   0  0  1  0  0  0  0  0  0  0  0  0
    1.2831   -0.8397    6.4420 C   0  0  0  0  0  0  0  0  0  0  0  0
    1.4928   -6.1524    6.1858 C   0  0  0  0  0  0  0  0  0  0  0  0
    1.1287   -6.9482    5.1968 N   0  0  0  0  0  0  0  0  0  0  0  0
    1.4729   -8.1575    5.7040 C   0  0  0  0  0  0  0  0  0  0  0  0
    1.3864   -9.3917    4.8747 C   0  0  0  0  0  0  0  0  0  0  0  0
    0.6495   -9.3968    3.6640 C   0  0  0  0  0  0  0  0  0  0  0  0
    0.5459  -10.5514    2.8756 C   0  0  0  0  0  0  0  0  0  0  0  0
    1.1897  -11.7253    3.2903 C   0  0  0  0  0  0  0  0  0  0  0  0
    1.9383  -11.7499    4.4744 C   0  0  0  0  0  0  0  0  0  0  0  0
    2.0373  -10.5920    5.2622 C   0  0  0  0  0  0  0  0  0  0  0  0
    1.9265   -8.1702    6.9420 N   0  0  0  0  0  0  0  0  0  0  0  0
    1.9506   -6.8186    7.2654 O   0  0  0  0  0  0  0  0  0  0  0  0
    0.2151   -4.8232    8.1753 H   0  0  0  0  0  0  0  0  0  0  0  0
   -0.8216   -4.8693    6.7558 H   0  0  0  0  0  0  0  0  0  0  0  0
   -0.1541   -3.3291    7.3104 H   0  0  0  0  0  0  0  0  0  0  0  0
    2.2112   -4.3482    6.8235 H   0  0  0  0  0  0  0  0  0  0  0  0
    1.7035   -4.6414    4.1829 H   0  0  0  0  0  0  0  0  0  0  0  0
    0.1764   -4.0137    4.5393 H   0  0  0  0  0  0  0  0  0  0  0  0
    3.0702   -2.6520    6.2006 H   0  0  0  0  0  0  0  0  0  0  0  0
    3.2056   -3.0657    2.8735 H   0  0  0  0  0  0  0  0  0  0  0  0
    1.4951   -2.9040    2.5285 H   0  0  0  0  0  0  0  0  0  0  0  0
    3.4708   -0.7422    2.6026 H   0  0  0  0  0  0  0  0  0  0  0  0
    1.8416   -0.7794    1.9227 H   0  0  0  0  0  0  0  0  0  0  0  0
    2.8685    0.0023    4.5909 H   0  0  0  0  0  0  0  0  0  0  0  0
    1.7463    1.4883    2.8615 H   0  0  0  0  0  0  0  0  0  0  0  0
    0.6906    1.8926    5.6532 H   0  0  0  0  0  0  0  0  0  0  0  0
    2.3647    2.2339    5.2010 H   0  0  0  0  0  0  0  0  0  0  0  0
    0.7757    4.2233    5.1324 H   0  0  0  0  0  0  0  0  0  0  0  0
    1.5171    3.8969    3.5603 H   0  0  0  0  0  0  0  0  0  0  0  0
   -0.8587    5.5196    3.6909 H   0  0  0  0  0  0  0  0  0  0  0  0
   -4.0156    5.4374    1.8819 H   0  0  0  0  0  0  0  0  0  0  0  0
   -3.8946    3.1926    1.7876 H   0  0  0  0  0  0  0  0  0  0  0  0
   -2.4540    1.3362    1.8540 H   0  0  0  0  0  0  0  0  0  0  0  0
   -0.2358    0.3864    2.3111 H   0  0  0  0  0  0  0  0  0  0  0  0
   -1.1244    0.4626    5.2177 H   0  0  0  0  0  0  0  0  0  0  0  0
   -2.0014   -0.2263    3.9054 H   0  0  0  0  0  0  0  0  0  0  0  0
   -0.8701   -1.9763    5.1785 H   0  0  0  0  0  0  0  0  0  0  0  0
   -0.2912   -1.9407    3.5278 H   0  0  0  0  0  0  0  0  0  0  0  0
    0.6120    0.0023    6.6272 H   0  0  0  0  0  0  0  0  0  0  0  0
    2.2948   -0.4785    6.6661 H   0  0  0  0  0  0  0  0  0  0  0  0
    1.0414   -1.6407    7.1431 H   0  0  0  0  0  0  0  0  0  0  0  0
    0.1459   -8.4978    3.3504 H   0  0  0  0  0  0  0  0  0  0  0  0
   -0.0372  -10.5514    1.9792 H   0  0  0  0  0  0  0  0  0  0  0  0
    1.0706  -12.6263    2.6781 H   0  0  0  0  0  0  0  0  0  0  0  0
    2.4191  -12.6466    4.8043 H   0  0  0  0  0  0  0  0  0  0  0  0
    2.5995  -10.6429    6.1809 H   0  0  0  0  0  0  0  0  0  0  0  0
  1  2  1  0
  1 35  1  0
  1 36  1  0
  1 37  1  0
  2  3  1  0
  2 24  1  0
  2 38  1  1
  3  4  1  0
  3 39  1  0
  3 40  1  0
  4 22  1  0
  4  5  1  1
  4  6  1  0
  5 41  1  0
  6  7  1  0
  6 42  1  0
  6 43  1  0
  7  8  1  0
  7 44  1  0
  7 45  1  0
  8 22  1  0
  8  9  1  0
  8 46  1  1
  9 19  1  0
  9 10  1  0
  9 47  1  6
 10 11  1  0
 10 48  1  0
 10 49  1  0
 11 12  1  0
 11 50  1  0
 11 51  1  0
 12 18  2  0
 12 13  1  0
 13 14  2  0
 13 52  1  0
 14 15  1  0
 14 16  1  0
 15 53  1  0
 16 17  2  0
 16 54  1  0
 17 18  1  0
 17 55  1  0
 18 19  1  0
 19 20  1  0
 19 56  1  6
 20 21  1  0
 20 57  1  0
 20 58  1  0
 21 22  1  0
 21 59  1  0
 21 60  1  0
 22 23  1  1
 23 61  1  0
 23 62  1  0
 23 63  1  0
 24 34  1  0
 24 25  2  0
 25 26  1  0
 26 27  1  0
 26 33  2  0
 27 32  1  0
 27 28  2  0
 28 29  1  0
 28 64  1  0
 29 30  2  0
 29 65  1  0
 30 31  1  0
 30 66  1  0
 31 32  2  0
 31 67  1  0
 32 68  1  0
 33 34  1  0
M  END
>  <i_m_ct_stereo_status>  (95) 
1

>  <s_m_source_file>  (95) 
/var/tmp/pbs.5076255.sched01/tmpcsrx8n8z/40wzjmt8mb.sdf

>  <i_m_source_file_index>  (95) 
1

>  <i_lp_mmshare_version>  (95) 
48012

>  <i_f3d_flags>  (95) 
0

>  <s_epik_input>  (95) 
W2NIXTFbY0hdW2NIXVtjSF1bY0hdYzEtYyhubzIpbmMyW0NASF0oW0NIM10pW0NIMl1bQ0BAXTMoW09IXSlbQ0gyXVtDSDJdW0NASF0oW0NAXTM0W0NIM10pW0NASF01W0NAQEhdKFtDSDJdW0NIMl00KWM2YyhbQ0gyXVtDSDJdNSlbY0hdYyhbT0hdKVtjSF1bY0hdNg==

>  <s_epik_cmdline>  (95) 
J2VwaWtfcHl0aG9uJywgJy1waHQnLCAnMi4wJywgJy1waCcsICc3LjAnLCAnLXRuJywgJzgnLCAnLW1hJywgJzIwMCcsICctaW1hZScsICc8aW5maWxlLm1hZT4nLCAnLW9tYWUnLCAnPG91dGZpbGUubWFlPic=

>  <r_lp_tautomer_probability>  (95) 
1

>  <r_epik_Ionization_Penalty>  (95) 
0.000119092

>  <r_epik_Ionization_Penalty_Charging>  (95) 
0

>  <r_epik_Ionization_Penalty_Neutral>  (95) 
0.000119092

>  <r_epik_State_Penalty>  (95) 
-0

>  <r_epik_Charging_Adjusted_Penalty>  (95) 
0

>  <i_epik_Tot_Q>  (95) 
0

>  <i_epik_Tot_abs_Q>  (95) 
0

>  <s_lp_Force_Field>  (95) 
OPLS3e

>  <r_lp_Energy>  (95) 
55.2458

>  <b_lp_Chiralities_Consistent>  (95) 
1

>  <s_lp_Variant>  (95) 
25:0-1

>  <s_i_glide_gridfile>  (95) 
pfpi4k_grid

>  <i_i_glide_lignum>  (95) 
1

>  <i_i_glide_rotatable_bonds>  (95) 
6

>  <r_i_docking_score>  (95) 
-1.55886

>  <r_i_glide_ligand_efficiency>  (95) 
-0.0458488

>  <r_i_glide_ligand_efficiency_sa>  (95) 
-0.148532

>  <r_i_glide_ligand_efficiency_ln>  (95) 
-0.344396

>  <r_i_glide_gscore>  (95) 
-1.55886

>  <r_i_glide_lipo>  (95) 
-0.188616

>  <r_i_glide_hbond>  (95) 
-0.096749

>  <r_i_glide_metal>  (95) 
-0

>  <r_i_glide_rewards>  (95) 
-0.282328

>  <r_i_glide_evdw>  (95) 
-13.3204

>  <r_i_glide_ecoul>  (95) 
-4.51424

>  <r_i_glide_erotb>  (95) 
0.382565

>  <r_i_glide_esite>  (95) 
-0.0305744

>  <r_i_glide_emodel>  (95) 
-12.947

>  <r_i_glide_energy>  (95) 
-17.8347

>  <r_i_glide_einternal>  (95) 
7.86259

>  <r_i_glide_intrahb_reward>  (95) 
-0

>  <i_i_glide_confnum>  (95) 
2

>  <i_i_glide_posenum>  (95) 
25

>  <r_i_glide_eff_state_penalty>  (95) 
0

>  <ligand_id>  (95) 
25

>  <original_smiles>  (95) 
CC(CC1(O)CCC2C3CCc4cc(O)ccc4C3CCC21C)c1nc(-c2ccccc2)no1

>  <smiles>  (95) 
[H]Oc1c([H])c([H])c2c(c1[H])C([H])([H])C([H])([H])C1([H])C2([H])C([H])([H])C([H])([H])C2(C([H])([H])[H])C1([H])C([H])([H])C([H])([H])C2(O[H])C([H])([H])C([H])(c1nc(-c2c([H])c([H])c([H])c([H])c2[H])no1)C([H])([H])[H]

$$$$
26:1:0
     RDKit          3D

 48 52  0  0  1  0  0  0  0  0999 V2000
    3.7858   -1.1780   -1.6933 C   0  0  0  0  0  0  0  0  0  0  0  0
    3.7191   -2.7041   -1.8965 C   0  0  0  0  0  0  0  0  0  0  0  0
    2.4584   -2.9968   -2.7660 C   0  0  0  0  0  0  0  0  0  0  0  0
    4.9756   -3.0944   -2.6789 C   0  0  0  0  0  0  0  0  0  0  0  0
    4.9070   -3.3883   -3.8640 O   0  0  0  0  0  0  0  0  0  0  0  0
    6.2453   -3.0779   -1.9407 C   0  0  0  0  0  0  0  0  0  0  0  0
    6.2594   -3.3334   -0.6121 C   0  0  0  0  0  0  0  0  0  0  0  0
    5.0638   -3.6902    0.2765 C   0  0  2  0  0  0  0  0  0  0  0  0
    5.3210   -5.1994    0.5481 C   0  0  0  0  0  0  0  0  0  0  0  0
    3.6890   -3.5347   -0.5589 C   0  0  1  0  0  0  0  0  0  0  0  0
    2.3843   -3.2796    0.2425 C   0  0  0  0  0  0  0  0  0  0  0  0
    2.4546   -3.9745    1.5622 C   0  0  2  0  0  0  0  0  0  0  0  0
    1.7578   -3.7903    2.8065 O   0  0  0  0  0  0  0  0  0  0  0  0
    2.9286   -2.9968    2.5825 C   0  0  2  0  0  0  0  0  0  0  0  0
    2.8023   -1.5311    2.9392 C   0  0  1  0  0  0  0  0  0  0  0  0
    1.8534   -1.2075    3.9319 O   0  0  0  0  0  0  0  0  0  0  0  0
    4.2370   -1.6391    3.4803 C   0  0  2  0  0  0  0  0  0  0  0  0
    5.2829   -0.7577    2.8560 C   0  0  0  0  0  0  0  0  0  0  0  0
    5.4485   -1.3692    1.4639 C   0  0  0  0  0  0  0  0  0  0  0  0
    5.2702   -2.8938    1.6483 C   0  0  1  0  0  0  0  0  0  0  0  0
    4.3646   -3.0659    2.9287 C   0  0  2  0  0  0  0  0  0  0  0  0
    4.7722   -4.1991    3.8785 C   0  0  0  0  0  0  0  0  0  0  0  0
    3.0114   -0.8191   -1.0199 H   0  0  0  0  0  0  0  0  0  0  0  0
    3.6459   -0.6594   -2.6430 H   0  0  0  0  0  0  0  0  0  0  0  0
    4.7455   -0.8464   -1.2995 H   0  0  0  0  0  0  0  0  0  0  0  0
    1.5439   -2.6195   -2.3138 H   0  0  0  0  0  0  0  0  0  0  0  0
    2.3068   -4.0591   -2.9342 H   0  0  0  0  0  0  0  0  0  0  0  0
    2.5234   -2.5381   -3.7520 H   0  0  0  0  0  0  0  0  0  0  0  0
    7.1541   -2.8888   -2.4858 H   0  0  0  0  0  0  0  0  0  0  0  0
    7.2099   -3.3390   -0.0845 H   0  0  0  0  0  0  0  0  0  0  0  0
    4.6206   -5.6882    1.2116 H   0  0  0  0  0  0  0  0  0  0  0  0
    6.3043   -5.3478    0.9926 H   0  0  0  0  0  0  0  0  0  0  0  0
    5.3129   -5.7698   -0.3816 H   0  0  0  0  0  0  0  0  0  0  0  0
    3.5222   -4.5478   -0.9322 H   0  0  0  0  0  0  0  0  0  0  0  0
    2.2107   -2.2160    0.3764 H   0  0  0  0  0  0  0  0  0  0  0  0
    1.5584   -3.6857   -0.3322 H   0  0  0  0  0  0  0  0  0  0  0  0
    2.7969   -4.9864    1.5206 H   0  0  0  0  0  0  0  0  0  0  0  0
    2.6358   -0.8837    2.0677 H   0  0  0  0  0  0  0  0  0  0  0  0
    1.8180   -0.2598    3.9576 H   0  0  0  0  0  0  0  0  0  0  0  0
    4.2210   -1.6418    4.5698 H   0  0  0  0  0  0  0  0  0  0  0  0
    4.9878    0.2954    2.8385 H   0  0  0  0  0  0  0  0  0  0  0  0
    6.2171   -0.8392    3.4107 H   0  0  0  0  0  0  0  0  0  0  0  0
    4.6368   -0.9801    0.8512 H   0  0  0  0  0  0  0  0  0  0  0  0
    6.3971   -1.1039    0.9978 H   0  0  0  0  0  0  0  0  0  0  0  0
    6.2484   -3.2361    1.9875 H   0  0  0  0  0  0  0  0  0  0  0  0
    5.7959   -4.0454    4.2249 H   0  0  0  0  0  0  0  0  0  0  0  0
    4.7440   -5.1834    3.4096 H   0  0  0  0  0  0  0  0  0  0  0  0
    4.1484   -4.2512    4.7775 H   0  0  0  0  0  0  0  0  0  0  0  0
  1  2  1  0
  1 23  1  0
  1 24  1  0
  1 25  1  0
  2 10  1  0
  2  3  1  0
  2  4  1  0
  3 26  1  0
  3 27  1  0
  3 28  1  0
  4  5  2  0
  4  6  1  0
  6  7  2  0
  6 29  1  0
  7  8  1  0
  7 30  1  0
  8 20  1  0
  8  9  1  1
  8 10  1  0
  9 31  1  0
  9 32  1  0
  9 33  1  0
 10 11  1  0
 10 34  1  6
 11 12  1  0
 11 35  1  0
 11 36  1  0
 12 14  1  0
 12 13  1  0
 12 37  1  6
 14 13  1  1
 14 21  1  0
 14 15  1  0
 15 16  1  0
 15 17  1  0
 15 38  1  6
 16 39  1  0
 17 21  1  0
 17 18  1  0
 17 40  1  1
 18 19  1  0
 18 41  1  0
 18 42  1  0
 19 20  1  0
 19 43  1  0
 19 44  1  0
 20 21  1  0
 20 45  1  1
 21 22  1  1
 22 46  1  0
 22 47  1  0
 22 48  1  0
M  END
>  <i_m_ct_stereo_status>  (96) 
1

>  <s_m_source_file>  (96) 
/var/tmp/pbs.5076255.sched01/tmpcsrx8n8z/40wzjmt8mb.sdf

>  <i_m_source_file_index>  (96) 
3

>  <i_lp_mmshare_version>  (96) 
48012

>  <i_f3d_flags>  (96) 
0

>  <s_epik_input>  (96) 
W0NIM11DMShbQ0gzXSlDKD1PKVtDSF09W0NIXVtDQF0oW0NIM10pKFtDQEhdMVtDSDJdW0NIXShPMilbQ0BdMjM0KVtDQEBIXTVbQ0BAXTQoW0NIM10pW0NASF0oW0NAQEhdM1tPSF0pW0NIMl1bQ0gyXTU=

>  <s_epik_cmdline>  (96) 
J2VwaWtfcHl0aG9uJywgJy1waHQnLCAnMi4wJywgJy1waCcsICc3LjAnLCAnLXRuJywgJzgnLCAnLW1hJywgJzIwMCcsICctaW1hZScsICc8aW5maWxlLm1hZT4nLCAnLW9tYWUnLCAnPG91dGZpbGUubWFlPic=

>  <r_lp_tautomer_probability>  (96) 
1

>  <r_epik_Ionization_Penalty>  (96) 
1.0217e-07

>  <r_epik_Ionization_Penalty_Charging>  (96) 
0

>  <r_epik_Ionization_Penalty_Neutral>  (96) 
1.0217e-07

>  <r_epik_State_Penalty>  (96) 
-0

>  <r_epik_Charging_Adjusted_Penalty>  (96) 
0

>  <i_epik_Tot_Q>  (96) 
0

>  <i_epik_Tot_abs_Q>  (96) 
0

>  <s_lp_Force_Field>  (96) 
OPLS3e

>  <r_lp_Energy>  (96) 
70.343

>  <b_lp_Chiralities_Consistent>  (96) 
1

>  <s_lp_Variant>  (96) 
26:0-2

>  <s_i_glide_gridfile>  (96) 
pfpi4k_grid

>  <i_i_glide_lignum>  (96) 
3

>  <i_i_glide_rotatable_bonds>  (96) 
1

>  <r_i_docking_score>  (96) 
-3.51639

>  <r_i_glide_ligand_efficiency>  (96) 
-0.159836

>  <r_i_glide_ligand_efficiency_sa>  (96) 
-0.447866

>  <r_i_glide_ligand_efficiency_ln>  (96) 
-0.859534

>  <r_i_glide_gscore>  (96) 
-3.51639

>  <r_i_glide_lipo>  (96) 
-0.752533

>  <r_i_glide_hbond>  (96) 
0

>  <r_i_glide_metal>  (96) 
-0

>  <r_i_glide_rewards>  (96) 
-1.57596

>  <r_i_glide_evdw>  (96) 
-20.1048

>  <r_i_glide_ecoul>  (96) 
-1.21769

>  <r_i_glide_erotb>  (96) 
0

>  <r_i_glide_esite>  (96) 
0

>  <r_i_glide_emodel>  (96) 
-25.4401

>  <r_i_glide_energy>  (96) 
-21.3225

>  <r_i_glide_einternal>  (96) 
0.0244116

>  <r_i_glide_intrahb_reward>  (96) 
-0

>  <i_i_glide_confnum>  (96) 
1

>  <i_i_glide_posenum>  (96) 
7

>  <r_i_glide_eff_state_penalty>  (96) 
0

>  <ligand_id>  (96) 
26

>  <original_smiles>  (96) 
CC1(C)C(=O)C=CC2(C)C1CC1OC13C(O)C1CCC2C13C

>  <smiles>  (96) 
[H]OC1([H])C2([H])C([H])([H])C([H])([H])C3([H])C4(C([H])([H])[H])C([H])=C([H])C(=O)C(C([H])([H])[H])(C([H])([H])[H])C4([H])C([H])([H])C4([H])OC41C23C([H])([H])[H]

$$$$
26:1:1
     RDKit          3D

 48 52  0  0  1  0  0  0  0  0999 V2000
    3.5980   -1.3996   -0.9340 C   0  0  0  0  0  0  0  0  0  0  0  0
    3.6516   -2.8326   -1.5000 C   0  0  0  0  0  0  0  0  0  0  0  0
    2.4423   -2.9952   -2.4683 C   0  0  0  0  0  0  0  0  0  0  0  0
    4.9680   -2.9427   -2.2842 C   0  0  0  0  0  0  0  0  0  0  0  0
    4.9886   -2.8668   -3.5053 O   0  0  0  0  0  0  0  0  0  0  0  0
    6.1940   -3.0632   -1.4999 C   0  0  0  0  0  0  0  0  0  0  0  0
    6.1777   -3.6024   -0.2606 C   0  0  0  0  0  0  0  0  0  0  0  0
    4.9730   -4.2106    0.4666 C   0  0  2  0  0  0  0  0  0  0  0  0
    5.3210   -5.7256    0.3976 C   0  0  0  0  0  0  0  0  0  0  0  0
    3.6257   -3.9359   -0.3786 C   0  0  1  0  0  0  0  0  0  0  0  0
    2.2600   -3.9813    0.3674 C   0  0  0  0  0  0  0  0  0  0  0  0
    2.3428   -4.9380    1.5026 C   0  0  2  0  0  0  0  0  0  0  0  0
    1.5368   -5.0943    2.6772 O   0  0  0  0  0  0  0  0  0  0  0  0
    2.6845   -4.2141    2.7575 C   0  0  2  0  0  0  0  0  0  0  0  0
    2.4518   -2.8838    3.4415 C   0  0  1  0  0  0  0  0  0  0  0  0
    1.4124   -2.8841    4.4126 O   0  0  0  0  0  0  0  0  0  0  0  0
    3.8704   -3.0366    4.0211 C   0  0  2  0  0  0  0  0  0  0  0  0
    4.8885   -1.9751    3.6625 C   0  0  0  0  0  0  0  0  0  0  0  0
    5.1529   -2.2260    2.1768 C   0  0  0  0  0  0  0  0  0  0  0  0
    5.0772   -3.7603    1.9984 C   0  0  1  0  0  0  0  0  0  0  0  0
    4.1227   -4.2802    3.1485 C   0  0  2  0  0  0  0  0  0  0  0  0
    4.5913   -5.5801    3.8247 C   0  0  0  0  0  0  0  0  0  0  0  0
    2.7868   -1.2587   -0.2152 H   0  0  0  0  0  0  0  0  0  0  0  0
    3.4395   -0.6845   -1.7482 H   0  0  0  0  0  0  0  0  0  0  0  0
    4.5267   -1.1149   -0.4326 H   0  0  0  0  0  0  0  0  0  0  0  0
    1.4824   -2.8084   -1.9784 H   0  0  0  0  0  0  0  0  0  0  0  0
    2.3945   -3.9873   -2.9114 H   0  0  0  0  0  0  0  0  0  0  0  0
    2.5027   -2.2901   -3.2983 H   0  0  0  0  0  0  0  0  0  0  0  0
    7.1002   -2.7066   -1.9468 H   0  0  0  0  0  0  0  0  0  0  0  0
    7.1037   -3.6616    0.3074 H   0  0  0  0  0  0  0  0  0  0  0  0
    4.6356   -6.3997    0.8949 H   0  0  0  0  0  0  0  0  0  0  0  0
    6.2999   -5.9163    0.8393 H   0  0  0  0  0  0  0  0  0  0  0  0
    5.3727   -6.0485   -0.6420 H   0  0  0  0  0  0  0  0  0  0  0  0
    3.5683   -4.8401   -0.9736 H   0  0  0  0  0  0  0  0  0  0  0  0
    1.9599   -2.9895    0.7074 H   0  0  0  0  0  0  0  0  0  0  0  0
    1.5105   -4.3548   -0.3276 H   0  0  0  0  0  0  0  0  0  0  0  0
    2.7657   -5.8877    1.2513 H   0  0  0  0  0  0  0  0  0  0  0  0
    2.2815   -2.0585    2.7388 H   0  0  0  0  0  0  0  0  0  0  0  0
    1.4950   -3.6873    4.9150 H   0  0  0  0  0  0  0  0  0  0  0  0
    3.8321   -3.2942    5.0738 H   0  0  0  0  0  0  0  0  0  0  0  0
    4.5356   -0.9607    3.8639 H   0  0  0  0  0  0  0  0  0  0  0  0
    5.8003   -2.1415    4.2403 H   0  0  0  0  0  0  0  0  0  0  0  0
    4.3392   -1.7562    1.6232 H   0  0  0  0  0  0  0  0  0  0  0  0
    6.1013   -1.8077    1.8273 H   0  0  0  0  0  0  0  0  0  0  0  0
    6.0687   -4.1193    2.2938 H   0  0  0  0  0  0  0  0  0  0  0  0
    5.5934   -5.4555    4.2376 H   0  0  0  0  0  0  0  0  0  0  0  0
    4.6457   -6.4258    3.1447 H   0  0  0  0  0  0  0  0  0  0  0  0
    3.9571   -5.8835    4.6536 H   0  0  0  0  0  0  0  0  0  0  0  0
  1  2  1  0
  1 23  1  0
  1 24  1  0
  1 25  1  0
  2 10  1  0
  2  3  1  0
  2  4  1  0
  3 26  1  0
  3 27  1  0
  3 28  1  0
  4  5  2  0
  4  6  1  0
  6  7  2  0
  6 29  1  0
  7  8  1  0
  7 30  1  0
  8 20  1  0
  8  9  1  1
  8 10  1  0
  9 31  1  0
  9 32  1  0
  9 33  1  0
 10 11  1  0
 10 34  1  6
 11 12  1  0
 11 35  1  0
 11 36  1  0
 12 14  1  0
 12 13  1  0
 12 37  1  6
 14 13  1  1
 14 21  1  0
 14 15  1  0
 15 16  1  0
 15 17  1  0
 15 38  1  6
 16 39  1  0
 17 21  1  0
 17 18  1  0
 17 40  1  1
 18 19  1  0
 18 41  1  0
 18 42  1  0
 19 20  1  0
 19 43  1  0
 19 44  1  0
 20 21  1  0
 20 45  1  1
 21 22  1  1
 22 46  1  0
 22 47  1  0
 22 48  1  0
M  END
>  <i_m_ct_stereo_status>  (97) 
1

>  <s_m_source_file>  (97) 
/var/tmp/pbs.5076255.sched01/tmpcsrx8n8z/40wzjmt8mb.sdf

>  <i_m_source_file_index>  (97) 
3

>  <i_lp_mmshare_version>  (97) 
48012

>  <i_f3d_flags>  (97) 
0

>  <s_epik_input>  (97) 
W0NIM11DMShbQ0gzXSlDKD1PKVtDSF09W0NIXVtDQF0oW0NIM10pKFtDQEhdMVtDSDJdW0NIXShPMilbQ0BdMjM0KVtDQEBIXTVbQ0BAXTQoW0NIM10pW0NASF0oW0NAQEhdM1tPSF0pW0NIMl1bQ0gyXTU=

>  <s_epik_cmdline>  (97) 
J2VwaWtfcHl0aG9uJywgJy1waHQnLCAnMi4wJywgJy1waCcsICc3LjAnLCAnLXRuJywgJzgnLCAnLW1hJywgJzIwMCcsICctaW1hZScsICc8aW5maWxlLm1hZT4nLCAnLW9tYWUnLCAnPG91dGZpbGUubWFlPic=

>  <r_lp_tautomer_probability>  (97) 
1

>  <r_epik_Ionization_Penalty>  (97) 
1.0217e-07

>  <r_epik_Ionization_Penalty_Charging>  (97) 
0

>  <r_epik_Ionization_Penalty_Neutral>  (97) 
1.0217e-07

>  <r_epik_State_Penalty>  (97) 
-0

>  <r_epik_Charging_Adjusted_Penalty>  (97) 
0

>  <i_epik_Tot_Q>  (97) 
0

>  <i_epik_Tot_abs_Q>  (97) 
0

>  <s_lp_Force_Field>  (97) 
OPLS3e

>  <r_lp_Energy>  (97) 
70.343

>  <b_lp_Chiralities_Consistent>  (97) 
1

>  <s_lp_Variant>  (97) 
26:0-2

>  <s_i_glide_gridfile>  (97) 
pfpi4k_grid

>  <i_i_glide_lignum>  (97) 
3

>  <i_i_glide_rotatable_bonds>  (97) 
1

>  <r_i_docking_score>  (97) 
-3.07303

>  <r_i_glide_ligand_efficiency>  (97) 
-0.139683

>  <r_i_glide_ligand_efficiency_sa>  (97) 
-0.391398

>  <r_i_glide_ligand_efficiency_ln>  (97) 
-0.751162

>  <r_i_glide_gscore>  (97) 
-3.07303

>  <r_i_glide_lipo>  (97) 
-0.484583

>  <r_i_glide_hbond>  (97) 
0

>  <r_i_glide_metal>  (97) 
-0

>  <r_i_glide_rewards>  (97) 
-1.50181

>  <r_i_glide_evdw>  (97) 
-17.7103

>  <r_i_glide_ecoul>  (97) 
-1.34085

>  <r_i_glide_erotb>  (97) 
0

>  <r_i_glide_esite>  (97) 
0

>  <r_i_glide_emodel>  (97) 
-22.5896

>  <r_i_glide_energy>  (97) 
-19.0511

>  <r_i_glide_einternal>  (97) 
0.060474

>  <r_i_glide_intrahb_reward>  (97) 
-0

>  <i_i_glide_confnum>  (97) 
1

>  <i_i_glide_posenum>  (97) 
13

>  <r_i_glide_eff_state_penalty>  (97) 
0

>  <ligand_id>  (97) 
26

>  <original_smiles>  (97) 
CC1(C)C(=O)C=CC2(C)C1CC1OC13C(O)C1CCC2C13C

>  <smiles>  (97) 
[H]OC1([H])C2([H])C([H])([H])C([H])([H])C3([H])C4(C([H])([H])[H])C([H])=C([H])C(=O)C(C([H])([H])[H])(C([H])([H])[H])C4([H])C([H])([H])C4([H])OC41C23C([H])([H])[H]

$$$$
26:1:2
     RDKit          3D

 48 52  0  0  1  0  0  0  0  0999 V2000
    4.5240   -1.1610   -1.0112 C   0  0  0  0  0  0  0  0  0  0  0  0
    4.2910   -2.6827   -0.9408 C   0  0  0  0  0  0  0  0  0  0  0  0
    3.1676   -3.0390   -1.9548 C   0  0  0  0  0  0  0  0  0  0  0  0
    5.6104   -3.3179   -1.3967 C   0  0  0  0  0  0  0  0  0  0  0  0
    5.7581   -3.6884   -2.5550 O   0  0  0  0  0  0  0  0  0  0  0  0
    6.7021   -3.3509   -0.4237 C   0  0  0  0  0  0  0  0  0  0  0  0
    6.4544   -3.3318    0.9008 C   0  0  0  0  0  0  0  0  0  0  0  0
    5.0857   -3.3598    1.5875 C   0  0  2  0  0  0  0  0  0  0  0  0
    5.0746   -4.7989    2.1781 C   0  0  0  0  0  0  0  0  0  0  0  0
    3.9158   -3.2124    0.4923 C   0  0  1  0  0  0  0  0  0  0  0  0
    2.5516   -2.6416    0.9631 C   0  0  0  0  0  0  0  0  0  0  0  0
    2.2858   -3.0578    2.3686 C   0  0  2  0  0  0  0  0  0  0  0  0
    1.3387   -2.5848    3.3140 O   0  0  0  0  0  0  0  0  0  0  0  0
    2.6443   -1.9620    3.3231 C   0  0  2  0  0  0  0  0  0  0  0  0
    2.7294   -0.4538    3.3431 C   0  0  1  0  0  0  0  0  0  0  0  0
    1.6841    0.1961    4.0332 O   0  0  0  0  0  0  0  0  0  0  0  0
    4.0205   -0.6421    4.1628 C   0  0  2  0  0  0  0  0  0  0  0  0
    5.2784   -0.0432    3.6213 C   0  0  0  0  0  0  0  0  0  0  0  0
    5.5798   -0.8998    2.3974 C   0  0  0  0  0  0  0  0  0  0  0  0
    5.1467   -2.3287    2.8026 C   0  0  1  0  0  0  0  0  0  0  0  0
    4.0158   -2.1510    3.8983 C   0  0  2  0  0  0  0  0  0  0  0  0
    4.1295   -3.0818    5.1057 C   0  0  0  0  0  0  0  0  0  0  0  0
    3.6865   -0.6027   -0.5979 H   0  0  0  0  0  0  0  0  0  0  0  0
    4.6413   -0.8381   -2.0486 H   0  0  0  0  0  0  0  0  0  0  0  0
    5.4327   -0.8565   -0.4884 H   0  0  0  0  0  0  0  0  0  0  0  0
    2.2482   -2.4793   -1.7795 H   0  0  0  0  0  0  0  0  0  0  0  0
    2.9162   -4.0951   -1.8955 H   0  0  0  0  0  0  0  0  0  0  0  0
    3.4532   -2.8266   -2.9854 H   0  0  0  0  0  0  0  0  0  0  0  0
    7.7086   -3.3719   -0.7984 H   0  0  0  0  0  0  0  0  0  0  0  0
    7.2983   -3.3308    1.5823 H   0  0  0  0  0  0  0  0  0  0  0  0
    4.2047   -5.0586    2.7686 H   0  0  0  0  0  0  0  0  0  0  0  0
    5.9352   -4.9563    2.8316 H   0  0  0  0  0  0  0  0  0  0  0  0
    5.1494   -5.5439    1.3852 H   0  0  0  0  0  0  0  0  0  0  0  0
    3.6604   -4.2523    0.2864 H   0  0  0  0  0  0  0  0  0  0  0  0
    2.4793   -1.5622    0.8603 H   0  0  0  0  0  0  0  0  0  0  0  0
    1.8013   -3.0726    0.3209 H   0  0  0  0  0  0  0  0  0  0  0  0
    2.4595   -4.0978    2.5744 H   0  0  0  0  0  0  0  0  0  0  0  0
    2.8278   -0.0076    2.3479 H   0  0  0  0  0  0  0  0  0  0  0  0
    1.7828    1.1203    3.8461 H   0  0  0  0  0  0  0  0  0  0  0  0
    3.8291   -0.4053    5.2074 H   0  0  0  0  0  0  0  0  0  0  0  0
    5.1194    0.9936    3.3720 H   0  0  0  0  0  0  0  0  0  0  0  0
    6.0813   -0.1101    4.3573 H   0  0  0  0  0  0  0  0  0  0  0  0
    4.9551   -0.5382    1.5832 H   0  0  0  0  0  0  0  0  0  0  0  0
    6.6220   -0.8310    2.0849 H   0  0  0  0  0  0  0  0  0  0  0  0
    5.9960   -2.6860    3.3820 H   0  0  0  0  0  0  0  0  0  0  0  0
    5.0987   -2.9503    5.5899 H   0  0  0  0  0  0  0  0  0  0  0  0
    4.0456   -4.1311    4.8346 H   0  0  0  0  0  0  0  0  0  0  0  0
    3.3728   -2.8717    5.8611 H   0  0  0  0  0  0  0  0  0  0  0  0
  1  2  1  0
  1 23  1  0
  1 24  1  0
  1 25  1  0
  2 10  1  0
  2  3  1  0
  2  4  1  0
  3 26  1  0
  3 27  1  0
  3 28  1  0
  4  5  2  0
  4  6  1  0
  6  7  2  0
  6 29  1  0
  7  8  1  0
  7 30  1  0
  8 20  1  0
  8  9  1  1
  8 10  1  0
  9 31  1  0
  9 32  1  0
  9 33  1  0
 10 11  1  0
 10 34  1  6
 11 12  1  0
 11 35  1  0
 11 36  1  0
 12 14  1  0
 12 13  1  0
 12 37  1  1
 14 13  1  1
 14 21  1  0
 14 15  1  0
 15 16  1  0
 15 17  1  0
 15 38  1  6
 16 39  1  0
 17 21  1  0
 17 18  1  0
 17 40  1  1
 18 19  1  0
 18 41  1  0
 18 42  1  0
 19 20  1  0
 19 43  1  0
 19 44  1  0
 20 21  1  0
 20 45  1  1
 21 22  1  1
 22 46  1  0
 22 47  1  0
 22 48  1  0
M  END
>  <i_m_ct_stereo_status>  (98) 
1

>  <s_m_source_file>  (98) 
/var/tmp/pbs.5076255.sched01/tmpcsrx8n8z/40wzjmt8mb.sdf

>  <i_m_source_file_index>  (98) 
3

>  <i_lp_mmshare_version>  (98) 
48012

>  <i_f3d_flags>  (98) 
0

>  <s_epik_input>  (98) 
W0NIM11DMShbQ0gzXSlDKD1PKVtDSF09W0NIXVtDQF0oW0NIM10pKFtDQEhdMVtDSDJdW0NIXShPMilbQ0BdMjM0KVtDQEBIXTVbQ0BAXTQoW0NIM10pW0NASF0oW0NAQEhdM1tPSF0pW0NIMl1bQ0gyXTU=

>  <s_epik_cmdline>  (98) 
J2VwaWtfcHl0aG9uJywgJy1waHQnLCAnMi4wJywgJy1waCcsICc3LjAnLCAnLXRuJywgJzgnLCAnLW1hJywgJzIwMCcsICctaW1hZScsICc8aW5maWxlLm1hZT4nLCAnLW9tYWUnLCAnPG91dGZpbGUubWFlPic=

>  <r_lp_tautomer_probability>  (98) 
1

>  <r_epik_Ionization_Penalty>  (98) 
1.0217e-07

>  <r_epik_Ionization_Penalty_Charging>  (98) 
0

>  <r_epik_Ionization_Penalty_Neutral>  (98) 
1.0217e-07

>  <r_epik_State_Penalty>  (98) 
-0

>  <r_epik_Charging_Adjusted_Penalty>  (98) 
0

>  <i_epik_Tot_Q>  (98) 
0

>  <i_epik_Tot_abs_Q>  (98) 
0

>  <s_lp_Force_Field>  (98) 
OPLS3e

>  <r_lp_Energy>  (98) 
70.343

>  <b_lp_Chiralities_Consistent>  (98) 
1

>  <s_lp_Variant>  (98) 
26:0-2

>  <s_i_glide_gridfile>  (98) 
pfpi4k_grid

>  <i_i_glide_lignum>  (98) 
3

>  <i_i_glide_rotatable_bonds>  (98) 
1

>  <r_i_docking_score>  (98) 
-2.68817

>  <r_i_glide_ligand_efficiency>  (98) 
-0.12219

>  <r_i_glide_ligand_efficiency_sa>  (98) 
-0.34238

>  <r_i_glide_ligand_efficiency_ln>  (98) 
-0.657087

>  <r_i_glide_gscore>  (98) 
-2.68817

>  <r_i_glide_lipo>  (98) 
-0.536479

>  <r_i_glide_hbond>  (98) 
0

>  <r_i_glide_metal>  (98) 
-0

>  <r_i_glide_rewards>  (98) 
-1.49887

>  <r_i_glide_evdw>  (98) 
-15.6988

>  <r_i_glide_ecoul>  (98) 
0.880761

>  <r_i_glide_erotb>  (98) 
0

>  <r_i_glide_esite>  (98) 
0

>  <r_i_glide_emodel>  (98) 
-17.2199

>  <r_i_glide_energy>  (98) 
-14.8181

>  <r_i_glide_einternal>  (98) 
0.0539336

>  <r_i_glide_intrahb_reward>  (98) 
-0

>  <i_i_glide_confnum>  (98) 
2

>  <i_i_glide_posenum>  (98) 
1

>  <r_i_glide_eff_state_penalty>  (98) 
0

>  <ligand_id>  (98) 
26

>  <original_smiles>  (98) 
CC1(C)C(=O)C=CC2(C)C1CC1OC13C(O)C1CCC2C13C

>  <smiles>  (98) 
[H]OC1([H])C2([H])C([H])([H])C([H])([H])C3([H])C4(C([H])([H])[H])C([H])=C([H])C(=O)C(C([H])([H])[H])(C([H])([H])[H])C4([H])C([H])([H])C4([H])OC41C23C([H])([H])[H]

$$$$
27:0:0
     RDKit          3D

 66 71  0  0  1  0  0  0  0  0999 V2000
    8.0434   -8.1332    2.3967 C   0  0  0  0  0  0  0  0  0  0  0  0
    7.8900   -6.8024    2.5260 C   0  0  0  0  0  0  0  0  0  0  0  0
    9.1335   -5.9664    2.8139 C   0  0  0  0  0  0  0  0  0  0  0  0
    6.5430   -6.0415    2.3927 C   0  0  2  0  0  0  0  0  0  0  0  0
    5.4140   -6.9630    2.0119 C   0  0  0  0  0  0  0  0  0  0  0  0
    4.1042   -6.2834    2.3821 C   0  0  1  0  0  0  0  0  0  0  0  0
    3.3713   -6.9018    3.6297 C   0  0  2  0  0  0  0  0  0  0  0  0
    2.7658   -8.2777    3.2229 C   0  0  0  0  0  0  0  0  0  0  0  0
    2.1089   -6.0009    4.1440 C   0  0  0  0  0  0  0  0  0  0  0  0
    1.8230   -4.5826    3.4970 C   0  0  0  0  0  0  0  0  0  0  0  0
    2.6568   -4.6027    2.2592 C   0  0  1  0  0  0  0  0  0  0  0  0
    3.1949   -3.8348    0.9957 C   0  0  2  0  0  0  0  0  0  0  0  0
    2.2436   -3.0120    0.3749 O   0  0  0  0  0  0  0  0  0  0  0  0
    4.0383   -4.5832   -0.1167 C   0  0  0  0  0  0  0  0  0  0  0  0
    5.6587   -4.6993   -0.0751 C   0  0  1  0  0  0  0  0  0  0  0  0
    6.4206   -3.4991   -0.7221 C   0  0  1  0  0  0  0  0  0  0  0  0
    5.6137   -2.3683   -1.3890 C   0  0  0  0  0  0  0  0  0  0  0  0
    7.3215   -2.9651    0.3823 C   0  0  0  0  0  0  0  0  0  0  0  0
    7.9021   -1.8784    0.3307 O   0  0  0  0  0  0  0  0  0  0  0  0
    7.3657   -3.8323    1.3869 O   0  0  0  0  0  0  0  0  0  0  0  0
    6.6676   -5.0312    1.1414 C   0  0  1  0  0  0  0  0  0  0  0  0
    4.0950   -3.2668    1.9633 C   0  0  1  0  0  0  0  0  0  0  0  0
    3.6724   -1.9716    2.6898 C   0  0  0  0  0  0  0  0  0  0  0  0
    4.1201   -4.7193    2.6530 C   0  0  2  0  0  0  0  0  0  0  0  0
    5.0395   -4.4577    3.8675 C   0  0  1  0  0  0  0  0  0  0  0  0
    4.4984   -4.0324    5.2590 C   0  0  0  0  0  0  0  0  0  0  0  0
    6.1294   -5.5231    3.8536 C   0  0  1  0  0  0  0  0  0  0  0  0
    5.7257   -6.5987    4.7288 O   0  0  0  0  0  0  0  0  0  0  0  0
    4.4525   -7.2476    4.7624 C   0  0  1  0  0  0  0  0  0  0  0  0
    3.8956   -7.2263    6.0547 O   0  0  0  0  0  0  0  0  0  0  0  0
    9.0249   -8.5663    2.5119 H   0  0  0  0  0  0  0  0  0  0  0  0
    7.2467   -8.8263    2.1775 H   0  0  0  0  0  0  0  0  0  0  0  0
    9.0115   -5.3147    3.6728 H   0  0  0  0  0  0  0  0  0  0  0  0
    9.4131   -5.3596    1.9546 H   0  0  0  0  0  0  0  0  0  0  0  0
    9.9886   -6.6039    3.0421 H   0  0  0  0  0  0  0  0  0  0  0  0
    5.4619   -7.2125    0.9527 H   0  0  0  0  0  0  0  0  0  0  0  0
    5.4457   -7.9196    2.5180 H   0  0  0  0  0  0  0  0  0  0  0  0
    3.5389   -6.6300    1.5212 H   0  0  0  0  0  0  0  0  0  0  0  0
    2.2794   -8.7568    4.0739 H   0  0  0  0  0  0  0  0  0  0  0  0
    3.5118   -8.9797    2.8492 H   0  0  0  0  0  0  0  0  0  0  0  0
    2.0138   -8.1734    2.4392 H   0  0  0  0  0  0  0  0  0  0  0  0
    1.2087   -6.5711    3.9177 H   0  0  0  0  0  0  0  0  0  0  0  0
    2.0485   -5.9175    5.2255 H   0  0  0  0  0  0  0  0  0  0  0  0
    0.7649   -4.4350    3.2801 H   0  0  0  0  0  0  0  0  0  0  0  0
    2.1108   -3.7962    4.1876 H   0  0  0  0  0  0  0  0  0  0  0  0
    2.1283   -5.3438    1.6598 H   0  0  0  0  0  0  0  0  0  0  0  0
    2.7033   -2.3018   -0.0493 H   0  0  0  0  0  0  0  0  0  0  0  0
    3.6382   -5.5846   -0.2495 H   0  0  0  0  0  0  0  0  0  0  0  0
    3.7725   -4.1692   -1.0887 H   0  0  0  0  0  0  0  0  0  0  0  0
    5.8076   -5.5430   -0.7404 H   0  0  0  0  0  0  0  0  0  0  0  0
    7.1178   -3.8600   -1.4687 H   0  0  0  0  0  0  0  0  0  0  0  0
    6.2812   -1.5968   -1.7789 H   0  0  0  0  0  0  0  0  0  0  0  0
    4.9272   -1.8820   -0.6885 H   0  0  0  0  0  0  0  0  0  0  0  0
    5.0489   -2.7434   -2.2430 H   0  0  0  0  0  0  0  0  0  0  0  0
    7.4238   -5.5664    0.5633 H   0  0  0  0  0  0  0  0  0  0  0  0
    5.0381   -3.0105    1.5297 H   0  0  0  0  0  0  0  0  0  0  0  0
    2.6774   -2.0100    3.1318 H   0  0  0  0  0  0  0  0  0  0  0  0
    3.6547   -1.1358    1.9887 H   0  0  0  0  0  0  0  0  0  0  0  0
    4.3801   -1.6877    3.4696 H   0  0  0  0  0  0  0  0  0  0  0  0
    5.6469   -3.5841    3.6282 H   0  0  0  0  0  0  0  0  0  0  0  0
    3.8186   -4.7408    5.7201 H   0  0  0  0  0  0  0  0  0  0  0  0
    3.9942   -3.0662    5.2313 H   0  0  0  0  0  0  0  0  0  0  0  0
    5.3344   -3.9178    5.9514 H   0  0  0  0  0  0  0  0  0  0  0  0
    6.9928   -5.0760    4.3417 H   0  0  0  0  0  0  0  0  0  0  0  0
    4.7627   -8.2861    4.6356 H   0  0  0  0  0  0  0  0  0  0  0  0
    4.4613   -7.7323    6.6170 H   0  0  0  0  0  0  0  0  0  0  0  0
  1  2  2  0
  1 31  1  0
  1 32  1  0
  2  3  1  0
  4  2  1  1
  3 33  1  0
  3 34  1  0
  3 35  1  0
  4 21  1  0
  4 27  1  0
  4  5  1  0
  5  6  1  0
  5 36  1  0
  5 37  1  0
  6 24  1  0
  6  7  1  0
  6 38  1  6
  7 29  1  0
  7  8  1  6
  7  9  1  0
  8 39  1  0
  8 40  1  0
  8 41  1  0
  9 10  1  0
  9 42  1  0
  9 43  1  0
 10 11  1  0
 10 44  1  0
 10 45  1  0
 11 24  1  0
 11 12  1  0
 11 46  1  6
 12 13  1  6
 12 14  1  0
 12 22  1  0
 13 47  1  0
 14 15  1  0
 14 48  1  0
 14 49  1  0
 15 21  1  0
 15 16  1  0
 15 50  1  6
 16 17  1  0
 16 18  1  0
 16 51  1  6
 17 52  1  0
 17 53  1  0
 17 54  1  0
 18 19  2  0
 18 20  1  0
 20 21  1  0
 21 55  1  6
 22 23  1  0
 24 22  1  6
 22 56  1  6
 23 57  1  0
 23 58  1  0
 23 59  1  0
 24 25  1  0
 25 26  1  0
 25 27  1  0
 25 60  1  6
 26 61  1  0
 26 62  1  0
 26 63  1  0
 27 28  1  0
 27 64  1  1
 28 29  1  0
 29 30  1  0
 29 65  1  6
 30 66  1  0
M  END
>  <i_m_ct_stereo_status>  (99) 
1

>  <s_m_source_file>  (99) 
/var/tmp/pbs.5076255.sched01/tmpcsrx8n8z/40wzjmt8mb.sdf

>  <i_m_source_file_index>  (99) 
4

>  <i_lp_mmshare_version>  (99) 
48012

>  <i_f3d_flags>  (99) 
0

>  <s_epik_input>  (99) 
W09IXVtDQEBIXTFPW0NASF0oW0NAQEhdMltDSDNdKVtDQF0oW0NIMl0zKShDKD1bQ0gyXSlbQ0gzXSlbQ0BIXShPQyg9TylbQ0BASF00W0NIM10pW0NASF00W0NIMl1bQ0BdKFtPSF0pKFtDQEhdNVtDSDNdKVtDQEBIXTZbQ0gyXVtDSDJdW0NAXTEoW0NASF0zW0NAQF0yNTYpW0NIM10=

>  <s_epik_cmdline>  (99) 
J2VwaWtfcHl0aG9uJywgJy1waHQnLCAnMi4wJywgJy1waCcsICc3LjAnLCAnLXRuJywgJzgnLCAnLW1hJywgJzIwMCcsICctaW1hZScsICc8aW5maWxlLm1hZT4nLCAnLW9tYWUnLCAnPG91dGZpbGUubWFlPic=

>  <r_lp_tautomer_probability>  (99) 
1

>  <r_epik_Ionization_Penalty>  (99) 
4.7242e-07

>  <r_epik_Ionization_Penalty_Charging>  (99) 
0

>  <r_epik_Ionization_Penalty_Neutral>  (99) 
4.7242e-07

>  <r_epik_State_Penalty>  (99) 
-0

>  <r_epik_Charging_Adjusted_Penalty>  (99) 
0

>  <i_epik_Tot_Q>  (99) 
0

>  <i_epik_Tot_abs_Q>  (99) 
0

>  <s_epik_Chemistry_Notes>  (99) 
This compound has an ester and may undergo hydrolysis at high or low pH. This compound contains an acetal/aminal-like group ( X-CH(R)-Y where X, Y are N, S, or O) that may be acid/base labile, releasing an aldehyde.

>  <s_lp_Force_Field>  (99) 
OPLS3e

>  <r_lp_Energy>  (99) 
234.328

>  <b_lp_Chiralities_Consistent>  (99) 
1

>  <s_lp_Variant>  (99) 
27:0-1

>  <s_i_glide_gridfile>  (99) 
pfpi4k_grid

>  <i_i_glide_lignum>  (99) 
4

>  <i_i_glide_rotatable_bonds>  (99) 
3

>  <r_i_docking_score>  (99) 
-1.88006

>  <r_i_glide_ligand_efficiency>  (99) 
-0.0626688

>  <r_i_glide_ligand_efficiency_sa>  (99) 
-0.194726

>  <r_i_glide_ligand_efficiency_ln>  (99) 
-0.427171

>  <r_i_glide_gscore>  (99) 
-1.88006

>  <r_i_glide_lipo>  (99) 
-0.33657

>  <r_i_glide_hbond>  (99) 
-0.030043

>  <r_i_glide_metal>  (99) 
-0

>  <r_i_glide_rewards>  (99) 
-0.784538

>  <r_i_glide_evdw>  (99) 
-14.5329

>  <r_i_glide_ecoul>  (99) 
-0.774214

>  <r_i_glide_erotb>  (99) 
0.113864

>  <r_i_glide_esite>  (99) 
0

>  <r_i_glide_emodel>  (99) 
-16.0858

>  <r_i_glide_energy>  (99) 
-15.3071

>  <r_i_glide_einternal>  (99) 
1.7357

>  <r_i_glide_intrahb_reward>  (99) 
-0

>  <i_i_glide_confnum>  (99) 
2

>  <i_i_glide_posenum>  (99) 
21

>  <r_i_glide_eff_state_penalty>  (99) 
0

>  <ligand_id>  (99) 
27

>  <original_smiles>  (99) 
C=C(C)C12CC3C4(C)CCC5C(O)(CC6C(C)C(=O)OC61)C(C)C35C(C)C2OC4O

>  <smiles>  (99) 
[H]OC1([H])OC2([H])C([H])(C([H])([H])[H])C34C([H])(C([H])([H])[H])C5(O[H])C([H])([H])C6([H])C([H])(OC(=O)C6([H])C([H])([H])[H])C2(C(=C([H])[H])C([H])([H])[H])C([H])([H])C3([H])C1(C([H])([H])[H])C([H])([H])C([H])([H])C54[H]

$$$$
27:0:1
     RDKit          3D

 66 71  0  0  1  0  0  0  0  0999 V2000
    8.7358   -6.8551    3.1567 C   0  0  0  0  0  0  0  0  0  0  0  0
    7.7336   -6.8970    2.2228 C   0  0  0  0  0  0  0  0  0  0  0  0
    7.9055   -7.8516    1.0549 C   0  0  0  0  0  0  0  0  0  0  0  0
    6.4407   -6.0510    2.2593 C   0  0  2  0  0  0  0  0  0  0  0  0
    5.2462   -6.9172    1.9242 C   0  0  0  0  0  0  0  0  0  0  0  0
    3.9986   -6.1603    2.4043 C   0  0  1  0  0  0  0  0  0  0  0  0
    3.2979   -6.7613    3.6800 C   0  0  2  0  0  0  0  0  0  0  0  0
    2.5663   -8.0653    3.2730 C   0  0  0  0  0  0  0  0  0  0  0  0
    2.1493   -5.7829    4.3187 C   0  0  0  0  0  0  0  0  0  0  0  0
    1.9173   -4.3265    3.7473 C   0  0  0  0  0  0  0  0  0  0  0  0
    2.6610   -4.3585    2.4530 C   0  0  1  0  0  0  0  0  0  0  0  0
    3.1702   -3.5946    1.1858 C   0  0  2  0  0  0  0  0  0  0  0  0
    2.2334   -2.6704    0.6969 O   0  0  0  0  0  0  0  0  0  0  0  0
    3.8570   -4.3440   -0.0246 C   0  0  0  0  0  0  0  0  0  0  0  0
    5.4611   -4.5835   -0.1038 C   0  0  1  0  0  0  0  0  0  0  0  0
    6.2730   -3.4229   -0.7538 C   0  0  1  0  0  0  0  0  0  0  0  0
    5.5174   -2.2074   -1.3320 C   0  0  0  0  0  0  0  0  0  0  0  0
    7.3008   -2.9781    0.2864 C   0  0  0  0  0  0  0  0  0  0  0  0
    7.9488   -1.9527    0.1865 O   0  0  0  0  0  0  0  0  0  0  0  0
    7.3393   -3.8664    1.2736 O   0  0  0  0  0  0  0  0  0  0  0  0
    6.5166   -4.9890    1.0464 C   0  0  1  0  0  0  0  0  0  0  0  0
    4.1645   -3.1287    2.0998 C   0  0  1  0  0  0  0  0  0  0  0  0
    3.9006   -1.8276    2.8983 C   0  0  0  0  0  0  0  0  0  0  0  0
    4.1205   -4.6126    2.7286 C   0  0  2  0  0  0  0  0  0  0  0  0
    5.1201   -4.4593    3.8769 C   0  0  1  0  0  0  0  0  0  0  0  0
    4.7306   -4.0457    5.3124 C   0  0  0  0  0  0  0  0  0  0  0  0
    6.1292   -5.5699    3.7498 C   0  0  1  0  0  0  0  0  0  0  0  0
    5.7196   -6.6571    4.6139 O   0  0  0  0  0  0  0  0  0  0  0  0
    4.4162   -7.2346    4.7177 C   0  0  1  0  0  0  0  0  0  0  0  0
    3.9484   -7.2053    6.0561 O   0  0  0  0  0  0  0  0  0  0  0  0
    9.5978   -7.4897    3.0445 H   0  0  0  0  0  0  0  0  0  0  0  0
    8.7484   -6.2292    4.0252 H   0  0  0  0  0  0  0  0  0  0  0  0
    7.8688   -7.3586    0.0893 H   0  0  0  0  0  0  0  0  0  0  0  0
    7.2166   -8.7074    1.0824 H   0  0  0  0  0  0  0  0  0  0  0  0
    8.9007   -8.2416    1.0356 H   0  0  0  0  0  0  0  0  0  0  0  0
    5.1814   -7.1155    0.8539 H   0  0  0  0  0  0  0  0  0  0  0  0
    5.3260   -7.9094    2.3656 H   0  0  0  0  0  0  0  0  0  0  0  0
    3.3493   -6.4232    1.5812 H   0  0  0  0  0  0  0  0  0  0  0  0
    2.1041   -8.5397    4.1433 H   0  0  0  0  0  0  0  0  0  0  0  0
    3.2329   -8.8071    2.8229 H   0  0  0  0  0  0  0  0  0  0  0  0
    1.7665   -7.8799    2.5571 H   0  0  0  0  0  0  0  0  0  0  0  0
    1.2005   -6.2808    4.1380 H   0  0  0  0  0  0  0  0  0  0  0  0
    2.1594   -5.7422    5.4052 H   0  0  0  0  0  0  0  0  0  0  0  0
    0.8606   -4.0957    3.6127 H   0  0  0  0  0  0  0  0  0  0  0  0
    2.3152   -3.5930    4.4383 H   0  0  0  0  0  0  0  0  0  0  0  0
    2.0576   -5.0327    1.8577 H   0  0  0  0  0  0  0  0  0  0  0  0
    2.6749   -2.0863    0.1157 H   0  0  0  0  0  0  0  0  0  0  0  0
    3.3838   -5.3118   -0.1627 H   0  0  0  0  0  0  0  0  0  0  0  0
    3.5558   -3.8686   -0.9587 H   0  0  0  0  0  0  0  0  0  0  0  0
    5.4952   -5.4021   -0.8270 H   0  0  0  0  0  0  0  0  0  0  0  0
    6.8708   -3.8432   -1.5623 H   0  0  0  0  0  0  0  0  0  0  0  0
    6.2089   -1.4720   -1.7449 H   0  0  0  0  0  0  0  0  0  0  0  0
    4.9276   -1.7025   -0.5648 H   0  0  0  0  0  0  0  0  0  0  0  0
    4.8590   -2.5025   -2.1509 H   0  0  0  0  0  0  0  0  0  0  0  0
    7.1986   -5.4874    0.3662 H   0  0  0  0  0  0  0  0  0  0  0  0
    5.0889   -2.9395    1.6003 H   0  0  0  0  0  0  0  0  0  0  0  0
    2.9390   -1.8077    3.4061 H   0  0  0  0  0  0  0  0  0  0  0  0
    3.8992   -0.9697    2.2268 H   0  0  0  0  0  0  0  0  0  0  0  0
    4.6801   -1.6274    3.6310 H   0  0  0  0  0  0  0  0  0  0  0  0
    5.7537   -3.6156    3.6151 H   0  0  0  0  0  0  0  0  0  0  0  0
    4.0362   -4.7111    5.8146 H   0  0  0  0  0  0  0  0  0  0  0  0
    4.3170   -3.0362    5.3628 H   0  0  0  0  0  0  0  0  0  0  0  0
    5.6289   -4.0231    5.9328 H   0  0  0  0  0  0  0  0  0  0  0  0
    6.9989   -5.1096    4.2091 H   0  0  0  0  0  0  0  0  0  0  0  0
    4.6438   -8.2950    4.5533 H   0  0  0  0  0  0  0  0  0  0  0  0
    3.8365   -6.3061    6.2910 H   0  0  0  0  0  0  0  0  0  0  0  0
  1  2  2  0
  1 31  1  0
  1 32  1  0
  2  3  1  0
  4  2  1  1
  3 33  1  0
  3 34  1  0
  3 35  1  0
  4 21  1  0
  4 27  1  0
  4  5  1  0
  5  6  1  0
  5 36  1  0
  5 37  1  0
  6 24  1  0
  6  7  1  0
  6 38  1  6
  7 29  1  0
  7  8  1  6
  7  9  1  0
  8 39  1  0
  8 40  1  0
  8 41  1  0
  9 10  1  0
  9 42  1  0
  9 43  1  0
 10 11  1  0
 10 44  1  0
 10 45  1  0
 11 24  1  0
 11 12  1  0
 11 46  1  6
 12 13  1  6
 12 14  1  0
 12 22  1  0
 13 47  1  0
 14 15  1  0
 14 48  1  0
 14 49  1  0
 15 21  1  0
 15 16  1  0
 15 50  1  6
 16 17  1  0
 16 18  1  0
 16 51  1  6
 17 52  1  0
 17 53  1  0
 17 54  1  0
 18 19  2  0
 18 20  1  0
 20 21  1  0
 21 55  1  6
 22 23  1  0
 24 22  1  6
 22 56  1  6
 23 57  1  0
 23 58  1  0
 23 59  1  0
 24 25  1  0
 25 26  1  0
 25 27  1  0
 25 60  1  6
 26 61  1  0
 26 62  1  0
 26 63  1  0
 27 28  1  0
 27 64  1  1
 28 29  1  0
 29 30  1  0
 29 65  1  6
 30 66  1  0
M  END
>  <i_m_ct_stereo_status>  (100) 
1

>  <s_m_source_file>  (100) 
/var/tmp/pbs.5076255.sched01/tmpcsrx8n8z/40wzjmt8mb.sdf

>  <i_m_source_file_index>  (100) 
4

>  <i_lp_mmshare_version>  (100) 
48012

>  <i_f3d_flags>  (100) 
0

>  <s_epik_input>  (100) 
W09IXVtDQEBIXTFPW0NASF0oW0NAQEhdMltDSDNdKVtDQF0oW0NIMl0zKShDKD1bQ0gyXSlbQ0gzXSlbQ0BIXShPQyg9TylbQ0BASF00W0NIM10pW0NASF00W0NIMl1bQ0BdKFtPSF0pKFtDQEhdNVtDSDNdKVtDQEBIXTZbQ0gyXVtDSDJdW0NAXTEoW0NASF0zW0NAQF0yNTYpW0NIM10=

>  <s_epik_cmdline>  (100) 
J2VwaWtfcHl0aG9uJywgJy1waHQnLCAnMi4wJywgJy1waCcsICc3LjAnLCAnLXRuJywgJzgnLCAnLW1hJywgJzIwMCcsICctaW1hZScsICc8aW5maWxlLm1hZT4nLCAnLW9tYWUnLCAnPG91dGZpbGUubWFlPic=

>  <r_lp_tautomer_probability>  (100) 
1

>  <r_epik_Ionization_Penalty>  (100) 
4.7242e-07

>  <r_epik_Ionization_Penalty_Charging>  (100) 
0

>  <r_epik_Ionization_Penalty_Neutral>  (100) 
4.7242e-07

>  <r_epik_State_Penalty>  (100) 
-0

>  <r_epik_Charging_Adjusted_Penalty>  (100) 
0

>  <i_epik_Tot_Q>  (100) 
0

>  <i_epik_Tot_abs_Q>  (100) 
0

>  <s_epik_Chemistry_Notes>  (100) 
This compound has an ester and may undergo hydrolysis at high or low pH. This compound contains an acetal/aminal-like group ( X-CH(R)-Y where X, Y are N, S, or O) that may be acid/base labile, releasing an aldehyde.

>  <s_lp_Force_Field>  (100) 
OPLS3e

>  <r_lp_Energy>  (100) 
234.328

>  <b_lp_Chiralities_Consistent>  (100) 
1

>  <s_lp_Variant>  (100) 
27:0-1

>  <s_i_glide_gridfile>  (100) 
pfpi4k_grid

>  <i_i_glide_lignum>  (100) 
4

>  <i_i_glide_rotatable_bonds>  (100) 
3

>  <r_i_docking_score>  (100) 
-1.80527

>  <r_i_glide_ligand_efficiency>  (100) 
-0.0601758

>  <r_i_glide_ligand_efficiency_sa>  (100) 
-0.18698

>  <r_i_glide_ligand_efficiency_ln>  (100) 
-0.410178

>  <r_i_glide_gscore>  (100) 
-1.80527

>  <r_i_glide_lipo>  (100) 
-0.351585

>  <r_i_glide_hbond>  (100) 
-0.0484655

>  <r_i_glide_metal>  (100) 
-0

>  <r_i_glide_rewards>  (100) 
-0.768258

>  <r_i_glide_evdw>  (100) 
-12.9335

>  <r_i_glide_ecoul>  (100) 
-0.694353

>  <r_i_glide_erotb>  (100) 
0.113864

>  <r_i_glide_esite>  (100) 
0

>  <r_i_glide_emodel>  (100) 
-13.0296

>  <r_i_glide_energy>  (100) 
-13.6279

>  <r_i_glide_einternal>  (100) 
3.68795

>  <r_i_glide_intrahb_reward>  (100) 
-0

>  <i_i_glide_confnum>  (100) 
4

>  <i_i_glide_posenum>  (100) 
11

>  <r_i_glide_eff_state_penalty>  (100) 
0

>  <ligand_id>  (100) 
27

>  <original_smiles>  (100) 
C=C(C)C12CC3C4(C)CCC5C(O)(CC6C(C)C(=O)OC61)C(C)C35C(C)C2OC4O

>  <smiles>  (100) 
[H]OC1([H])OC2([H])C([H])(C([H])([H])[H])C34C([H])(C([H])([H])[H])C5(O[H])C([H])([H])C6([H])C([H])(OC(=O)C6([H])C([H])([H])[H])C2(C(=C([H])[H])C([H])([H])[H])C([H])([H])C3([H])C1(C([H])([H])[H])C([H])([H])C([H])([H])C54[H]

$$$$
28:0:0
     RDKit          3D

 65 72  0  0  1  0  0  0  0  0999 V2000
    1.4752   -0.9778    2.4628 C   0  0  0  0  0  0  0  0  0  0  0  0
    1.9627   -2.2830    2.1634 O   0  0  0  0  0  0  0  0  0  0  0  0
    2.7889   -2.3836    0.9996 C   0  0  2  0  0  0  0  0  0  0  0  0
    2.8215   -3.7831    0.3723 C   0  0  2  0  0  0  0  0  0  0  0  0
    2.8516   -4.8138    1.5758 C   0  0  1  0  0  0  0  0  0  0  0  0
    3.2310   -6.2815    1.3708 C   0  0  0  0  0  0  0  0  0  0  0  0
    4.6715   -6.4407    1.9428 C   0  0  2  0  0  0  0  0  0  0  0  0
    4.6845   -7.4121    3.0854 N   0  0  1  0  0  0  0  0  0  0  0  0
    5.5350   -8.6137    2.8630 C   0  0  0  0  0  0  0  0  0  0  0  0
    5.0738   -6.6730    4.3045 C   0  0  0  0  0  0  0  0  0  0  0  0
    5.8732   -5.4654    3.7983 C   0  0  1  0  0  0  0  0  0  0  0  0
    7.1877   -5.9030    3.4466 O   0  0  0  0  0  0  0  0  0  0  0  0
    8.0822   -6.0870    4.5339 C   0  0  0  0  0  0  0  0  0  0  0  0
    5.1553   -5.0391    2.4835 C   0  0  2  0  0  0  0  0  0  0  0  0
    3.7973   -4.4505    2.7209 C   0  0  0  0  0  0  0  0  0  0  0  0
    3.4667   -3.8873    3.7583 O   0  0  0  0  0  0  0  0  0  0  0  0
    6.0326   -3.9594    1.6742 C   0  0  2  0  0  0  0  0  0  0  0  0
    5.5494   -2.5855    1.0561 C   0  0  2  0  0  0  0  0  0  0  0  0
    4.2059   -1.8301    1.1681 C   0  0  1  0  0  0  0  0  0  0  0  0
    4.7235   -1.2210   -0.1052 C   0  0  2  0  0  0  0  0  0  0  0  0
    3.9908   -1.2050   -1.4243 C   0  0  1  0  0  0  0  0  0  0  0  0
    4.4592   -0.2785   -2.3860 O   0  0  0  0  0  0  0  0  0  0  0  0
    4.4621   -2.6314   -1.5242 C   0  0  2  0  0  0  0  0  0  0  0  0
    4.8047   -2.8853   -2.8848 O   0  0  0  0  0  0  0  0  0  0  0  0
    3.6836   -3.8795   -0.9938 C   0  0  1  0  0  0  0  0  0  0  0  0
    4.8888   -4.8149   -0.9966 C   0  0  0  0  0  0  0  0  0  0  0  0
    6.1094   -3.9276   -0.6712 C   0  0  2  0  0  0  0  0  0  0  0  0
    6.9289   -4.4270    0.5354 C   0  0  1  0  0  0  0  0  0  0  0  0
    8.3240   -3.7645    0.5712 C   0  0  0  0  0  0  0  0  0  0  0  0
    7.2362   -5.8009    0.5142 O   0  0  0  0  0  0  0  0  0  0  0  0
    5.6726   -2.4325   -0.5268 C   0  0  1  0  0  0  0  0  0  0  0  0
    0.8683   -1.0385    3.3642 H   0  0  0  0  0  0  0  0  0  0  0  0
    0.8343   -0.5817    1.6747 H   0  0  0  0  0  0  0  0  0  0  0  0
    2.2752   -0.2606    2.6480 H   0  0  0  0  0  0  0  0  0  0  0  0
    2.2215   -1.7731    0.3271 H   0  0  0  0  0  0  0  0  0  0  0  0
    1.8053   -3.9068   -0.0180 H   0  0  0  0  0  0  0  0  0  0  0  0
    1.8488   -4.7984    2.0026 H   0  0  0  0  0  0  0  0  0  0  0  0
    2.5310   -6.9104    1.9259 H   0  0  0  0  0  0  0  0  0  0  0  0
    3.1366   -6.6044    0.3385 H   0  0  0  0  0  0  0  0  0  0  0  0
    5.3071   -6.8835    1.1906 H   0  0  0  0  0  0  0  0  0  0  0  0
    6.5842   -8.3398    2.7227 H   0  0  0  0  0  0  0  0  0  0  0  0
    5.2005   -9.1760    1.9874 H   0  0  0  0  0  0  0  0  0  0  0  0
    5.4814   -9.2823    3.7257 H   0  0  0  0  0  0  0  0  0  0  0  0
    4.1606   -6.3395    4.8022 H   0  0  0  0  0  0  0  0  0  0  0  0
    5.5988   -7.2909    5.0323 H   0  0  0  0  0  0  0  0  0  0  0  0
    5.9106   -4.6682    4.5447 H   0  0  0  0  0  0  0  0  0  0  0  0
    9.0414   -6.4221    4.1413 H   0  0  0  0  0  0  0  0  0  0  0  0
    7.7427   -6.8448    5.2399 H   0  0  0  0  0  0  0  0  0  0  0  0
    8.2468   -5.1550    5.0745 H   0  0  0  0  0  0  0  0  0  0  0  0
    6.6753   -3.6316    2.4651 H   0  0  0  0  0  0  0  0  0  0  0  0
    6.2704   -1.8538    1.4505 H   0  0  0  0  0  0  0  0  0  0  0  0
    4.2713   -1.0909    1.9643 H   0  0  0  0  0  0  0  0  0  0  0  0
    5.2879   -0.3017    0.0611 H   0  0  0  0  0  0  0  0  0  0  0  0
    2.9130   -1.1198   -1.4134 H   0  0  0  0  0  0  0  0  0  0  0  0
    3.7505    0.3277   -2.5555 H   0  0  0  0  0  0  0  0  0  0  0  0
    4.7166   -3.8133   -3.0006 H   0  0  0  0  0  0  0  0  0  0  0  0
    2.9759   -4.2027   -1.7546 H   0  0  0  0  0  0  0  0  0  0  0  0
    4.8131   -5.7171   -0.4389 H   0  0  0  0  0  0  0  0  0  0  0  0
    5.0275   -5.2069   -2.0004 H   0  0  0  0  0  0  0  0  0  0  0  0
    6.7731   -3.9172   -1.5374 H   0  0  0  0  0  0  0  0  0  0  0  0
    8.2746   -2.6768    0.5547 H   0  0  0  0  0  0  0  0  0  0  0  0
    8.9162   -4.0667   -0.2945 H   0  0  0  0  0  0  0  0  0  0  0  0
    8.8814   -4.0516    1.4644 H   0  0  0  0  0  0  0  0  0  0  0  0
    7.7217   -6.0209    1.2976 H   0  0  0  0  0  0  0  0  0  0  0  0
    3.7423   -7.7602    3.2267 H   0  0  0  0  0  0  0  0  0  0  0  0
  1  2  1  0
  1 32  1  0
  1 33  1  0
  1 34  1  0
  2  3  1  0
  3 19  1  0
  3  4  1  0
  3 35  1  6
  4 25  1  0
  4  5  1  0
  4 36  1  6
  5 15  1  0
  5  6  1  0
  5 37  1  1
  6  7  1  0
  6 38  1  0
  6 39  1  0
  7 14  1  0
  7  8  1  0
  7 40  1  6
  8  9  1  0
  8 10  1  0
  8 65  1  1
  9 41  1  0
  9 42  1  0
  9 43  1  0
 10 11  1  0
 10 44  1  0
 10 45  1  0
 11 12  1  0
 11 14  1  0
 11 46  1  1
 12 13  1  0
 13 47  1  0
 13 48  1  0
 13 49  1  0
 14 15  1  1
 14 17  1  0
 15 16  2  0
 17 28  1  0
 17 18  1  0
 17 50  1  1
 18 31  1  0
 18 19  1  0
 18 51  1  1
 19 20  1  0
 19 52  1  1
 20 31  1  0
 20 21  1  0
 20 53  1  1
 21 22  1  0
 21 23  1  0
 21 54  1  1
 22 55  1  0
 31 23  1  6
 23 24  1  6
 23 25  1  0
 24 56  1  0
 25 26  1  0
 25 57  1  6
 26 27  1  0
 26 58  1  0
 26 59  1  0
 27 28  1  0
 27 31  1  0
 27 60  1  6
 28 29  1  0
 28 30  1  6
 29 61  1  0
 29 62  1  0
 29 63  1  0
 30 64  1  0
M  CHG  1   8   1
M  END
>  <i_m_ct_stereo_status>  (101) 
1

>  <s_m_source_file>  (101) 
/var/tmp/pbs.5076255.sched01/tmpcsrx8n8z/40wzjmt8mb.sdf

>  <i_m_source_file_index>  (101) 
5

>  <i_lp_mmshare_version>  (101) 
48012

>  <i_f3d_flags>  (101) 
2

>  <s_epik_input>  (101) 
W0NIM11PW0NASF0xW0NASF0oW0NAQEhdMltDQEhdM1tPSF0pW0NAQEhdKFtDQEBIXTRbQ0BAXShbQ0gzXSkoW09IXSlbQ0BIXTVbQ0gyXTYpQzI1W0NAQF0zKFtPSF0pW0NAQEhdNltDQEhdMVtDQEhdKEM3PU8pW0NIMl1bQ0BASF0oW0NAQF00NzgpTihbQ0gzXSlbQ0gyXVtDQEhdOE9bQ0gzXQ==

>  <s_epik_cmdline>  (101) 
J2VwaWtfcHl0aG9uJywgJy1waHQnLCAnMi4wJywgJy1waCcsICc3LjAnLCAnLXRuJywgJzgnLCAnLW1hJywgJzIwMCcsICctaW1hZScsICc8aW5maWxlLm1hZT4nLCAnLW9tYWUnLCAnPG91dGZpbGUubWFlPic=

>  <r_epik_Ionization_Penalty>  (101) 
0.0164307

>  <r_epik_Ionization_Penalty_Charging>  (101) 
0.0164302

>  <r_epik_Ionization_Penalty_Neutral>  (101) 
5.22406e-07

>  <r_epik_State_Penalty>  (101) 
0.0129681

>  <r_epik_Charging_Adjusted_Penalty>  (101) 
0.0293983

>  <i_epik_Tot_Q>  (101) 
1

>  <i_epik_Tot_abs_Q>  (101) 
1

>  <s_lp_Force_Field>  (101) 
OPLS3e

>  <r_lp_Energy>  (101) 
285.435

>  <b_lp_Chiralities_Consistent>  (101) 
0

>  <s_lp_Variant>  (101) 
28:0-1

>  <s_i_glide_gridfile>  (101) 
pfpi4k_grid

>  <i_i_glide_lignum>  (101) 
5

>  <i_i_glide_rotatable_bonds>  (101) 
5

>  <r_i_docking_score>  (101) 
-3.20119

>  <r_i_glide_ligand_efficiency>  (101) 
-0.103264

>  <r_i_glide_ligand_efficiency_sa>  (101) 
-0.324392

>  <r_i_glide_ligand_efficiency_ln>  (101) 
-0.721965

>  <r_i_glide_gscore>  (101) 
-3.20119

>  <r_i_glide_lipo>  (101) 
-0.569346

>  <r_i_glide_hbond>  (101) 
0

>  <r_i_glide_metal>  (101) 
-0

>  <r_i_glide_rewards>  (101) 
-0.960024

>  <r_i_glide_evdw>  (101) 
-17.9991

>  <r_i_glide_ecoul>  (101) 
-5.1455

>  <r_i_glide_erotb>  (101) 
0

>  <r_i_glide_esite>  (101) 
-3.55385e-05

>  <r_i_glide_emodel>  (101) 
-31.2268

>  <r_i_glide_energy>  (101) 
-23.1446

>  <r_i_glide_einternal>  (101) 
2.70672

>  <r_i_glide_intrahb_reward>  (101) 
-0.5

>  <i_i_glide_confnum>  (101) 
1

>  <i_i_glide_posenum>  (101) 
38

>  <r_i_glide_eff_state_penalty>  (101) 
0

>  <ligand_id>  (101) 
28

>  <original_smiles>  (101) 
COC1C2C3CC4N(C)CC(OC)C4(C3=O)C3C4C1C1C(O)C5(O)C2CC(C3(C)O)C415

>  <smiles>  (101) 
[H]OC1([H])C2([H])C3([H])C([H])(OC([H])([H])[H])C4([H])C5([H])C(=O)C6(C([H])(OC([H])([H])[H])C([H])([H])[N+]([H])(C([H])([H])[H])C6([H])C5([H])[H])C5([H])C3([H])C23C([H])(C([H])([H])C4([H])C13O[H])C5(O[H])C([H])([H])[H]

$$$$
28:0:1
     RDKit          3D

 65 72  0  0  1  0  0  0  0  0999 V2000
    8.8329   -3.2593   -1.0608 C   0  0  0  0  0  0  0  0  0  0  0  0
    7.9200   -2.6067   -0.1838 O   0  0  0  0  0  0  0  0  0  0  0  0
    6.5970   -2.3783   -0.6705 C   0  0  2  0  0  0  0  0  0  0  0  0
    5.7451   -1.5227    0.2772 C   0  0  2  0  0  0  0  0  0  0  0  0
    6.0608   -2.0503    1.7476 C   0  0  1  0  0  0  0  0  0  0  0  0
    5.1935   -1.6774    2.9414 C   0  0  0  0  0  0  0  0  0  0  0  0
    4.4288   -2.9609    3.3364 C   0  0  2  0  0  0  0  0  0  0  0  0
    4.7563   -3.4027    4.7259 N   0  0  1  0  0  0  0  0  0  0  0  0
    3.5948   -3.4189    5.6635 C   0  0  0  0  0  0  0  0  0  0  0  0
    5.4344   -4.7146    4.6464 C   0  0  0  0  0  0  0  0  0  0  0  0
    4.9436   -5.3238    3.3195 C   0  0  1  0  0  0  0  0  0  0  0  0
    3.6200   -5.8249    3.5104 O   0  0  0  0  0  0  0  0  0  0  0  0
    3.5470   -7.1180    4.0899 C   0  0  0  0  0  0  0  0  0  0  0  0
    4.8526   -4.1299    2.3467 C   0  0  2  0  0  0  0  0  0  0  0  0
    6.2023   -3.5918    1.9177 C   0  0  0  0  0  0  0  0  0  0  0  0
    7.1496   -4.2544    1.6154 O   0  0  0  0  0  0  0  0  0  0  0  0
    4.0812   -4.5739    0.9960 C   0  0  2  0  0  0  0  0  0  0  0  0
    4.5229   -4.2463   -0.4898 C   0  0  2  0  0  0  0  0  0  0  0  0
    5.8239   -3.6513   -1.0552 C   0  0  1  0  0  0  0  0  0  0  0  0
    4.9208   -3.4274   -2.2323 C   0  0  2  0  0  0  0  0  0  0  0  0
    4.7016   -2.0729   -2.8683 C   0  0  1  0  0  0  0  0  0  0  0  0
    4.1468   -2.0956   -4.1683 O   0  0  0  0  0  0  0  0  0  0  0  0
    3.7875   -1.8211   -1.6903 C   0  0  2  0  0  0  0  0  0  0  0  0
    2.6885   -1.1347   -2.2605 O   0  0  0  0  0  0  0  0  0  0  0  0
    4.2585   -1.2014   -0.3126 C   0  0  1  0  0  0  0  0  0  0  0  0
    3.0793   -1.7051    0.5214 C   0  0  0  0  0  0  0  0  0  0  0  0
    2.6672   -3.0553   -0.1199 C   0  0  2  0  0  0  0  0  0  0  0  0
    2.6080   -4.2459    0.8638 C   0  0  1  0  0  0  0  0  0  0  0  0
    1.8528   -5.4587    0.2376 C   0  0  0  0  0  0  0  0  0  0  0  0
    1.9433   -4.0007    2.0783 O   0  0  0  0  0  0  0  0  0  0  0  0
    3.5558   -3.3514   -1.3933 C   0  0  1  0  0  0  0  0  0  0  0  0
    9.7873   -3.3902   -0.5551 H   0  0  0  0  0  0  0  0  0  0  0  0
    8.9895   -2.6839   -1.9710 H   0  0  0  0  0  0  0  0  0  0  0  0
    8.5421   -4.2552   -1.3697 H   0  0  0  0  0  0  0  0  0  0  0  0
    6.8595   -1.7965   -1.5386 H   0  0  0  0  0  0  0  0  0  0  0  0
    6.2511   -0.5474    0.2568 H   0  0  0  0  0  0  0  0  0  0  0  0
    7.0262   -1.6267    1.9735 H   0  0  0  0  0  0  0  0  0  0  0  0
    5.8111   -1.3458    3.7702 H   0  0  0  0  0  0  0  0  0  0  0  0
    4.5604   -0.8080    2.7430 H   0  0  0  0  0  0  0  0  0  0  0  0
    3.3671   -2.7200    3.3713 H   0  0  0  0  0  0  0  0  0  0  0  0
    2.8298   -4.1314    5.3168 H   0  0  0  0  0  0  0  0  0  0  0  0
    3.1412   -2.4274    5.7398 H   0  0  0  0  0  0  0  0  0  0  0  0
    3.9171   -3.7278    6.6593 H   0  0  0  0  0  0  0  0  0  0  0  0
    6.5075   -4.5596    4.6169 H   0  0  0  0  0  0  0  0  0  0  0  0
    5.2457   -5.3434    5.5189 H   0  0  0  0  0  0  0  0  0  0  0  0
    5.6199   -6.1073    2.9599 H   0  0  0  0  0  0  0  0  0  0  0  0
    2.4980   -7.3915    4.1845 H   0  0  0  0  0  0  0  0  0  0  0  0
    3.9901   -7.1516    5.0847 H   0  0  0  0  0  0  0  0  0  0  0  0
    4.0349   -7.8581    3.4560 H   0  0  0  0  0  0  0  0  0  0  0  0
    4.1423   -5.6621    1.0546 H   0  0  0  0  0  0  0  0  0  0  0  0
    4.4974   -5.2424   -0.9574 H   0  0  0  0  0  0  0  0  0  0  0  0
    6.4976   -4.4934   -1.0793 H   0  0  0  0  0  0  0  0  0  0  0  0
    4.9523   -4.2227   -2.9807 H   0  0  0  0  0  0  0  0  0  0  0  0
    5.4687   -1.3218   -2.8513 H   0  0  0  0  0  0  0  0  0  0  0  0
    3.2184   -2.3016   -4.0656 H   0  0  0  0  0  0  0  0  0  0  0  0
    1.9839   -1.1440   -1.5964 H   0  0  0  0  0  0  0  0  0  0  0  0
    4.2064   -0.1152   -0.3550 H   0  0  0  0  0  0  0  0  0  0  0  0
    3.2075   -1.7562    1.5716 H   0  0  0  0  0  0  0  0  0  0  0  0
    2.2766   -0.9769    0.4898 H   0  0  0  0  0  0  0  0  0  0  0  0
    1.6524   -2.9537   -0.4906 H   0  0  0  0  0  0  0  0  0  0  0  0
    2.2646   -5.7565   -0.7158 H   0  0  0  0  0  0  0  0  0  0  0  0
    0.8257   -5.2565   -0.0192 H   0  0  0  0  0  0  0  0  0  0  0  0
    1.8608   -6.3183    0.9124 H   0  0  0  0  0  0  0  0  0  0  0  0
    2.0803   -4.7282    2.6667 H   0  0  0  0  0  0  0  0  0  0  0  0
    5.4235   -2.7341    5.1211 H   0  0  0  0  0  0  0  0  0  0  0  0
  1  2  1  0
  1 32  1  0
  1 33  1  0
  1 34  1  0
  2  3  1  0
  3 19  1  0
  3  4  1  0
  3 35  1  6
  4 25  1  0
  4  5  1  0
  4 36  1  1
  5 15  1  0
  5  6  1  0
  5 37  1  1
  6  7  1  0
  6 38  1  0
  6 39  1  0
  7 14  1  0
  7  8  1  0
  7 40  1  1
  8  9  1  0
  8 10  1  0
  8 65  1  1
  9 41  1  0
  9 42  1  0
  9 43  1  0
 10 11  1  0
 10 44  1  0
 10 45  1  0
 11 12  1  0
 11 14  1  0
 11 46  1  6
 12 13  1  0
 13 47  1  0
 13 48  1  0
 13 49  1  0
 14 15  1  6
 14 17  1  0
 15 16  2  0
 17 28  1  0
 17 18  1  0
 17 50  1  6
 18 31  1  0
 18 19  1  0
 18 51  1  6
 19 20  1  0
 19 52  1  6
 20 31  1  0
 20 21  1  0
 20 53  1  6
 21 22  1  0
 21 23  1  0
 21 54  1  6
 22 55  1  0
 31 23  1  1
 23 24  1  6
 23 25  1  0
 24 56  1  0
 25 26  1  0
 25 57  1  6
 26 27  1  0
 26 58  1  0
 26 59  1  0
 27 28  1  0
 27 31  1  0
 27 60  1  6
 28 29  1  0
 28 30  1  1
 29 61  1  0
 29 62  1  0
 29 63  1  0
 30 64  1  0
M  CHG  1   8   1
M  END
>  <i_m_ct_stereo_status>  (102) 
1

>  <s_m_source_file>  (102) 
/var/tmp/pbs.5076255.sched01/tmpcsrx8n8z/40wzjmt8mb.sdf

>  <i_m_source_file_index>  (102) 
5

>  <i_lp_mmshare_version>  (102) 
48012

>  <i_f3d_flags>  (102) 
2

>  <s_epik_input>  (102) 
W0NIM11PW0NASF0xW0NASF0oW0NAQEhdMltDQEhdM1tPSF0pW0NAQEhdKFtDQEBIXTRbQ0BAXShbQ0gzXSkoW09IXSlbQ0BIXTVbQ0gyXTYpQzI1W0NAQF0zKFtPSF0pW0NAQEhdNltDQEhdMVtDQEhdKEM3PU8pW0NIMl1bQ0BASF0oW0NAQF00NzgpTihbQ0gzXSlbQ0gyXVtDQEhdOE9bQ0gzXQ==

>  <s_epik_cmdline>  (102) 
J2VwaWtfcHl0aG9uJywgJy1waHQnLCAnMi4wJywgJy1waCcsICc3LjAnLCAnLXRuJywgJzgnLCAnLW1hJywgJzIwMCcsICctaW1hZScsICc8aW5maWxlLm1hZT4nLCAnLW9tYWUnLCAnPG91dGZpbGUubWFlPic=

>  <r_epik_Ionization_Penalty>  (102) 
0.0164307

>  <r_epik_Ionization_Penalty_Charging>  (102) 
0.0164302

>  <r_epik_Ionization_Penalty_Neutral>  (102) 
5.22406e-07

>  <r_epik_State_Penalty>  (102) 
0.0129681

>  <r_epik_Charging_Adjusted_Penalty>  (102) 
0.0293983

>  <i_epik_Tot_Q>  (102) 
1

>  <i_epik_Tot_abs_Q>  (102) 
1

>  <s_lp_Force_Field>  (102) 
OPLS3e

>  <r_lp_Energy>  (102) 
285.435

>  <b_lp_Chiralities_Consistent>  (102) 
0

>  <s_lp_Variant>  (102) 
28:0-1

>  <s_i_glide_gridfile>  (102) 
pfpi4k_grid

>  <i_i_glide_lignum>  (102) 
5

>  <i_i_glide_rotatable_bonds>  (102) 
5

>  <r_i_docking_score>  (102) 
-2.96378

>  <r_i_glide_ligand_efficiency>  (102) 
-0.0956058

>  <r_i_glide_ligand_efficiency_sa>  (102) 
-0.300334

>  <r_i_glide_ligand_efficiency_ln>  (102) 
-0.668423

>  <r_i_glide_gscore>  (102) 
-2.96378

>  <r_i_glide_lipo>  (102) 
-0.599539

>  <r_i_glide_hbond>  (102) 
0

>  <r_i_glide_metal>  (102) 
-0

>  <r_i_glide_rewards>  (102) 
-1.01846

>  <r_i_glide_evdw>  (102) 
1.59214

>  <r_i_glide_ecoul>  (102) 
-9.50256

>  <r_i_glide_erotb>  (102) 
0

>  <r_i_glide_esite>  (102) 
0

>  <r_i_glide_emodel>  (102) 
-15.3092

>  <r_i_glide_energy>  (102) 
-7.91041

>  <r_i_glide_einternal>  (102) 
2.20273

>  <r_i_glide_intrahb_reward>  (102) 
-0.5

>  <i_i_glide_confnum>  (102) 
1

>  <i_i_glide_posenum>  (102) 
2

>  <r_i_glide_eff_state_penalty>  (102) 
0

>  <ligand_id>  (102) 
28

>  <original_smiles>  (102) 
COC1C2C3CC4N(C)CC(OC)C4(C3=O)C3C4C1C1C(O)C5(O)C2CC(C3(C)O)C415

>  <smiles>  (102) 
[H]OC1([H])C2([H])C3([H])C([H])(OC([H])([H])[H])C4([H])C5([H])C(=O)C6(C([H])(OC([H])([H])[H])C([H])([H])[N+]([H])(C([H])([H])[H])C6([H])C5([H])[H])C5([H])C3([H])C23C([H])(C([H])([H])C4([H])C13O[H])C5(O[H])C([H])([H])[H]

$$$$
28:0:2
     RDKit          3D

 65 72  0  0  1  0  0  0  0  0999 V2000
    1.3321    0.3294    2.2678 C   0  0  0  0  0  0  0  0  0  0  0  0
    2.6676   -0.1695    2.3091 O   0  0  0  0  0  0  0  0  0  0  0  0
    3.0317   -0.9903    1.2014 C   0  0  2  0  0  0  0  0  0  0  0  0
    2.4040   -2.3910    1.1467 C   0  0  2  0  0  0  0  0  0  0  0  0
    2.3257   -2.9161    2.6459 C   0  0  1  0  0  0  0  0  0  0  0  0
    2.0628   -4.3895    2.9672 C   0  0  0  0  0  0  0  0  0  0  0  0
    3.4248   -4.9831    3.4230 C   0  0  2  0  0  0  0  0  0  0  0  0
    3.3293   -5.4745    4.8335 N   0  0  1  0  0  0  0  0  0  0  0  0
    3.5806   -6.9278    4.9956 C   0  0  0  0  0  0  0  0  0  0  0  0
    4.2348   -4.6575    5.6578 C   0  0  0  0  0  0  0  0  0  0  0  0
    5.2981   -4.1383    4.6786 C   0  0  1  0  0  0  0  0  0  0  0  0
    6.2186   -5.1905    4.4104 O   0  0  0  0  0  0  0  0  0  0  0  0
    7.1511   -5.4994    5.4374 C   0  0  0  0  0  0  0  0  0  0  0  0
    4.5240   -3.8443    3.3660 C   0  0  2  0  0  0  0  0  0  0  0  0
    3.5809   -2.6856    3.4829 C   0  0  0  0  0  0  0  0  0  0  0  0
    3.7419   -1.7471    4.2710 O   0  0  0  0  0  0  0  0  0  0  0  0
    5.5194   -3.5617    2.1213 C   0  0  2  0  0  0  0  0  0  0  0  0
    5.4455   -2.3622    1.0957 C   0  0  2  0  0  0  0  0  0  0  0  0
    4.5464   -1.0944    1.0518 C   0  0  1  0  0  0  0  0  0  0  0  0
    4.9447   -1.1853   -0.3940 C   0  0  2  0  0  0  0  0  0  0  0  0
    3.9847   -1.2176   -1.5514 C   0  0  1  0  0  0  0  0  0  0  0  0
    4.5405   -0.8919   -2.8079 O   0  0  0  0  0  0  0  0  0  0  0  0
    3.8414   -2.6772   -1.1748 C   0  0  2  0  0  0  0  0  0  0  0  0
    3.7201   -3.4186   -2.3831 O   0  0  0  0  0  0  0  0  0  0  0  0
    2.8000   -3.2516   -0.1629 C   0  0  1  0  0  0  0  0  0  0  0  0
    3.5174   -4.5753    0.0781 C   0  0  0  0  0  0  0  0  0  0  0  0
    5.0217   -4.2776   -0.0638 C   0  0  2  0  0  0  0  0  0  0  0  0
    5.8553   -4.6876    1.1562 C   0  0  1  0  0  0  0  0  0  0  0  0
    7.3661   -4.7259    0.8294 C   0  0  0  0  0  0  0  0  0  0  0  0
    5.5791   -6.0033    1.5798 O   0  0  0  0  0  0  0  0  0  0  0  0
    5.2346   -2.7586   -0.4402 C   0  0  1  0  0  0  0  0  0  0  0  0
    1.1372    0.9097    3.1691 H   0  0  0  0  0  0  0  0  0  0  0  0
    0.5951   -0.4740    2.2341 H   0  0  0  0  0  0  0  0  0  0  0  0
    1.1629    0.9803    1.4068 H   0  0  0  0  0  0  0  0  0  0  0  0
    2.6339   -0.3845    0.4049 H   0  0  0  0  0  0  0  0  0  0  0  0
    1.3699   -2.1691    0.9428 H   0  0  0  0  0  0  0  0  0  0  0  0
    1.5351   -2.3420    3.1305 H   0  0  0  0  0  0  0  0  0  0  0  0
    1.3228   -4.4420    3.7757 H   0  0  0  0  0  0  0  0  0  0  0  0
    1.5936   -4.9247    2.1391 H   0  0  0  0  0  0  0  0  0  0  0  0
    3.6466   -5.8599    2.8331 H   0  0  0  0  0  0  0  0  0  0  0  0
    4.5822   -7.2022    4.6692 H   0  0  0  0  0  0  0  0  0  0  0  0
    2.8674   -7.5166    4.4264 H   0  0  0  0  0  0  0  0  0  0  0  0
    3.4872   -7.2218    6.0373 H   0  0  0  0  0  0  0  0  0  0  0  0
    3.6745   -3.8210    6.0680 H   0  0  0  0  0  0  0  0  0  0  0  0
    4.6309   -5.1877    6.5191 H   0  0  0  0  0  0  0  0  0  0  0  0
    5.8193   -3.2582    5.0683 H   0  0  0  0  0  0  0  0  0  0  0  0
    7.7941   -6.3093    5.0923 H   0  0  0  0  0  0  0  0  0  0  0  0
    6.6755   -5.8491    6.3532 H   0  0  0  0  0  0  0  0  0  0  0  0
    7.7830   -4.6457    5.6805 H   0  0  0  0  0  0  0  0  0  0  0  0
    6.4351   -3.3543    2.6460 H   0  0  0  0  0  0  0  0  0  0  0  0
    6.4608   -1.9384    1.1359 H   0  0  0  0  0  0  0  0  0  0  0  0
    5.0611   -0.2477    1.5099 H   0  0  0  0  0  0  0  0  0  0  0  0
    5.8344   -0.6000   -0.6253 H   0  0  0  0  0  0  0  0  0  0  0  0
    3.0452   -0.6740   -1.4764 H   0  0  0  0  0  0  0  0  0  0  0  0
    3.8007   -0.6525   -3.3481 H   0  0  0  0  0  0  0  0  0  0  0  0
    3.4695   -4.3098   -2.1724 H   0  0  0  0  0  0  0  0  0  0  0  0
    1.8656   -3.4637   -0.6832 H   0  0  0  0  0  0  0  0  0  0  0  0
    3.2475   -5.1376    0.9421 H   0  0  0  0  0  0  0  0  0  0  0  0
    3.2495   -5.2627   -0.7158 H   0  0  0  0  0  0  0  0  0  0  0  0
    5.3876   -4.8893   -0.8935 H   0  0  0  0  0  0  0  0  0  0  0  0
    7.7328   -3.7815    0.4270 H   0  0  0  0  0  0  0  0  0  0  0  0
    7.5878   -5.4946    0.0921 H   0  0  0  0  0  0  0  0  0  0  0  0
    7.9584   -4.9502    1.7169 H   0  0  0  0  0  0  0  0  0  0  0  0
    5.8517   -6.6001    0.8992 H   0  0  0  0  0  0  0  0  0  0  0  0
    2.3941   -5.3117    5.1738 H   0  0  0  0  0  0  0  0  0  0  0  0
  1  2  1  0
  1 32  1  0
  1 33  1  0
  1 34  1  0
  2  3  1  0
  3 19  1  0
  3  4  1  0
  3 35  1  6
  4 25  1  0
  4  5  1  0
  4 36  1  6
  5 15  1  0
  5  6  1  0
  5 37  1  1
  6  7  1  0
  6 38  1  0
  6 39  1  0
  7 14  1  0
  7  8  1  0
  7 40  1  6
  8  9  1  0
  8 10  1  0
  8 65  1  1
  9 41  1  0
  9 42  1  0
  9 43  1  0
 10 11  1  0
 10 44  1  0
 10 45  1  0
 11 12  1  0
 11 14  1  0
 11 46  1  1
 12 13  1  0
 13 47  1  0
 13 48  1  0
 13 49  1  0
 14 15  1  1
 14 17  1  0
 15 16  2  0
 17 28  1  0
 17 18  1  0
 17 50  1  1
 18 31  1  0
 18 19  1  0
 18 51  1  6
 19 20  1  0
 19 52  1  1
 20 31  1  0
 20 21  1  0
 20 53  1  6
 21 22  1  0
 21 23  1  0
 21 54  1  1
 22 55  1  0
 31 23  1  1
 23 24  1  6
 23 25  1  0
 24 56  1  0
 25 26  1  0
 25 57  1  6
 26 27  1  0
 26 58  1  0
 26 59  1  0
 27 28  1  0
 27 31  1  0
 27 60  1  6
 28 29  1  0
 28 30  1  1
 29 61  1  0
 29 62  1  0
 29 63  1  0
 30 64  1  0
M  CHG  1   8   1
M  END
>  <i_m_ct_stereo_status>  (103) 
1

>  <s_m_source_file>  (103) 
/var/tmp/pbs.5076255.sched01/tmpcsrx8n8z/40wzjmt8mb.sdf

>  <i_m_source_file_index>  (103) 
5

>  <i_lp_mmshare_version>  (103) 
48012

>  <i_f3d_flags>  (103) 
2

>  <s_epik_input>  (103) 
W0NIM11PW0NASF0xW0NASF0oW0NAQEhdMltDQEhdM1tPSF0pW0NAQEhdKFtDQEBIXTRbQ0BAXShbQ0gzXSkoW09IXSlbQ0BIXTVbQ0gyXTYpQzI1W0NAQF0zKFtPSF0pW0NAQEhdNltDQEhdMVtDQEhdKEM3PU8pW0NIMl1bQ0BASF0oW0NAQF00NzgpTihbQ0gzXSlbQ0gyXVtDQEhdOE9bQ0gzXQ==

>  <s_epik_cmdline>  (103) 
J2VwaWtfcHl0aG9uJywgJy1waHQnLCAnMi4wJywgJy1waCcsICc3LjAnLCAnLXRuJywgJzgnLCAnLW1hJywgJzIwMCcsICctaW1hZScsICc8aW5maWxlLm1hZT4nLCAnLW9tYWUnLCAnPG91dGZpbGUubWFlPic=

>  <r_epik_Ionization_Penalty>  (103) 
0.0164307

>  <r_epik_Ionization_Penalty_Charging>  (103) 
0.0164302

>  <r_epik_Ionization_Penalty_Neutral>  (103) 
5.22406e-07

>  <r_epik_State_Penalty>  (103) 
0.0129681

>  <r_epik_Charging_Adjusted_Penalty>  (103) 
0.0293983

>  <i_epik_Tot_Q>  (103) 
1

>  <i_epik_Tot_abs_Q>  (103) 
1

>  <s_lp_Force_Field>  (103) 
OPLS3e

>  <r_lp_Energy>  (103) 
285.435

>  <b_lp_Chiralities_Consistent>  (103) 
0

>  <s_lp_Variant>  (103) 
28:0-1

>  <s_i_glide_gridfile>  (103) 
pfpi4k_grid

>  <i_i_glide_lignum>  (103) 
5

>  <i_i_glide_rotatable_bonds>  (103) 
5

>  <r_i_docking_score>  (103) 
-2.82432

>  <r_i_glide_ligand_efficiency>  (103) 
-0.091107

>  <r_i_glide_ligand_efficiency_sa>  (103) 
-0.286202

>  <r_i_glide_ligand_efficiency_ln>  (103) 
-0.63697

>  <r_i_glide_gscore>  (103) 
-2.82432

>  <r_i_glide_lipo>  (103) 
-0.440161

>  <r_i_glide_hbond>  (103) 
0

>  <r_i_glide_metal>  (103) 
-0

>  <r_i_glide_rewards>  (103) 
-0.460024

>  <r_i_glide_evdw>  (103) 
-18.9131

>  <r_i_glide_ecoul>  (103) 
-6.52319

>  <r_i_glide_erotb>  (103) 
0

>  <r_i_glide_esite>  (103) 
0

>  <r_i_glide_emodel>  (103) 
-28.0746

>  <r_i_glide_energy>  (103) 
-25.4363

>  <r_i_glide_einternal>  (103) 
3.03853

>  <r_i_glide_intrahb_reward>  (103) 
-0

>  <i_i_glide_confnum>  (103) 
1

>  <i_i_glide_posenum>  (103) 
1

>  <r_i_glide_eff_state_penalty>  (103) 
0

>  <ligand_id>  (103) 
28

>  <original_smiles>  (103) 
COC1C2C3CC4N(C)CC(OC)C4(C3=O)C3C4C1C1C(O)C5(O)C2CC(C3(C)O)C415

>  <smiles>  (103) 
[H]OC1([H])C2([H])C3([H])C([H])(OC([H])([H])[H])C4([H])C5([H])C(=O)C6(C([H])(OC([H])([H])[H])C([H])([H])[N+]([H])(C([H])([H])[H])C6([H])C5([H])[H])C5([H])C3([H])C23C([H])(C([H])([H])C4([H])C13O[H])C5(O[H])C([H])([H])[H]

$$$$
28:1:0
     RDKit          3D

 64 71  0  0  1  0  0  0  0  0999 V2000
    1.5372   -0.9154    2.4438 C   0  0  0  0  0  0  0  0  0  0  0  0
    2.0103   -2.2253    2.1512 O   0  0  0  0  0  0  0  0  0  0  0  0
    2.8206   -2.3400    0.9816 C   0  0  2  0  0  0  0  0  0  0  0  0
    2.8185   -3.7328    0.3517 C   0  0  2  0  0  0  0  0  0  0  0  0
    2.8297   -4.7631    1.5599 C   0  0  1  0  0  0  0  0  0  0  0  0
    3.1873   -6.2278    1.3124 C   0  0  0  0  0  0  0  0  0  0  0  0
    4.6195   -6.4266    1.8993 C   0  0  2  0  0  0  0  0  0  0  0  0
    4.5526   -7.4112    2.9944 N   0  0  0  0  0  0  0  0  0  0  0  0
    5.1980   -8.6797    2.6580 C   0  0  0  0  0  0  0  0  0  0  0  0
    5.1031   -6.7875    4.1845 C   0  0  0  0  0  0  0  0  0  0  0  0
    5.8517   -5.5169    3.7557 C   0  0  1  0  0  0  0  0  0  0  0  0
    7.1988   -5.8645    3.4348 O   0  0  0  0  0  0  0  0  0  0  0  0
    8.0678   -6.0054    4.5526 C   0  0  0  0  0  0  0  0  0  0  0  0
    5.1292   -5.0386    2.4640 C   0  0  2  0  0  0  0  0  0  0  0  0
    3.7761   -4.4502    2.7226 C   0  0  0  0  0  0  0  0  0  0  0  0
    3.4518   -3.8795    3.7701 O   0  0  0  0  0  0  0  0  0  0  0  0
    6.0268   -3.9667    1.6644 C   0  0  2  0  0  0  0  0  0  0  0  0
    5.5754   -2.5922    1.0434 C   0  0  2  0  0  0  0  0  0  0  0  0
    4.2475   -1.8074    1.1492 C   0  0  1  0  0  0  0  0  0  0  0  0
    4.7807   -1.2112   -0.1245 C   0  0  2  0  0  0  0  0  0  0  0  0
    4.0515   -1.1847   -1.4441 C   0  0  1  0  0  0  0  0  0  0  0  0
    4.5639   -0.2789   -2.4010 O   0  0  0  0  0  0  0  0  0  0  0  0
    4.4966   -2.6223   -1.5421 C   0  0  2  0  0  0  0  0  0  0  0  0
    4.8351   -2.8965   -2.8984 O   0  0  0  0  0  0  0  0  0  0  0  0
    3.6943   -3.8530   -1.0105 C   0  0  1  0  0  0  0  0  0  0  0  0
    4.8857   -4.8154   -1.0131 C   0  0  0  0  0  0  0  0  0  0  0  0
    6.1128   -3.9487   -0.6758 C   0  0  2  0  0  0  0  0  0  0  0  0
    6.9230   -4.4538    0.5375 C   0  0  1  0  0  0  0  0  0  0  0  0
    8.3256   -3.8116    0.5764 C   0  0  0  0  0  0  0  0  0  0  0  0
    7.2202   -5.8334    0.4963 O   0  0  0  0  0  0  0  0  0  0  0  0
    5.6991   -2.4426   -0.5427 C   0  0  1  0  0  0  0  0  0  0  0  0
    0.9832   -0.9532    3.3805 H   0  0  0  0  0  0  0  0  0  0  0  0
    0.8543   -0.5505    1.6770 H   0  0  0  0  0  0  0  0  0  0  0  0
    2.3426   -0.1890    2.5605 H   0  0  0  0  0  0  0  0  0  0  0  0
    2.2696   -1.7131    0.3142 H   0  0  0  0  0  0  0  0  0  0  0  0
    1.8109   -3.8322   -0.0373 H   0  0  0  0  0  0  0  0  0  0  0  0
    1.8228   -4.7346    1.9796 H   0  0  0  0  0  0  0  0  0  0  0  0
    2.4753   -6.8401    1.8738 H   0  0  0  0  0  0  0  0  0  0  0  0
    3.0679   -6.5516    0.2779 H   0  0  0  0  0  0  0  0  0  0  0  0
    5.2665   -6.8431    1.1372 H   0  0  0  0  0  0  0  0  0  0  0  0
    5.1000   -9.3948    3.4713 H   0  0  0  0  0  0  0  0  0  0  0  0
    6.2598   -8.5524    2.4513 H   0  0  0  0  0  0  0  0  0  0  0  0
    4.7356   -9.1275    1.7802 H   0  0  0  0  0  0  0  0  0  0  0  0
    4.2793   -6.5051    4.8446 H   0  0  0  0  0  0  0  0  0  0  0  0
    5.7196   -7.4813    4.7517 H   0  0  0  0  0  0  0  0  0  0  0  0
    5.8429   -4.7611    4.5455 H   0  0  0  0  0  0  0  0  0  0  0  0
    9.0702   -6.2521    4.2002 H   0  0  0  0  0  0  0  0  0  0  0  0
    7.7522   -6.8051    5.2224 H   0  0  0  0  0  0  0  0  0  0  0  0
    8.1363   -5.0812    5.1280 H   0  0  0  0  0  0  0  0  0  0  0  0
    6.6491   -3.6434    2.4795 H   0  0  0  0  0  0  0  0  0  0  0  0
    6.3065   -1.8794    1.4451 H   0  0  0  0  0  0  0  0  0  0  0  0
    4.3298   -1.0638    1.9398 H   0  0  0  0  0  0  0  0  0  0  0  0
    5.3615   -0.3051    0.0369 H   0  0  0  0  0  0  0  0  0  0  0  0
    2.9706   -1.0883   -1.4398 H   0  0  0  0  0  0  0  0  0  0  0  0
    3.9062    0.3993   -2.5160 H   0  0  0  0  0  0  0  0  0  0  0  0
    4.8239   -3.8341   -2.9887 H   0  0  0  0  0  0  0  0  0  0  0  0
    2.9810   -4.1666   -1.7752 H   0  0  0  0  0  0  0  0  0  0  0  0
    4.7934   -5.7168   -0.4583 H   0  0  0  0  0  0  0  0  0  0  0  0
    5.0160   -5.2066   -2.0164 H   0  0  0  0  0  0  0  0  0  0  0  0
    6.7827   -3.9426   -1.5407 H   0  0  0  0  0  0  0  0  0  0  0  0
    8.2924   -2.7231    0.5645 H   0  0  0  0  0  0  0  0  0  0  0  0
    8.9163   -4.1203   -0.2848 H   0  0  0  0  0  0  0  0  0  0  0  0
    8.8706   -4.1102    1.4737 H   0  0  0  0  0  0  0  0  0  0  0  0
    7.6863   -6.0615    1.2916 H   0  0  0  0  0  0  0  0  0  0  0  0
  1  2  1  0
  1 32  1  0
  1 33  1  0
  1 34  1  0
  2  3  1  0
  3 19  1  0
  3  4  1  0
  3 35  1  6
  4 25  1  0
  4  5  1  0
  4 36  1  6
  5 15  1  0
  5  6  1  0
  5 37  1  1
  6  7  1  0
  6 38  1  0
  6 39  1  0
  7 14  1  0
  7  8  1  0
  7 40  1  6
  8  9  1  0
  8 10  1  0
  9 41  1  0
  9 42  1  0
  9 43  1  0
 10 11  1  0
 10 44  1  0
 10 45  1  0
 11 12  1  0
 11 14  1  0
 11 46  1  1
 12 13  1  0
 13 47  1  0
 13 48  1  0
 13 49  1  0
 14 15  1  1
 14 17  1  0
 15 16  2  0
 17 28  1  0
 17 18  1  0
 17 50  1  1
 18 31  1  0
 18 19  1  0
 18 51  1  1
 19 20  1  0
 19 52  1  1
 20 31  1  0
 20 21  1  0
 20 53  1  1
 21 22  1  0
 21 23  1  0
 21 54  1  1
 22 55  1  0
 31 23  1  6
 23 24  1  6
 23 25  1  0
 24 56  1  0
 25 26  1  0
 25 57  1  6
 26 27  1  0
 26 58  1  0
 26 59  1  0
 27 28  1  0
 27 31  1  0
 27 60  1  6
 28 29  1  0
 28 30  1  6
 29 61  1  0
 29 62  1  0
 29 63  1  0
 30 64  1  0
M  END
>  <i_m_ct_stereo_status>  (104) 
1

>  <s_m_source_file>  (104) 
/var/tmp/pbs.5076255.sched01/tmpcsrx8n8z/40wzjmt8mb.sdf

>  <i_m_source_file_index>  (104) 
6

>  <i_lp_mmshare_version>  (104) 
48012

>  <i_f3d_flags>  (104) 
2

>  <s_epik_input>  (104) 
W0NIM11PW0NASF0xW0NASF0oW0NAQEhdMltDQEhdM1tPSF0pW0NAQEhdKFtDQEBIXTRbQ0BAXShbQ0gzXSkoW09IXSlbQ0BIXTVbQ0gyXTYpQzI1W0NAQF0zKFtPSF0pW0NAQEhdNltDQEhdMVtDQEhdKEM3PU8pW0NIMl1bQ0BASF0oW0NAQF00NzgpTihbQ0gzXSlbQ0gyXVtDQEhdOE9bQ0gzXQ==

>  <s_epik_cmdline>  (104) 
J2VwaWtfcHl0aG9uJywgJy1waHQnLCAnMi4wJywgJy1waCcsICc3LjAnLCAnLXRuJywgJzgnLCAnLW1hJywgJzIwMCcsICctaW1hZScsICc8aW5maWxlLm1hZT4nLCAnLW9tYWUnLCAnPG91dGZpbGUubWFlPic=

>  <r_epik_Ionization_Penalty>  (104) 
2.13238

>  <r_epik_Ionization_Penalty_Charging>  (104) 
0

>  <r_epik_Ionization_Penalty_Neutral>  (104) 
2.13238

>  <r_epik_State_Penalty>  (104) 
2.27086

>  <r_epik_Charging_Adjusted_Penalty>  (104) 
2.27086

>  <i_epik_Tot_Q>  (104) 
0

>  <i_epik_Tot_abs_Q>  (104) 
0

>  <s_lp_Force_Field>  (104) 
OPLS3e

>  <r_lp_Energy>  (104) 
287.775

>  <b_lp_Chiralities_Consistent>  (104) 
0

>  <s_lp_Variant>  (104) 
28:0-2

>  <s_i_glide_gridfile>  (104) 
pfpi4k_grid

>  <i_i_glide_lignum>  (104) 
6

>  <i_i_glide_rotatable_bonds>  (104) 
5

>  <r_i_docking_score>  (104) 
-3.03021

>  <r_i_glide_ligand_efficiency>  (104) 
-0.0977487

>  <r_i_glide_ligand_efficiency_sa>  (104) 
-0.307066

>  <r_i_glide_ligand_efficiency_ln>  (104) 
-0.683405

>  <r_i_glide_gscore>  (104) 
-3.03021

>  <r_i_glide_lipo>  (104) 
-0.553454

>  <r_i_glide_hbond>  (104) 
0

>  <r_i_glide_metal>  (104) 
-0

>  <r_i_glide_rewards>  (104) 
-0.966896

>  <r_i_glide_evdw>  (104) 
-18.5711

>  <r_i_glide_ecoul>  (104) 
-3.87537

>  <r_i_glide_erotb>  (104) 
0

>  <r_i_glide_esite>  (104) 
0

>  <r_i_glide_emodel>  (104) 
-30.1212

>  <r_i_glide_energy>  (104) 
-22.4465

>  <r_i_glide_einternal>  (104) 
2.7915

>  <r_i_glide_intrahb_reward>  (104) 
-0.5

>  <i_i_glide_confnum>  (104) 
1

>  <i_i_glide_posenum>  (104) 
5

>  <r_i_glide_eff_state_penalty>  (104) 
0

>  <ligand_id>  (104) 
28

>  <original_smiles>  (104) 
COC1C2C3CC4N(C)CC(OC)C4(C3=O)C3C4C1C1C(O)C5(O)C2CC(C3(C)O)C415

>  <smiles>  (104) 
[H]OC1([H])C2([H])C3([H])C([H])(OC([H])([H])[H])C4([H])C5([H])C(=O)C6(C([H])(OC([H])([H])[H])C([H])([H])N(C([H])([H])[H])C6([H])C5([H])[H])C5([H])C3([H])C23C([H])(C([H])([H])C4([H])C13O[H])C5(O[H])C([H])([H])[H]

$$$$
28:1:1
     RDKit          3D

 64 71  0  0  1  0  0  0  0  0999 V2000
    1.8953   -0.5525    2.6676 C   0  0  0  0  0  0  0  0  0  0  0  0
    2.2587   -1.8995    2.3856 O   0  0  0  0  0  0  0  0  0  0  0  0
    2.9867   -2.0963    1.1755 C   0  0  2  0  0  0  0  0  0  0  0  0
    2.8482   -3.5061    0.5879 C   0  0  2  0  0  0  0  0  0  0  0  0
    2.8211   -4.5041    1.8257 C   0  0  1  0  0  0  0  0  0  0  0  0
    3.0275   -5.9978    1.5977 C   0  0  0  0  0  0  0  0  0  0  0  0
    4.4701   -6.3188    2.1030 C   0  0  2  0  0  0  0  0  0  0  0  0
    4.3871   -7.2724    3.2208 N   0  0  0  0  0  0  0  0  0  0  0  0
    4.9005   -8.6013    2.8788 C   0  0  0  0  0  0  0  0  0  0  0  0
    5.0554   -6.6752    4.3621 C   0  0  0  0  0  0  0  0  0  0  0  0
    5.8924   -5.4856    3.8594 C   0  0  1  0  0  0  0  0  0  0  0  0
    7.1782   -5.9687    3.4759 O   0  0  0  0  0  0  0  0  0  0  0  0
    8.0833   -6.2451    4.5353 C   0  0  0  0  0  0  0  0  0  0  0  0
    5.1405   -4.9704    2.5952 C   0  0  2  0  0  0  0  0  0  0  0  0
    3.8626   -4.2579    2.9232 C   0  0  0  0  0  0  0  0  0  0  0  0
    3.6556   -3.6450    3.9673 O   0  0  0  0  0  0  0  0  0  0  0  0
    6.0779   -4.0049    1.7136 C   0  0  2  0  0  0  0  0  0  0  0  0
    5.7011   -2.6059    1.0935 C   0  0  2  0  0  0  0  0  0  0  0  0
    4.4508   -1.7003    1.2546 C   0  0  1  0  0  0  0  0  0  0  0  0
    4.9488   -1.1993   -0.0686 C   0  0  2  0  0  0  0  0  0  0  0  0
    4.1367   -1.1164   -1.3375 C   0  0  1  0  0  0  0  0  0  0  0  0
    4.6750   -0.3100   -2.3595 O   0  0  0  0  0  0  0  0  0  0  0  0
    4.4681   -2.5887   -1.4217 C   0  0  2  0  0  0  0  0  0  0  0  0
    4.7165   -2.9328   -2.7741 O   0  0  0  0  0  0  0  0  0  0  0  0
    3.6010   -3.7411   -0.8221 C   0  0  1  0  0  0  0  0  0  0  0  0
    4.7029   -4.7987   -0.8513 C   0  0  0  0  0  0  0  0  0  0  0  0
    6.0178   -4.0515   -0.6220 C   0  0  2  0  0  0  0  0  0  0  0  0
    6.8503   -4.5852    0.5436 C   0  0  1  0  0  0  0  0  0  0  0  0
    8.3026   -4.0657    0.4819 C   0  0  0  0  0  0  0  0  0  0  0  0
    7.0458   -5.9779    0.5200 O   0  0  0  0  0  0  0  0  0  0  0  0
    5.7484   -2.5089   -0.4931 C   0  0  1  0  0  0  0  0  0  0  0  0
    1.4028   -0.5212    3.6376 H   0  0  0  0  0  0  0  0  0  0  0  0
    1.1908   -0.1706    1.9261 H   0  0  0  0  0  0  0  0  0  0  0  0
    2.7501    0.1241    2.7085 H   0  0  0  0  0  0  0  0  0  0  0  0
    2.4437   -1.4266    0.5301 H   0  0  0  0  0  0  0  0  0  0  0  0
    1.8166   -3.5285    0.2587 H   0  0  0  0  0  0  0  0  0  0  0  0
    1.8473   -4.3787    2.2990 H   0  0  0  0  0  0  0  0  0  0  0  0
    2.3059   -6.5385    2.2159 H   0  0  0  0  0  0  0  0  0  0  0  0
    2.8108   -6.3458    0.5844 H   0  0  0  0  0  0  0  0  0  0  0  0
    5.0251   -6.8109    1.3186 H   0  0  0  0  0  0  0  0  0  0  0  0
    4.7925   -9.2899    3.7168 H   0  0  0  0  0  0  0  0  0  0  0  0
    5.9566   -8.5725    2.6060 H   0  0  0  0  0  0  0  0  0  0  0  0
    4.3456   -9.0255    2.0419 H   0  0  0  0  0  0  0  0  0  0  0  0
    4.3029   -6.3058    5.0599 H   0  0  0  0  0  0  0  0  0  0  0  0
    5.6304   -7.4195    4.9104 H   0  0  0  0  0  0  0  0  0  0  0  0
    6.0045   -4.7216    4.6291 H   0  0  0  0  0  0  0  0  0  0  0  0
    9.0334   -6.5725    4.1184 H   0  0  0  0  0  0  0  0  0  0  0  0
    7.7311   -7.0433    5.1835 H   0  0  0  0  0  0  0  0  0  0  0  0
    8.2696   -5.3623    5.1443 H   0  0  0  0  0  0  0  0  0  0  0  0
    6.8108   -3.7665    2.4560 H   0  0  0  0  0  0  0  0  0  0  0  0
    6.5185   -1.9495    1.4213 H   0  0  0  0  0  0  0  0  0  0  0  0
    4.6589   -0.9499    2.0129 H   0  0  0  0  0  0  0  0  0  0  0  0
    5.6167   -0.3430    0.0292 H   0  0  0  0  0  0  0  0  0  0  0  0
    3.0720   -0.9307   -1.2763 H   0  0  0  0  0  0  0  0  0  0  0  0
    4.5860    0.5803   -2.0582 H   0  0  0  0  0  0  0  0  0  0  0  0
    4.2021   -3.7027   -2.9795 H   0  0  0  0  0  0  0  0  0  0  0  0
    2.8194   -4.0311   -1.5277 H   0  0  0  0  0  0  0  0  0  0  0  0
    4.5546   -5.6925   -0.2855 H   0  0  0  0  0  0  0  0  0  0  0  0
    4.7753   -5.1990   -1.8553 H   0  0  0  0  0  0  0  0  0  0  0  0
    6.6110   -4.1683   -1.5190 H   0  0  0  0  0  0  0  0  0  0  0  0
    8.3663   -2.9767    0.4455 H   0  0  0  0  0  0  0  0  0  0  0  0
    8.8075   -4.4478   -0.4059 H   0  0  0  0  0  0  0  0  0  0  0  0
    8.8706   -4.4023    1.3497 H   0  0  0  0  0  0  0  0  0  0  0  0
    6.2073   -6.4086    0.5876 H   0  0  0  0  0  0  0  0  0  0  0  0
  1  2  1  0
  1 32  1  0
  1 33  1  0
  1 34  1  0
  2  3  1  0
  3 19  1  0
  3  4  1  0
  3 35  1  6
  4 25  1  0
  4  5  1  0
  4 36  1  6
  5 15  1  0
  5  6  1  0
  5 37  1  1
  6  7  1  0
  6 38  1  0
  6 39  1  0
  7 14  1  0
  7  8  1  0
  7 40  1  6
  8  9  1  0
  8 10  1  0
  9 41  1  0
  9 42  1  0
  9 43  1  0
 10 11  1  0
 10 44  1  0
 10 45  1  0
 11 12  1  0
 11 14  1  0
 11 46  1  1
 12 13  1  0
 13 47  1  0
 13 48  1  0
 13 49  1  0
 14 15  1  1
 14 17  1  0
 15 16  2  0
 17 28  1  0
 17 18  1  0
 17 50  1  1
 18 31  1  0
 18 19  1  0
 18 51  1  1
 19 20  1  0
 19 52  1  1
 20 31  1  0
 20 21  1  0
 20 53  1  1
 21 22  1  0
 21 23  1  0
 21 54  1  1
 22 55  1  0
 31 23  1  6
 23 24  1  6
 23 25  1  0
 24 56  1  0
 25 26  1  0
 25 57  1  6
 26 27  1  0
 26 58  1  0
 26 59  1  0
 27 28  1  0
 27 31  1  0
 27 60  1  6
 28 29  1  0
 28 30  1  1
 29 61  1  0
 29 62  1  0
 29 63  1  0
 30 64  1  0
M  END
>  <i_m_ct_stereo_status>  (105) 
1

>  <s_m_source_file>  (105) 
/var/tmp/pbs.5076255.sched01/tmpcsrx8n8z/40wzjmt8mb.sdf

>  <i_m_source_file_index>  (105) 
6

>  <i_lp_mmshare_version>  (105) 
48012

>  <i_f3d_flags>  (105) 
2

>  <s_epik_input>  (105) 
W0NIM11PW0NASF0xW0NASF0oW0NAQEhdMltDQEhdM1tPSF0pW0NAQEhdKFtDQEBIXTRbQ0BAXShbQ0gzXSkoW09IXSlbQ0BIXTVbQ0gyXTYpQzI1W0NAQF0zKFtPSF0pW0NAQEhdNltDQEhdMVtDQEhdKEM3PU8pW0NIMl1bQ0BASF0oW0NAQF00NzgpTihbQ0gzXSlbQ0gyXVtDQEhdOE9bQ0gzXQ==

>  <s_epik_cmdline>  (105) 
J2VwaWtfcHl0aG9uJywgJy1waHQnLCAnMi4wJywgJy1waCcsICc3LjAnLCAnLXRuJywgJzgnLCAnLW1hJywgJzIwMCcsICctaW1hZScsICc8aW5maWxlLm1hZT4nLCAnLW9tYWUnLCAnPG91dGZpbGUubWFlPic=

>  <r_epik_Ionization_Penalty>  (105) 
2.13238

>  <r_epik_Ionization_Penalty_Charging>  (105) 
0

>  <r_epik_Ionization_Penalty_Neutral>  (105) 
2.13238

>  <r_epik_State_Penalty>  (105) 
2.27086

>  <r_epik_Charging_Adjusted_Penalty>  (105) 
2.27086

>  <i_epik_Tot_Q>  (105) 
0

>  <i_epik_Tot_abs_Q>  (105) 
0

>  <s_lp_Force_Field>  (105) 
OPLS3e

>  <r_lp_Energy>  (105) 
287.775

>  <b_lp_Chiralities_Consistent>  (105) 
0

>  <s_lp_Variant>  (105) 
28:0-2

>  <s_i_glide_gridfile>  (105) 
pfpi4k_grid

>  <i_i_glide_lignum>  (105) 
6

>  <i_i_glide_rotatable_bonds>  (105) 
5

>  <r_i_docking_score>  (105) 
-2.55003

>  <r_i_glide_ligand_efficiency>  (105) 
-0.0822592

>  <r_i_glide_ligand_efficiency_sa>  (105) 
-0.258407

>  <r_i_glide_ligand_efficiency_ln>  (105) 
-0.575111

>  <r_i_glide_gscore>  (105) 
-2.55003

>  <r_i_glide_lipo>  (105) 
-0.51387

>  <r_i_glide_hbond>  (105) 
0

>  <r_i_glide_metal>  (105) 
-0

>  <r_i_glide_rewards>  (105) 
-0.467024

>  <r_i_glide_evdw>  (105) 
-16.2987

>  <r_i_glide_ecoul>  (105) 
-5.02802

>  <r_i_glide_erotb>  (105) 
0

>  <r_i_glide_esite>  (105) 
0

>  <r_i_glide_emodel>  (105) 
-23.3099

>  <r_i_glide_energy>  (105) 
-21.3268

>  <r_i_glide_einternal>  (105) 
2.99068

>  <r_i_glide_intrahb_reward>  (105) 
-0

>  <i_i_glide_confnum>  (105) 
2

>  <i_i_glide_posenum>  (105) 
34

>  <r_i_glide_eff_state_penalty>  (105) 
0

>  <ligand_id>  (105) 
28

>  <original_smiles>  (105) 
COC1C2C3CC4N(C)CC(OC)C4(C3=O)C3C4C1C1C(O)C5(O)C2CC(C3(C)O)C415

>  <smiles>  (105) 
[H]OC1([H])C2([H])C3([H])C([H])(OC([H])([H])[H])C4([H])C5([H])C(=O)C6(C([H])(OC([H])([H])[H])C([H])([H])N(C([H])([H])[H])C6([H])C5([H])[H])C5([H])C3([H])C23C([H])(C([H])([H])C4([H])C13O[H])C5(O[H])C([H])([H])[H]

$$$$
28:1:2
     RDKit          3D

 64 71  0  0  1  0  0  0  0  0999 V2000
    1.5266   -0.9275    2.4411 C   0  0  0  0  0  0  0  0  0  0  0  0
    1.9779   -2.2399    2.1268 O   0  0  0  0  0  0  0  0  0  0  0  0
    2.8047   -2.3491    0.9701 C   0  0  2  0  0  0  0  0  0  0  0  0
    2.8265   -3.7382    0.3330 C   0  0  2  0  0  0  0  0  0  0  0  0
    2.8190   -4.7677    1.5448 C   0  0  1  0  0  0  0  0  0  0  0  0
    3.1800   -6.2266    1.2986 C   0  0  0  0  0  0  0  0  0  0  0  0
    4.6104   -6.4234    1.8932 C   0  0  2  0  0  0  0  0  0  0  0  0
    4.5449   -7.4118    2.9839 N   0  0  0  0  0  0  0  0  0  0  0  0
    5.2025   -8.6781    2.6480 C   0  0  0  0  0  0  0  0  0  0  0  0
    5.0796   -6.7855    4.1780 C   0  0  0  0  0  0  0  0  0  0  0  0
    5.8267   -5.5072    3.7567 C   0  0  1  0  0  0  0  0  0  0  0  0
    7.1748   -5.8537    3.4532 O   0  0  0  0  0  0  0  0  0  0  0  0
    8.0393   -6.0167    4.5684 C   0  0  0  0  0  0  0  0  0  0  0  0
    5.1162   -5.0319    2.4562 C   0  0  2  0  0  0  0  0  0  0  0  0
    3.7584   -4.4565    2.7127 C   0  0  0  0  0  0  0  0  0  0  0  0
    3.4260   -3.8920    3.7525 O   0  0  0  0  0  0  0  0  0  0  0  0
    6.0087   -3.9581    1.6612 C   0  0  2  0  0  0  0  0  0  0  0  0
    5.5495   -2.5881    1.0432 C   0  0  2  0  0  0  0  0  0  0  0  0
    4.2155   -1.8108    1.1393 C   0  0  1  0  0  0  0  0  0  0  0  0
    4.7490   -1.2186   -0.1372 C   0  0  2  0  0  0  0  0  0  0  0  0
    4.0285   -1.1740   -1.4584 C   0  0  1  0  0  0  0  0  0  0  0  0
    4.5421   -0.2744   -2.4291 O   0  0  0  0  0  0  0  0  0  0  0  0
    4.4911   -2.6092   -1.5474 C   0  0  2  0  0  0  0  0  0  0  0  0
    4.8463   -2.8926   -2.8858 O   0  0  0  0  0  0  0  0  0  0  0  0
    3.6946   -3.8499   -1.0282 C   0  0  1  0  0  0  0  0  0  0  0  0
    4.8891   -4.8063   -1.0196 C   0  0  0  0  0  0  0  0  0  0  0  0
    6.1171   -3.9425   -0.6833 C   0  0  2  0  0  0  0  0  0  0  0  0
    6.9124   -4.4359    0.5330 C   0  0  1  0  0  0  0  0  0  0  0  0
    8.3088   -3.7835    0.5845 C   0  0  0  0  0  0  0  0  0  0  0  0
    7.2379   -5.8070    0.4781 O   0  0  0  0  0  0  0  0  0  0  0  0
    5.6904   -2.4379   -0.5315 C   0  0  1  0  0  0  0  0  0  0  0  0
    0.9616   -0.9703    3.3692 H   0  0  0  0  0  0  0  0  0  0  0  0
    0.8575   -0.5340    1.6771 H   0  0  0  0  0  0  0  0  0  0  0  0
    2.3348   -0.2103    2.5831 H   0  0  0  0  0  0  0  0  0  0  0  0
    2.2460   -1.7326    0.3030 H   0  0  0  0  0  0  0  0  0  0  0  0
    1.8186   -3.8524   -0.0638 H   0  0  0  0  0  0  0  0  0  0  0  0
    1.8089   -4.7466    1.9566 H   0  0  0  0  0  0  0  0  0  0  0  0
    2.4729   -6.8508    1.8521 H   0  0  0  0  0  0  0  0  0  0  0  0
    3.0683   -6.5612    0.2645 H   0  0  0  0  0  0  0  0  0  0  0  0
    5.2573   -6.8431    1.1358 H   0  0  0  0  0  0  0  0  0  0  0  0
    5.1048   -9.3957    3.4605 H   0  0  0  0  0  0  0  0  0  0  0  0
    6.2658   -8.5445    2.4479 H   0  0  0  0  0  0  0  0  0  0  0  0
    4.7453   -9.1284    1.7675 H   0  0  0  0  0  0  0  0  0  0  0  0
    4.2520   -6.5091    4.8352 H   0  0  0  0  0  0  0  0  0  0  0  0
    5.6953   -7.4828    4.7426 H   0  0  0  0  0  0  0  0  0  0  0  0
    5.8153   -4.7582    4.5492 H   0  0  0  0  0  0  0  0  0  0  0  0
    9.0416   -6.2512    4.2133 H   0  0  0  0  0  0  0  0  0  0  0  0
    7.7308   -6.8316    5.2190 H   0  0  0  0  0  0  0  0  0  0  0  0
    8.1001   -5.1060    5.1608 H   0  0  0  0  0  0  0  0  0  0  0  0
    6.6203   -3.6342    2.4810 H   0  0  0  0  0  0  0  0  0  0  0  0
    6.2727   -1.8628    1.4384 H   0  0  0  0  0  0  0  0  0  0  0  0
    4.3108   -1.0673    1.9242 H   0  0  0  0  0  0  0  0  0  0  0  0
    5.3263   -0.3102    0.0266 H   0  0  0  0  0  0  0  0  0  0  0  0
    2.9542   -1.0977   -1.4536 H   0  0  0  0  0  0  0  0  0  0  0  0
    3.8466    0.3512   -2.5780 H   0  0  0  0  0  0  0  0  0  0  0  0
    4.4854   -3.7402   -3.1030 H   0  0  0  0  0  0  0  0  0  0  0  0
    2.9776   -4.1709   -1.7893 H   0  0  0  0  0  0  0  0  0  0  0  0
    4.7889   -5.7159   -0.4693 H   0  0  0  0  0  0  0  0  0  0  0  0
    5.0100   -5.1940   -2.0247 H   0  0  0  0  0  0  0  0  0  0  0  0
    6.7814   -3.9243   -1.5427 H   0  0  0  0  0  0  0  0  0  0  0  0
    8.2710   -2.6928    0.5744 H   0  0  0  0  0  0  0  0  0  0  0  0
    8.9048   -4.0911   -0.2751 H   0  0  0  0  0  0  0  0  0  0  0  0
    8.8487   -4.0899    1.4812 H   0  0  0  0  0  0  0  0  0  0  0  0
    6.4420   -6.3179    0.5034 H   0  0  0  0  0  0  0  0  0  0  0  0
  1  2  1  0
  1 32  1  0
  1 33  1  0
  1 34  1  0
  2  3  1  0
  3 19  1  0
  3  4  1  0
  3 35  1  6
  4 25  1  0
  4  5  1  0
  4 36  1  6
  5 15  1  0
  5  6  1  0
  5 37  1  1
  6  7  1  0
  6 38  1  0
  6 39  1  0
  7 14  1  0
  7  8  1  0
  7 40  1  6
  8  9  1  0
  8 10  1  0
  9 41  1  0
  9 42  1  0
  9 43  1  0
 10 11  1  0
 10 44  1  0
 10 45  1  0
 11 12  1  0
 11 14  1  0
 11 46  1  1
 12 13  1  0
 13 47  1  0
 13 48  1  0
 13 49  1  0
 14 15  1  1
 14 17  1  0
 15 16  2  0
 17 28  1  0
 17 18  1  0
 17 50  1  1
 18 31  1  0
 18 19  1  0
 18 51  1  1
 19 20  1  0
 19 52  1  1
 20 31  1  0
 20 21  1  0
 20 53  1  1
 21 22  1  0
 21 23  1  0
 21 54  1  1
 22 55  1  0
 31 23  1  6
 23 24  1  6
 23 25  1  0
 24 56  1  0
 25 26  1  0
 25 57  1  6
 26 27  1  0
 26 58  1  0
 26 59  1  0
 27 28  1  0
 27 31  1  0
 27 60  1  6
 28 29  1  0
 28 30  1  6
 29 61  1  0
 29 62  1  0
 29 63  1  0
 30 64  1  0
M  END
>  <i_m_ct_stereo_status>  (106) 
1

>  <s_m_source_file>  (106) 
/var/tmp/pbs.5076255.sched01/tmpcsrx8n8z/40wzjmt8mb.sdf

>  <i_m_source_file_index>  (106) 
6

>  <i_lp_mmshare_version>  (106) 
48012

>  <i_f3d_flags>  (106) 
2

>  <s_epik_input>  (106) 
W0NIM11PW0NASF0xW0NASF0oW0NAQEhdMltDQEhdM1tPSF0pW0NAQEhdKFtDQEBIXTRbQ0BAXShbQ0gzXSkoW09IXSlbQ0BIXTVbQ0gyXTYpQzI1W0NAQF0zKFtPSF0pW0NAQEhdNltDQEhdMVtDQEhdKEM3PU8pW0NIMl1bQ0BASF0oW0NAQF00NzgpTihbQ0gzXSlbQ0gyXVtDQEhdOE9bQ0gzXQ==

>  <s_epik_cmdline>  (106) 
J2VwaWtfcHl0aG9uJywgJy1waHQnLCAnMi4wJywgJy1waCcsICc3LjAnLCAnLXRuJywgJzgnLCAnLW1hJywgJzIwMCcsICctaW1hZScsICc8aW5maWxlLm1hZT4nLCAnLW9tYWUnLCAnPG91dGZpbGUubWFlPic=

>  <r_epik_Ionization_Penalty>  (106) 
2.13238

>  <r_epik_Ionization_Penalty_Charging>  (106) 
0

>  <r_epik_Ionization_Penalty_Neutral>  (106) 
2.13238

>  <r_epik_State_Penalty>  (106) 
2.27086

>  <r_epik_Charging_Adjusted_Penalty>  (106) 
2.27086

>  <i_epik_Tot_Q>  (106) 
0

>  <i_epik_Tot_abs_Q>  (106) 
0

>  <s_lp_Force_Field>  (106) 
OPLS3e

>  <r_lp_Energy>  (106) 
287.775

>  <b_lp_Chiralities_Consistent>  (106) 
0

>  <s_lp_Variant>  (106) 
28:0-2

>  <s_i_glide_gridfile>  (106) 
pfpi4k_grid

>  <i_i_glide_lignum>  (106) 
6

>  <i_i_glide_rotatable_bonds>  (106) 
5

>  <r_i_docking_score>  (106) 
-2.50237

>  <r_i_glide_ligand_efficiency>  (106) 
-0.0807215

>  <r_i_glide_ligand_efficiency_sa>  (106) 
-0.253577

>  <r_i_glide_ligand_efficiency_ln>  (106) 
-0.56436

>  <r_i_glide_gscore>  (106) 
-2.50237

>  <r_i_glide_lipo>  (106) 
-0.555668

>  <r_i_glide_hbond>  (106) 
0

>  <r_i_glide_metal>  (106) 
-0

>  <r_i_glide_rewards>  (106) 
-0.466896

>  <r_i_glide_evdw>  (106) 
-18.9245

>  <r_i_glide_ecoul>  (106) 
-3.55719

>  <r_i_glide_erotb>  (106) 
0

>  <r_i_glide_esite>  (106) 
0

>  <r_i_glide_emodel>  (106) 
-24.3351

>  <r_i_glide_energy>  (106) 
-22.4817

>  <r_i_glide_einternal>  (106) 
3.07685

>  <r_i_glide_intrahb_reward>  (106) 
-0

>  <i_i_glide_confnum>  (106) 
2

>  <i_i_glide_posenum>  (106) 
32

>  <r_i_glide_eff_state_penalty>  (106) 
0

>  <ligand_id>  (106) 
28

>  <original_smiles>  (106) 
COC1C2C3CC4N(C)CC(OC)C4(C3=O)C3C4C1C1C(O)C5(O)C2CC(C3(C)O)C415

>  <smiles>  (106) 
[H]OC1([H])C2([H])C3([H])C([H])(OC([H])([H])[H])C4([H])C5([H])C(=O)C6(C([H])(OC([H])([H])[H])C([H])([H])N(C([H])([H])[H])C6([H])C5([H])[H])C5([H])C3([H])C23C([H])(C([H])([H])C4([H])C13O[H])C5(O[H])C([H])([H])[H]

$$$$
29:0:0
     RDKit          3D

 55 60  0  0  1  0  0  0  0  0999 V2000
    2.9630   -2.8162   -2.2278 C   0  0  0  0  0  0  0  0  0  0  0  0
    4.0872   -2.6655   -1.5076 C   0  0  0  0  0  0  0  0  0  0  0  0
    5.4451   -2.5959   -2.2156 C   0  0  0  0  0  0  0  0  0  0  0  0
    6.5916   -2.2644   -1.4087 O   0  0  0  0  0  0  0  0  0  0  0  0
    6.7622   -2.8704   -0.1155 C   0  0  1  0  0  0  0  0  0  0  0  0
    6.1151   -1.9158    0.9241 C   0  0  1  0  0  0  0  0  0  0  0  0
    4.8322   -1.2606    0.4188 C   0  0  0  0  0  0  0  0  0  0  0  0
    4.0339   -2.4984    0.0122 C   0  0  2  0  0  0  0  0  0  0  0  0
    4.7622   -3.6174    0.8341 C   0  0  2  0  0  0  0  0  0  0  0  0
    5.4628   -2.8220    1.7807 O   0  0  0  0  0  0  0  0  0  0  0  0
    5.9776   -4.1895    0.0863 C   0  0  2  0  0  0  0  0  0  0  0  0
    6.7027   -5.3238    0.8611 C   0  0  0  0  0  0  0  0  0  0  0  0
    6.2788   -5.4940    2.3264 C   0  0  0  0  0  0  0  0  0  0  0  0
    4.7437   -5.6018    2.5016 C   0  0  1  0  0  0  0  0  0  0  0  0
    4.2147   -5.3986    3.9543 C   0  0  0  0  0  0  0  0  0  0  0  0
    4.2744   -6.6938    4.7894 C   0  0  0  0  0  0  0  0  0  0  0  0
    4.9214   -4.2640    4.7452 C   0  0  0  0  0  0  0  0  0  0  0  0
    2.7472   -4.9799    3.6829 C   0  0  0  0  0  0  0  0  0  0  0  0
    2.8156   -4.0657    2.4505 C   0  0  0  0  0  0  0  0  0  0  0  0
    3.8934   -4.6969    1.5493 C   0  0  1  0  0  0  0  0  0  0  0  0
    3.1929   -5.5630    0.4776 C   0  0  0  0  0  0  0  0  0  0  0  0
    1.9656   -6.0844    3.3675 O   0  0  0  0  0  0  0  0  0  0  0  0
    0.6822   -5.8441    3.9113 C   0  0  0  0  0  0  0  0  0  0  0  0
    0.7782   -4.4580    4.5503 C   0  0  0  0  0  0  0  0  0  0  0  0
    2.1651   -4.3208    4.7571 O   0  0  0  0  0  0  0  0  0  0  0  0
    1.9911   -2.8376   -1.7566 H   0  0  0  0  0  0  0  0  0  0  0  0
    2.9926   -2.9121   -3.3036 H   0  0  0  0  0  0  0  0  0  0  0  0
    5.6195   -3.5288   -2.7571 H   0  0  0  0  0  0  0  0  0  0  0  0
    5.3695   -1.8278   -2.9877 H   0  0  0  0  0  0  0  0  0  0  0  0
    7.8258   -2.9992    0.0915 H   0  0  0  0  0  0  0  0  0  0  0  0
    6.8044   -1.2313    1.4207 H   0  0  0  0  0  0  0  0  0  0  0  0
    4.3362   -0.7414    1.2393 H   0  0  0  0  0  0  0  0  0  0  0  0
    4.9834   -0.5346   -0.3826 H   0  0  0  0  0  0  0  0  0  0  0  0
    2.9994   -2.3741    0.3288 H   0  0  0  0  0  0  0  0  0  0  0  0
    5.6915   -4.6503   -0.8557 H   0  0  0  0  0  0  0  0  0  0  0  0
    6.4862   -6.2632    0.3605 H   0  0  0  0  0  0  0  0  0  0  0  0
    7.7824   -5.2074    0.8011 H   0  0  0  0  0  0  0  0  0  0  0  0
    6.7672   -6.3714    2.7532 H   0  0  0  0  0  0  0  0  0  0  0  0
    6.6745   -4.6556    2.8768 H   0  0  0  0  0  0  0  0  0  0  0  0
    4.5143   -6.6351    2.2370 H   0  0  0  0  0  0  0  0  0  0  0  0
    3.7838   -6.5690    5.7547 H   0  0  0  0  0  0  0  0  0  0  0  0
    5.3063   -6.9865    4.9811 H   0  0  0  0  0  0  0  0  0  0  0  0
    3.7961   -7.5319    4.2829 H   0  0  0  0  0  0  0  0  0  0  0  0
    4.4389   -4.0946    5.7088 H   0  0  0  0  0  0  0  0  0  0  0  0
    4.9147   -3.3126    4.2148 H   0  0  0  0  0  0  0  0  0  0  0  0
    5.9580   -4.5074    4.9750 H   0  0  0  0  0  0  0  0  0  0  0  0
    1.8434   -3.9773    1.9677 H   0  0  0  0  0  0  0  0  0  0  0  0
    3.1182   -3.0686    2.7790 H   0  0  0  0  0  0  0  0  0  0  0  0
    2.5587   -6.3266    0.9275 H   0  0  0  0  0  0  0  0  0  0  0  0
    3.9123   -6.0858   -0.1547 H   0  0  0  0  0  0  0  0  0  0  0  0
    2.5604   -4.9630   -0.1768 H   0  0  0  0  0  0  0  0  0  0  0  0
   -0.0752   -5.8853    3.1296 H   0  0  0  0  0  0  0  0  0  0  0  0
    0.4597   -6.6122    4.6501 H   0  0  0  0  0  0  0  0  0  0  0  0
    0.4429   -3.6830    3.8602 H   0  0  0  0  0  0  0  0  0  0  0  0
    0.2015   -4.3636    5.4691 H   0  0  0  0  0  0  0  0  0  0  0  0
  1  2  2  0
  1 26  1  0
  1 27  1  0
  2  8  1  0
  2  3  1  0
  3  4  1  0
  3 28  1  0
  3 29  1  0
  4  5  1  0
  5 11  1  0
  5  6  1  0
  5 30  1  1
  6 10  1  0
  6  7  1  0
  6 31  1  1
  7  8  1  0
  7 32  1  0
  7 33  1  0
  8  9  1  0
  8 34  1  1
  9 20  1  0
  9 10  1  1
  9 11  1  0
 11 12  1  0
 11 35  1  6
 12 13  1  0
 12 36  1  0
 12 37  1  0
 13 14  1  0
 13 38  1  0
 13 39  1  0
 14 20  1  0
 14 15  1  0
 14 40  1  6
 15 16  1  0
 15 17  1  0
 15 18  1  0
 16 41  1  0
 16 42  1  0
 16 43  1  0
 17 44  1  0
 17 45  1  0
 17 46  1  0
 18 25  1  0
 18 19  1  0
 18 22  1  0
 19 20  1  0
 19 47  1  0
 19 48  1  0
 20 21  1  6
 21 49  1  0
 21 50  1  0
 21 51  1  0
 22 23  1  0
 23 24  1  0
 23 52  1  0
 23 53  1  0
 24 25  1  0
 24 54  1  0
 24 55  1  0
M  END
>  <i_m_ct_stereo_status>  (107) 
1

>  <s_m_source_file>  (107) 
/var/tmp/pbs.5076255.sched01/tmpcsrx8n8z/40wzjmt8mb.sdf

>  <i_m_source_file_index>  (107) 
7

>  <i_lp_mmshare_version>  (107) 
48012

>  <i_f3d_flags>  (107) 
0

>  <s_epik_input>  (107) 
W0NAQF0xMjNbQ0BASF00Qyg9W0NIMl0pW0NIMl1PW0NAQEhdKFtDQEhdKE8xKVtDSDJdNClbQ0BIXTJbQ0gyXVtDSDJdW0NAQEhdNVtDQEBdMyhbQ0gzXSlbQ0gyXUM2KEM1KFtDSDNdKVtDSDNdKU9bQ0gyXVtDSDJdTzY=

>  <s_epik_cmdline>  (107) 
J2VwaWtfcHl0aG9uJywgJy1waHQnLCAnMi4wJywgJy1waCcsICc3LjAnLCAnLXRuJywgJzgnLCAnLW1hJywgJzIwMCcsICctaW1hZScsICc8aW5maWxlLm1hZT4nLCAnLW9tYWUnLCAnPG91dGZpbGUubWFlPic=

>  <r_lp_tautomer_probability>  (107) 
1

>  <r_epik_Ionization_Penalty>  (107) 
4.06515e-12

>  <r_epik_Ionization_Penalty_Charging>  (107) 
0

>  <r_epik_Ionization_Penalty_Neutral>  (107) 
4.06515e-12

>  <r_epik_State_Penalty>  (107) 
-0

>  <r_epik_Charging_Adjusted_Penalty>  (107) 
0

>  <i_epik_Tot_Q>  (107) 
0

>  <i_epik_Tot_abs_Q>  (107) 
0

>  <s_lp_Force_Field>  (107) 
OPLS3e

>  <r_lp_Energy>  (107) 
45.5059

>  <b_lp_Chiralities_Consistent>  (107) 
1

>  <s_lp_Variant>  (107) 
29:0-1

>  <s_i_glide_gridfile>  (107) 
pfpi4k_grid

>  <i_i_glide_lignum>  (107) 
7

>  <i_i_glide_rotatable_bonds>  (107) 
0

>  <r_i_docking_score>  (107) 
-3.27331

>  <r_i_glide_ligand_efficiency>  (107) 
-0.130933

>  <r_i_glide_ligand_efficiency_sa>  (107) 
-0.382849

>  <r_i_glide_ligand_efficiency_ln>  (107) 
-0.775874

>  <r_i_glide_gscore>  (107) 
-3.27331

>  <r_i_glide_lipo>  (107) 
-0.540242

>  <r_i_glide_hbond>  (107) 
-0.156555

>  <r_i_glide_metal>  (107) 
-0

>  <r_i_glide_rewards>  (107) 
-1.04686

>  <r_i_glide_evdw>  (107) 
-25.004

>  <r_i_glide_ecoul>  (107) 
-1.86306

>  <r_i_glide_erotb>  (107) 
0

>  <r_i_glide_esite>  (107) 
0

>  <r_i_glide_emodel>  (107) 
-32.1

>  <r_i_glide_energy>  (107) 
-26.867

>  <r_i_glide_einternal>  (107) 
0

>  <r_i_glide_intrahb_reward>  (107) 
-0

>  <i_i_glide_confnum>  (107) 
6

>  <i_i_glide_posenum>  (107) 
7

>  <r_i_glide_eff_state_penalty>  (107) 
0

>  <ligand_id>  (107) 
29

>  <original_smiles>  (107) 
C=C1COC2C3CC1C1(O3)C2CCC2C(C)(C)C3(CC21C)OCCO3

>  <smiles>  (107) 
[H]C([H])=C1C([H])([H])OC2([H])C3([H])OC4(C1([H])C3([H])[H])C2([H])C([H])([H])C([H])([H])C1([H])C(C([H])([H])[H])(C([H])([H])[H])C2(OC([H])([H])C([H])([H])O2)C([H])([H])C14C([H])([H])[H]

$$$$
29:0:1
     RDKit          3D

 55 60  0  0  1  0  0  0  0  0999 V2000
    2.6148   -2.9265   -2.7492 C   0  0  0  0  0  0  0  0  0  0  0  0
    3.8179   -2.8179   -2.1614 C   0  0  0  0  0  0  0  0  0  0  0  0
    5.0779   -3.2520   -2.9191 C   0  0  0  0  0  0  0  0  0  0  0  0
    6.3439   -2.9622   -2.2982 O   0  0  0  0  0  0  0  0  0  0  0  0
    6.5401   -3.1899   -0.8949 C   0  0  1  0  0  0  0  0  0  0  0  0
    6.2079   -1.8622   -0.1647 C   0  0  1  0  0  0  0  0  0  0  0  0
    5.0316   -1.1162   -0.7903 C   0  0  0  0  0  0  0  0  0  0  0  0
    3.9667   -2.2131   -0.7635 C   0  0  2  0  0  0  0  0  0  0  0  0
    4.5477   -3.1779    0.3257 C   0  0  2  0  0  0  0  0  0  0  0  0
    5.4866   -2.3149    0.9517 O   0  0  0  0  0  0  0  0  0  0  0  0
    5.5422   -4.1955   -0.2692 C   0  0  2  0  0  0  0  0  0  0  0  0
    6.1165   -5.1913    0.7759 C   0  0  0  0  0  0  0  0  0  0  0  0
    5.8469   -4.8104    2.2360 C   0  0  0  0  0  0  0  0  0  0  0  0
    4.3470   -4.5343    2.5154 C   0  0  1  0  0  0  0  0  0  0  0  0
    4.0258   -3.8212    3.8664 C   0  0  0  0  0  0  0  0  0  0  0  0
    3.9548   -4.8147    5.0466 C   0  0  0  0  0  0  0  0  0  0  0  0
    5.0091   -2.6816    4.2377 C   0  0  0  0  0  0  0  0  0  0  0  0
    2.6371   -3.2011    3.5571 C   0  0  0  0  0  0  0  0  0  0  0  0
    2.7376   -2.7076    2.1072 C   0  0  0  0  0  0  0  0  0  0  0  0
    3.5733   -3.7870    1.3759 C   0  0  1  0  0  0  0  0  0  0  0  0
    2.6181   -4.7598    0.6427 C   0  0  0  0  0  0  0  0  0  0  0  0
    1.6423   -4.1736    3.6300 O   0  0  0  0  0  0  0  0  0  0  0  0
    0.6130   -3.6190    4.4145 C   0  0  0  0  0  0  0  0  0  0  0  0
    1.3492   -2.6388    5.3066 C   0  0  0  0  0  0  0  0  0  0  0  0
    2.3144   -2.1434    4.4070 O   0  0  0  0  0  0  0  0  0  0  0  0
    1.7139   -2.6119   -2.2450 H   0  0  0  0  0  0  0  0  0  0  0  0
    2.5119   -3.3336   -3.7449 H   0  0  0  0  0  0  0  0  0  0  0  0
    5.0102   -4.3140   -3.1565 H   0  0  0  0  0  0  0  0  0  0  0  0
    5.0680   -2.7432   -3.8849 H   0  0  0  0  0  0  0  0  0  0  0  0
    7.5761   -3.4827   -0.7132 H   0  0  0  0  0  0  0  0  0  0  0  0
    7.0670   -1.2367    0.0760 H   0  0  0  0  0  0  0  0  0  0  0  0
    4.7379   -0.2848   -0.1475 H   0  0  0  0  0  0  0  0  0  0  0  0
    5.2349   -0.7078   -1.7816 H   0  0  0  0  0  0  0  0  0  0  0  0
    3.0172   -1.7824   -0.4490 H   0  0  0  0  0  0  0  0  0  0  0  0
    5.0761   -4.8362   -1.0158 H   0  0  0  0  0  0  0  0  0  0  0  0
    5.6733   -6.1711    0.6038 H   0  0  0  0  0  0  0  0  0  0  0  0
    7.1852   -5.3322    0.6310 H   0  0  0  0  0  0  0  0  0  0  0  0
    6.2038   -5.5995    2.8962 H   0  0  0  0  0  0  0  0  0  0  0  0
    6.4634   -3.9447    2.4624 H   0  0  0  0  0  0  0  0  0  0  0  0
    3.8998   -5.5269    2.5887 H   0  0  0  0  0  0  0  0  0  0  0  0
    3.6498   -4.3252    5.9694 H   0  0  0  0  0  0  0  0  0  0  0  0
    4.9274   -5.2628    5.2395 H   0  0  0  0  0  0  0  0  0  0  0  0
    3.2572   -5.6295    4.8545 H   0  0  0  0  0  0  0  0  0  0  0  0
    4.6726   -2.1362    5.1202 H   0  0  0  0  0  0  0  0  0  0  0  0
    5.1404   -1.9520    3.4406 H   0  0  0  0  0  0  0  0  0  0  0  0
    5.9853   -3.0783    4.4976 H   0  0  0  0  0  0  0  0  0  0  0  0
    1.7502   -2.5401    1.6806 H   0  0  0  0  0  0  0  0  0  0  0  0
    3.2638   -1.7496    2.1027 H   0  0  0  0  0  0  0  0  0  0  0  0
    1.9021   -5.2047    1.3346 H   0  0  0  0  0  0  0  0  0  0  0  0
    3.1582   -5.5840    0.1734 H   0  0  0  0  0  0  0  0  0  0  0  0
    2.0555   -4.2477   -0.1365 H   0  0  0  0  0  0  0  0  0  0  0  0
   -0.0865   -3.0786    3.7730 H   0  0  0  0  0  0  0  0  0  0  0  0
    0.0697   -4.3910    4.9620 H   0  0  0  0  0  0  0  0  0  0  0  0
    0.7054   -1.8539    5.7009 H   0  0  0  0  0  0  0  0  0  0  0  0
    1.8211   -3.1461    6.1457 H   0  0  0  0  0  0  0  0  0  0  0  0
  1  2  2  0
  1 26  1  0
  1 27  1  0
  2  8  1  0
  2  3  1  0
  3  4  1  0
  3 28  1  0
  3 29  1  0
  4  5  1  0
  5 11  1  0
  5  6  1  0
  5 30  1  6
  6 10  1  0
  6  7  1  0
  6 31  1  1
  7  8  1  0
  7 32  1  0
  7 33  1  0
  8  9  1  0
  8 34  1  1
  9 20  1  0
  9 10  1  1
  9 11  1  0
 11 12  1  0
 11 35  1  6
 12 13  1  0
 12 36  1  0
 12 37  1  0
 13 14  1  0
 13 38  1  0
 13 39  1  0
 14 20  1  0
 14 15  1  0
 14 40  1  1
 15 16  1  0
 15 17  1  0
 15 18  1  0
 16 41  1  0
 16 42  1  0
 16 43  1  0
 17 44  1  0
 17 45  1  0
 17 46  1  0
 18 25  1  0
 18 19  1  0
 18 22  1  0
 19 20  1  0
 19 47  1  0
 19 48  1  0
 20 21  1  6
 21 49  1  0
 21 50  1  0
 21 51  1  0
 22 23  1  0
 23 24  1  0
 23 52  1  0
 23 53  1  0
 24 25  1  0
 24 54  1  0
 24 55  1  0
M  END
>  <i_m_ct_stereo_status>  (108) 
1

>  <s_m_source_file>  (108) 
/var/tmp/pbs.5076255.sched01/tmpcsrx8n8z/40wzjmt8mb.sdf

>  <i_m_source_file_index>  (108) 
7

>  <i_lp_mmshare_version>  (108) 
48012

>  <i_f3d_flags>  (108) 
0

>  <s_epik_input>  (108) 
W0NAQF0xMjNbQ0BASF00Qyg9W0NIMl0pW0NIMl1PW0NAQEhdKFtDQEhdKE8xKVtDSDJdNClbQ0BIXTJbQ0gyXVtDSDJdW0NAQEhdNVtDQEBdMyhbQ0gzXSlbQ0gyXUM2KEM1KFtDSDNdKVtDSDNdKU9bQ0gyXVtDSDJdTzY=

>  <s_epik_cmdline>  (108) 
J2VwaWtfcHl0aG9uJywgJy1waHQnLCAnMi4wJywgJy1waCcsICc3LjAnLCAnLXRuJywgJzgnLCAnLW1hJywgJzIwMCcsICctaW1hZScsICc8aW5maWxlLm1hZT4nLCAnLW9tYWUnLCAnPG91dGZpbGUubWFlPic=

>  <r_lp_tautomer_probability>  (108) 
1

>  <r_epik_Ionization_Penalty>  (108) 
4.06515e-12

>  <r_epik_Ionization_Penalty_Charging>  (108) 
0

>  <r_epik_Ionization_Penalty_Neutral>  (108) 
4.06515e-12

>  <r_epik_State_Penalty>  (108) 
-0

>  <r_epik_Charging_Adjusted_Penalty>  (108) 
0

>  <i_epik_Tot_Q>  (108) 
0

>  <i_epik_Tot_abs_Q>  (108) 
0

>  <s_lp_Force_Field>  (108) 
OPLS3e

>  <r_lp_Energy>  (108) 
45.5059

>  <b_lp_Chiralities_Consistent>  (108) 
1

>  <s_lp_Variant>  (108) 
29:0-1

>  <s_i_glide_gridfile>  (108) 
pfpi4k_grid

>  <i_i_glide_lignum>  (108) 
7

>  <i_i_glide_rotatable_bonds>  (108) 
0

>  <r_i_docking_score>  (108) 
-3.01587

>  <r_i_glide_ligand_efficiency>  (108) 
-0.120635

>  <r_i_glide_ligand_efficiency_sa>  (108) 
-0.352738

>  <r_i_glide_ligand_efficiency_ln>  (108) 
-0.714851

>  <r_i_glide_gscore>  (108) 
-3.01587

>  <r_i_glide_lipo>  (108) 
-0.596426

>  <r_i_glide_hbond>  (108) 
0

>  <r_i_glide_metal>  (108) 
-0

>  <r_i_glide_rewards>  (108) 
-1.04876

>  <r_i_glide_evdw>  (108) 
-26.9305

>  <r_i_glide_ecoul>  (108) 
-0.161068

>  <r_i_glide_erotb>  (108) 
0

>  <r_i_glide_esite>  (108) 
0

>  <r_i_glide_emodel>  (108) 
-31.9006

>  <r_i_glide_energy>  (108) 
-27.0915

>  <r_i_glide_einternal>  (108) 
0

>  <r_i_glide_intrahb_reward>  (108) 
-0

>  <i_i_glide_confnum>  (108) 
4

>  <i_i_glide_posenum>  (108) 
16

>  <r_i_glide_eff_state_penalty>  (108) 
0

>  <ligand_id>  (108) 
29

>  <original_smiles>  (108) 
C=C1COC2C3CC1C1(O3)C2CCC2C(C)(C)C3(CC21C)OCCO3

>  <smiles>  (108) 
[H]C([H])=C1C([H])([H])OC2([H])C3([H])OC4(C1([H])C3([H])[H])C2([H])C([H])([H])C([H])([H])C1([H])C(C([H])([H])[H])(C([H])([H])[H])C2(OC([H])([H])C([H])([H])O2)C([H])([H])C14C([H])([H])[H]

$$$$
29:0:2
     RDKit          3D

 55 60  0  0  1  0  0  0  0  0999 V2000
    3.3240   -2.8200   -1.9050 C   0  0  0  0  0  0  0  0  0  0  0  0
    4.3796   -2.8048   -1.0763 C   0  0  0  0  0  0  0  0  0  0  0  0
    5.3891   -3.9596   -1.1005 C   0  0  0  0  0  0  0  0  0  0  0  0
    6.5787   -3.8155   -0.3038 O   0  0  0  0  0  0  0  0  0  0  0  0
    6.5096   -3.2713    1.0213 C   0  0  1  0  0  0  0  0  0  0  0  0
    6.7305   -1.7415    0.8982 C   0  0  1  0  0  0  0  0  0  0  0  0
    6.0672   -1.1467   -0.3283 C   0  0  0  0  0  0  0  0  0  0  0  0
    4.6347   -1.6157   -0.1484 C   0  0  2  0  0  0  0  0  0  0  0  0
    4.6273   -1.9373    1.3833 C   0  0  2  0  0  0  0  0  0  0  0  0
    5.7855   -1.2289    1.8004 O   0  0  0  0  0  0  0  0  0  0  0  0
    5.1149   -3.3662    1.6808 C   0  0  2  0  0  0  0  0  0  0  0  0
    5.0727   -3.7279    3.1897 C   0  0  0  0  0  0  0  0  0  0  0  0
    4.8618   -2.5355    4.1362 C   0  0  0  0  0  0  0  0  0  0  0  0
    3.6236   -1.6861    3.7499 C   0  0  1  0  0  0  0  0  0  0  0  0
    3.5148   -0.2820    4.4162 C   0  0  0  0  0  0  0  0  0  0  0  0
    2.8702   -0.3430    5.8155 C   0  0  0  0  0  0  0  0  0  0  0  0
    4.8667    0.4728    4.5221 C   0  0  0  0  0  0  0  0  0  0  0  0
    2.5953    0.4649    3.4122 C   0  0  0  0  0  0  0  0  0  0  0  0
    3.0520   -0.0117    2.0253 C   0  0  0  0  0  0  0  0  0  0  0  0
    3.3921   -1.5048    2.2137 C   0  0  1  0  0  0  0  0  0  0  0  0
    2.1929   -2.3501    1.7508 C   0  0  0  0  0  0  0  0  0  0  0  0
    1.2650    0.0980    3.5896 O   0  0  0  0  0  0  0  0  0  0  0  0
    0.4898    1.2483    3.3022 C   0  0  0  0  0  0  0  0  0  0  0  0
    1.5062    2.3274    2.9224 C   0  0  0  0  0  0  0  0  0  0  0  0
    2.6872    1.8434    3.5236 O   0  0  0  0  0  0  0  0  0  0  0  0
    2.6141   -2.0069   -1.9252 H   0  0  0  0  0  0  0  0  0  0  0  0
    3.1564   -3.6511   -2.5771 H   0  0  0  0  0  0  0  0  0  0  0  0
    4.8780   -4.8854   -0.8345 H   0  0  0  0  0  0  0  0  0  0  0  0
    5.7173   -4.0997   -2.1334 H   0  0  0  0  0  0  0  0  0  0  0  0
    7.2861   -3.7211    1.6429 H   0  0  0  0  0  0  0  0  0  0  0  0
    7.7523   -1.3953    1.0541 H   0  0  0  0  0  0  0  0  0  0  0  0
    6.1244   -0.0612   -0.2729 H   0  0  0  0  0  0  0  0  0  0  0  0
    6.5193   -1.4719   -1.2648 H   0  0  0  0  0  0  0  0  0  0  0  0
    3.9551   -0.8013   -0.3968 H   0  0  0  0  0  0  0  0  0  0  0  0
    4.4918   -4.1200    1.2071 H   0  0  0  0  0  0  0  0  0  0  0  0
    4.2558   -4.4260    3.3551 H   0  0  0  0  0  0  0  0  0  0  0  0
    5.9693   -4.2707    3.4783 H   0  0  0  0  0  0  0  0  0  0  0  0
    4.7527   -2.8908    5.1606 H   0  0  0  0  0  0  0  0  0  0  0  0
    5.7732   -1.9421    4.1320 H   0  0  0  0  0  0  0  0  0  0  0  0
    2.7727   -2.2590    4.1190 H   0  0  0  0  0  0  0  0  0  0  0  0
    2.6921    0.6565    6.2121 H   0  0  0  0  0  0  0  0  0  0  0  0
    3.5174   -0.8675    6.5191 H   0  0  0  0  0  0  0  0  0  0  0  0
    1.9153   -0.8707    5.8065 H   0  0  0  0  0  0  0  0  0  0  0  0
    4.7232    1.4901    4.8876 H   0  0  0  0  0  0  0  0  0  0  0  0
    5.3802    0.5432    3.5651 H   0  0  0  0  0  0  0  0  0  0  0  0
    5.5484   -0.0037    5.2258 H   0  0  0  0  0  0  0  0  0  0  0  0
    2.2891    0.1688    1.2664 H   0  0  0  0  0  0  0  0  0  0  0  0
    3.9410    0.5562    1.7429 H   0  0  0  0  0  0  0  0  0  0  0  0
    1.2835   -2.0604    2.2790 H   0  0  0  0  0  0  0  0  0  0  0  0
    2.3411   -3.4137    1.9300 H   0  0  0  0  0  0  0  0  0  0  0  0
    1.9957   -2.2213    0.6884 H   0  0  0  0  0  0  0  0  0  0  0  0
   -0.2227    1.0531    2.5004 H   0  0  0  0  0  0  0  0  0  0  0  0
   -0.0623    1.5275    4.1988 H   0  0  0  0  0  0  0  0  0  0  0  0
    1.6402    2.3780    1.8405 H   0  0  0  0  0  0  0  0  0  0  0  0
    1.2350    3.3231    3.2746 H   0  0  0  0  0  0  0  0  0  0  0  0
  1  2  2  0
  1 26  1  0
  1 27  1  0
  2  8  1  0
  2  3  1  0
  3  4  1  0
  3 28  1  0
  3 29  1  0
  4  5  1  0
  5 11  1  0
  5  6  1  0
  5 30  1  1
  6 10  1  0
  6  7  1  0
  6 31  1  1
  7  8  1  0
  7 32  1  0
  7 33  1  0
  8  9  1  0
  8 34  1  1
  9 20  1  0
  9 10  1  1
  9 11  1  0
 11 12  1  0
 11 35  1  6
 12 13  1  0
 12 36  1  0
 12 37  1  0
 13 14  1  0
 13 38  1  0
 13 39  1  0
 14 20  1  0
 14 15  1  0
 14 40  1  1
 15 16  1  0
 15 17  1  0
 15 18  1  0
 16 41  1  0
 16 42  1  0
 16 43  1  0
 17 44  1  0
 17 45  1  0
 17 46  1  0
 18 25  1  0
 18 19  1  0
 18 22  1  0
 19 20  1  0
 19 47  1  0
 19 48  1  0
 20 21  1  6
 21 49  1  0
 21 50  1  0
 21 51  1  0
 22 23  1  0
 23 24  1  0
 23 52  1  0
 23 53  1  0
 24 25  1  0
 24 54  1  0
 24 55  1  0
M  END
>  <i_m_ct_stereo_status>  (109) 
1

>  <s_m_source_file>  (109) 
/var/tmp/pbs.5076255.sched01/tmpcsrx8n8z/40wzjmt8mb.sdf

>  <i_m_source_file_index>  (109) 
7

>  <i_lp_mmshare_version>  (109) 
48012

>  <i_f3d_flags>  (109) 
0

>  <s_epik_input>  (109) 
W0NAQF0xMjNbQ0BASF00Qyg9W0NIMl0pW0NIMl1PW0NAQEhdKFtDQEhdKE8xKVtDSDJdNClbQ0BIXTJbQ0gyXVtDSDJdW0NAQEhdNVtDQEBdMyhbQ0gzXSlbQ0gyXUM2KEM1KFtDSDNdKVtDSDNdKU9bQ0gyXVtDSDJdTzY=

>  <s_epik_cmdline>  (109) 
J2VwaWtfcHl0aG9uJywgJy1waHQnLCAnMi4wJywgJy1waCcsICc3LjAnLCAnLXRuJywgJzgnLCAnLW1hJywgJzIwMCcsICctaW1hZScsICc8aW5maWxlLm1hZT4nLCAnLW9tYWUnLCAnPG91dGZpbGUubWFlPic=

>  <r_lp_tautomer_probability>  (109) 
1

>  <r_epik_Ionization_Penalty>  (109) 
4.06515e-12

>  <r_epik_Ionization_Penalty_Charging>  (109) 
0

>  <r_epik_Ionization_Penalty_Neutral>  (109) 
4.06515e-12

>  <r_epik_State_Penalty>  (109) 
-0

>  <r_epik_Charging_Adjusted_Penalty>  (109) 
0

>  <i_epik_Tot_Q>  (109) 
0

>  <i_epik_Tot_abs_Q>  (109) 
0

>  <s_lp_Force_Field>  (109) 
OPLS3e

>  <r_lp_Energy>  (109) 
45.5059

>  <b_lp_Chiralities_Consistent>  (109) 
1

>  <s_lp_Variant>  (109) 
29:0-1

>  <s_i_glide_gridfile>  (109) 
pfpi4k_grid

>  <i_i_glide_lignum>  (109) 
7

>  <i_i_glide_rotatable_bonds>  (109) 
0

>  <r_i_docking_score>  (109) 
-2.74968

>  <r_i_glide_ligand_efficiency>  (109) 
-0.109987

>  <r_i_glide_ligand_efficiency_sa>  (109) 
-0.321605

>  <r_i_glide_ligand_efficiency_ln>  (109) 
-0.651758

>  <r_i_glide_gscore>  (109) 
-2.74968

>  <r_i_glide_lipo>  (109) 
-0.341916

>  <r_i_glide_hbond>  (109) 
0

>  <r_i_glide_metal>  (109) 
-0

>  <r_i_glide_rewards>  (109) 
-1.04686

>  <r_i_glide_evdw>  (109) 
-23.9672

>  <r_i_glide_ecoul>  (109) 
-1.06539

>  <r_i_glide_erotb>  (109) 
0

>  <r_i_glide_esite>  (109) 
-0.00273968

>  <r_i_glide_emodel>  (109) 
-29.3806

>  <r_i_glide_energy>  (109) 
-25.0326

>  <r_i_glide_einternal>  (109) 
0

>  <r_i_glide_intrahb_reward>  (109) 
-0

>  <i_i_glide_confnum>  (109) 
3

>  <i_i_glide_posenum>  (109) 
26

>  <r_i_glide_eff_state_penalty>  (109) 
0

>  <ligand_id>  (109) 
29

>  <original_smiles>  (109) 
C=C1COC2C3CC1C1(O3)C2CCC2C(C)(C)C3(CC21C)OCCO3

>  <smiles>  (109) 
[H]C([H])=C1C([H])([H])OC2([H])C3([H])OC4(C1([H])C3([H])[H])C2([H])C([H])([H])C([H])([H])C1([H])C(C([H])([H])[H])(C([H])([H])[H])C2(OC([H])([H])C([H])([H])O2)C([H])([H])C14C([H])([H])[H]

$$$$
30:0:0
     RDKit          3D

 64 67  0  0  1  0  0  0  0  0999 V2000
    4.8747   -3.3616   -3.3330 C   0  0  0  0  0  0  0  0  0  0  0  0
    4.0614   -2.9689   -2.3642 C   0  0  0  0  0  0  0  0  0  0  0  0
    2.5607   -2.7029   -2.5357 C   0  0  1  0  0  0  0  0  0  0  0  0
    2.0832   -2.8821   -3.9750 C   0  0  0  0  0  0  0  0  0  0  0  0
    1.7477   -3.5711   -1.5698 C   0  0  0  0  0  0  0  0  0  0  0  0
    2.2700   -3.5179   -0.1255 C   0  0  0  0  0  0  0  0  0  0  0  0
    3.7904   -3.7066    0.0549 C   0  0  1  0  0  0  0  0  0  0  0  0
    4.0550   -5.0557   -0.3112 O   0  0  0  0  0  0  0  0  0  0  0  0
    4.5620   -2.8235   -0.9388 C   0  0  2  0  0  0  0  0  0  0  0  0
    4.5269   -1.3693   -0.4926 C   0  0  0  0  0  0  0  0  0  0  0  0
    5.2178   -1.2641    0.8550 C   0  0  1  0  0  0  0  0  0  0  0  0
    5.3054    0.0956    1.1425 O   0  0  0  0  0  0  0  0  0  0  0  0
    4.5624   -2.0774    2.0219 C   0  0  2  0  0  0  0  0  0  0  0  0
    5.6449   -2.1166    3.1006 C   0  0  0  0  0  0  0  0  0  0  0  0
    4.3135   -3.5489    1.5277 C   0  0  1  0  0  0  0  0  0  0  0  0
    3.5677   -4.4269    2.5830 C   0  0  1  0  0  0  0  0  0  0  0  0
    4.4631   -5.3947    3.0715 O   0  0  0  0  0  0  0  0  0  0  0  0
    2.9814   -3.7126    3.8247 C   0  0  0  0  0  0  0  0  0  0  0  0
    2.4257   -2.2905    3.5592 C   0  0  2  0  0  0  0  0  0  0  0  0
    1.1897   -2.5147    2.9184 O   0  0  0  0  0  0  0  0  0  0  0  0
    3.2537   -1.4258    2.5709 C   0  0  1  0  0  0  0  0  0  0  0  0
    3.3250   -0.0160    3.2010 C   0  0  0  0  0  0  0  0  0  0  0  0
    2.1936    0.0326    4.2232 C   0  0  1  0  0  0  0  0  0  0  0  0
    0.9950    0.3576    3.5393 O   0  0  0  0  0  0  0  0  0  0  0  0
    2.1615   -1.3909    4.8267 C   0  0  1  0  0  0  0  0  0  0  0  0
    0.8262   -1.6978    5.5567 C   0  0  0  0  0  0  0  0  0  0  0  0
    3.2939   -1.5018    5.8942 C   0  0  0  0  0  0  0  0  0  0  0  0
    3.1256   -0.6119    6.9729 O   0  0  0  0  0  0  0  0  0  0  0  0
    5.9249   -3.5471   -3.1347 H   0  0  0  0  0  0  0  0  0  0  0  0
    4.5405   -3.5125   -4.3512 H   0  0  0  0  0  0  0  0  0  0  0  0
    2.3983   -1.6449   -2.3052 H   0  0  0  0  0  0  0  0  0  0  0  0
    2.6343   -2.1971   -4.6234 H   0  0  0  0  0  0  0  0  0  0  0  0
    1.0221   -2.6592   -4.0773 H   0  0  0  0  0  0  0  0  0  0  0  0
    2.2400   -3.9041   -4.3179 H   0  0  0  0  0  0  0  0  0  0  0  0
    0.6951   -3.2938   -1.6190 H   0  0  0  0  0  0  0  0  0  0  0  0
    1.7609   -4.6090   -1.8932 H   0  0  0  0  0  0  0  0  0  0  0  0
    1.9326   -2.5992    0.3287 H   0  0  0  0  0  0  0  0  0  0  0  0
    1.8179   -4.3434    0.4090 H   0  0  0  0  0  0  0  0  0  0  0  0
    3.7075   -5.2124   -1.1851 H   0  0  0  0  0  0  0  0  0  0  0  0
    5.6028   -3.1565   -0.9296 H   0  0  0  0  0  0  0  0  0  0  0  0
    5.0447   -0.7545   -1.2209 H   0  0  0  0  0  0  0  0  0  0  0  0
    3.5169   -0.9811   -0.4244 H   0  0  0  0  0  0  0  0  0  0  0  0
    6.2429   -1.6299    0.6960 H   0  0  0  0  0  0  0  0  0  0  0  0
    5.4449    0.5641    0.3422 H   0  0  0  0  0  0  0  0  0  0  0  0
    5.4196   -2.7239    3.9674 H   0  0  0  0  0  0  0  0  0  0  0  0
    5.9186   -1.1240    3.4592 H   0  0  0  0  0  0  0  0  0  0  0  0
    6.5237   -2.5504    2.6323 H   0  0  0  0  0  0  0  0  0  0  0  0
    5.3129   -3.9674    1.4394 H   0  0  0  0  0  0  0  0  0  0  0  0
    2.7622   -4.9919    2.1250 H   0  0  0  0  0  0  0  0  0  0  0  0
    4.7833   -5.8978    2.3355 H   0  0  0  0  0  0  0  0  0  0  0  0
    2.1823   -4.3415    4.2378 H   0  0  0  0  0  0  0  0  0  0  0  0
    3.7335   -3.7215    4.6097 H   0  0  0  0  0  0  0  0  0  0  0  0
    0.9292   -1.6883    2.5411 H   0  0  0  0  0  0  0  0  0  0  0  0
    2.6348   -1.2440    1.6933 H   0  0  0  0  0  0  0  0  0  0  0  0
    4.2676    0.1812    3.6963 H   0  0  0  0  0  0  0  0  0  0  0  0
    3.2164    0.7606    2.4408 H   0  0  0  0  0  0  0  0  0  0  0  0
    2.3832    0.8072    4.9649 H   0  0  0  0  0  0  0  0  0  0  0  0
    1.1206    1.1894    3.0887 H   0  0  0  0  0  0  0  0  0  0  0  0
    0.6649   -1.0051    6.3811 H   0  0  0  0  0  0  0  0  0  0  0  0
    0.8358   -2.7116    5.9653 H   0  0  0  0  0  0  0  0  0  0  0  0
   -0.0519   -1.6109    4.9104 H   0  0  0  0  0  0  0  0  0  0  0  0
    3.2980   -2.4996    6.3327 H   0  0  0  0  0  0  0  0  0  0  0  0
    4.2742   -1.3455    5.4480 H   0  0  0  0  0  0  0  0  0  0  0  0
    3.1818    0.2795    6.6586 H   0  0  0  0  0  0  0  0  0  0  0  0
  1  2  2  0
  1 29  1  0
  1 30  1  0
  2  9  1  0
  2  3  1  0
  3  4  1  0
  3  5  1  0
  3 31  1  1
  4 32  1  0
  4 33  1  0
  4 34  1  0
  5  6  1  0
  5 35  1  0
  5 36  1  0
  6  7  1  0
  6 37  1  0
  6 38  1  0
  7 15  1  0
  7  8  1  6
  7  9  1  0
  8 39  1  0
  9 10  1  0
  9 40  1  6
 10 11  1  0
 10 41  1  0
 10 42  1  0
 11 12  1  0
 11 13  1  0
 11 43  1  6
 12 44  1  0
 13 21  1  0
 13 14  1  1
 13 15  1  0
 14 45  1  0
 14 46  1  0
 14 47  1  0
 15 16  1  0
 15 48  1  6
 16 17  1  0
 16 18  1  0
 16 49  1  6
 17 50  1  0
 18 19  1  0
 18 51  1  0
 18 52  1  0
 19 25  1  0
 19 20  1  6
 19 21  1  0
 20 53  1  0
 21 22  1  0
 21 54  1  6
 22 23  1  0
 22 55  1  0
 22 56  1  0
 23 24  1  0
 23 25  1  0
 23 57  1  1
 24 58  1  0
 25 26  1  1
 25 27  1  0
 26 59  1  0
 26 60  1  0
 26 61  1  0
 27 28  1  0
 27 62  1  0
 27 63  1  0
 28 64  1  0
M  END
>  <i_m_ct_stereo_status>  (110) 
1

>  <s_m_source_file>  (110) 
/var/tmp/pbs.5076255.sched01/tmpcsrx8n8z/40wzjmt8mb.sdf

>  <i_m_source_file_index>  (110) 
8

>  <i_lp_mmshare_version>  (110) 
48012

>  <i_f3d_flags>  (110) 
0

>  <s_epik_input>  (110) 
W0NIMl0xW0NIMl1bQ0BIXShbQ0gzXSlDKD1bQ0gyXSlbQ0BIXShbQ0BdMTJbT0hdKVtDSDJdW0NAQEhdKFtPSF0pW0NAXTMoW0NIM10pW0NASF0yW0NAQEhdKFtPSF0pW0NIMl1bQ0BdNChbT0hdKVtDQEhdM1tDSDJdW0NAQEhdKFtPSF0pW0NAXTQoW0NIM10pW0NIMl1bT0hd

>  <s_epik_cmdline>  (110) 
J2VwaWtfcHl0aG9uJywgJy1waHQnLCAnMi4wJywgJy1waCcsICc3LjAnLCAnLXRuJywgJzgnLCAnLW1hJywgJzIwMCcsICctaW1hZScsICc8aW5maWxlLm1hZT4nLCAnLW9tYWUnLCAnPG91dGZpbGUubWFlPic=

>  <r_lp_tautomer_probability>  (110) 
1

>  <r_epik_Ionization_Penalty>  (110) 
5.72651e-06

>  <r_epik_Ionization_Penalty_Charging>  (110) 
0

>  <r_epik_Ionization_Penalty_Neutral>  (110) 
5.72651e-06

>  <r_epik_State_Penalty>  (110) 
-0

>  <r_epik_Charging_Adjusted_Penalty>  (110) 
0

>  <i_epik_Tot_Q>  (110) 
0

>  <i_epik_Tot_abs_Q>  (110) 
0

>  <s_lp_Force_Field>  (110) 
OPLS3e

>  <r_lp_Energy>  (110) 
49.0162

>  <b_lp_Chiralities_Consistent>  (110) 
1

>  <s_lp_Variant>  (110) 
30:0-1

>  <s_i_glide_gridfile>  (110) 
pfpi4k_grid

>  <i_i_glide_lignum>  (110) 
8

>  <i_i_glide_rotatable_bonds>  (110) 
7

>  <r_i_docking_score>  (110) 
-3.74294

>  <r_i_glide_ligand_efficiency>  (110) 
-0.133676

>  <r_i_glide_ligand_efficiency_sa>  (110) 
-0.40592

>  <r_i_glide_ligand_efficiency_ln>  (110) 
-0.86398

>  <r_i_glide_gscore>  (110) 
-3.74294

>  <r_i_glide_lipo>  (110) 
-0.571164

>  <r_i_glide_hbond>  (110) 
-0.489584

>  <r_i_glide_metal>  (110) 
-0

>  <r_i_glide_rewards>  (110) 
-1.20556

>  <r_i_glide_evdw>  (110) 
-17.3787

>  <r_i_glide_ecoul>  (110) 
-4.8809

>  <r_i_glide_erotb>  (110) 
0.124443

>  <r_i_glide_esite>  (110) 
0

>  <r_i_glide_emodel>  (110) 
-29.3567

>  <r_i_glide_energy>  (110) 
-22.2596

>  <r_i_glide_einternal>  (110) 
2.31916

>  <r_i_glide_intrahb_reward>  (110) 
-0.5

>  <i_i_glide_confnum>  (110) 
1

>  <i_i_glide_posenum>  (110) 
40

>  <r_i_glide_eff_state_penalty>  (110) 
0

>  <ligand_id>  (110) 
30

>  <original_smiles>  (110) 
C=C1C(C)CCC2(O)C1CC(O)C1(C)C2C(O)CC2(O)C1CC(O)C2(C)CO

>  <smiles>  (110) 
[H]OC([H])([H])C1(C([H])([H])[H])C([H])(O[H])C([H])([H])C2([H])C1(O[H])C([H])([H])C([H])(O[H])C1([H])C3(O[H])C([H])([H])C([H])([H])C([H])(C([H])([H])[H])C(=C([H])[H])C3([H])C([H])([H])C([H])(O[H])C12C([H])([H])[H]

$$$$
30:0:1
     RDKit          3D

 64 67  0  0  1  0  0  0  0  0999 V2000
    4.8986   -3.3876   -3.3553 C   0  0  0  0  0  0  0  0  0  0  0  0
    4.0615   -2.9878   -2.3755 C   0  0  0  0  0  0  0  0  0  0  0  0
    2.5739   -2.7206   -2.5647 C   0  0  1  0  0  0  0  0  0  0  0  0
    2.0946   -2.8878   -4.0040 C   0  0  0  0  0  0  0  0  0  0  0  0
    1.7541   -3.5910   -1.5984 C   0  0  0  0  0  0  0  0  0  0  0  0
    2.2597   -3.5058   -0.1465 C   0  0  0  0  0  0  0  0  0  0  0  0
    3.7737   -3.7023    0.0457 C   0  0  1  0  0  0  0  0  0  0  0  0
    4.0261   -5.0584   -0.3054 O   0  0  0  0  0  0  0  0  0  0  0  0
    4.5649   -2.8343   -0.9530 C   0  0  2  0  0  0  0  0  0  0  0  0
    4.5469   -1.3715   -0.5091 C   0  0  0  0  0  0  0  0  0  0  0  0
    5.2393   -1.2690    0.8443 C   0  0  1  0  0  0  0  0  0  0  0  0
    5.3450    0.0906    1.1299 O   0  0  0  0  0  0  0  0  0  0  0  0
    4.5662   -2.0710    2.0035 C   0  0  2  0  0  0  0  0  0  0  0  0
    5.6437   -2.1213    3.0944 C   0  0  0  0  0  0  0  0  0  0  0  0
    4.3013   -3.5407    1.5170 C   0  0  1  0  0  0  0  0  0  0  0  0
    3.5459   -4.4205    2.5718 C   0  0  1  0  0  0  0  0  0  0  0  0
    4.4403   -5.3874    3.0914 O   0  0  0  0  0  0  0  0  0  0  0  0
    2.9534   -3.6951    3.7943 C   0  0  0  0  0  0  0  0  0  0  0  0
    2.4124   -2.2690    3.5215 C   0  0  2  0  0  0  0  0  0  0  0  0
    1.1766   -2.4812    2.8814 O   0  0  0  0  0  0  0  0  0  0  0  0
    3.2524   -1.4057    2.5358 C   0  0  1  0  0  0  0  0  0  0  0  0
    3.3316    0.0024    3.1647 C   0  0  0  0  0  0  0  0  0  0  0  0
    2.2131    0.0554    4.2049 C   0  0  1  0  0  0  0  0  0  0  0  0
    1.0165    0.4109    3.5304 O   0  0  0  0  0  0  0  0  0  0  0  0
    2.1565   -1.3735    4.7996 C   0  0  1  0  0  0  0  0  0  0  0  0
    0.8095   -1.6310    5.5218 C   0  0  0  0  0  0  0  0  0  0  0  0
    3.2996   -1.4552    5.8689 C   0  0  0  0  0  0  0  0  0  0  0  0
    3.2116   -2.5769    6.7317 O   0  0  0  0  0  0  0  0  0  0  0  0
    5.9409   -3.5787   -3.1416 H   0  0  0  0  0  0  0  0  0  0  0  0
    4.5629   -3.5401   -4.3676 H   0  0  0  0  0  0  0  0  0  0  0  0
    2.4110   -1.6638   -2.3189 H   0  0  0  0  0  0  0  0  0  0  0  0
    2.6453   -2.2122   -4.6617 H   0  0  0  0  0  0  0  0  0  0  0  0
    1.0348   -2.6570   -4.1058 H   0  0  0  0  0  0  0  0  0  0  0  0
    2.2285   -3.9118   -4.3506 H   0  0  0  0  0  0  0  0  0  0  0  0
    0.7048   -3.3093   -1.6597 H   0  0  0  0  0  0  0  0  0  0  0  0
    1.7699   -4.6310   -1.8966 H   0  0  0  0  0  0  0  0  0  0  0  0
    1.9294   -2.5666    0.2775 H   0  0  0  0  0  0  0  0  0  0  0  0
    1.7991   -4.3048    0.4069 H   0  0  0  0  0  0  0  0  0  0  0  0
    3.6916   -5.2130   -1.1858 H   0  0  0  0  0  0  0  0  0  0  0  0
    5.6024   -3.1751   -0.9326 H   0  0  0  0  0  0  0  0  0  0  0  0
    5.0693   -0.7669   -1.2477 H   0  0  0  0  0  0  0  0  0  0  0  0
    3.5387   -0.9745   -0.4489 H   0  0  0  0  0  0  0  0  0  0  0  0
    6.2584   -1.6460    0.6878 H   0  0  0  0  0  0  0  0  0  0  0  0
    5.4160    0.5718    0.3187 H   0  0  0  0  0  0  0  0  0  0  0  0
    5.3974   -2.7104    3.9673 H   0  0  0  0  0  0  0  0  0  0  0  0
    5.9410   -1.1384    3.4485 H   0  0  0  0  0  0  0  0  0  0  0  0
    6.5139   -2.5874    2.6480 H   0  0  0  0  0  0  0  0  0  0  0  0
    5.3001   -3.9732    1.4389 H   0  0  0  0  0  0  0  0  0  0  0  0
    2.7529   -4.9892    2.0964 H   0  0  0  0  0  0  0  0  0  0  0  0
    3.9473   -6.0217    3.5927 H   0  0  0  0  0  0  0  0  0  0  0  0
    2.1492   -4.3093    4.2127 H   0  0  0  0  0  0  0  0  0  0  0  0
    3.7089   -3.6948    4.5634 H   0  0  0  0  0  0  0  0  0  0  0  0
    0.8957   -1.6435    2.5380 H   0  0  0  0  0  0  0  0  0  0  0  0
    2.6377   -1.2219    1.6547 H   0  0  0  0  0  0  0  0  0  0  0  0
    4.2823    0.1908    3.6574 H   0  0  0  0  0  0  0  0  0  0  0  0
    3.2276    0.7863    2.4123 H   0  0  0  0  0  0  0  0  0  0  0  0
    2.4214    0.8171    4.9583 H   0  0  0  0  0  0  0  0  0  0  0  0
    1.1424    1.2492    3.1035 H   0  0  0  0  0  0  0  0  0  0  0  0
    0.6823   -0.9336    6.3477 H   0  0  0  0  0  0  0  0  0  0  0  0
    0.7588   -2.6450    5.9263 H   0  0  0  0  0  0  0  0  0  0  0  0
   -0.0591   -1.5172    4.8694 H   0  0  0  0  0  0  0  0  0  0  0  0
    4.2874   -1.4316    5.4087 H   0  0  0  0  0  0  0  0  0  0  0  0
    3.2621   -0.5813    6.5226 H   0  0  0  0  0  0  0  0  0  0  0  0
    3.2650   -3.3706    6.2176 H   0  0  0  0  0  0  0  0  0  0  0  0
  1  2  2  0
  1 29  1  0
  1 30  1  0
  2  9  1  0
  2  3  1  0
  3  4  1  0
  3  5  1  0
  3 31  1  1
  4 32  1  0
  4 33  1  0
  4 34  1  0
  5  6  1  0
  5 35  1  0
  5 36  1  0
  6  7  1  0
  6 37  1  0
  6 38  1  0
  7 15  1  0
  7  8  1  6
  7  9  1  0
  8 39  1  0
  9 10  1  0
  9 40  1  6
 10 11  1  0
 10 41  1  0
 10 42  1  0
 11 12  1  0
 11 13  1  0
 11 43  1  6
 12 44  1  0
 13 21  1  0
 13 14  1  1
 13 15  1  0
 14 45  1  0
 14 46  1  0
 14 47  1  0
 15 16  1  0
 15 48  1  6
 16 17  1  0
 16 18  1  0
 16 49  1  6
 17 50  1  0
 18 19  1  0
 18 51  1  0
 18 52  1  0
 19 25  1  0
 19 20  1  6
 19 21  1  0
 20 53  1  0
 21 22  1  0
 21 54  1  6
 22 23  1  0
 22 55  1  0
 22 56  1  0
 23 24  1  0
 23 25  1  0
 23 57  1  1
 24 58  1  0
 25 26  1  1
 25 27  1  0
 26 59  1  0
 26 60  1  0
 26 61  1  0
 27 28  1  0
 27 62  1  0
 27 63  1  0
 28 64  1  0
M  END
>  <i_m_ct_stereo_status>  (111) 
1

>  <s_m_source_file>  (111) 
/var/tmp/pbs.5076255.sched01/tmpcsrx8n8z/40wzjmt8mb.sdf

>  <i_m_source_file_index>  (111) 
8

>  <i_lp_mmshare_version>  (111) 
48012

>  <i_f3d_flags>  (111) 
0

>  <s_epik_input>  (111) 
W0NIMl0xW0NIMl1bQ0BIXShbQ0gzXSlDKD1bQ0gyXSlbQ0BIXShbQ0BdMTJbT0hdKVtDSDJdW0NAQEhdKFtPSF0pW0NAXTMoW0NIM10pW0NASF0yW0NAQEhdKFtPSF0pW0NIMl1bQ0BdNChbT0hdKVtDQEhdM1tDSDJdW0NAQEhdKFtPSF0pW0NAXTQoW0NIM10pW0NIMl1bT0hd

>  <s_epik_cmdline>  (111) 
J2VwaWtfcHl0aG9uJywgJy1waHQnLCAnMi4wJywgJy1waCcsICc3LjAnLCAnLXRuJywgJzgnLCAnLW1hJywgJzIwMCcsICctaW1hZScsICc8aW5maWxlLm1hZT4nLCAnLW9tYWUnLCAnPG91dGZpbGUubWFlPic=

>  <r_lp_tautomer_probability>  (111) 
1

>  <r_epik_Ionization_Penalty>  (111) 
5.72651e-06

>  <r_epik_Ionization_Penalty_Charging>  (111) 
0

>  <r_epik_Ionization_Penalty_Neutral>  (111) 
5.72651e-06

>  <r_epik_State_Penalty>  (111) 
-0

>  <r_epik_Charging_Adjusted_Penalty>  (111) 
0

>  <i_epik_Tot_Q>  (111) 
0

>  <i_epik_Tot_abs_Q>  (111) 
0

>  <s_lp_Force_Field>  (111) 
OPLS3e

>  <r_lp_Energy>  (111) 
49.0162

>  <b_lp_Chiralities_Consistent>  (111) 
1

>  <s_lp_Variant>  (111) 
30:0-1

>  <s_i_glide_gridfile>  (111) 
pfpi4k_grid

>  <i_i_glide_lignum>  (111) 
8

>  <i_i_glide_rotatable_bonds>  (111) 
7

>  <r_i_docking_score>  (111) 
-3.72409

>  <r_i_glide_ligand_efficiency>  (111) 
-0.133003

>  <r_i_glide_ligand_efficiency_sa>  (111) 
-0.403876

>  <r_i_glide_ligand_efficiency_ln>  (111) 
-0.859629

>  <r_i_glide_gscore>  (111) 
-3.72409

>  <r_i_glide_lipo>  (111) 
-0.560277

>  <r_i_glide_hbond>  (111) 
-0.494895

>  <r_i_glide_metal>  (111) 
-0

>  <r_i_glide_rewards>  (111) 
-1.20556

>  <r_i_glide_evdw>  (111) 
-16.6472

>  <r_i_glide_ecoul>  (111) 
-5.03625

>  <r_i_glide_erotb>  (111) 
0.124443

>  <r_i_glide_esite>  (111) 
0

>  <r_i_glide_emodel>  (111) 
-28.335

>  <r_i_glide_energy>  (111) 
-21.6834

>  <r_i_glide_einternal>  (111) 
3.14633

>  <r_i_glide_intrahb_reward>  (111) 
-0.5

>  <i_i_glide_confnum>  (111) 
2

>  <i_i_glide_posenum>  (111) 
39

>  <r_i_glide_eff_state_penalty>  (111) 
0

>  <ligand_id>  (111) 
30

>  <original_smiles>  (111) 
C=C1C(C)CCC2(O)C1CC(O)C1(C)C2C(O)CC2(O)C1CC(O)C2(C)CO

>  <smiles>  (111) 
[H]OC([H])([H])C1(C([H])([H])[H])C([H])(O[H])C([H])([H])C2([H])C1(O[H])C([H])([H])C([H])(O[H])C1([H])C3(O[H])C([H])([H])C([H])([H])C([H])(C([H])([H])[H])C(=C([H])[H])C3([H])C([H])([H])C([H])(O[H])C12C([H])([H])[H]

$$$$
30:0:2
     RDKit          3D

 64 67  0  0  1  0  0  0  0  0999 V2000
    4.1634   -1.8216   -4.2260 C   0  0  0  0  0  0  0  0  0  0  0  0
    3.5958   -2.2128   -3.0820 C   0  0  0  0  0  0  0  0  0  0  0  0
    2.1236   -2.5209   -2.9713 C   0  0  1  0  0  0  0  0  0  0  0  0
    1.3985   -2.5458   -4.3319 C   0  0  0  0  0  0  0  0  0  0  0  0
    1.8689   -3.8295   -2.3047 C   0  0  0  0  0  0  0  0  0  0  0  0
    2.7010   -4.0156   -1.0119 C   0  0  0  0  0  0  0  0  0  0  0  0
    4.2138   -3.6181   -1.0765 C   0  0  1  0  0  0  0  0  0  0  0  0
    4.8654   -4.5407   -1.9116 O   0  0  0  0  0  0  0  0  0  0  0  0
    4.3807   -2.2692   -1.7879 C   0  0  2  0  0  0  0  0  0  0  0  0
    4.0187   -1.1251   -0.8464 C   0  0  0  0  0  0  0  0  0  0  0  0
    4.9722   -1.1093    0.3401 C   0  0  1  0  0  0  0  0  0  0  0  0
    4.7851    0.0682    1.0972 O   0  0  0  0  0  0  0  0  0  0  0  0
    4.9328   -2.4165    1.1913 C   0  0  2  0  0  0  0  0  0  0  0  0
    6.2291   -2.3485    2.0046 C   0  0  0  0  0  0  0  0  0  0  0  0
    5.0522   -3.6643    0.2444 C   0  0  1  0  0  0  0  0  0  0  0  0
    4.9500   -5.0526    0.9562 C   0  0  1  0  0  0  0  0  0  0  0  0
    6.2133   -5.6886    0.9109 O   0  0  0  0  0  0  0  0  0  0  0  0
    4.4925   -5.0390    2.4240 C   0  0  0  0  0  0  0  0  0  0  0  0
    3.4560   -3.9496    2.7981 C   0  0  2  0  0  0  0  0  0  0  0  0
    2.2310   -4.4484    2.2682 O   0  0  0  0  0  0  0  0  0  0  0  0
    3.6581   -2.5619    2.0916 C   0  0  1  0  0  0  0  0  0  0  0  0
    3.4279   -1.4972    3.1843 C   0  0  0  0  0  0  0  0  0  0  0  0
    2.6857   -2.2156    4.3079 C   0  0  1  0  0  0  0  0  0  0  0  0
    1.3017   -2.2032    3.9984 O   0  0  0  0  0  0  0  0  0  0  0  0
    3.2819   -3.6482    4.3290 C   0  0  1  0  0  0  0  0  0  0  0  0
    2.3542   -4.6455    5.0760 C   0  0  0  0  0  0  0  0  0  0  0  0
    4.6321   -3.5702    5.1198 C   0  0  0  0  0  0  0  0  0  0  0  0
    5.1812   -4.8246    5.4930 O   0  0  0  0  0  0  0  0  0  0  0  0
    5.1992   -1.5790   -4.2515 H   0  0  0  0  0  0  0  0  0  0  0  0
    3.5799   -1.7447   -5.1183 H   0  0  0  0  0  0  0  0  0  0  0  0
    1.8220   -1.7008   -2.3550 H   0  0  0  0  0  0  0  0  0  0  0  0
    1.4944   -1.5112   -4.6896 H   0  0  0  0  0  0  0  0  0  0  0  0
    0.3196   -2.6491   -4.3164 H   0  0  0  0  0  0  0  0  0  0  0  0
    1.7948   -3.3765   -4.9393 H   0  0  0  0  0  0  0  0  0  0  0  0
    0.8178   -3.9226   -2.0024 H   0  0  0  0  0  0  0  0  0  0  0  0
    2.0493   -4.4765   -3.1729 H   0  0  0  0  0  0  0  0  0  0  0  0
    2.2038   -3.3965   -0.2675 H   0  0  0  0  0  0  0  0  0  0  0  0
    2.5742   -5.0369   -0.6558 H   0  0  0  0  0  0  0  0  0  0  0  0
    4.1772   -5.1072   -2.2510 H   0  0  0  0  0  0  0  0  0  0  0  0
    5.4319   -2.1314   -2.0513 H   0  0  0  0  0  0  0  0  0  0  0  0
    4.1402   -0.2134   -1.4208 H   0  0  0  0  0  0  0  0  0  0  0  0
    2.9891   -1.1798   -0.4962 H   0  0  0  0  0  0  0  0  0  0  0  0
    5.9685   -1.0000   -0.0928 H   0  0  0  0  0  0  0  0  0  0  0  0
    3.8703    0.1210    1.3506 H   0  0  0  0  0  0  0  0  0  0  0  0
    6.3745   -3.2628    2.5487 H   0  0  0  0  0  0  0  0  0  0  0  0
    6.2602   -1.5041    2.6935 H   0  0  0  0  0  0  0  0  0  0  0  0
    7.0964   -2.2637    1.3516 H   0  0  0  0  0  0  0  0  0  0  0  0
    6.0749   -3.5896   -0.1445 H   0  0  0  0  0  0  0  0  0  0  0  0
    4.2845   -5.7189    0.4081 H   0  0  0  0  0  0  0  0  0  0  0  0
    6.4242   -5.8693    0.0022 H   0  0  0  0  0  0  0  0  0  0  0  0
    4.0966   -6.0185    2.6781 H   0  0  0  0  0  0  0  0  0  0  0  0
    5.3844   -4.9635    3.0414 H   0  0  0  0  0  0  0  0  0  0  0  0
    1.5748   -3.7668    2.3928 H   0  0  0  0  0  0  0  0  0  0  0  0
    2.8223   -2.3946    1.4290 H   0  0  0  0  0  0  0  0  0  0  0  0
    4.3589   -1.0912    3.5765 H   0  0  0  0  0  0  0  0  0  0  0  0
    2.8597   -0.6461    2.8066 H   0  0  0  0  0  0  0  0  0  0  0  0
    2.8256   -1.6948    5.2549 H   0  0  0  0  0  0  0  0  0  0  0  0
    1.0279   -1.2988    3.8883 H   0  0  0  0  0  0  0  0  0  0  0  0
    2.2233   -4.3380    6.1143 H   0  0  0  0  0  0  0  0  0  0  0  0
    2.7666   -5.6514    5.0753 H   0  0  0  0  0  0  0  0  0  0  0  0
    1.3596   -4.7169    4.6397 H   0  0  0  0  0  0  0  0  0  0  0  0
    5.3910   -3.0169    4.5653 H   0  0  0  0  0  0  0  0  0  0  0  0
    4.4899   -3.0208    6.0510 H   0  0  0  0  0  0  0  0  0  0  0  0
    4.5271   -5.3073    5.9877 H   0  0  0  0  0  0  0  0  0  0  0  0
  1  2  2  0
  1 29  1  0
  1 30  1  0
  2  9  1  0
  2  3  1  0
  3  4  1  0
  3  5  1  0
  3 31  1  1
  4 32  1  0
  4 33  1  0
  4 34  1  0
  5  6  1  0
  5 35  1  0
  5 36  1  0
  6  7  1  0
  6 37  1  0
  6 38  1  0
  7 15  1  0
  7  8  1  6
  7  9  1  0
  8 39  1  0
  9 10  1  0
  9 40  1  6
 10 11  1  0
 10 41  1  0
 10 42  1  0
 11 12  1  0
 11 13  1  0
 11 43  1  6
 12 44  1  0
 13 21  1  0
 13 14  1  1
 13 15  1  0
 14 45  1  0
 14 46  1  0
 14 47  1  0
 15 16  1  0
 15 48  1  6
 16 17  1  0
 16 18  1  0
 16 49  1  6
 17 50  1  0
 18 19  1  0
 18 51  1  0
 18 52  1  0
 19 25  1  0
 19 20  1  6
 19 21  1  0
 20 53  1  0
 21 22  1  0
 21 54  1  6
 22 23  1  0
 22 55  1  0
 22 56  1  0
 23 24  1  0
 23 25  1  0
 23 57  1  1
 24 58  1  0
 25 26  1  1
 25 27  1  0
 26 59  1  0
 26 60  1  0
 26 61  1  0
 27 28  1  0
 27 62  1  0
 27 63  1  0
 28 64  1  0
M  END
>  <i_m_ct_stereo_status>  (112) 
1

>  <s_m_source_file>  (112) 
/var/tmp/pbs.5076255.sched01/tmpcsrx8n8z/40wzjmt8mb.sdf

>  <i_m_source_file_index>  (112) 
8

>  <i_lp_mmshare_version>  (112) 
48012

>  <i_f3d_flags>  (112) 
0

>  <s_epik_input>  (112) 
W0NIMl0xW0NIMl1bQ0BIXShbQ0gzXSlDKD1bQ0gyXSlbQ0BIXShbQ0BdMTJbT0hdKVtDSDJdW0NAQEhdKFtPSF0pW0NAXTMoW0NIM10pW0NASF0yW0NAQEhdKFtPSF0pW0NIMl1bQ0BdNChbT0hdKVtDQEhdM1tDSDJdW0NAQEhdKFtPSF0pW0NAXTQoW0NIM10pW0NIMl1bT0hd

>  <s_epik_cmdline>  (112) 
J2VwaWtfcHl0aG9uJywgJy1waHQnLCAnMi4wJywgJy1waCcsICc3LjAnLCAnLXRuJywgJzgnLCAnLW1hJywgJzIwMCcsICctaW1hZScsICc8aW5maWxlLm1hZT4nLCAnLW9tYWUnLCAnPG91dGZpbGUubWFlPic=

>  <r_lp_tautomer_probability>  (112) 
1

>  <r_epik_Ionization_Penalty>  (112) 
5.72651e-06

>  <r_epik_Ionization_Penalty_Charging>  (112) 
0

>  <r_epik_Ionization_Penalty_Neutral>  (112) 
5.72651e-06

>  <r_epik_State_Penalty>  (112) 
-0

>  <r_epik_Charging_Adjusted_Penalty>  (112) 
0

>  <i_epik_Tot_Q>  (112) 
0

>  <i_epik_Tot_abs_Q>  (112) 
0

>  <s_lp_Force_Field>  (112) 
OPLS3e

>  <r_lp_Energy>  (112) 
49.0162

>  <b_lp_Chiralities_Consistent>  (112) 
1

>  <s_lp_Variant>  (112) 
30:0-1

>  <s_i_glide_gridfile>  (112) 
pfpi4k_grid

>  <i_i_glide_lignum>  (112) 
8

>  <i_i_glide_rotatable_bonds>  (112) 
7

>  <r_i_docking_score>  (112) 
-2.19727

>  <r_i_glide_ligand_efficiency>  (112) 
-0.0784738

>  <r_i_glide_ligand_efficiency_sa>  (112) 
-0.238293

>  <r_i_glide_ligand_efficiency_ln>  (112) 
-0.507194

>  <r_i_glide_gscore>  (112) 
-2.19727

>  <r_i_glide_lipo>  (112) 
-0.419081

>  <r_i_glide_hbond>  (112) 
-0.0835971

>  <r_i_glide_metal>  (112) 
-0

>  <r_i_glide_rewards>  (112) 
-1.20556

>  <r_i_glide_evdw>  (112) 
5.36767

>  <r_i_glide_ecoul>  (112) 
-5.87902

>  <r_i_glide_erotb>  (112) 
0.124443

>  <r_i_glide_esite>  (112) 
0

>  <r_i_glide_emodel>  (112) 
-3.49399

>  <r_i_glide_energy>  (112) 
-0.511354

>  <r_i_glide_einternal>  (112) 
3.2346

>  <r_i_glide_intrahb_reward>  (112) 
-0.5

>  <i_i_glide_confnum>  (112) 
2

>  <i_i_glide_posenum>  (112) 
1

>  <r_i_glide_eff_state_penalty>  (112) 
0

>  <ligand_id>  (112) 
30

>  <original_smiles>  (112) 
C=C1C(C)CCC2(O)C1CC(O)C1(C)C2C(O)CC2(O)C1CC(O)C2(C)CO

>  <smiles>  (112) 
[H]OC([H])([H])C1(C([H])([H])[H])C([H])(O[H])C([H])([H])C2([H])C1(O[H])C([H])([H])C([H])(O[H])C1([H])C3(O[H])C([H])([H])C([H])([H])C([H])(C([H])([H])[H])C(=C([H])[H])C3([H])C([H])([H])C([H])(O[H])C12C([H])([H])[H]

$$$$
31:0:0
     RDKit          3D

 70 75  0  0  1  0  0  0  0  0999 V2000
    4.9708   -4.5590    6.0660 C   0  0  0  0  0  0  0  0  0  0  0  0
    5.3340   -5.2963    4.9958 C   0  0  0  0  0  0  0  0  0  0  0  0
    5.2604   -4.8710    3.5295 C   0  0  2  0  0  0  0  0  0  0  0  0
    5.5191   -3.3501    3.4220 C   0  0  0  0  0  0  0  0  0  0  0  0
    4.3905   -2.3323    3.3652 C   0  0  0  0  0  0  0  0  0  0  0  0
    3.5130   -2.3181    2.0933 C   0  0  2  0  0  0  0  0  0  0  0  0
    3.7485   -1.0125    1.5920 O   0  0  0  0  0  0  0  0  0  0  0  0
    1.9597   -2.2941    2.5079 C   0  0  2  0  0  0  0  0  0  0  0  0
    1.4674   -0.9536    3.1520 C   0  0  1  0  0  0  0  0  0  0  0  0
    0.9465    0.0966    2.1465 C   0  0  0  0  0  0  0  0  0  0  0  0
    0.3707   -1.3164    4.1583 C   0  0  0  0  0  0  0  0  0  0  0  0
    0.7291   -2.7010    4.6556 C   0  0  0  0  0  0  0  0  0  0  0  0
    1.3056   -3.4144    3.4271 C   0  0  2  0  0  0  0  0  0  0  0  0
    2.1331   -4.6459    3.8318 C   0  0  1  0  0  0  0  0  0  0  0  0
    1.5664   -5.7171    4.8027 C   0  0  1  0  0  0  0  0  0  0  0  0
    0.3544   -6.2290    4.2505 O   0  0  0  0  0  0  0  0  0  0  0  0
   -0.4963   -6.8767    5.1857 C   0  0  0  0  0  0  0  0  0  0  0  0
    2.6092   -6.8778    5.1213 C   0  0  0  0  0  0  0  0  0  0  0  0
    3.3221   -7.7346    3.9918 C   0  0  0  0  0  0  0  0  0  0  0  0
    4.3308   -7.1381    2.8958 C   0  0  1  0  0  0  0  0  0  0  0  0
    4.2864   -8.0768    1.6709 C   0  0  0  0  0  0  0  0  0  0  0  0
    4.1872   -5.5805    2.5925 C   0  0  1  0  0  0  0  0  0  0  0  0
    2.6709   -5.4391    2.6999 C   0  0  2  0  0  0  0  0  0  0  0  0
    2.5340   -5.2266    1.2084 C   0  0  0  0  0  0  0  0  0  0  0  0
    1.6519   -5.4811    0.3923 O   0  0  0  0  0  0  0  0  0  0  0  0
    3.9979   -4.8354    1.1585 C   0  0  2  0  0  0  0  0  0  0  0  0
    4.8107   -5.3471   -0.0269 C   0  0  0  0  0  0  0  0  0  0  0  0
    5.7602   -4.3171   -0.2212 O   0  0  0  0  0  0  0  0  0  0  0  0
    5.3884   -3.1465    0.2920 C   0  0  0  0  0  0  0  0  0  0  0  0
    6.0634   -2.1150    0.2675 O   0  0  0  0  0  0  0  0  0  0  0  0
    3.9638   -3.2812    0.8726 C   0  0  2  0  0  0  0  0  0  0  0  0
    3.1238   -2.8903   -0.4024 C   0  0  0  0  0  0  0  0  0  0  0  0
    4.5541   -3.5679    5.9675 H   0  0  0  0  0  0  0  0  0  0  0  0
    5.0761   -4.9548    7.0630 H   0  0  0  0  0  0  0  0  0  0  0  0
    5.7322   -6.2824    5.1791 H   0  0  0  0  0  0  0  0  0  0  0  0
    6.2159   -5.2642    3.1820 H   0  0  0  0  0  0  0  0  0  0  0  0
    6.1124   -3.0612    4.2854 H   0  0  0  0  0  0  0  0  0  0  0  0
    6.2057   -3.1519    2.6144 H   0  0  0  0  0  0  0  0  0  0  0  0
    3.7831   -2.3695    4.2651 H   0  0  0  0  0  0  0  0  0  0  0  0
    4.8961   -1.3682    3.4816 H   0  0  0  0  0  0  0  0  0  0  0  0
    3.1603   -0.8706    0.8689 H   0  0  0  0  0  0  0  0  0  0  0  0
    1.4095   -2.3470    1.5762 H   0  0  0  0  0  0  0  0  0  0  0  0
    2.2907   -0.5204    3.7238 H   0  0  0  0  0  0  0  0  0  0  0  0
    0.1204   -0.2843    1.5498 H   0  0  0  0  0  0  0  0  0  0  0  0
    1.7100    0.4273    1.4455 H   0  0  0  0  0  0  0  0  0  0  0  0
    0.5822    0.9804    2.6667 H   0  0  0  0  0  0  0  0  0  0  0  0
    0.2961   -0.5928    4.9679 H   0  0  0  0  0  0  0  0  0  0  0  0
   -0.6048   -1.3531    3.6786 H   0  0  0  0  0  0  0  0  0  0  0  0
    1.4731   -2.6221    5.4453 H   0  0  0  0  0  0  0  0  0  0  0  0
   -0.1355   -3.2305    5.0571 H   0  0  0  0  0  0  0  0  0  0  0  0
    0.4571   -3.7931    2.8797 H   0  0  0  0  0  0  0  0  0  0  0  0
    2.9512   -4.2435    4.3970 H   0  0  0  0  0  0  0  0  0  0  0  0
    1.3236   -5.2183    5.7447 H   0  0  0  0  0  0  0  0  0  0  0  0
   -1.4106   -7.1826    4.6780 H   0  0  0  0  0  0  0  0  0  0  0  0
   -0.7690   -6.2069    6.0032 H   0  0  0  0  0  0  0  0  0  0  0  0
   -0.0476   -7.7765    5.6064 H   0  0  0  0  0  0  0  0  0  0  0  0
    3.3514   -6.5145    5.8174 H   0  0  0  0  0  0  0  0  0  0  0  0
    2.1003   -7.6064    5.7459 H   0  0  0  0  0  0  0  0  0  0  0  0
    3.8528   -8.5464    4.4933 H   0  0  0  0  0  0  0  0  0  0  0  0
    2.5137   -8.2493    3.4675 H   0  0  0  0  0  0  0  0  0  0  0  0
    5.3257   -7.3217    3.2970 H   0  0  0  0  0  0  0  0  0  0  0  0
    3.4509   -7.8684    1.0025 H   0  0  0  0  0  0  0  0  0  0  0  0
    4.1769   -9.1145    1.9913 H   0  0  0  0  0  0  0  0  0  0  0  0
    5.2138   -8.0547    1.1031 H   0  0  0  0  0  0  0  0  0  0  0  0
    2.1253   -6.3740    2.6674 H   0  0  0  0  0  0  0  0  0  0  0  0
    5.3348   -6.2757    0.1715 H   0  0  0  0  0  0  0  0  0  0  0  0
    4.2121   -5.4884   -0.9215 H   0  0  0  0  0  0  0  0  0  0  0  0
    2.0567   -3.0495   -0.3033 H   0  0  0  0  0  0  0  0  0  0  0  0
    3.4177   -3.4437   -1.2955 H   0  0  0  0  0  0  0  0  0  0  0  0
    3.2480   -1.8408   -0.6718 H   0  0  0  0  0  0  0  0  0  0  0  0
  1  2  2  0
  1 33  1  0
  1 34  1  0
  2  3  1  0
  2 35  1  0
  3 22  1  0
  3  4  1  0
  3 36  1  6
  4  5  1  0
  4 37  1  0
  4 38  1  0
  5  6  1  0
  5 39  1  0
  5 40  1  0
  6 31  1  0
  6  7  1  6
  6  8  1  0
  7 41  1  0
  8 13  1  0
  8  9  1  0
  8 42  1  6
  9 10  1  0
  9 11  1  0
  9 43  1  1
 10 44  1  0
 10 45  1  0
 10 46  1  0
 11 12  1  0
 11 47  1  0
 11 48  1  0
 12 13  1  0
 12 49  1  0
 12 50  1  0
 13 14  1  0
 13 51  1  6
 14 23  1  0
 14 15  1  0
 14 52  1  1
 15 16  1  0
 15 18  1  0
 15 53  1  1
 16 17  1  0
 17 54  1  0
 17 55  1  0
 17 56  1  0
 18 19  1  0
 18 57  1  0
 18 58  1  0
 19 20  1  0
 19 59  1  0
 19 60  1  0
 20 21  1  0
 20 22  1  0
 20 61  1  1
 21 62  1  0
 21 63  1  0
 21 64  1  0
 22 26  1  6
 22 23  1  0
 23 24  1  0
 23 65  1  6
 24 25  2  0
 24 26  1  0
 26 31  1  0
 26 27  1  6
 27 28  1  0
 27 66  1  0
 27 67  1  0
 28 29  1  0
 29 30  2  0
 29 31  1  0
 31 32  1  6
 32 68  1  0
 32 69  1  0
 32 70  1  0
M  END
>  <i_m_ct_stereo_status>  (113) 
1

>  <s_m_source_file>  (113) 
/var/tmp/pbs.5076255.sched01/tmpcsrx8n8z/40wzjmt8mb.sdf

>  <i_m_source_file_index>  (113) 
9

>  <i_lp_mmshare_version>  (113) 
48012

>  <i_f3d_flags>  (113) 
0

>  <s_epik_input>  (113) 
W0NIMl09W0NIXVtDQEBIXTFbQ0gyXVtDSDJdW0NAQF0oW09IXSkoW0NAQF0oW0NAQF0yM1tDQF0xNDUpKFtDSDNdKUMoPU8pT1tDSDJdMylbQ0BIXTZbQ0BIXShbQ0gyXVtDSDJdW0NAQEhdNltDSDNdKVtDQEhdKFtDQEhdNUMyPU8pW0NAQEhdKE9bQ0gzXSlbQ0gyXVtDSDJdW0NASF00W0NIM10=

>  <s_epik_cmdline>  (113) 
J2VwaWtfcHl0aG9uJywgJy1waHQnLCAnMi4wJywgJy1waCcsICc3LjAnLCAnLXRuJywgJzgnLCAnLW1hJywgJzIwMCcsICctaW1hZScsICc8aW5maWxlLm1hZT4nLCAnLW9tYWUnLCAnPG91dGZpbGUubWFlPic=

>  <r_lp_tautomer_probability>  (113) 
1

>  <r_epik_Ionization_Penalty>  (113) 
6.52216e-08

>  <r_epik_Ionization_Penalty_Charging>  (113) 
0

>  <r_epik_Ionization_Penalty_Neutral>  (113) 
6.52216e-08

>  <r_epik_State_Penalty>  (113) 
-0

>  <r_epik_Charging_Adjusted_Penalty>  (113) 
0

>  <i_epik_Tot_Q>  (113) 
0

>  <i_epik_Tot_abs_Q>  (113) 
0

>  <s_epik_Chemistry_Notes>  (113) 
This compound has an ester and may undergo hydrolysis at high or low pH.

>  <s_lp_Force_Field>  (113) 
OPLS3e

>  <r_lp_Energy>  (113) 
116.544

>  <b_lp_Chiralities_Consistent>  (113) 
1

>  <s_lp_Variant>  (113) 
31:0-1

>  <s_i_glide_gridfile>  (113) 
pfpi4k_grid

>  <i_i_glide_lignum>  (113) 
9

>  <i_i_glide_rotatable_bonds>  (113) 
3

>  <r_i_docking_score>  (113) 
-2.20502

>  <r_i_glide_ligand_efficiency>  (113) 
-0.0689069

>  <r_i_glide_ligand_efficiency_sa>  (113) 
-0.218766

>  <r_i_glide_ligand_efficiency_ln>  (113) 
-0.493764

>  <r_i_glide_gscore>  (113) 
-2.20502

>  <r_i_glide_lipo>  (113) 
-0.138381

>  <r_i_glide_hbond>  (113) 
-0.114294

>  <r_i_glide_metal>  (113) 
-0

>  <r_i_glide_rewards>  (113) 
-0.448226

>  <r_i_glide_evdw>  (113) 
-18.3472

>  <r_i_glide_ecoul>  (113) 
-4.40606

>  <r_i_glide_erotb>  (113) 
0.102023

>  <r_i_glide_esite>  (113) 
-0.0278759

>  <r_i_glide_emodel>  (113) 
-24.8647

>  <r_i_glide_energy>  (113) 
-22.7532

>  <r_i_glide_einternal>  (113) 
1.77039

>  <r_i_glide_intrahb_reward>  (113) 
-0

>  <i_i_glide_confnum>  (113) 
3

>  <i_i_glide_posenum>  (113) 
36

>  <r_i_glide_eff_state_penalty>  (113) 
0

>  <ligand_id>  (113) 
31

>  <original_smiles>  (113) 
C=CC1CCC2(O)C3C(C)CCC3C3C(OC)CCC(C)C14C3C(=O)C41COC(=O)C21C

>  <smiles>  (113) 
[H]OC12C([H])([H])C([H])([H])C([H])(C([H])=C([H])[H])C34C([H])(C(=O)C35C([H])([H])OC(=O)C15C([H])([H])[H])C([H])(C([H])(OC([H])([H])[H])C([H])([H])C([H])([H])C4([H])C([H])([H])[H])C1([H])C([H])([H])C([H])([H])C([H])(C([H])([H])[H])C12[H]

$$$$
31:0:1
     RDKit          3D

 70 75  0  0  1  0  0  0  0  0999 V2000
    5.0051   -3.1690    6.4900 C   0  0  0  0  0  0  0  0  0  0  0  0
    4.6948   -4.4703    6.3305 C   0  0  0  0  0  0  0  0  0  0  0  0
    4.6595   -5.2490    5.0120 C   0  0  2  0  0  0  0  0  0  0  0  0
    5.7738   -4.7186    4.0785 C   0  0  0  0  0  0  0  0  0  0  0  0
    5.4475   -3.6602    3.0118 C   0  0  0  0  0  0  0  0  0  0  0  0
    4.5506   -4.0572    1.8133 C   0  0  2  0  0  0  0  0  0  0  0  0
    5.4382   -3.8925    0.7142 O   0  0  0  0  0  0  0  0  0  0  0  0
    3.4060   -2.9511    1.5596 C   0  0  2  0  0  0  0  0  0  0  0  0
    3.9538   -1.5902    0.9958 C   0  0  1  0  0  0  0  0  0  0  0  0
    4.0010   -1.5000   -0.5437 C   0  0  0  0  0  0  0  0  0  0  0  0
    3.0631   -0.4876    1.5534 C   0  0  0  0  0  0  0  0  0  0  0  0
    2.6162   -0.9887    2.9088 C   0  0  0  0  0  0  0  0  0  0  0  0
    2.3818   -2.5021    2.6794 C   0  0  2  0  0  0  0  0  0  0  0  0
    2.3501   -3.2711    4.0193 C   0  0  1  0  0  0  0  0  0  0  0  0
    1.4340   -2.8400    5.2001 C   0  0  1  0  0  0  0  0  0  0  0  0
    0.0565   -2.8772    4.8362 O   0  0  0  0  0  0  0  0  0  0  0  0
   -0.5223   -1.6231    4.5142 C   0  0  0  0  0  0  0  0  0  0  0  0
    1.6186   -3.7381    6.4939 C   0  0  0  0  0  0  0  0  0  0  0  0
    1.4884   -5.3203    6.4893 C   0  0  0  0  0  0  0  0  0  0  0  0
    2.4584   -6.3150    5.6821 C   0  0  1  0  0  0  0  0  0  0  0  0
    1.6721   -7.6147    5.4093 C   0  0  0  0  0  0  0  0  0  0  0  0
    3.2274   -5.6745    4.4362 C   0  0  1  0  0  0  0  0  0  0  0  0
    2.1293   -4.7443    3.9036 C   0  0  2  0  0  0  0  0  0  0  0  0
    1.9098   -5.6092    2.6834 C   0  0  0  0  0  0  0  0  0  0  0  0
    0.9441   -5.8638    1.9601 O   0  0  0  0  0  0  0  0  0  0  0  0
    3.2857   -6.2099    2.9011 C   0  0  2  0  0  0  0  0  0  0  0  0
    3.4261   -7.7135    2.6685 C   0  0  0  0  0  0  0  0  0  0  0  0
    4.7630   -7.8307    2.2074 O   0  0  0  0  0  0  0  0  0  0  0  0
    5.2562   -6.6858    1.7189 C   0  0  0  0  0  0  0  0  0  0  0  0
    6.3992   -6.5442    1.2848 O   0  0  0  0  0  0  0  0  0  0  0  0
    4.1462   -5.6123    1.7294 C   0  0  2  0  0  0  0  0  0  0  0  0
    3.5421   -5.8657    0.2948 C   0  0  0  0  0  0  0  0  0  0  0  0
    5.2409   -2.5265    5.6579 H   0  0  0  0  0  0  0  0  0  0  0  0
    5.0158   -2.7243    7.4744 H   0  0  0  0  0  0  0  0  0  0  0  0
    4.4578   -5.0425    7.2186 H   0  0  0  0  0  0  0  0  0  0  0  0
    5.1026   -6.1872    5.3365 H   0  0  0  0  0  0  0  0  0  0  0  0
    6.5361   -4.3142    4.7465 H   0  0  0  0  0  0  0  0  0  0  0  0
    6.3486   -5.5393    3.6567 H   0  0  0  0  0  0  0  0  0  0  0  0
    5.0879   -2.7359    3.4650 H   0  0  0  0  0  0  0  0  0  0  0  0
    6.3921   -3.3102    2.5906 H   0  0  0  0  0  0  0  0  0  0  0  0
    4.9740   -4.1036   -0.0799 H   0  0  0  0  0  0  0  0  0  0  0  0
    2.7822   -3.3523    0.7629 H   0  0  0  0  0  0  0  0  0  0  0  0
    4.9559   -1.4159    1.3957 H   0  0  0  0  0  0  0  0  0  0  0  0
    3.0155   -1.6768   -0.9827 H   0  0  0  0  0  0  0  0  0  0  0  0
    4.6895   -2.2169   -0.9938 H   0  0  0  0  0  0  0  0  0  0  0  0
    4.3143   -0.5014   -0.8544 H   0  0  0  0  0  0  0  0  0  0  0  0
    3.5656    0.4786    1.6090 H   0  0  0  0  0  0  0  0  0  0  0  0
    2.1867   -0.3639    0.9216 H   0  0  0  0  0  0  0  0  0  0  0  0
    3.4356   -0.8468    3.6208 H   0  0  0  0  0  0  0  0  0  0  0  0
    1.7470   -0.4353    3.2375 H   0  0  0  0  0  0  0  0  0  0  0  0
    1.3941   -2.6103    2.2331 H   0  0  0  0  0  0  0  0  0  0  0  0
    3.3325   -3.1204    4.4282 H   0  0  0  0  0  0  0  0  0  0  0  0
    1.7081   -1.8245    5.4870 H   0  0  0  0  0  0  0  0  0  0  0  0
   -1.5592   -1.7907    4.2350 H   0  0  0  0  0  0  0  0  0  0  0  0
   -0.0101   -1.1247    3.7002 H   0  0  0  0  0  0  0  0  0  0  0  0
   -0.5396   -0.9971    5.3996 H   0  0  0  0  0  0  0  0  0  0  0  0
    2.5232   -3.4567    7.0170 H   0  0  0  0  0  0  0  0  0  0  0  0
    0.8500   -3.3841    7.1745 H   0  0  0  0  0  0  0  0  0  0  0  0
    1.5081   -5.6459    7.5307 H   0  0  0  0  0  0  0  0  0  0  0  0
    0.4607   -5.5298    6.1807 H   0  0  0  0  0  0  0  0  0  0  0  0
    3.1958   -6.6442    6.4150 H   0  0  0  0  0  0  0  0  0  0  0  0
    1.0341   -7.5454    4.5283 H   0  0  0  0  0  0  0  0  0  0  0  0
    1.0232   -7.8506    6.2526 H   0  0  0  0  0  0  0  0  0  0  0  0
    2.3255   -8.4754    5.3101 H   0  0  0  0  0  0  0  0  0  0  0  0
    1.1440   -4.9470    4.2988 H   0  0  0  0  0  0  0  0  0  0  0  0
    3.3235   -8.3063    3.5690 H   0  0  0  0  0  0  0  0  0  0  0  0
    2.7111   -8.0927    1.9343 H   0  0  0  0  0  0  0  0  0  0  0  0
    2.6166   -5.3372    0.0927 H   0  0  0  0  0  0  0  0  0  0  0  0
    3.3498   -6.9214    0.1304 H   0  0  0  0  0  0  0  0  0  0  0  0
    4.2263   -5.5940   -0.5095 H   0  0  0  0  0  0  0  0  0  0  0  0
  1  2  2  0
  1 33  1  0
  1 34  1  0
  2  3  1  0
  2 35  1  0
  3 22  1  0
  3  4  1  0
  3 36  1  1
  4  5  1  0
  4 37  1  0
  4 38  1  0
  5  6  1  0
  5 39  1  0
  5 40  1  0
  6 31  1  0
  6  7  1  6
  6  8  1  0
  7 41  1  0
  8 13  1  0
  8  9  1  0
  8 42  1  6
  9 10  1  0
  9 11  1  0
  9 43  1  1
 10 44  1  0
 10 45  1  0
 10 46  1  0
 11 12  1  0
 11 47  1  0
 11 48  1  0
 12 13  1  0
 12 49  1  0
 12 50  1  0
 13 14  1  0
 13 51  1  6
 14 23  1  0
 14 15  1  0
 14 52  1  1
 15 16  1  0
 15 18  1  0
 15 53  1  1
 16 17  1  0
 17 54  1  0
 17 55  1  0
 17 56  1  0
 18 19  1  0
 18 57  1  0
 18 58  1  0
 19 20  1  0
 19 59  1  0
 19 60  1  0
 20 21  1  0
 20 22  1  0
 20 61  1  1
 21 62  1  0
 21 63  1  0
 21 64  1  0
 22 26  1  6
 22 23  1  0
 23 24  1  0
 23 65  1  1
 24 25  2  0
 24 26  1  0
 26 31  1  0
 26 27  1  1
 27 28  1  0
 27 66  1  0
 27 67  1  0
 28 29  1  0
 29 30  2  0
 29 31  1  0
 31 32  1  6
 32 68  1  0
 32 69  1  0
 32 70  1  0
M  END
>  <i_m_ct_stereo_status>  (114) 
1

>  <s_m_source_file>  (114) 
/var/tmp/pbs.5076255.sched01/tmpcsrx8n8z/40wzjmt8mb.sdf

>  <i_m_source_file_index>  (114) 
9

>  <i_lp_mmshare_version>  (114) 
48012

>  <i_f3d_flags>  (114) 
0

>  <s_epik_input>  (114) 
W0NIMl09W0NIXVtDQEBIXTFbQ0gyXVtDSDJdW0NAQF0oW09IXSkoW0NAQF0oW0NAQF0yM1tDQF0xNDUpKFtDSDNdKUMoPU8pT1tDSDJdMylbQ0BIXTZbQ0BIXShbQ0gyXVtDSDJdW0NAQEhdNltDSDNdKVtDQEhdKFtDQEhdNUMyPU8pW0NAQEhdKE9bQ0gzXSlbQ0gyXVtDSDJdW0NASF00W0NIM10=

>  <s_epik_cmdline>  (114) 
J2VwaWtfcHl0aG9uJywgJy1waHQnLCAnMi4wJywgJy1waCcsICc3LjAnLCAnLXRuJywgJzgnLCAnLW1hJywgJzIwMCcsICctaW1hZScsICc8aW5maWxlLm1hZT4nLCAnLW9tYWUnLCAnPG91dGZpbGUubWFlPic=

>  <r_lp_tautomer_probability>  (114) 
1

>  <r_epik_Ionization_Penalty>  (114) 
6.52216e-08

>  <r_epik_Ionization_Penalty_Charging>  (114) 
0

>  <r_epik_Ionization_Penalty_Neutral>  (114) 
6.52216e-08

>  <r_epik_State_Penalty>  (114) 
-0

>  <r_epik_Charging_Adjusted_Penalty>  (114) 
0

>  <i_epik_Tot_Q>  (114) 
0

>  <i_epik_Tot_abs_Q>  (114) 
0

>  <s_epik_Chemistry_Notes>  (114) 
This compound has an ester and may undergo hydrolysis at high or low pH.

>  <s_lp_Force_Field>  (114) 
OPLS3e

>  <r_lp_Energy>  (114) 
116.544

>  <b_lp_Chiralities_Consistent>  (114) 
1

>  <s_lp_Variant>  (114) 
31:0-1

>  <s_i_glide_gridfile>  (114) 
pfpi4k_grid

>  <i_i_glide_lignum>  (114) 
9

>  <i_i_glide_rotatable_bonds>  (114) 
3

>  <r_i_docking_score>  (114) 
-1.81109

>  <r_i_glide_ligand_efficiency>  (114) 
-0.0565965

>  <r_i_glide_ligand_efficiency_sa>  (114) 
-0.179683

>  <r_i_glide_ligand_efficiency_ln>  (114) 
-0.405552

>  <r_i_glide_gscore>  (114) 
-1.81109

>  <r_i_glide_lipo>  (114) 
-0.0744558

>  <r_i_glide_hbond>  (114) 
-0.117564

>  <r_i_glide_metal>  (114) 
-0

>  <r_i_glide_rewards>  (114) 
-0.4725

>  <r_i_glide_evdw>  (114) 
-15.4809

>  <r_i_glide_ecoul>  (114) 
-3.03845

>  <r_i_glide_erotb>  (114) 
0.102023

>  <r_i_glide_esite>  (114) 
-0.0187773

>  <r_i_glide_emodel>  (114) 
-18.7142

>  <r_i_glide_energy>  (114) 
-18.5194

>  <r_i_glide_einternal>  (114) 
3.06625

>  <r_i_glide_intrahb_reward>  (114) 
-0

>  <i_i_glide_confnum>  (114) 
5

>  <i_i_glide_posenum>  (114) 
4

>  <r_i_glide_eff_state_penalty>  (114) 
0

>  <ligand_id>  (114) 
31

>  <original_smiles>  (114) 
C=CC1CCC2(O)C3C(C)CCC3C3C(OC)CCC(C)C14C3C(=O)C41COC(=O)C21C

>  <smiles>  (114) 
[H]OC12C([H])([H])C([H])([H])C([H])(C([H])=C([H])[H])C34C([H])(C(=O)C35C([H])([H])OC(=O)C15C([H])([H])[H])C([H])(C([H])(OC([H])([H])[H])C([H])([H])C([H])([H])C4([H])C([H])([H])[H])C1([H])C([H])([H])C([H])([H])C([H])(C([H])([H])[H])C12[H]

$$$$
31:0:2
     RDKit          3D

 70 75  0  0  1  0  0  0  0  0999 V2000
    4.7147   -4.4846    7.9746 C   0  0  0  0  0  0  0  0  0  0  0  0
    4.3125   -4.1333    6.7405 C   0  0  0  0  0  0  0  0  0  0  0  0
    4.2640   -5.0675    5.5394 C   0  0  2  0  0  0  0  0  0  0  0  0
    5.4237   -4.6273    4.6113 C   0  0  0  0  0  0  0  0  0  0  0  0
    5.1640   -3.6678    3.4422 C   0  0  0  0  0  0  0  0  0  0  0  0
    4.2946   -4.1690    2.2548 C   0  0  2  0  0  0  0  0  0  0  0  0
    5.2209   -4.1268    1.1770 O   0  0  0  0  0  0  0  0  0  0  0  0
    3.1903   -3.0657    1.8456 C   0  0  2  0  0  0  0  0  0  0  0  0
    3.7726   -1.7770    1.1646 C   0  0  1  0  0  0  0  0  0  0  0  0
    3.8731   -1.8446   -0.3748 C   0  0  0  0  0  0  0  0  0  0  0  0
    2.8784   -0.6053    1.5781 C   0  0  0  0  0  0  0  0  0  0  0  0
    2.3511   -0.9853    2.9447 C   0  0  0  0  0  0  0  0  0  0  0  0
    2.1236   -2.4995    2.8750 C   0  0  2  0  0  0  0  0  0  0  0  0
    2.0560   -3.1156    4.2801 C   0  0  1  0  0  0  0  0  0  0  0  0
    1.1233   -2.5319    5.3737 C   0  0  1  0  0  0  0  0  0  0  0  0
   -0.2179   -2.5730    4.8958 O   0  0  0  0  0  0  0  0  0  0  0  0
   -0.9280   -1.3520    5.0350 C   0  0  0  0  0  0  0  0  0  0  0  0
    1.2128   -3.2880    6.7655 C   0  0  0  0  0  0  0  0  0  0  0  0
    1.0348   -4.8602    6.9072 C   0  0  0  0  0  0  0  0  0  0  0  0
    2.0028   -5.9549    6.2413 C   0  0  1  0  0  0  0  0  0  0  0  0
    1.1834   -7.2536    6.0714 C   0  0  0  0  0  0  0  0  0  0  0  0
    2.8284   -5.4788    4.9635 C   0  0  1  0  0  0  0  0  0  0  0  0
    1.7845   -4.5715    4.3074 C   0  0  2  0  0  0  0  0  0  0  0  0
    1.5730   -5.5519    3.1650 C   0  0  0  0  0  0  0  0  0  0  0  0
    0.6170   -5.8539    2.4497 O   0  0  0  0  0  0  0  0  0  0  0  0
    2.9208   -6.1640    3.4934 C   0  0  2  0  0  0  0  0  0  0  0  0
    3.0202   -7.6844    3.4183 C   0  0  0  0  0  0  0  0  0  0  0  0
    4.3636   -7.8821    3.0193 O   0  0  0  0  0  0  0  0  0  0  0  0
    4.9116   -6.8139    2.4410 C   0  0  0  0  0  0  0  0  0  0  0  0
    6.0715   -6.7413    2.0297 O   0  0  0  0  0  0  0  0  0  0  0  0
    3.8370   -5.7175    2.2903 C   0  0  2  0  0  0  0  0  0  0  0  0
    3.2544   -6.1006    0.8752 C   0  0  0  0  0  0  0  0  0  0  0  0
    5.0352   -5.4926    8.1962 H   0  0  0  0  0  0  0  0  0  0  0  0
    4.7318   -3.7606    8.7740 H   0  0  0  0  0  0  0  0  0  0  0  0
    4.0432   -3.1048    6.5681 H   0  0  0  0  0  0  0  0  0  0  0  0
    4.6573   -5.9987    5.9480 H   0  0  0  0  0  0  0  0  0  0  0  0
    6.1689   -4.1298    5.2358 H   0  0  0  0  0  0  0  0  0  0  0  0
    5.9939   -5.4896    4.2882 H   0  0  0  0  0  0  0  0  0  0  0  0
    4.8274   -2.6991    3.8073 H   0  0  0  0  0  0  0  0  0  0  0  0
    6.1511   -3.3989    3.0591 H   0  0  0  0  0  0  0  0  0  0  0  0
    4.7862   -4.4239    0.3953 H   0  0  0  0  0  0  0  0  0  0  0  0
    2.5838   -3.5221    1.0702 H   0  0  0  0  0  0  0  0  0  0  0  0
    4.7636   -1.5797    1.5774 H   0  0  0  0  0  0  0  0  0  0  0  0
    2.9016   -2.0413   -0.8297 H   0  0  0  0  0  0  0  0  0  0  0  0
    4.5532   -2.6205   -0.7188 H   0  0  0  0  0  0  0  0  0  0  0  0
    4.2325   -0.8984   -0.7782 H   0  0  0  0  0  0  0  0  0  0  0  0
    3.4084    0.3472    1.5865 H   0  0  0  0  0  0  0  0  0  0  0  0
    2.0428   -0.4980    0.8870 H   0  0  0  0  0  0  0  0  0  0  0  0
    3.0931   -0.7346    3.7033 H   0  0  0  0  0  0  0  0  0  0  0  0
    1.4359   -0.4456    3.1805 H   0  0  0  0  0  0  0  0  0  0  0  0
    1.1435   -2.6437    2.4232 H   0  0  0  0  0  0  0  0  0  0  0  0
    3.0243   -2.9345    4.7083 H   0  0  0  0  0  0  0  0  0  0  0  0
    1.4222   -1.4954    5.5496 H   0  0  0  0  0  0  0  0  0  0  0  0
   -1.9113   -1.4494    4.5762 H   0  0  0  0  0  0  0  0  0  0  0  0
   -0.4204   -0.5273    4.5332 H   0  0  0  0  0  0  0  0  0  0  0  0
   -1.0627   -1.0949    6.0869 H   0  0  0  0  0  0  0  0  0  0  0  0
    2.1059   -2.9835    7.3001 H   0  0  0  0  0  0  0  0  0  0  0  0
    0.4253   -2.8479    7.3775 H   0  0  0  0  0  0  0  0  0  0  0  0
    1.0099   -5.0813    7.9756 H   0  0  0  0  0  0  0  0  0  0  0  0
    0.0131   -5.0703    6.5848 H   0  0  0  0  0  0  0  0  0  0  0  0
    2.7059   -6.2165    7.0316 H   0  0  0  0  0  0  0  0  0  0  0  0
    0.5769   -7.2607    5.1667 H   0  0  0  0  0  0  0  0  0  0  0  0
    0.4995   -7.3876    6.9093 H   0  0  0  0  0  0  0  0  0  0  0  0
    1.8122   -8.1406    6.0823 H   0  0  0  0  0  0  0  0  0  0  0  0
    0.7756   -4.7057    4.6802 H   0  0  0  0  0  0  0  0  0  0  0  0
    2.8700   -8.1803    4.3706 H   0  0  0  0  0  0  0  0  0  0  0  0
    2.3209   -8.1187    2.7024 H   0  0  0  0  0  0  0  0  0  0  0  0
    2.3643   -5.5521    0.5855 H   0  0  0  0  0  0  0  0  0  0  0  0
    2.9848   -7.1539    0.8141 H   0  0  0  0  0  0  0  0  0  0  0  0
    3.9700   -5.9469    0.0671 H   0  0  0  0  0  0  0  0  0  0  0  0
  1  2  2  0
  1 33  1  0
  1 34  1  0
  2  3  1  0
  2 35  1  0
  3 22  1  0
  3  4  1  0
  3 36  1  1
  4  5  1  0
  4 37  1  0
  4 38  1  0
  5  6  1  0
  5 39  1  0
  5 40  1  0
  6 31  1  0
  6  7  1  6
  6  8  1  0
  7 41  1  0
  8 13  1  0
  8  9  1  0
  8 42  1  6
  9 10  1  0
  9 11  1  0
  9 43  1  1
 10 44  1  0
 10 45  1  0
 10 46  1  0
 11 12  1  0
 11 47  1  0
 11 48  1  0
 12 13  1  0
 12 49  1  0
 12 50  1  0
 13 14  1  0
 13 51  1  6
 14 23  1  0
 14 15  1  0
 14 52  1  1
 15 16  1  0
 15 18  1  0
 15 53  1  1
 16 17  1  0
 17 54  1  0
 17 55  1  0
 17 56  1  0
 18 19  1  0
 18 57  1  0
 18 58  1  0
 19 20  1  0
 19 59  1  0
 19 60  1  0
 20 21  1  0
 20 22  1  0
 20 61  1  1
 21 62  1  0
 21 63  1  0
 21 64  1  0
 22 26  1  6
 22 23  1  0
 23 24  1  0
 23 65  1  1
 24 25  2  0
 24 26  1  0
 26 31  1  0
 26 27  1  1
 27 28  1  0
 27 66  1  0
 27 67  1  0
 28 29  1  0
 29 30  2  0
 29 31  1  0
 31 32  1  6
 32 68  1  0
 32 69  1  0
 32 70  1  0
M  END
>  <i_m_ct_stereo_status>  (115) 
1

>  <s_m_source_file>  (115) 
/var/tmp/pbs.5076255.sched01/tmpcsrx8n8z/40wzjmt8mb.sdf

>  <i_m_source_file_index>  (115) 
9

>  <i_lp_mmshare_version>  (115) 
48012

>  <i_f3d_flags>  (115) 
0

>  <s_epik_input>  (115) 
W0NIMl09W0NIXVtDQEBIXTFbQ0gyXVtDSDJdW0NAQF0oW09IXSkoW0NAQF0oW0NAQF0yM1tDQF0xNDUpKFtDSDNdKUMoPU8pT1tDSDJdMylbQ0BIXTZbQ0BIXShbQ0gyXVtDSDJdW0NAQEhdNltDSDNdKVtDQEhdKFtDQEhdNUMyPU8pW0NAQEhdKE9bQ0gzXSlbQ0gyXVtDSDJdW0NASF00W0NIM10=

>  <s_epik_cmdline>  (115) 
J2VwaWtfcHl0aG9uJywgJy1waHQnLCAnMi4wJywgJy1waCcsICc3LjAnLCAnLXRuJywgJzgnLCAnLW1hJywgJzIwMCcsICctaW1hZScsICc8aW5maWxlLm1hZT4nLCAnLW9tYWUnLCAnPG91dGZpbGUubWFlPic=

>  <r_lp_tautomer_probability>  (115) 
1

>  <r_epik_Ionization_Penalty>  (115) 
6.52216e-08

>  <r_epik_Ionization_Penalty_Charging>  (115) 
0

>  <r_epik_Ionization_Penalty_Neutral>  (115) 
6.52216e-08

>  <r_epik_State_Penalty>  (115) 
-0

>  <r_epik_Charging_Adjusted_Penalty>  (115) 
0

>  <i_epik_Tot_Q>  (115) 
0

>  <i_epik_Tot_abs_Q>  (115) 
0

>  <s_epik_Chemistry_Notes>  (115) 
This compound has an ester and may undergo hydrolysis at high or low pH.

>  <s_lp_Force_Field>  (115) 
OPLS3e

>  <r_lp_Energy>  (115) 
116.544

>  <b_lp_Chiralities_Consistent>  (115) 
1

>  <s_lp_Variant>  (115) 
31:0-1

>  <s_i_glide_gridfile>  (115) 
pfpi4k_grid

>  <i_i_glide_lignum>  (115) 
9

>  <i_i_glide_rotatable_bonds>  (115) 
3

>  <r_i_docking_score>  (115) 
-1.55744

>  <r_i_glide_ligand_efficiency>  (115) 
-0.0486701

>  <r_i_glide_ligand_efficiency_sa>  (115) 
-0.154518

>  <r_i_glide_ligand_efficiency_ln>  (115) 
-0.348754

>  <r_i_glide_gscore>  (115) 
-1.55744

>  <r_i_glide_lipo>  (115) 
-0.0492314

>  <r_i_glide_hbond>  (115) 
-0.113606

>  <r_i_glide_metal>  (115) 
-0

>  <r_i_glide_rewards>  (115) 
-0.391448

>  <r_i_glide_evdw>  (115) 
-16.1909

>  <r_i_glide_ecoul>  (115) 
-1.84179

>  <r_i_glide_erotb>  (115) 
0.102023

>  <r_i_glide_esite>  (115) 
-0.0193634

>  <r_i_glide_emodel>  (115) 
-19.605

>  <r_i_glide_energy>  (115) 
-18.0327

>  <r_i_glide_einternal>  (115) 
1.00467

>  <r_i_glide_intrahb_reward>  (115) 
-0

>  <i_i_glide_confnum>  (115) 
4

>  <i_i_glide_posenum>  (115) 
7

>  <r_i_glide_eff_state_penalty>  (115) 
0

>  <ligand_id>  (115) 
31

>  <original_smiles>  (115) 
C=CC1CCC2(O)C3C(C)CCC3C3C(OC)CCC(C)C14C3C(=O)C41COC(=O)C21C

>  <smiles>  (115) 
[H]OC12C([H])([H])C([H])([H])C([H])(C([H])=C([H])[H])C34C([H])(C(=O)C35C([H])([H])OC(=O)C15C([H])([H])[H])C([H])(C([H])(OC([H])([H])[H])C([H])([H])C([H])([H])C4([H])C([H])([H])[H])C1([H])C([H])([H])C([H])([H])C([H])(C([H])([H])[H])C12[H]

$$$$
32:0:0
     RDKit          3D

 65 70  0  0  1  0  0  0  0  0999 V2000
    4.3070   -8.2089    3.6673 C   0  0  0  0  0  0  0  0  0  0  0  0
    3.7892   -7.5317    2.3803 C   0  0  2  0  0  0  0  0  0  0  0  0
    4.8477   -7.4701    1.2511 C   0  0  0  0  0  0  0  0  0  0  0  0
    5.2897   -6.0601    0.9148 C   0  0  0  0  0  0  0  0  0  0  0  0
    5.0132   -5.3718   -0.1908 C   0  0  0  0  0  0  0  0  0  0  0  0
    5.3708   -3.9339    0.1217 C   0  0  1  0  0  0  0  0  0  0  0  0
    5.5380   -3.0396   -1.0735 C   0  0  0  0  0  0  0  0  0  0  0  0
    4.5484   -2.4415   -1.7510 C   0  0  0  0  0  0  0  0  0  0  0  0
    4.4874   -0.9274   -1.8832 C   0  0  1  0  0  0  0  0  0  0  0  0
    4.2085   -0.4459   -3.3207 C   0  0  0  0  0  0  0  0  0  0  0  0
    3.4577   -1.2235   -4.0964 C   0  0  0  0  0  0  0  0  0  0  0  0
    2.7437   -2.4298   -3.4970 C   0  0  1  0  0  0  0  0  0  0  0  0
    3.2008   -3.5963   -4.1331 O   0  0  0  0  0  0  0  0  0  0  0  0
    3.0311   -2.5433   -1.9601 C   0  0  1  0  0  0  0  0  0  0  0  0
    2.1381   -3.6343   -1.3390 C   0  0  0  0  0  0  0  0  0  0  0  0
    3.1636   -1.2233   -1.1633 C   0  0  1  0  0  0  0  0  0  0  0  0
    3.0555   -1.2042    0.4137 C   0  0  0  0  0  0  0  0  0  0  0  0
    4.1746   -1.8637    1.2887 C   0  0  0  0  0  0  0  0  0  0  0  0
    4.3630   -3.4241    1.2111 C   0  0  2  0  0  0  0  0  0  0  0  0
    4.8470   -4.1947    2.5048 C   0  0  1  0  0  0  0  0  0  0  0  0
    5.4262   -3.2247    3.5635 C   0  0  0  0  0  0  0  0  0  0  0  0
    3.7349   -4.9991    3.2585 C   0  0  0  0  0  0  0  0  0  0  0  0
    2.9768   -6.2306    2.6644 C   0  0  1  0  0  0  0  0  0  0  0  0
    1.9682   -5.9179    1.5444 C   0  0  0  0  0  0  0  0  0  0  0  0
    5.9673   -5.1203    1.9106 C   0  0  1  0  0  0  0  0  0  0  0  0
    6.9522   -5.8057    2.8837 C   0  0  0  0  0  0  0  0  0  0  0  0
    6.6502   -4.1186    0.9514 C   0  0  1  0  0  0  0  0  0  0  0  0
    7.8906   -4.6522    0.2004 C   0  0  0  0  0  0  0  0  0  0  0  0
    8.6704   -3.8926   -0.3794 O   0  0  0  0  0  0  0  0  0  0  0  0
    4.9919   -7.5860    4.2347 H   0  0  0  0  0  0  0  0  0  0  0  0
    4.8206   -9.1459    3.4401 H   0  0  0  0  0  0  0  0  0  0  0  0
    3.4815   -8.4564    4.3382 H   0  0  0  0  0  0  0  0  0  0  0  0
    3.0536   -8.2557    2.0175 H   0  0  0  0  0  0  0  0  0  0  0  0
    5.7184   -8.0778    1.4847 H   0  0  0  0  0  0  0  0  0  0  0  0
    4.4172   -7.8868    0.3488 H   0  0  0  0  0  0  0  0  0  0  0  0
    4.4976   -5.6935   -1.0671 H   0  0  0  0  0  0  0  0  0  0  0  0
    6.4297   -2.4340   -0.9966 H   0  0  0  0  0  0  0  0  0  0  0  0
    5.1375   -0.2925   -1.2885 H   0  0  0  0  0  0  0  0  0  0  0  0
    4.6077    0.5230   -3.6553 H   0  0  0  0  0  0  0  0  0  0  0  0
    3.2563   -0.9829   -5.1207 H   0  0  0  0  0  0  0  0  0  0  0  0
    1.6732   -2.3147   -3.6938 H   0  0  0  0  0  0  0  0  0  0  0  0
    2.8378   -4.3407   -3.6654 H   0  0  0  0  0  0  0  0  0  0  0  0
    1.1724   -3.6539   -1.8487 H   0  0  0  0  0  0  0  0  0  0  0  0
    1.8654   -3.4349   -0.3069 H   0  0  0  0  0  0  0  0  0  0  0  0
    2.5626   -4.6273   -1.3880 H   0  0  0  0  0  0  0  0  0  0  0  0
    2.5022   -0.5381   -1.6477 H   0  0  0  0  0  0  0  0  0  0  0  0
    2.9528   -0.1623    0.7373 H   0  0  0  0  0  0  0  0  0  0  0  0
    2.1327   -1.6569    0.7606 H   0  0  0  0  0  0  0  0  0  0  0  0
    5.1164   -1.3425    1.1324 H   0  0  0  0  0  0  0  0  0  0  0  0
    3.8658   -1.6121    2.2989 H   0  0  0  0  0  0  0  0  0  0  0  0
    3.3882   -3.8233    0.9990 H   0  0  0  0  0  0  0  0  0  0  0  0
    5.9314   -3.7658    4.3685 H   0  0  0  0  0  0  0  0  0  0  0  0
    4.6484   -2.6328    4.0481 H   0  0  0  0  0  0  0  0  0  0  0  0
    6.1369   -2.5145    3.1387 H   0  0  0  0  0  0  0  0  0  0  0  0
    4.1604   -5.3385    4.2067 H   0  0  0  0  0  0  0  0  0  0  0  0
    2.9747   -4.2753    3.5523 H   0  0  0  0  0  0  0  0  0  0  0  0
    2.3195   -6.5166    3.4874 H   0  0  0  0  0  0  0  0  0  0  0  0
    2.4472   -5.8206    0.5741 H   0  0  0  0  0  0  0  0  0  0  0  0
    1.4196   -5.0044    1.7614 H   0  0  0  0  0  0  0  0  0  0  0  0
    1.2374   -6.7205    1.4499 H   0  0  0  0  0  0  0  0  0  0  0  0
    7.7069   -5.0980    3.2104 H   0  0  0  0  0  0  0  0  0  0  0  0
    7.4866   -6.6313    2.4188 H   0  0  0  0  0  0  0  0  0  0  0  0
    6.4628   -6.1749    3.7724 H   0  0  0  0  0  0  0  0  0  0  0  0
    6.9723   -3.1898    1.4234 H   0  0  0  0  0  0  0  0  0  0  0  0
    8.0168   -5.7319    0.2134 H   0  0  0  0  0  0  0  0  0  0  0  0
  1  2  1  0
  1 30  1  0
  1 31  1  0
  1 32  1  0
  2 23  1  0
  2  3  1  0
  2 33  1  6
  3  4  1  0
  3 34  1  0
  3 35  1  0
  4 25  1  0
  4  5  2  0
  6  5  1  6
  5 36  1  0
  6 19  1  0
  6 27  1  0
  6  7  1  0
  7  8  2  3
  7 37  1  0
  8 14  1  0
  8  9  1  0
  9 16  1  0
  9 10  1  0
  9 38  1  1
 10 11  2  0
 10 39  1  0
 11 12  1  0
 11 40  1  0
 12 13  1  0
 12 14  1  0
 12 41  1  1
 13 42  1  0
 14 15  1  1
 14 16  1  0
 15 43  1  0
 15 44  1  0
 15 45  1  0
 16 17  1  0
 16 46  1  6
 17 18  1  0
 17 47  1  0
 17 48  1  0
 18 19  1  0
 18 49  1  0
 18 50  1  0
 19 20  1  0
 19 51  1  6
 20 21  1  1
 20 22  1  0
 20 25  1  0
 21 52  1  0
 21 53  1  0
 21 54  1  0
 22 23  1  0
 22 55  1  0
 22 56  1  0
 23 24  1  0
 23 57  1  1
 24 58  1  0
 24 59  1  0
 24 60  1  0
 25 26  1  1
 25 27  1  0
 26 61  1  0
 26 62  1  0
 26 63  1  0
 27 28  1  0
 27 64  1  1
 28 29  2  0
 28 65  1  0
M  END
>  <i_m_ct_stereo_status>  (116) 
1

>  <s_m_source_file>  (116) 
/var/tmp/pbs.5076255.sched01/tmpcsrx8n8z/40wzjmt8mb.sdf

>  <i_m_source_file_index>  (116) 
10

>  <i_lp_mmshare_version>  (116) 
48012

>  <i_f3d_flags>  (116) 
0

>  <s_epik_input>  (116) 
W0NIMl0xW0NAQEhdKFtDSDNdKVtDQEhdKFtDSDNdKVtDSDJdQyg9W0NIXTIpW0NAQF0oW0NIM10pKFtDQEhdM1tDSF09TylbQ0BAXTEoW0NIM10pW0NASF0oW0NAXTIzNClbQ0gyXVtDSDJdW0NASF01W0NASF02XEMoPVtDSF1cNClbQ0BdNShbQ0gzXSlbQ0BIXShbT0hdKVtDSF09W0NIXTY=

>  <s_epik_cmdline>  (116) 
J2VwaWtfcHl0aG9uJywgJy1waHQnLCAnMi4wJywgJy1waCcsICc3LjAnLCAnLXRuJywgJzgnLCAnLW1hJywgJzIwMCcsICctaW1hZScsICc8aW5maWxlLm1hZT4nLCAnLW9tYWUnLCAnPG91dGZpbGUubWFlPic=

>  <r_lp_tautomer_probability>  (116) 
1

>  <r_epik_Ionization_Penalty>  (116) 
9.93007e-08

>  <r_epik_Ionization_Penalty_Charging>  (116) 
0

>  <r_epik_Ionization_Penalty_Neutral>  (116) 
9.93007e-08

>  <r_epik_State_Penalty>  (116) 
-0

>  <r_epik_Charging_Adjusted_Penalty>  (116) 
0

>  <i_epik_Tot_Q>  (116) 
0

>  <i_epik_Tot_abs_Q>  (116) 
0

>  <s_lp_Force_Field>  (116) 
OPLS3e

>  <r_lp_Energy>  (116) 
111.285

>  <b_lp_Chiralities_Consistent>  (116) 
1

>  <s_lp_Variant>  (116) 
32:0-1

>  <s_i_glide_gridfile>  (116) 
pfpi4k_grid

>  <i_i_glide_lignum>  (116) 
10

>  <i_i_glide_rotatable_bonds>  (116) 
2

>  <r_i_docking_score>  (116) 
-3.8626

>  <r_i_glide_ligand_efficiency>  (116) 
-0.133193

>  <r_i_glide_ligand_efficiency_sa>  (116) 
-0.409212

>  <r_i_glide_ligand_efficiency_ln>  (116) 
-0.884438

>  <r_i_glide_gscore>  (116) 
-3.8626

>  <r_i_glide_lipo>  (116) 
-1.0119

>  <r_i_glide_hbond>  (116) 
-0.327229

>  <r_i_glide_metal>  (116) 
-0

>  <r_i_glide_rewards>  (116) 
-0.917734

>  <r_i_glide_evdw>  (116) 
-15.6333

>  <r_i_glide_ecoul>  (116) 
-5.4938

>  <r_i_glide_erotb>  (116) 
0

>  <r_i_glide_esite>  (116) 
0

>  <r_i_glide_emodel>  (116) 
-25.5925

>  <r_i_glide_energy>  (116) 
-21.1271

>  <r_i_glide_einternal>  (116) 
1.00888

>  <r_i_glide_intrahb_reward>  (116) 
-0

>  <i_i_glide_confnum>  (116) 
2

>  <i_i_glide_posenum>  (116) 
1

>  <r_i_glide_eff_state_penalty>  (116) 
0

>  <ligand_id>  (116) 
32

>  <original_smiles>  (116) 
CC1CC2=CC34C=C5C6C=CC(O)C5(C)C6CCC3C(C)(CC1C)C2(C)C4C=O

>  <smiles>  (116) 
[H]OC1([H])C([H])=C([H])C2([H])C3=C([H])C45C([H])=C6C([H])([H])C([H])(C([H])([H])[H])C([H])(C([H])([H])[H])C([H])([H])C(C([H])([H])[H])(C4([H])C([H])([H])C([H])([H])C2([H])C31C([H])([H])[H])C6(C([H])([H])[H])C5([H])C([H])=O

$$$$
32:0:1
     RDKit          3D

 65 70  0  0  1  0  0  0  0  0999 V2000
    5.8759   -3.2997    2.0421 C   0  0  0  0  0  0  0  0  0  0  0  0
    4.8737   -2.1317    1.9384 C   0  0  2  0  0  0  0  0  0  0  0  0
    5.2545   -0.9000    2.7968 C   0  0  0  0  0  0  0  0  0  0  0  0
    4.2951   -0.6262    3.9333 C   0  0  0  0  0  0  0  0  0  0  0  0
    3.4258    0.3873    4.0219 C   0  0  0  0  0  0  0  0  0  0  0  0
    2.4729    0.0138    5.1312 C   0  0  1  0  0  0  0  0  0  0  0  0
    1.6362    1.1204    5.7221 C   0  0  0  0  0  0  0  0  0  0  0  0
    0.4956    1.6158    5.2264 C   0  0  0  0  0  0  0  0  0  0  0  0
   -0.8129    1.6131    5.9934 C   0  0  1  0  0  0  0  0  0  0  0  0
   -1.4153    3.0064    6.0247 C   0  0  0  0  0  0  0  0  0  0  0  0
   -1.3365    3.7596    4.9157 C   0  0  0  0  0  0  0  0  0  0  0  0
   -0.7025    3.1779    3.6630 C   0  0  1  0  0  0  0  0  0  0  0  0
    0.3848    3.9873    3.2791 O   0  0  0  0  0  0  0  0  0  0  0  0
   -0.2696    1.7002    3.8873 C   0  0  1  0  0  0  0  0  0  0  0  0
    0.3163    1.1588    2.5726 C   0  0  0  0  0  0  0  0  0  0  0  0
   -1.2050    0.7779    4.7360 C   0  0  1  0  0  0  0  0  0  0  0  0
   -1.0253   -0.7656    4.7229 C   0  0  0  0  0  0  0  0  0  0  0  0
    0.2503   -1.4500    5.3371 C   0  0  0  0  0  0  0  0  0  0  0  0
    1.6461   -1.2301    4.6428 C   0  0  2  0  0  0  0  0  0  0  0  0
    2.7243   -2.3944    4.6925 C   0  0  1  0  0  0  0  0  0  0  0  0
    2.3850   -3.4538    5.7830 C   0  0  0  0  0  0  0  0  0  0  0  0
    2.8673   -3.2060    3.3557 C   0  0  0  0  0  0  0  0  0  0  0  0
    3.3941   -2.5996    2.0081 C   0  0  1  0  0  0  0  0  0  0  0  0
    2.4485   -1.6222    1.2955 C   0  0  0  0  0  0  0  0  0  0  0  0
    4.0207   -1.6026    5.0680 C   0  0  1  0  0  0  0  0  0  0  0  0
    5.2284   -2.4276    5.5737 C   0  0  0  0  0  0  0  0  0  0  0  0
    3.4601   -0.6295    6.1361 C   0  0  1  0  0  0  0  0  0  0  0  0
    4.5115    0.3092    6.7887 C   0  0  0  0  0  0  0  0  0  0  0  0
    4.2453    1.4538    7.1549 O   0  0  0  0  0  0  0  0  0  0  0  0
    5.8153   -3.8301    2.9886 H   0  0  0  0  0  0  0  0  0  0  0  0
    6.8974   -2.9454    1.9171 H   0  0  0  0  0  0  0  0  0  0  0  0
    5.7050   -4.0352    1.2558 H   0  0  0  0  0  0  0  0  0  0  0  0
    5.0194   -1.7944    0.9095 H   0  0  0  0  0  0  0  0  0  0  0  0
    6.2613   -0.9830    3.1876 H   0  0  0  0  0  0  0  0  0  0  0  0
    5.2511   -0.0184    2.1566 H   0  0  0  0  0  0  0  0  0  0  0  0
    3.3028    1.2230    3.3523 H   0  0  0  0  0  0  0  0  0  0  0  0
    1.6581    1.0955    6.8039 H   0  0  0  0  0  0  0  0  0  0  0  0
   -0.9066    1.0649    6.9355 H   0  0  0  0  0  0  0  0  0  0  0  0
   -1.8454    3.3656    6.9464 H   0  0  0  0  0  0  0  0  0  0  0  0
   -1.6925    4.7727    4.8780 H   0  0  0  0  0  0  0  0  0  0  0  0
   -1.4504    3.2424    2.8688 H   0  0  0  0  0  0  0  0  0  0  0  0
    0.3225    4.1240    2.3140 H   0  0  0  0  0  0  0  0  0  0  0  0
   -0.3039    1.5018    1.7363 H   0  0  0  0  0  0  0  0  0  0  0  0
    0.2612    0.0810    2.4758 H   0  0  0  0  0  0  0  0  0  0  0  0
    1.3225    1.5064    2.3684 H   0  0  0  0  0  0  0  0  0  0  0  0
   -2.2283    1.0316    4.4385 H   0  0  0  0  0  0  0  0  0  0  0  0
   -1.8824   -1.1954    5.2441 H   0  0  0  0  0  0  0  0  0  0  0  0
   -1.1353   -1.1243    3.7025 H   0  0  0  0  0  0  0  0  0  0  0  0
    0.3178   -1.2282    6.3993 H   0  0  0  0  0  0  0  0  0  0  0  0
    0.0167   -2.5130    5.2797 H   0  0  0  0  0  0  0  0  0  0  0  0
    1.4236   -1.1034    3.5988 H   0  0  0  0  0  0  0  0  0  0  0  0
    3.2108   -4.1481    5.9421 H   0  0  0  0  0  0  0  0  0  0  0  0
    1.5353   -4.0693    5.4854 H   0  0  0  0  0  0  0  0  0  0  0  0
    2.1417   -3.0185    6.7509 H   0  0  0  0  0  0  0  0  0  0  0  0
    3.4956   -4.0735    3.5603 H   0  0  0  0  0  0  0  0  0  0  0  0
    1.8881   -3.6327    3.1381 H   0  0  0  0  0  0  0  0  0  0  0  0
    3.3686   -3.4640    1.3417 H   0  0  0  0  0  0  0  0  0  0  0  0
    2.5050   -0.6109    1.6964 H   0  0  0  0  0  0  0  0  0  0  0  0
    1.4133   -1.9561    1.3567 H   0  0  0  0  0  0  0  0  0  0  0  0
    2.6979   -1.5499    0.2379 H   0  0  0  0  0  0  0  0  0  0  0  0
    5.0730   -2.7614    6.5955 H   0  0  0  0  0  0  0  0  0  0  0  0
    6.1495   -1.8441    5.5739 H   0  0  0  0  0  0  0  0  0  0  0  0
    5.3944   -3.3210    4.9809 H   0  0  0  0  0  0  0  0  0  0  0  0
    2.9441   -1.1335    6.9514 H   0  0  0  0  0  0  0  0  0  0  0  0
    5.5022   -0.1215    6.9337 H   0  0  0  0  0  0  0  0  0  0  0  0
  1  2  1  0
  1 30  1  0
  1 31  1  0
  1 32  1  0
  2 23  1  0
  2  3  1  0
  2 33  1  6
  3  4  1  0
  3 34  1  0
  3 35  1  0
  4 25  1  0
  4  5  2  0
  6  5  1  6
  5 36  1  0
  6 19  1  0
  6 27  1  0
  6  7  1  0
  7  8  2  3
  7 37  1  0
  8 14  1  0
  8  9  1  0
  9 16  1  0
  9 10  1  0
  9 38  1  1
 10 11  2  0
 10 39  1  0
 11 12  1  0
 11 40  1  0
 12 13  1  0
 12 14  1  0
 12 41  1  6
 13 42  1  0
 14 15  1  6
 14 16  1  0
 15 43  1  0
 15 44  1  0
 15 45  1  0
 16 17  1  0
 16 46  1  6
 17 18  1  0
 17 47  1  0
 17 48  1  0
 18 19  1  0
 18 49  1  0
 18 50  1  0
 19 20  1  0
 19 51  1  6
 20 21  1  1
 20 22  1  0
 20 25  1  0
 21 52  1  0
 21 53  1  0
 21 54  1  0
 22 23  1  0
 22 55  1  0
 22 56  1  0
 23 24  1  0
 23 57  1  6
 24 58  1  0
 24 59  1  0
 24 60  1  0
 25 26  1  1
 25 27  1  0
 26 61  1  0
 26 62  1  0
 26 63  1  0
 27 28  1  0
 27 64  1  1
 28 29  2  0
 28 65  1  0
M  END
>  <i_m_ct_stereo_status>  (117) 
1

>  <s_m_source_file>  (117) 
/var/tmp/pbs.5076255.sched01/tmpcsrx8n8z/40wzjmt8mb.sdf

>  <i_m_source_file_index>  (117) 
10

>  <i_lp_mmshare_version>  (117) 
48012

>  <i_f3d_flags>  (117) 
0

>  <s_epik_input>  (117) 
W0NIMl0xW0NAQEhdKFtDSDNdKVtDQEhdKFtDSDNdKVtDSDJdQyg9W0NIXTIpW0NAQF0oW0NIM10pKFtDQEhdM1tDSF09TylbQ0BAXTEoW0NIM10pW0NASF0oW0NAXTIzNClbQ0gyXVtDSDJdW0NASF01W0NASF02XEMoPVtDSF1cNClbQ0BdNShbQ0gzXSlbQ0BIXShbT0hdKVtDSF09W0NIXTY=

>  <s_epik_cmdline>  (117) 
J2VwaWtfcHl0aG9uJywgJy1waHQnLCAnMi4wJywgJy1waCcsICc3LjAnLCAnLXRuJywgJzgnLCAnLW1hJywgJzIwMCcsICctaW1hZScsICc8aW5maWxlLm1hZT4nLCAnLW9tYWUnLCAnPG91dGZpbGUubWFlPic=

>  <r_lp_tautomer_probability>  (117) 
1

>  <r_epik_Ionization_Penalty>  (117) 
9.93007e-08

>  <r_epik_Ionization_Penalty_Charging>  (117) 
0

>  <r_epik_Ionization_Penalty_Neutral>  (117) 
9.93007e-08

>  <r_epik_State_Penalty>  (117) 
-0

>  <r_epik_Charging_Adjusted_Penalty>  (117) 
0

>  <i_epik_Tot_Q>  (117) 
0

>  <i_epik_Tot_abs_Q>  (117) 
0

>  <s_lp_Force_Field>  (117) 
OPLS3e

>  <r_lp_Energy>  (117) 
111.285

>  <b_lp_Chiralities_Consistent>  (117) 
1

>  <s_lp_Variant>  (117) 
32:0-1

>  <s_i_glide_gridfile>  (117) 
pfpi4k_grid

>  <i_i_glide_lignum>  (117) 
10

>  <i_i_glide_rotatable_bonds>  (117) 
2

>  <r_i_docking_score>  (117) 
-2.76126

>  <r_i_glide_ligand_efficiency>  (117) 
-0.095216

>  <r_i_glide_ligand_efficiency_sa>  (117) 
-0.292534

>  <r_i_glide_ligand_efficiency_ln>  (117) 
-0.632259

>  <r_i_glide_gscore>  (117) 
-2.76126

>  <r_i_glide_lipo>  (117) 
-0.26924

>  <r_i_glide_hbond>  (117) 
-0.16

>  <r_i_glide_metal>  (117) 
-0

>  <r_i_glide_rewards>  (117) 
-0.732453

>  <r_i_glide_evdw>  (117) 
-16.1454

>  <r_i_glide_ecoul>  (117) 
-5.28198

>  <r_i_glide_erotb>  (117) 
0

>  <r_i_glide_esite>  (117) 
0

>  <r_i_glide_emodel>  (117) 
-24.5758

>  <r_i_glide_energy>  (117) 
-21.4274

>  <r_i_glide_einternal>  (117) 
1.12328

>  <r_i_glide_intrahb_reward>  (117) 
-0

>  <i_i_glide_confnum>  (117) 
2

>  <i_i_glide_posenum>  (117) 
33

>  <r_i_glide_eff_state_penalty>  (117) 
0

>  <ligand_id>  (117) 
32

>  <original_smiles>  (117) 
CC1CC2=CC34C=C5C6C=CC(O)C5(C)C6CCC3C(C)(CC1C)C2(C)C4C=O

>  <smiles>  (117) 
[H]OC1([H])C([H])=C([H])C2([H])C3=C([H])C45C([H])=C6C([H])([H])C([H])(C([H])([H])[H])C([H])(C([H])([H])[H])C([H])([H])C(C([H])([H])[H])(C4([H])C([H])([H])C([H])([H])C2([H])C31C([H])([H])[H])C6(C([H])([H])[H])C5([H])C([H])=O

$$$$
32:0:2
     RDKit          3D

 65 70  0  0  1  0  0  0  0  0999 V2000
    5.9558   -2.5325    1.9851 C   0  0  0  0  0  0  0  0  0  0  0  0
    4.7149   -1.6285    1.9193 C   0  0  2  0  0  0  0  0  0  0  0  0
    4.9117   -0.2570    2.6070 C   0  0  0  0  0  0  0  0  0  0  0  0
    4.0449   -0.0578    3.8212 C   0  0  0  0  0  0  0  0  0  0  0  0
    2.9913    0.7617    3.9369 C   0  0  0  0  0  0  0  0  0  0  0  0
    2.2828    0.3394    5.1994 C   0  0  1  0  0  0  0  0  0  0  0  0
    1.2957    1.3202    5.7924 C   0  0  0  0  0  0  0  0  0  0  0  0
    0.0229    1.4954    5.4117 C   0  0  0  0  0  0  0  0  0  0  0  0
   -1.1616    1.3072    6.3493 C   0  0  1  0  0  0  0  0  0  0  0  0
   -2.0520    2.5373    6.3269 C   0  0  0  0  0  0  0  0  0  0  0  0
   -2.2715    3.1471    5.1518 C   0  0  0  0  0  0  0  0  0  0  0  0
   -1.6715    2.5741    3.8834 C   0  0  1  0  0  0  0  0  0  0  0  0
   -0.8373    3.5681    3.3031 O   0  0  0  0  0  0  0  0  0  0  0  0
   -0.8886    1.2552    4.1900 C   0  0  1  0  0  0  0  0  0  0  0  0
   -0.3514    0.6974    2.8658 C   0  0  0  0  0  0  0  0  0  0  0  0
   -1.5039    0.2681    5.2346 C   0  0  1  0  0  0  0  0  0  0  0  0
   -0.9839   -1.2007    5.3424 C   0  0  0  0  0  0  0  0  0  0  0  0
    0.4691   -1.5196    5.8428 C   0  0  0  0  0  0  0  0  0  0  0  0
    1.6958   -1.0995    4.9505 C   0  0  2  0  0  0  0  0  0  0  0  0
    3.0003   -2.0013    4.9599 C   0  0  1  0  0  0  0  0  0  0  0  0
    3.0279   -2.9660    6.1806 C   0  0  0  0  0  0  0  0  0  0  0  0
    3.1697   -2.9209    3.6988 C   0  0  0  0  0  0  0  0  0  0  0  0
    3.3956   -2.3847    2.2447 C   0  0  1  0  0  0  0  0  0  0  0  0
    2.1826   -1.7206    1.5849 C   0  0  0  0  0  0  0  0  0  0  0  0
    4.1233   -0.9210    5.0747 C   0  0  1  0  0  0  0  0  0  0  0  0
    5.5233   -1.4216    5.4784 C   0  0  0  0  0  0  0  0  0  0  0  0
    3.4983    0.0434    6.1086 C   0  0  1  0  0  0  0  0  0  0  0  0
    4.3327    1.2862    6.5421 C   0  0  0  0  0  0  0  0  0  0  0  0
    5.4167    1.5857    6.0381 O   0  0  0  0  0  0  0  0  0  0  0  0
    6.1077   -2.9453    2.9760 H   0  0  0  0  0  0  0  0  0  0  0  0
    6.8535   -1.9845    1.6928 H   0  0  0  0  0  0  0  0  0  0  0  0
    5.8678   -3.3812    1.3049 H   0  0  0  0  0  0  0  0  0  0  0  0
    4.6593   -1.3904    0.8555 H   0  0  0  0  0  0  0  0  0  0  0  0
    5.9549   -0.0823    2.8689 H   0  0  0  0  0  0  0  0  0  0  0  0
    4.6267    0.5163    1.8939 H   0  0  0  0  0  0  0  0  0  0  0  0
    2.6147    1.4703    3.2196 H   0  0  0  0  0  0  0  0  0  0  0  0
    1.4484    1.4327    6.8580 H   0  0  0  0  0  0  0  0  0  0  0  0
   -1.0187    0.8785    7.3436 H   0  0  0  0  0  0  0  0  0  0  0  0
   -2.4438    2.9151    7.2618 H   0  0  0  0  0  0  0  0  0  0  0  0
   -2.8451    4.0486    5.0745 H   0  0  0  0  0  0  0  0  0  0  0  0
   -2.5018    2.3725    3.2020 H   0  0  0  0  0  0  0  0  0  0  0  0
   -0.6419    3.3861    2.3903 H   0  0  0  0  0  0  0  0  0  0  0  0
   -1.1201    0.7950    2.0959 H   0  0  0  0  0  0  0  0  0  0  0  0
   -0.1684   -0.3689    2.8857 H   0  0  0  0  0  0  0  0  0  0  0  0
    0.5258    1.2235    2.4944 H   0  0  0  0  0  0  0  0  0  0  0  0
   -2.5784    0.2561    5.0584 H   0  0  0  0  0  0  0  0  0  0  0  0
   -1.6546   -1.7348    6.0159 H   0  0  0  0  0  0  0  0  0  0  0  0
   -1.1306   -1.7099    4.3890 H   0  0  0  0  0  0  0  0  0  0  0  0
    0.6047   -1.1596    6.8614 H   0  0  0  0  0  0  0  0  0  0  0  0
    0.4767   -2.6066    5.9206 H   0  0  0  0  0  0  0  0  0  0  0  0
    1.3354   -1.1488    3.9400 H   0  0  0  0  0  0  0  0  0  0  0  0
    4.0002   -3.4478    6.2892 H   0  0  0  0  0  0  0  0  0  0  0  0
    2.3080   -3.7775    6.0604 H   0  0  0  0  0  0  0  0  0  0  0  0
    2.8053   -2.4752    7.1276 H   0  0  0  0  0  0  0  0  0  0  0  0
    3.9949   -3.6055    3.8978 H   0  0  0  0  0  0  0  0  0  0  0  0
    2.2918   -3.5658    3.6568 H   0  0  0  0  0  0  0  0  0  0  0  0
    3.4864   -3.3076    1.6700 H   0  0  0  0  0  0  0  0  0  0  0  0
    2.0586   -0.6760    1.8624 H   0  0  0  0  0  0  0  0  0  0  0  0
    1.2657   -2.2516    1.8280 H   0  0  0  0  0  0  0  0  0  0  0  0
    2.2948   -1.7464    0.5021 H   0  0  0  0  0  0  0  0  0  0  0  0
    5.5682   -1.6330    6.5452 H   0  0  0  0  0  0  0  0  0  0  0  0
    6.2766   -0.6640    5.2734 H   0  0  0  0  0  0  0  0  0  0  0  0
    5.8033   -2.3382    4.9694 H   0  0  0  0  0  0  0  0  0  0  0  0
    3.2007   -0.4552    7.0288 H   0  0  0  0  0  0  0  0  0  0  0  0
    3.9046    1.8647    7.3617 H   0  0  0  0  0  0  0  0  0  0  0  0
  1  2  1  0
  1 30  1  0
  1 31  1  0
  1 32  1  0
  2 23  1  0
  2  3  1  0
  2 33  1  6
  3  4  1  0
  3 34  1  0
  3 35  1  0
  4 25  1  0
  4  5  2  0
  6  5  1  6
  5 36  1  0
  6 19  1  0
  6 27  1  0
  6  7  1  0
  7  8  2  3
  7 37  1  0
  8 14  1  0
  8  9  1  0
  9 16  1  0
  9 10  1  0
  9 38  1  1
 10 11  2  0
 10 39  1  0
 11 12  1  0
 11 40  1  0
 12 13  1  0
 12 14  1  0
 12 41  1  6
 13 42  1  0
 14 15  1  6
 14 16  1  0
 15 43  1  0
 15 44  1  0
 15 45  1  0
 16 17  1  0
 16 46  1  6
 17 18  1  0
 17 47  1  0
 17 48  1  0
 18 19  1  0
 18 49  1  0
 18 50  1  0
 19 20  1  0
 19 51  1  6
 20 21  1  1
 20 22  1  0
 20 25  1  0
 21 52  1  0
 21 53  1  0
 21 54  1  0
 22 23  1  0
 22 55  1  0
 22 56  1  0
 23 24  1  0
 23 57  1  6
 24 58  1  0
 24 59  1  0
 24 60  1  0
 25 26  1  1
 25 27  1  0
 26 61  1  0
 26 62  1  0
 26 63  1  0
 27 28  1  0
 27 64  1  1
 28 29  2  0
 28 65  1  0
M  END
>  <i_m_ct_stereo_status>  (118) 
1

>  <s_m_source_file>  (118) 
/var/tmp/pbs.5076255.sched01/tmpcsrx8n8z/40wzjmt8mb.sdf

>  <i_m_source_file_index>  (118) 
10

>  <i_lp_mmshare_version>  (118) 
48012

>  <i_f3d_flags>  (118) 
0

>  <s_epik_input>  (118) 
W0NIMl0xW0NAQEhdKFtDSDNdKVtDQEhdKFtDSDNdKVtDSDJdQyg9W0NIXTIpW0NAQF0oW0NIM10pKFtDQEhdM1tDSF09TylbQ0BAXTEoW0NIM10pW0NASF0oW0NAXTIzNClbQ0gyXVtDSDJdW0NASF01W0NASF02XEMoPVtDSF1cNClbQ0BdNShbQ0gzXSlbQ0BIXShbT0hdKVtDSF09W0NIXTY=

>  <s_epik_cmdline>  (118) 
J2VwaWtfcHl0aG9uJywgJy1waHQnLCAnMi4wJywgJy1waCcsICc3LjAnLCAnLXRuJywgJzgnLCAnLW1hJywgJzIwMCcsICctaW1hZScsICc8aW5maWxlLm1hZT4nLCAnLW9tYWUnLCAnPG91dGZpbGUubWFlPic=

>  <r_lp_tautomer_probability>  (118) 
1

>  <r_epik_Ionization_Penalty>  (118) 
9.93007e-08

>  <r_epik_Ionization_Penalty_Charging>  (118) 
0

>  <r_epik_Ionization_Penalty_Neutral>  (118) 
9.93007e-08

>  <r_epik_State_Penalty>  (118) 
-0

>  <r_epik_Charging_Adjusted_Penalty>  (118) 
0

>  <i_epik_Tot_Q>  (118) 
0

>  <i_epik_Tot_abs_Q>  (118) 
0

>  <s_lp_Force_Field>  (118) 
OPLS3e

>  <r_lp_Energy>  (118) 
111.285

>  <b_lp_Chiralities_Consistent>  (118) 
1

>  <s_lp_Variant>  (118) 
32:0-1

>  <s_i_glide_gridfile>  (118) 
pfpi4k_grid

>  <i_i_glide_lignum>  (118) 
10

>  <i_i_glide_rotatable_bonds>  (118) 
2

>  <r_i_docking_score>  (118) 
-2.5198

>  <r_i_glide_ligand_efficiency>  (118) 
-0.0868897

>  <r_i_glide_ligand_efficiency_sa>  (118) 
-0.266953

>  <r_i_glide_ligand_efficiency_ln>  (118) 
-0.57697

>  <r_i_glide_gscore>  (118) 
-2.5198

>  <r_i_glide_lipo>  (118) 
-0.309798

>  <r_i_glide_hbond>  (118) 
-0.126785

>  <r_i_glide_metal>  (118) 
-0

>  <r_i_glide_rewards>  (118) 
-0.733412

>  <r_i_glide_evdw>  (118) 
-18.5769

>  <r_i_glide_ecoul>  (118) 
-2.80641

>  <r_i_glide_erotb>  (118) 
0

>  <r_i_glide_esite>  (118) 
0

>  <r_i_glide_emodel>  (118) 
-24.4055

>  <r_i_glide_energy>  (118) 
-21.3833

>  <r_i_glide_einternal>  (118) 
0.56922

>  <r_i_glide_intrahb_reward>  (118) 
-0

>  <i_i_glide_confnum>  (118) 
2

>  <i_i_glide_posenum>  (118) 
16

>  <r_i_glide_eff_state_penalty>  (118) 
0

>  <ligand_id>  (118) 
32

>  <original_smiles>  (118) 
CC1CC2=CC34C=C5C6C=CC(O)C5(C)C6CCC3C(C)(CC1C)C2(C)C4C=O

>  <smiles>  (118) 
[H]OC1([H])C([H])=C([H])C2([H])C3=C([H])C45C([H])=C6C([H])([H])C([H])(C([H])([H])[H])C([H])(C([H])([H])[H])C([H])([H])C(C([H])([H])[H])(C4([H])C([H])([H])C([H])([H])C2([H])C31C([H])([H])[H])C6(C([H])([H])[H])C5([H])C([H])=O

$$$$
33:0:0
     RDKit          3D

 60 65  0  0  1  0  0  0  0  0999 V2000
    3.9423   -2.7795    4.3950 C   0  0  0  0  0  0  0  0  0  0  0  0
    4.7251   -3.9965    3.7892 C   0  0  0  0  0  0  0  0  0  0  0  0
    5.2930   -4.6190    5.1069 C   0  0  0  0  0  0  0  0  0  0  0  0
    3.9675   -5.0564    2.9318 C   0  0  1  0  0  0  0  0  0  0  0  0
    2.8848   -4.3171    2.1941 C   0  0  0  0  0  0  0  0  0  0  0  0
    1.7563   -4.7647    2.1916 O   0  0  0  0  0  0  0  0  0  0  0  0
    3.2991   -3.1725    1.5963 O   0  0  0  0  0  0  0  0  0  0  0  0
    4.6939   -2.8337    1.5671 C   0  0  1  0  0  0  0  0  0  0  0  0
    5.6515   -3.6181    2.5810 C   0  0  2  0  0  0  0  0  0  0  0  0
    6.3178   -4.9908    2.1188 C   0  0  1  0  0  0  0  0  0  0  0  0
    7.3970   -4.8630    1.0039 C   0  0  0  0  0  0  0  0  0  0  0  0
    7.1903   -5.8128    3.1564 C   0  0  0  0  0  0  0  0  0  0  0  0
    7.7579   -7.0074    2.6509 O   0  0  0  0  0  0  0  0  0  0  0  0
    4.9778   -5.7516    1.9131 C   0  0  2  0  0  0  0  0  0  0  0  0
    4.5038   -6.0401    0.4446 C   0  0  0  0  0  0  0  0  0  0  0  0
    4.9333   -5.1713   -0.7571 C   0  0  0  0  0  0  0  0  0  0  0  0
    4.5113   -3.7076   -0.9951 C   0  0  1  0  0  0  0  0  0  0  0  0
    2.9563   -3.7037   -1.1440 C   0  0  0  0  0  0  0  0  0  0  0  0
    5.0504   -2.7021    0.0779 C   0  0  1  0  0  0  0  0  0  0  0  0
    4.7498   -1.3560   -0.5449 C   0  0  1  0  0  0  0  0  0  0  0  0
    5.8088   -0.8051   -1.2702 O   0  0  0  0  0  0  0  0  0  0  0  0
    4.8639   -1.5532   -2.0327 C   0  0  2  0  0  0  0  0  0  0  0  0
    4.1235   -0.6947   -3.0599 C   0  0  0  0  0  0  0  0  0  0  0  0
    4.1607    0.5163   -3.0731 O   0  0  0  0  0  0  0  0  0  0  0  0
    3.5012   -1.3064   -4.1987 C   0  0  0  0  0  0  0  0  0  0  0  0
    3.6234   -2.6060   -4.3532 C   0  0  0  0  0  0  0  0  0  0  0  0
    4.4496   -3.5043   -3.6054 C   0  0  0  0  0  0  0  0  0  0  0  0
    4.6144   -4.6313   -4.0757 O   0  0  0  0  0  0  0  0  0  0  0  0
    5.0928   -3.0258   -2.2826 C   0  0  2  0  0  0  0  0  0  0  0  0
    6.6113   -3.1863   -2.4969 C   0  0  0  0  0  0  0  0  0  0  0  0
    3.1196   -3.1121    5.0310 H   0  0  0  0  0  0  0  0  0  0  0  0
    3.5058   -2.0674    3.6991 H   0  0  0  0  0  0  0  0  0  0  0  0
    4.6042   -2.1848    5.0191 H   0  0  0  0  0  0  0  0  0  0  0  0
    5.0966   -5.6883    5.1898 H   0  0  0  0  0  0  0  0  0  0  0  0
    4.8147   -4.2365    6.0132 H   0  0  0  0  0  0  0  0  0  0  0  0
    6.3456   -4.4023    5.2458 H   0  0  0  0  0  0  0  0  0  0  0  0
    3.4483   -5.7958    3.5365 H   0  0  0  0  0  0  0  0  0  0  0  0
    4.7464   -1.8097    1.9406 H   0  0  0  0  0  0  0  0  0  0  0  0
    6.3755   -2.8512    2.7696 H   0  0  0  0  0  0  0  0  0  0  0  0
    7.6191   -5.8247    0.5383 H   0  0  0  0  0  0  0  0  0  0  0  0
    8.3279   -4.4692    1.4067 H   0  0  0  0  0  0  0  0  0  0  0  0
    7.2099   -4.1936    0.1975 H   0  0  0  0  0  0  0  0  0  0  0  0
    8.0134   -5.2378    3.5760 H   0  0  0  0  0  0  0  0  0  0  0  0
    6.6578   -6.2486    3.9810 H   0  0  0  0  0  0  0  0  0  0  0  0
    8.5081   -6.8023    2.1061 H   0  0  0  0  0  0  0  0  0  0  0  0
    5.1047   -6.7552    2.3312 H   0  0  0  0  0  0  0  0  0  0  0  0
    4.9191   -7.0171    0.2155 H   0  0  0  0  0  0  0  0  0  0  0  0
    3.4305   -6.2218    0.3962 H   0  0  0  0  0  0  0  0  0  0  0  0
    5.9680   -5.2315   -0.8383 H   0  0  0  0  0  0  0  0  0  0  0  0
    4.6170   -5.7514   -1.6561 H   0  0  0  0  0  0  0  0  0  0  0  0
    2.5252   -2.7060   -1.0886 H   0  0  0  0  0  0  0  0  0  0  0  0
    2.4821   -4.3399   -0.4167 H   0  0  0  0  0  0  0  0  0  0  0  0
    2.5887   -4.1203   -2.0770 H   0  0  0  0  0  0  0  0  0  0  0  0
    6.1278   -2.6157    0.0856 H   0  0  0  0  0  0  0  0  0  0  0  0
    3.9882   -0.7071   -0.1474 H   0  0  0  0  0  0  0  0  0  0  0  0
    3.0145   -0.6394   -4.9105 H   0  0  0  0  0  0  0  0  0  0  0  0
    3.2739   -3.0226   -5.2511 H   0  0  0  0  0  0  0  0  0  0  0  0
    7.2591   -2.8388   -1.6926 H   0  0  0  0  0  0  0  0  0  0  0  0
    6.9145   -2.6613   -3.3699 H   0  0  0  0  0  0  0  0  0  0  0  0
    6.8569   -4.2107   -2.7159 H   0  0  0  0  0  0  0  0  0  0  0  0
  1  2  1  0
  1 31  1  0
  1 32  1  0
  1 33  1  0
  2  9  1  0
  2  3  1  0
  2  4  1  0
  3 34  1  0
  3 35  1  0
  3 36  1  0
  4 14  1  0
  4  5  1  0
  4 37  1  1
  5  6  2  0
  5  7  1  0
  7  8  1  0
  8 19  1  0
  8  9  1  0
  8 38  1  1
  9 10  1  0
  9 39  1  1
 10 11  1  6
 10 12  1  0
 10 14  1  0
 11 40  1  0
 11 41  1  0
 11 42  1  0
 12 13  1  0
 12 43  1  0
 12 44  1  0
 13 45  1  0
 14 15  1  0
 14 46  1  1
 15 16  1  0
 15 47  1  0
 15 48  1  0
 16 17  1  0
 16 49  1  0
 16 50  1  0
 17 29  1  0
 17 18  1  6
 17 19  1  0
 18 51  1  0
 18 52  1  0
 18 53  1  0
 19 20  1  0
 19 54  1  1
 20 22  1  0
 20 21  1  0
 20 55  1  6
 22 21  1  6
 22 29  1  0
 22 23  1  0
 23 24  2  0
 23 25  1  0
 25 26  2  0
 25 56  1  0
 26 27  1  0
 26 57  1  0
 27 28  2  0
 27 29  1  0
 29 30  1  6
 30 58  1  0
 30 59  1  0
 30 60  1  0
M  END
>  <i_m_ct_stereo_status>  (119) 
1

>  <s_m_source_file>  (119) 
/var/tmp/pbs.5076255.sched01/tmpcsrx8n8z/40wzjmt8mb.sdf

>  <i_m_source_file_index>  (119) 
12

>  <i_lp_mmshare_version>  (119) 
48012

>  <i_f3d_flags>  (119) 
0

>  <s_epik_input>  (119) 
TzFbQ0BASF0oW0NAXTEyMylbQ0BIXTRbQ0BASF01W0NASF02QyhbQ0gzXSkoW0NIM10pW0NAQEhdKEMoPU8pTzUpW0NASF0oW0NAXTYoW0NIM10pW0NIMl1bT0hdKVtDSDJdW0NIMl1bQ0BdNChbQ0gzXSlbQ0BAXTMoW0NIM10pQyg9TylbQ0hdPVtDSF1DMj1P

>  <s_epik_cmdline>  (119) 
J2VwaWtfcHl0aG9uJywgJy1waHQnLCAnMi4wJywgJy1waCcsICc3LjAnLCAnLXRuJywgJzgnLCAnLW1hJywgJzIwMCcsICctaW1hZScsICc8aW5maWxlLm1hZT4nLCAnLW9tYWUnLCAnPG91dGZpbGUubWFlPic=

>  <r_lp_tautomer_probability>  (119) 
1

>  <r_epik_Ionization_Penalty>  (119) 
3.87758e-07

>  <r_epik_Ionization_Penalty_Charging>  (119) 
0

>  <r_epik_Ionization_Penalty_Neutral>  (119) 
3.87758e-07

>  <r_epik_State_Penalty>  (119) 
-0

>  <r_epik_Charging_Adjusted_Penalty>  (119) 
0

>  <i_epik_Tot_Q>  (119) 
0

>  <i_epik_Tot_abs_Q>  (119) 
0

>  <s_epik_Chemistry_Notes>  (119) 
This compound has an ester and may undergo hydrolysis at high or low pH.

>  <s_lp_Force_Field>  (119) 
OPLS3e

>  <r_lp_Energy>  (119) 
129.995

>  <b_lp_Chiralities_Consistent>  (119) 
1

>  <s_lp_Variant>  (119) 
33:0-1

>  <s_i_glide_gridfile>  (119) 
pfpi4k_grid

>  <i_i_glide_lignum>  (119) 
12

>  <i_i_glide_rotatable_bonds>  (119) 
2

>  <r_i_docking_score>  (119) 
-1.68234

>  <r_i_glide_ligand_efficiency>  (119) 
-0.056078

>  <r_i_glide_ligand_efficiency_sa>  (119) 
-0.174247

>  <r_i_glide_ligand_efficiency_ln>  (119) 
-0.382246

>  <r_i_glide_gscore>  (119) 
-1.68234

>  <r_i_glide_lipo>  (119) 
-0.580939

>  <r_i_glide_hbond>  (119) 
-0.0537761

>  <r_i_glide_metal>  (119) 
-0

>  <r_i_glide_rewards>  (119) 
-1.0486

>  <r_i_glide_evdw>  (119) 
-1.8379

>  <r_i_glide_ecoul>  (119) 
-0.123234

>  <r_i_glide_erotb>  (119) 
0.114887

>  <r_i_glide_esite>  (119) 
-0.00352767

>  <r_i_glide_emodel>  (119) 
-5.37709

>  <r_i_glide_energy>  (119) 
-1.96114

>  <r_i_glide_einternal>  (119) 
0.107987

>  <r_i_glide_intrahb_reward>  (119) 
-0

>  <i_i_glide_confnum>  (119) 
2

>  <i_i_glide_posenum>  (119) 
16

>  <r_i_glide_eff_state_penalty>  (119) 
0

>  <ligand_id>  (119) 
33

>  <original_smiles>  (119) 
CC1(C)C2C(=O)OC3C1C(C)(CO)C2CCC1(C)C3C2OC23C(=O)C=CC(=O)C13C

>  <smiles>  (119) 
[H]OC([H])([H])C1(C([H])([H])[H])C2([H])C([H])([H])C([H])([H])C3(C([H])([H])[H])C([H])(C4([H])OC45C(=O)C([H])=C([H])C(=O)C53C([H])([H])[H])C3([H])OC(=O)C2([H])C(C([H])([H])[H])(C([H])([H])[H])C31[H]

$$$$
34:0:0
     RDKit          3D

 94 99  0  0  1  0  0  0  0  0999 V2000
   -1.3130    2.5429    3.1636 C   0  0  0  0  0  0  0  0  0  0  0  0
   -1.1466    1.1902    2.7630 O   0  0  0  0  0  0  0  0  0  0  0  0
   -0.1160    1.0054    1.8018 C   0  0  0  0  0  0  0  0  0  0  0  0
    1.2878    1.0936    2.4298 C   0  0  0  0  0  0  0  0  0  0  0  0
    1.6277   -0.1111    3.1140 O   0  0  0  0  0  0  0  0  0  0  0  0
    2.9123   -0.0852    3.7392 C   0  0  0  0  0  0  0  0  0  0  0  0
    4.0039    0.1844    2.6872 C   0  0  0  0  0  0  0  0  0  0  0  0
    3.8915   -0.7717    1.6609 O   0  0  0  0  0  0  0  0  0  0  0  0
    4.7493   -0.5211    0.5560 C   0  0  0  0  0  0  0  0  0  0  0  0
    4.6404   -1.6381   -0.4952 C   0  0  0  0  0  0  0  0  0  0  0  0
    4.7610   -2.8929    0.1607 O   0  0  0  0  0  0  0  0  0  0  0  0
    4.0353   -3.9429   -0.4612 C   0  0  0  0  0  0  0  0  0  0  0  0
    3.7940   -5.0535    0.5627 C   0  0  0  0  0  0  0  0  0  0  0  0
    2.9290   -4.5571    1.5768 O   0  0  0  0  0  0  0  0  0  0  0  0
    2.6542   -5.4500    2.6093 C   0  0  2  0  0  0  0  0  0  0  0  0
    1.8930   -6.5185    2.0375 O   0  0  0  0  0  0  0  0  0  0  0  0
    1.5260   -7.6049    2.8466 C   0  0  1  0  0  0  0  0  0  0  0  0
    2.8364   -8.5397    3.2238 C   0  0  0  0  0  0  0  0  0  0  0  0
    3.4251   -9.0220    4.6703 C   0  0  2  0  0  0  0  0  0  0  0  0
    4.4831  -10.1082    4.3570 C   0  0  0  0  0  0  0  0  0  0  0  0
    2.5994   -9.5018    5.9298 C   0  0  0  0  0  0  0  0  0  0  0  0
    2.6466   -8.5960    7.2248 C   0  0  0  0  0  0  0  0  0  0  0  0
    2.6289   -7.0246    7.0647 C   0  0  2  0  0  0  0  0  0  0  0  0
    1.8401   -6.2626    8.1719 C   0  0  1  0  0  0  0  0  0  0  0  0
    2.3886   -6.5139    9.5893 C   0  0  0  0  0  0  0  0  0  0  0  0
    1.8147   -4.7501    7.8680 C   0  0  0  0  0  0  0  0  0  0  0  0
    1.3379   -4.3952    6.4464 C   0  0  0  0  0  0  0  0  0  0  0  0
    2.1810   -5.1011    5.3486 C   0  0  2  0  0  0  0  0  0  0  0  0
    1.9318   -4.6273    3.8113 C   0  0  1  0  0  0  0  0  0  0  0  0
    2.3493   -3.1513    3.7040 C   0  0  0  0  0  0  0  0  0  0  0  0
    2.1353   -6.6526    5.6490 C   0  0  1  0  0  0  0  0  0  0  0  0
    3.2539   -6.8479    4.8630 O   0  0  0  0  0  0  0  0  0  0  0  0
    4.0822   -7.9226    5.1745 O   0  0  0  0  0  0  0  0  0  0  0  0
    0.7232   -7.4640    5.4348 C   0  0  1  0  0  0  0  0  0  0  0  0
    0.1314   -6.3611    4.7476 O   0  0  0  0  0  0  0  0  0  0  0  0
    0.1996   -7.1210    3.5545 C   0  0  1  0  0  0  0  0  0  0  0  0
   -0.7701   -6.7102    2.6468 O   0  0  0  0  0  0  0  0  0  0  0  0
   -0.0978   -8.3230    4.3489 C   0  0  1  0  0  0  0  0  0  0  0  0
    0.1089   -9.3669    3.1869 C   0  0  0  0  0  0  0  0  0  0  0  0
    0.6652  -10.7765    3.5271 C   0  0  0  0  0  0  0  0  0  0  0  0
   -1.2445   -9.6746    2.5056 C   0  0  0  0  0  0  0  0  0  0  0  0
    0.8553   -8.6297    2.1797 O   0  0  0  0  0  0  0  0  0  0  0  0
   -2.1006    2.5996    3.9173 H   0  0  0  0  0  0  0  0  0  0  0  0
   -1.5978    3.1617    2.3125 H   0  0  0  0  0  0  0  0  0  0  0  0
   -0.4132    2.9741    3.6058 H   0  0  0  0  0  0  0  0  0  0  0  0
   -0.2165    0.0429    1.3074 H   0  0  0  0  0  0  0  0  0  0  0  0
   -0.2178    1.7439    1.0058 H   0  0  0  0  0  0  0  0  0  0  0  0
    1.9876    1.2508    1.6084 H   0  0  0  0  0  0  0  0  0  0  0  0
    1.3912    1.9409    3.1103 H   0  0  0  0  0  0  0  0  0  0  0  0
    2.8989    0.7252    4.4933 H   0  0  0  0  0  0  0  0  0  0  0  0
    3.0727   -1.0585    4.2537 H   0  0  0  0  0  0  0  0  0  0  0  0
    3.8423    1.1728    2.2556 H   0  0  0  0  0  0  0  0  0  0  0  0
    4.9860    0.0951    3.1478 H   0  0  0  0  0  0  0  0  0  0  0  0
    4.4502    0.4125    0.0773 H   0  0  0  0  0  0  0  0  0  0  0  0
    5.7815   -0.4142    0.9023 H   0  0  0  0  0  0  0  0  0  0  0  0
    3.6858   -1.5272   -1.0156 H   0  0  0  0  0  0  0  0  0  0  0  0
    5.4251   -1.5423   -1.2515 H   0  0  0  0  0  0  0  0  0  0  0  0
    3.0646   -3.6146   -0.8354 H   0  0  0  0  0  0  0  0  0  0  0  0
    4.6060   -4.3136   -1.3129 H   0  0  0  0  0  0  0  0  0  0  0  0
    3.3126   -5.8977    0.0667 H   0  0  0  0  0  0  0  0  0  0  0  0
    4.7422   -5.4103    0.9781 H   0  0  0  0  0  0  0  0  0  0  0  0
    3.6509   -5.7837    2.8874 H   0  0  0  0  0  0  0  0  0  0  0  0
    2.7874   -9.4342    2.6095 H   0  0  0  0  0  0  0  0  0  0  0  0
    3.6807   -8.0483    2.7275 H   0  0  0  0  0  0  0  0  0  0  0  0
    3.9919  -11.0234    4.0297 H   0  0  0  0  0  0  0  0  0  0  0  0
    5.0777  -10.3510    5.2291 H   0  0  0  0  0  0  0  0  0  0  0  0
    5.1485   -9.8060    3.5554 H   0  0  0  0  0  0  0  0  0  0  0  0
    1.5719   -9.7342    5.6823 H   0  0  0  0  0  0  0  0  0  0  0  0
    2.9722  -10.4701    6.2278 H   0  0  0  0  0  0  0  0  0  0  0  0
    1.8029   -8.8951    7.8407 H   0  0  0  0  0  0  0  0  0  0  0  0
    3.5371   -8.8670    7.7944 H   0  0  0  0  0  0  0  0  0  0  0  0
    3.6705   -6.6768    7.1555 H   0  0  0  0  0  0  0  0  0  0  0  0
    0.8067   -6.6122    8.1759 H   0  0  0  0  0  0  0  0  0  0  0  0
    3.4211   -6.1865    9.6788 H   0  0  0  0  0  0  0  0  0  0  0  0
    2.3421   -7.5661    9.8562 H   0  0  0  0  0  0  0  0  0  0  0  0
    1.8070   -5.9700   10.3310 H   0  0  0  0  0  0  0  0  0  0  0  0
    1.1715   -4.2497    8.5905 H   0  0  0  0  0  0  0  0  0  0  0  0
    2.8125   -4.3344    8.0218 H   0  0  0  0  0  0  0  0  0  0  0  0
    0.2817   -4.6408    6.3660 H   0  0  0  0  0  0  0  0  0  0  0  0
    1.3894   -3.3164    6.3563 H   0  0  0  0  0  0  0  0  0  0  0  0
    3.2068   -4.7927    5.5647 H   0  0  0  0  0  0  0  0  0  0  0  0
    0.8577   -4.5911    3.5650 H   0  0  0  0  0  0  0  0  0  0  0  0
    3.4166   -3.0573    3.8459 H   0  0  0  0  0  0  0  0  0  0  0  0
    1.8516   -2.5360    4.4353 H   0  0  0  0  0  0  0  0  0  0  0  0
    2.0597   -2.7560    2.7371 H   0  0  0  0  0  0  0  0  0  0  0  0
    0.1996   -7.6120    6.3738 H   0  0  0  0  0  0  0  0  0  0  0  0
   -0.9081   -7.4494    2.0940 H   0  0  0  0  0  0  0  0  0  0  0  0
   -1.1325   -8.3357    4.7105 H   0  0  0  0  0  0  0  0  0  0  0  0
    0.0699  -11.2763    4.2900 H   0  0  0  0  0  0  0  0  0  0  0  0
    1.6948  -10.8263    3.8479 H   0  0  0  0  0  0  0  0  0  0  0  0
    0.6279  -11.4090    2.6413 H   0  0  0  0  0  0  0  0  0  0  0  0
   -1.8747  -10.2131    3.1924 H   0  0  0  0  0  0  0  0  0  0  0  0
   -1.1006  -10.3189    1.6441 H   0  0  0  0  0  0  0  0  0  0  0  0
   -1.8193   -8.8132    2.1794 H   0  0  0  0  0  0  0  0  0  0  0  0
  1  2  1  0
  1 43  1  0
  1 44  1  0
  1 45  1  0
  2  3  1  0
  3  4  1  0
  3 46  1  0
  3 47  1  0
  4  5  1  0
  4 48  1  0
  4 49  1  0
  5  6  1  0
  6  7  1  0
  6 50  1  0
  6 51  1  0
  7  8  1  0
  7 52  1  0
  7 53  1  0
  8  9  1  0
  9 10  1  0
  9 54  1  0
  9 55  1  0
 10 11  1  0
 10 56  1  0
 10 57  1  0
 11 12  1  0
 12 13  1  0
 12 58  1  0
 12 59  1  0
 13 14  1  0
 13 60  1  0
 13 61  1  0
 14 15  1  0
 15 29  1  0
 15 16  1  0
 15 62  1  1
 16 17  1  0
 17 36  1  0
 17 42  1  6
 17 18  1  0
 18 19  1  0
 18 63  1  0
 18 64  1  0
 19 33  1  0
 19 20  1  6
 19 21  1  0
 20 65  1  0
 20 66  1  0
 20 67  1  0
 21 22  1  0
 21 68  1  0
 21 69  1  0
 22 23  1  0
 22 70  1  0
 22 71  1  0
 23 31  1  0
 23 24  1  0
 23 72  1  6
 24 25  1  0
 24 26  1  0
 24 73  1  1
 25 74  1  0
 25 75  1  0
 25 76  1  0
 26 27  1  0
 26 77  1  0
 26 78  1  0
 27 28  1  0
 27 79  1  0
 27 80  1  0
 28 29  1  0
 28 31  1  0
 28 81  1  1
 29 30  1  0
 29 82  1  6
 30 83  1  0
 30 84  1  0
 30 85  1  0
 31 32  1  6
 31 34  1  0
 32 33  1  0
 34 38  1  0
 34 35  1  0
 34 86  1  1
 35 36  1  0
 36 37  1  6
 36 38  1  0
 37 87  1  0
 38 39  1  0
 38 88  1  1
 39 40  1  0
 39 41  1  0
 39 42  1  0
 40 89  1  0
 40 90  1  0
 40 91  1  0
 41 92  1  0
 41 93  1  0
 41 94  1  0
M  END
>  <i_m_ct_stereo_status>  (120) 
1

>  <s_m_source_file>  (120) 
/var/tmp/pbs.5076255.sched01/tmpcsrx8n8z/40wzjmt8mb.sdf

>  <i_m_source_file_index>  (120) 
13

>  <i_lp_mmshare_version>  (120) 
48012

>  <i_f3d_flags>  (120) 
0

>  <s_epik_input>  (120) 
W0NIM11PW0NIMl1bQ0gyXU9bQ0gyXVtDSDJdT1tDSDJdW0NIMl1PW0NIMl1bQ0gyXU9bQ0BIXShPMSlbQ0BIXShbQ0gzXSlbQ0BIXTJbQ0gyXVtDSDJdW0NASF0oW0NIM10pW0NAQEhdKFtDSDJdW0NIMl1bQ0BdKFtDSDJdMykoW0NIM10pT080KVtDQEBdMjRbQ0BASF0oTzUpW0NAQEhdKFtDQEBdNShbQ0BAXTEzNilbT0hdKUMoTzYpKFtDSDNdKVtDSDNd

>  <s_epik_cmdline>  (120) 
J2VwaWtfcHl0aG9uJywgJy1waHQnLCAnMi4wJywgJy1waCcsICc3LjAnLCAnLXRuJywgJzgnLCAnLW1hJywgJzIwMCcsICctaW1hZScsICc8aW5maWxlLm1hZT4nLCAnLW9tYWUnLCAnPG91dGZpbGUubWFlPic=

>  <r_lp_tautomer_probability>  (120) 
1

>  <r_epik_Ionization_Penalty>  (120) 
0.000144832

>  <r_epik_Ionization_Penalty_Charging>  (120) 
0

>  <r_epik_Ionization_Penalty_Neutral>  (120) 
0.000144832

>  <r_epik_State_Penalty>  (120) 
-0

>  <r_epik_Charging_Adjusted_Penalty>  (120) 
0

>  <i_epik_Tot_Q>  (120) 
0

>  <i_epik_Tot_abs_Q>  (120) 
0

>  <s_epik_Chemistry_Notes>  (120) 
This compound contains an acetal/aminal-like group ( X-CH(R)-Y where X, Y are N, S, or O) that may be acid/base labile, releasing an aldehyde.

>  <s_lp_Force_Field>  (120) 
OPLS3e

>  <r_lp_Energy>  (120) 
245.425

>  <b_lp_Chiralities_Consistent>  (120) 
1

>  <s_lp_Variant>  (120) 
34:0-1

>  <s_i_glide_gridfile>  (120) 
pfpi4k_grid

>  <i_i_glide_lignum>  (120) 
13

>  <i_i_glide_rotatable_bonds>  (120) 
14

>  <r_i_docking_score>  (120) 
-1.76717

>  <r_i_glide_ligand_efficiency>  (120) 
-0.0420756

>  <r_i_glide_ligand_efficiency_sa>  (120) 
-0.146256

>  <r_i_glide_ligand_efficiency_ln>  (120) 
-0.373005

>  <r_i_glide_gscore>  (120) 
-1.76717

>  <r_i_glide_lipo>  (120) 
-0.329809

>  <r_i_glide_hbond>  (120) 
0

>  <r_i_glide_metal>  (120) 
-0

>  <r_i_glide_rewards>  (120) 
0

>  <r_i_glide_evdw>  (120) 
-27.1901

>  <r_i_glide_ecoul>  (120) 
-3.96716

>  <r_i_glide_erotb>  (120) 
0.581144

>  <r_i_glide_esite>  (120) 
-0.0639306

>  <r_i_glide_emodel>  (120) 
-27.962

>  <r_i_glide_energy>  (120) 
-31.1572

>  <r_i_glide_einternal>  (120) 
7.663

>  <r_i_glide_intrahb_reward>  (120) 
-0

>  <i_i_glide_confnum>  (120) 
15

>  <i_i_glide_posenum>  (120) 
20

>  <r_i_glide_eff_state_penalty>  (120) 
0

>  <ligand_id>  (120) 
34

>  <original_smiles>  (120) 
COCCOCCOCCOCCOC1OC23CC4(C)CCC5C(C)CCC(C1C)C5(OO4)C1OC2(O)C1C(C)(C)O3

>  <smiles>  (120) 
[H]OC12OC3([H])C1([H])C(C([H])([H])[H])(C([H])([H])[H])OC21OC([H])(OC([H])([H])C([H])([H])OC([H])([H])C([H])([H])OC([H])([H])C([H])([H])OC([H])([H])C([H])([H])OC([H])([H])[H])C([H])(C([H])([H])[H])C2([H])C([H])([H])C([H])([H])C([H])(C([H])([H])[H])C4([H])C([H])([H])C([H])([H])C(C([H])([H])[H])(OOC324)C1([H])[H]

$$$$
34:0:1
     RDKit          3D

 94 99  0  0  1  0  0  0  0  0999 V2000
    3.3861   -0.9916   -2.9749 C   0  0  0  0  0  0  0  0  0  0  0  0
    3.2827   -2.4087   -2.9694 O   0  0  0  0  0  0  0  0  0  0  0  0
    4.3929   -3.1286   -3.4976 C   0  0  0  0  0  0  0  0  0  0  0  0
    5.6469   -3.0636   -2.6007 C   0  0  0  0  0  0  0  0  0  0  0  0
    5.3886   -3.8044   -1.4253 O   0  0  0  0  0  0  0  0  0  0  0  0
    6.2902   -3.5115   -0.3744 C   0  0  0  0  0  0  0  0  0  0  0  0
    5.9541   -4.3942    0.8311 C   0  0  0  0  0  0  0  0  0  0  0  0
    4.6920   -4.0054    1.3496 O   0  0  0  0  0  0  0  0  0  0  0  0
    4.2702   -4.7976    2.4474 C   0  0  0  0  0  0  0  0  0  0  0  0
    2.7717   -4.5716    2.6848 C   0  0  0  0  0  0  0  0  0  0  0  0
    2.5887   -3.3892    3.4456 O   0  0  0  0  0  0  0  0  0  0  0  0
    1.2313   -3.1421    3.7758 C   0  0  0  0  0  0  0  0  0  0  0  0
    1.1674   -1.9157    4.6915 C   0  0  0  0  0  0  0  0  0  0  0  0
    1.0719   -0.7462    3.8904 O   0  0  0  0  0  0  0  0  0  0  0  0
    1.1559    0.4572    4.5879 C   0  0  2  0  0  0  0  0  0  0  0  0
    0.0392    0.4854    5.4994 O   0  0  0  0  0  0  0  0  0  0  0  0
   -0.0748    1.5596    6.4109 C   0  0  1  0  0  0  0  0  0  0  0  0
    1.0981    1.5004    7.5750 C   0  0  0  0  0  0  0  0  0  0  0  0
    2.1851    2.6019    8.0497 C   0  0  2  0  0  0  0  0  0  0  0  0
    2.7955    2.0810    9.3657 C   0  0  0  0  0  0  0  0  0  0  0  0
    2.0049    4.1554    8.2008 C   0  0  0  0  0  0  0  0  0  0  0  0
    2.8025    5.1050    7.2121 C   0  0  0  0  0  0  0  0  0  0  0  0
    2.9646    4.6722    5.7095 C   0  0  2  0  0  0  0  0  0  0  0  0
    2.9048    5.8430    4.6846 C   0  0  1  0  0  0  0  0  0  0  0  0
    4.0132    6.8831    4.9075 C   0  0  0  0  0  0  0  0  0  0  0  0
    2.9715    5.2968    3.2365 C   0  0  0  0  0  0  0  0  0  0  0  0
    1.9669    4.1868    2.9229 C   0  0  0  0  0  0  0  0  0  0  0  0
    2.0854    2.9906    3.9121 C   0  0  2  0  0  0  0  0  0  0  0  0
    1.2249    1.6642    3.5061 C   0  0  1  0  0  0  0  0  0  0  0  0
    1.7839    1.0972    2.1685 C   0  0  0  0  0  0  0  0  0  0  0  0
    1.9244    3.5862    5.3810 C   0  0  1  0  0  0  0  0  0  0  0  0
    2.5405    2.3847    5.8369 O   0  0  0  0  0  0  0  0  0  0  0  0
    3.2195    2.5366    7.1421 O   0  0  0  0  0  0  0  0  0  0  0  0
    0.4765    4.1543    5.8603 C   0  0  1  0  0  0  0  0  0  0  0  0
   -0.1374    3.6111    4.7397 O   0  0  0  0  0  0  0  0  0  0  0  0
   -0.8147    2.6964    5.5996 C   0  0  1  0  0  0  0  0  0  0  0  0
   -2.0163    2.2566    4.9898 O   0  0  0  0  0  0  0  0  0  0  0  0
   -0.9114    3.7246    6.6003 C   0  0  1  0  0  0  0  0  0  0  0  0
   -1.4230    2.8285    7.7826 C   0  0  0  0  0  0  0  0  0  0  0  0
   -1.0016    3.1592    9.2388 C   0  0  0  0  0  0  0  0  0  0  0  0
   -2.9667    2.8926    7.8552 C   0  0  0  0  0  0  0  0  0  0  0  0
   -1.1269    1.4696    7.3359 O   0  0  0  0  0  0  0  0  0  0  0  0
    2.4532   -0.5655   -2.6081 H   0  0  0  0  0  0  0  0  0  0  0  0
    3.5592   -0.6066   -3.9787 H   0  0  0  0  0  0  0  0  0  0  0  0
    4.1721   -0.6238   -2.3136 H   0  0  0  0  0  0  0  0  0  0  0  0
    4.0987   -4.1720   -3.6328 H   0  0  0  0  0  0  0  0  0  0  0  0
    4.5981   -2.7626   -4.5006 H   0  0  0  0  0  0  0  0  0  0  0  0
    6.5027   -3.5092   -3.1062 H   0  0  0  0  0  0  0  0  0  0  0  0
    5.9353   -2.0417   -2.3506 H   0  0  0  0  0  0  0  0  0  0  0  0
    7.3018   -3.7192   -0.7201 H   0  0  0  0  0  0  0  0  0  0  0  0
    6.2410   -2.4564   -0.0989 H   0  0  0  0  0  0  0  0  0  0  0  0
    5.9476   -5.4418    0.5247 H   0  0  0  0  0  0  0  0  0  0  0  0
    6.7176   -4.2752    1.6009 H   0  0  0  0  0  0  0  0  0  0  0  0
    4.4250   -5.8514    2.2178 H   0  0  0  0  0  0  0  0  0  0  0  0
    4.8585   -4.5766    3.3409 H   0  0  0  0  0  0  0  0  0  0  0  0
    2.2304   -4.5230    1.7375 H   0  0  0  0  0  0  0  0  0  0  0  0
    2.3712   -5.4209    3.2378 H   0  0  0  0  0  0  0  0  0  0  0  0
    0.6204   -2.9880    2.8910 H   0  0  0  0  0  0  0  0  0  0  0  0
    0.8216   -4.0025    4.3030 H   0  0  0  0  0  0  0  0  0  0  0  0
    0.2854   -1.9806    5.3281 H   0  0  0  0  0  0  0  0  0  0  0  0
    2.0365   -1.8943    5.3525 H   0  0  0  0  0  0  0  0  0  0  0  0
    2.0897    0.3310    5.1315 H   0  0  0  0  0  0  0  0  0  0  0  0
    0.6338    1.1622    8.5027 H   0  0  0  0  0  0  0  0  0  0  0  0
    1.6811    0.6031    7.3480 H   0  0  0  0  0  0  0  0  0  0  0  0
    2.0832    2.1828   10.1871 H   0  0  0  0  0  0  0  0  0  0  0  0
    3.6996    2.6277    9.6579 H   0  0  0  0  0  0  0  0  0  0  0  0
    3.0583    1.0200    9.3108 H   0  0  0  0  0  0  0  0  0  0  0  0
    0.9670    4.4525    8.2273 H   0  0  0  0  0  0  0  0  0  0  0  0
    2.3281    4.4489    9.2069 H   0  0  0  0  0  0  0  0  0  0  0  0
    2.3167    6.0751    7.2476 H   0  0  0  0  0  0  0  0  0  0  0  0
    3.8015    5.2616    7.6202 H   0  0  0  0  0  0  0  0  0  0  0  0
    3.9475    4.2233    5.5926 H   0  0  0  0  0  0  0  0  0  0  0  0
    1.9600    6.3720    4.7864 H   0  0  0  0  0  0  0  0  0  0  0  0
    5.0095    6.4456    4.8161 H   0  0  0  0  0  0  0  0  0  0  0  0
    3.9410    7.3495    5.8920 H   0  0  0  0  0  0  0  0  0  0  0  0
    3.9452    7.6879    4.1735 H   0  0  0  0  0  0  0  0  0  0  0  0
    2.8263    6.1139    2.5319 H   0  0  0  0  0  0  0  0  0  0  0  0
    3.9634    4.9152    3.0428 H   0  0  0  0  0  0  0  0  0  0  0  0
    0.9686    4.6183    2.9122 H   0  0  0  0  0  0  0  0  0  0  0  0
    2.1679    3.8683    1.8956 H   0  0  0  0  0  0  0  0  0  0  0  0
    3.1256    2.6748    3.8056 H   0  0  0  0  0  0  0  0  0  0  0  0
    0.2086    1.9153    3.2367 H   0  0  0  0  0  0  0  0  0  0  0  0
    2.7980    0.7133    2.2864 H   0  0  0  0  0  0  0  0  0  0  0  0
    1.7873    1.8453    1.3831 H   0  0  0  0  0  0  0  0  0  0  0  0
    1.1549    0.2936    1.7814 H   0  0  0  0  0  0  0  0  0  0  0  0
    0.4287    5.2430    5.8073 H   0  0  0  0  0  0  0  0  0  0  0  0
   -1.7693    1.8515    4.1696 H   0  0  0  0  0  0  0  0  0  0  0  0
   -1.6270    4.4845    6.3254 H   0  0  0  0  0  0  0  0  0  0  0  0
   -1.2503    4.1875    9.5044 H   0  0  0  0  0  0  0  0  0  0  0  0
    0.0359    3.0028    9.4870 H   0  0  0  0  0  0  0  0  0  0  0  0
   -1.5442    2.5213    9.9354 H   0  0  0  0  0  0  0  0  0  0  0  0
   -3.3074    3.8717    8.1948 H   0  0  0  0  0  0  0  0  0  0  0  0
   -3.3451    2.1560    8.5613 H   0  0  0  0  0  0  0  0  0  0  0  0
   -3.4605    2.7037    6.9051 H   0  0  0  0  0  0  0  0  0  0  0  0
  1  2  1  0
  1 43  1  0
  1 44  1  0
  1 45  1  0
  2  3  1  0
  3  4  1  0
  3 46  1  0
  3 47  1  0
  4  5  1  0
  4 48  1  0
  4 49  1  0
  5  6  1  0
  6  7  1  0
  6 50  1  0
  6 51  1  0
  7  8  1  0
  7 52  1  0
  7 53  1  0
  8  9  1  0
  9 10  1  0
  9 54  1  0
  9 55  1  0
 10 11  1  0
 10 56  1  0
 10 57  1  0
 11 12  1  0
 12 13  1  0
 12 58  1  0
 12 59  1  0
 13 14  1  0
 13 60  1  0
 13 61  1  0
 14 15  1  0
 15 29  1  0
 15 16  1  0
 15 62  1  1
 16 17  1  0
 17 36  1  0
 17 42  1  1
 17 18  1  0
 18 19  1  0
 18 63  1  0
 18 64  1  0
 19 33  1  0
 19 20  1  1
 19 21  1  0
 20 65  1  0
 20 66  1  0
 20 67  1  0
 21 22  1  0
 21 68  1  0
 21 69  1  0
 22 23  1  0
 22 70  1  0
 22 71  1  0
 23 31  1  0
 23 24  1  0
 23 72  1  1
 24 25  1  0
 24 26  1  0
 24 73  1  6
 25 74  1  0
 25 75  1  0
 25 76  1  0
 26 27  1  0
 26 77  1  0
 26 78  1  0
 27 28  1  0
 27 79  1  0
 27 80  1  0
 28 29  1  0
 28 31  1  0
 28 81  1  1
 29 30  1  0
 29 82  1  6
 30 83  1  0
 30 84  1  0
 30 85  1  0
 31 32  1  1
 31 34  1  0
 32 33  1  0
 34 38  1  0
 34 35  1  0
 34 86  1  6
 35 36  1  0
 36 37  1  6
 36 38  1  0
 37 87  1  0
 38 39  1  0
 38 88  1  6
 39 40  1  0
 39 41  1  0
 39 42  1  0
 40 89  1  0
 40 90  1  0
 40 91  1  0
 41 92  1  0
 41 93  1  0
 41 94  1  0
M  END
>  <i_m_ct_stereo_status>  (121) 
1

>  <s_m_source_file>  (121) 
/var/tmp/pbs.5076255.sched01/tmpcsrx8n8z/40wzjmt8mb.sdf

>  <i_m_source_file_index>  (121) 
13

>  <i_lp_mmshare_version>  (121) 
48012

>  <i_f3d_flags>  (121) 
0

>  <s_epik_input>  (121) 
W0NIM11PW0NIMl1bQ0gyXU9bQ0gyXVtDSDJdT1tDSDJdW0NIMl1PW0NIMl1bQ0gyXU9bQ0BIXShPMSlbQ0BIXShbQ0gzXSlbQ0BIXTJbQ0gyXVtDSDJdW0NASF0oW0NIM10pW0NAQEhdKFtDSDJdW0NIMl1bQ0BdKFtDSDJdMykoW0NIM10pT080KVtDQEBdMjRbQ0BASF0oTzUpW0NAQEhdKFtDQEBdNShbQ0BAXTEzNilbT0hdKUMoTzYpKFtDSDNdKVtDSDNd

>  <s_epik_cmdline>  (121) 
J2VwaWtfcHl0aG9uJywgJy1waHQnLCAnMi4wJywgJy1waCcsICc3LjAnLCAnLXRuJywgJzgnLCAnLW1hJywgJzIwMCcsICctaW1hZScsICc8aW5maWxlLm1hZT4nLCAnLW9tYWUnLCAnPG91dGZpbGUubWFlPic=

>  <r_lp_tautomer_probability>  (121) 
1

>  <r_epik_Ionization_Penalty>  (121) 
0.000144832

>  <r_epik_Ionization_Penalty_Charging>  (121) 
0

>  <r_epik_Ionization_Penalty_Neutral>  (121) 
0.000144832

>  <r_epik_State_Penalty>  (121) 
-0

>  <r_epik_Charging_Adjusted_Penalty>  (121) 
0

>  <i_epik_Tot_Q>  (121) 
0

>  <i_epik_Tot_abs_Q>  (121) 
0

>  <s_epik_Chemistry_Notes>  (121) 
This compound contains an acetal/aminal-like group ( X-CH(R)-Y where X, Y are N, S, or O) that may be acid/base labile, releasing an aldehyde.

>  <s_lp_Force_Field>  (121) 
OPLS3e

>  <r_lp_Energy>  (121) 
245.425

>  <b_lp_Chiralities_Consistent>  (121) 
1

>  <s_lp_Variant>  (121) 
34:0-1

>  <s_i_glide_gridfile>  (121) 
pfpi4k_grid

>  <i_i_glide_lignum>  (121) 
13

>  <i_i_glide_rotatable_bonds>  (121) 
14

>  <r_i_docking_score>  (121) 
-1.70051

>  <r_i_glide_ligand_efficiency>  (121) 
-0.0404884

>  <r_i_glide_ligand_efficiency_sa>  (121) 
-0.140739

>  <r_i_glide_ligand_efficiency_ln>  (121) 
-0.358935

>  <r_i_glide_gscore>  (121) 
-1.70051

>  <r_i_glide_lipo>  (121) 
-0.854154

>  <r_i_glide_hbond>  (121) 
0

>  <r_i_glide_metal>  (121) 
-0

>  <r_i_glide_rewards>  (121) 
0

>  <r_i_glide_evdw>  (121) 
-29.7994

>  <r_i_glide_ecoul>  (121) 
0.480579

>  <r_i_glide_erotb>  (121) 
0.581144

>  <r_i_glide_esite>  (121) 
-0.00961892

>  <r_i_glide_emodel>  (121) 
-31.3838

>  <r_i_glide_energy>  (121) 
-29.3189

>  <r_i_glide_einternal>  (121) 
3.42213

>  <r_i_glide_intrahb_reward>  (121) 
-0

>  <i_i_glide_confnum>  (121) 
15

>  <i_i_glide_posenum>  (121) 
28

>  <r_i_glide_eff_state_penalty>  (121) 
0

>  <ligand_id>  (121) 
34

>  <original_smiles>  (121) 
COCCOCCOCCOCCOC1OC23CC4(C)CCC5C(C)CCC(C1C)C5(OO4)C1OC2(O)C1C(C)(C)O3

>  <smiles>  (121) 
[H]OC12OC3([H])C1([H])C(C([H])([H])[H])(C([H])([H])[H])OC21OC([H])(OC([H])([H])C([H])([H])OC([H])([H])C([H])([H])OC([H])([H])C([H])([H])OC([H])([H])C([H])([H])OC([H])([H])[H])C([H])(C([H])([H])[H])C2([H])C([H])([H])C([H])([H])C([H])(C([H])([H])[H])C4([H])C([H])([H])C([H])([H])C(C([H])([H])[H])(OOC324)C1([H])[H]

$$$$
34:0:2
     RDKit          3D

 94 99  0  0  1  0  0  0  0  0999 V2000
    5.7438   -3.0399   -2.5005 C   0  0  0  0  0  0  0  0  0  0  0  0
    5.7816   -2.0572   -1.4705 O   0  0  0  0  0  0  0  0  0  0  0  0
    4.5277   -1.4453   -1.1657 C   0  0  0  0  0  0  0  0  0  0  0  0
    3.5518   -2.4133   -0.4799 C   0  0  0  0  0  0  0  0  0  0  0  0
    3.0021   -3.2456   -1.4860 O   0  0  0  0  0  0  0  0  0  0  0  0
    1.8728   -3.9904   -1.0899 C   0  0  0  0  0  0  0  0  0  0  0  0
    2.2045   -5.0501   -0.0175 C   0  0  0  0  0  0  0  0  0  0  0  0
    1.0576   -5.8645    0.1936 O   0  0  0  0  0  0  0  0  0  0  0  0
    1.3021   -6.9649    1.0629 C   0  0  0  0  0  0  0  0  0  0  0  0
    0.4044   -6.8747    2.2971 C   0  0  0  0  0  0  0  0  0  0  0  0
    0.8293   -5.7822    3.0966 O   0  0  0  0  0  0  0  0  0  0  0  0
    0.1185   -5.6765    4.3195 C   0  0  0  0  0  0  0  0  0  0  0  0
    0.5404   -4.3934    5.0458 C   0  0  0  0  0  0  0  0  0  0  0  0
    0.2535   -3.2699    4.2056 O   0  0  0  0  0  0  0  0  0  0  0  0
    0.6338   -2.0050    4.6746 C   0  0  2  0  0  0  0  0  0  0  0  0
   -0.5094   -1.1521    4.4919 O   0  0  0  0  0  0  0  0  0  0  0  0
   -0.4540    0.1912    4.9513 C   0  0  1  0  0  0  0  0  0  0  0  0
   -0.4894    0.2492    6.6087 C   0  0  0  0  0  0  0  0  0  0  0  0
    0.5165    0.9372    7.6681 C   0  0  2  0  0  0  0  0  0  0  0  0
   -0.2004    0.9015    9.0392 C   0  0  0  0  0  0  0  0  0  0  0  0
    1.2474    2.3230    7.5547 C   0  0  0  0  0  0  0  0  0  0  0  0
    2.8273    2.3221    7.4144 C   0  0  0  0  0  0  0  0  0  0  0  0
    3.5183    1.2232    6.5347 C   0  0  2  0  0  0  0  0  0  0  0  0
    4.7698    1.6952    5.7406 C   0  0  1  0  0  0  0  0  0  0  0  0
    5.8881    2.2303    6.6549 C   0  0  0  0  0  0  0  0  0  0  0  0
    5.3154    0.5586    4.8459 C   0  0  0  0  0  0  0  0  0  0  0  0
    4.2594   -0.0869    3.9285 C   0  0  0  0  0  0  0  0  0  0  0  0
    3.0446   -0.6285    4.7441 C   0  0  2  0  0  0  0  0  0  0  0  0
    2.0064   -1.5650    3.9165 C   0  0  1  0  0  0  0  0  0  0  0  0
    2.7748   -2.8127    3.4158 C   0  0  0  0  0  0  0  0  0  0  0  0
    2.4678    0.5787    5.6067 C   0  0  1  0  0  0  0  0  0  0  0  0
    1.8571   -0.3673    6.4400 O   0  0  0  0  0  0  0  0  0  0  0  0
    1.5662    0.0821    7.8029 O   0  0  0  0  0  0  0  0  0  0  0  0
    1.7190    1.8004    4.8118 C   0  0  1  0  0  0  0  0  0  0  0  0
    1.6635    1.0875    3.6346 O   0  0  0  0  0  0  0  0  0  0  0  0
    0.2421    1.0009    3.7879 C   0  0  1  0  0  0  0  0  0  0  0  0
   -0.3563    0.7892    2.5181 O   0  0  0  0  0  0  0  0  0  0  0  0
    0.2450    2.3237    4.3557 C   0  0  1  0  0  0  0  0  0  0  0  0
   -1.2571    2.3467    4.8226 C   0  0  0  0  0  0  0  0  0  0  0  0
   -1.6485    3.1296    6.1045 C   0  0  0  0  0  0  0  0  0  0  0  0
   -2.1404    3.0098    3.7349 C   0  0  0  0  0  0  0  0  0  0  0  0
   -1.6409    0.9387    4.8119 O   0  0  0  0  0  0  0  0  0  0  0  0
    6.7573   -3.3923   -2.7093 H   0  0  0  0  0  0  0  0  0  0  0  0
    5.3440   -2.6098   -3.4198 H   0  0  0  0  0  0  0  0  0  0  0  0
    5.1372   -3.8999   -2.2213 H   0  0  0  0  0  0  0  0  0  0  0  0
    4.7247   -0.6239   -0.4765 H   0  0  0  0  0  0  0  0  0  0  0  0
    4.0640   -1.0049   -2.0465 H   0  0  0  0  0  0  0  0  0  0  0  0
    4.0618   -3.0024    0.2852 H   0  0  0  0  0  0  0  0  0  0  0  0
    2.7709   -1.8475    0.0392 H   0  0  0  0  0  0  0  0  0  0  0  0
    1.0909   -3.3130   -0.7579 H   0  0  0  0  0  0  0  0  0  0  0  0
    1.4465   -4.4944   -1.9605 H   0  0  0  0  0  0  0  0  0  0  0  0
    3.0457   -5.6742   -0.3187 H   0  0  0  0  0  0  0  0  0  0  0  0
    2.4808   -4.5978    0.9343 H   0  0  0  0  0  0  0  0  0  0  0  0
    1.0380   -7.8585    0.5044 H   0  0  0  0  0  0  0  0  0  0  0  0
    2.3472   -7.0641    1.3654 H   0  0  0  0  0  0  0  0  0  0  0  0
   -0.6405   -6.7622    2.0011 H   0  0  0  0  0  0  0  0  0  0  0  0
    0.4863   -7.8028    2.8670 H   0  0  0  0  0  0  0  0  0  0  0  0
   -0.9573   -5.7025    4.1346 H   0  0  0  0  0  0  0  0  0  0  0  0
    0.3528   -6.5382    4.9411 H   0  0  0  0  0  0  0  0  0  0  0  0
   -0.0122   -4.3047    5.9859 H   0  0  0  0  0  0  0  0  0  0  0  0
    1.6013   -4.4457    5.2859 H   0  0  0  0  0  0  0  0  0  0  0  0
    0.7570   -2.1709    5.7446 H   0  0  0  0  0  0  0  0  0  0  0  0
   -1.4874    0.5784    6.9091 H   0  0  0  0  0  0  0  0  0  0  0  0
   -0.5639   -0.7954    6.9146 H   0  0  0  0  0  0  0  0  0  0  0  0
   -1.0199    1.6295    9.0680 H   0  0  0  0  0  0  0  0  0  0  0  0
    0.4708    1.1459    9.8679 H   0  0  0  0  0  0  0  0  0  0  0  0
   -0.6337   -0.0764    9.2537 H   0  0  0  0  0  0  0  0  0  0  0  0
    0.8182    2.9575    6.7900 H   0  0  0  0  0  0  0  0  0  0  0  0
    1.0330    2.9084    8.4575 H   0  0  0  0  0  0  0  0  0  0  0  0
    3.1081    3.3076    7.0349 H   0  0  0  0  0  0  0  0  0  0  0  0
    3.2557    2.2673    8.4198 H   0  0  0  0  0  0  0  0  0  0  0  0
    3.8808    0.4390    7.2089 H   0  0  0  0  0  0  0  0  0  0  0  0
    4.4836    2.5175    5.0875 H   0  0  0  0  0  0  0  0  0  0  0  0
    6.2398    1.4629    7.3446 H   0  0  0  0  0  0  0  0  0  0  0  0
    5.5543    3.0853    7.2421 H   0  0  0  0  0  0  0  0  0  0  0  0
    6.7459    2.5605    6.0709 H   0  0  0  0  0  0  0  0  0  0  0  0
    6.1207    0.9429    4.2244 H   0  0  0  0  0  0  0  0  0  0  0  0
    5.7577   -0.2146    5.4719 H   0  0  0  0  0  0  0  0  0  0  0  0
    3.9414    0.6427    3.1856 H   0  0  0  0  0  0  0  0  0  0  0  0
    4.7489   -0.8743    3.3721 H   0  0  0  0  0  0  0  0  0  0  0  0
    3.5156   -1.3274    5.4574 H   0  0  0  0  0  0  0  0  0  0  0  0
    1.7034   -1.1025    2.9879 H   0  0  0  0  0  0  0  0  0  0  0  0
    3.1455   -3.4245    4.2384 H   0  0  0  0  0  0  0  0  0  0  0  0
    3.6270   -2.5628    2.7809 H   0  0  0  0  0  0  0  0  0  0  0  0
    2.1336   -3.4241    2.7863 H   0  0  0  0  0  0  0  0  0  0  0  0
    2.3782    2.6600    4.7006 H   0  0  0  0  0  0  0  0  0  0  0  0
    0.0090    1.4289    1.9322 H   0  0  0  0  0  0  0  0  0  0  0  0
    0.4389    3.1070    3.6197 H   0  0  0  0  0  0  0  0  0  0  0  0
   -1.3267    4.1694    6.0529 H   0  0  0  0  0  0  0  0  0  0  0  0
   -1.2917    2.7299    7.0414 H   0  0  0  0  0  0  0  0  0  0  0  0
   -2.7348    3.1417    6.2128 H   0  0  0  0  0  0  0  0  0  0  0  0
   -1.9430    4.0790    3.6613 H   0  0  0  0  0  0  0  0  0  0  0  0
   -3.2030    2.8832    3.9529 H   0  0  0  0  0  0  0  0  0  0  0  0
   -1.9899    2.6072    2.7345 H   0  0  0  0  0  0  0  0  0  0  0  0
  1  2  1  0
  1 43  1  0
  1 44  1  0
  1 45  1  0
  2  3  1  0
  3  4  1  0
  3 46  1  0
  3 47  1  0
  4  5  1  0
  4 48  1  0
  4 49  1  0
  5  6  1  0
  6  7  1  0
  6 50  1  0
  6 51  1  0
  7  8  1  0
  7 52  1  0
  7 53  1  0
  8  9  1  0
  9 10  1  0
  9 54  1  0
  9 55  1  0
 10 11  1  0
 10 56  1  0
 10 57  1  0
 11 12  1  0
 12 13  1  0
 12 58  1  0
 12 59  1  0
 13 14  1  0
 13 60  1  0
 13 61  1  0
 14 15  1  0
 15 29  1  0
 15 16  1  0
 15 62  1  1
 16 17  1  0
 17 36  1  0
 17 42  1  6
 17 18  1  0
 18 19  1  0
 18 63  1  0
 18 64  1  0
 19 33  1  0
 19 20  1  1
 19 21  1  0
 20 65  1  0
 20 66  1  0
 20 67  1  0
 21 22  1  0
 21 68  1  0
 21 69  1  0
 22 23  1  0
 22 70  1  0
 22 71  1  0
 23 31  1  0
 23 24  1  0
 23 72  1  1
 24 25  1  0
 24 26  1  0
 24 73  1  6
 25 74  1  0
 25 75  1  0
 25 76  1  0
 26 27  1  0
 26 77  1  0
 26 78  1  0
 27 28  1  0
 27 79  1  0
 27 80  1  0
 28 29  1  0
 28 31  1  0
 28 81  1  1
 29 30  1  0
 29 82  1  6
 30 83  1  0
 30 84  1  0
 30 85  1  0
 31 32  1  1
 31 34  1  0
 32 33  1  0
 34 38  1  0
 34 35  1  0
 34 86  1  6
 35 36  1  0
 36 37  1  6
 36 38  1  0
 37 87  1  0
 38 39  1  0
 38 88  1  6
 39 40  1  0
 39 41  1  0
 39 42  1  0
 40 89  1  0
 40 90  1  0
 40 91  1  0
 41 92  1  0
 41 93  1  0
 41 94  1  0
M  END
>  <i_m_ct_stereo_status>  (122) 
1

>  <s_m_source_file>  (122) 
/var/tmp/pbs.5076255.sched01/tmpcsrx8n8z/40wzjmt8mb.sdf

>  <i_m_source_file_index>  (122) 
13

>  <i_lp_mmshare_version>  (122) 
48012

>  <i_f3d_flags>  (122) 
0

>  <s_epik_input>  (122) 
W0NIM11PW0NIMl1bQ0gyXU9bQ0gyXVtDSDJdT1tDSDJdW0NIMl1PW0NIMl1bQ0gyXU9bQ0BIXShPMSlbQ0BIXShbQ0gzXSlbQ0BIXTJbQ0gyXVtDSDJdW0NASF0oW0NIM10pW0NAQEhdKFtDSDJdW0NIMl1bQ0BdKFtDSDJdMykoW0NIM10pT080KVtDQEBdMjRbQ0BASF0oTzUpW0NAQEhdKFtDQEBdNShbQ0BAXTEzNilbT0hdKUMoTzYpKFtDSDNdKVtDSDNd

>  <s_epik_cmdline>  (122) 
J2VwaWtfcHl0aG9uJywgJy1waHQnLCAnMi4wJywgJy1waCcsICc3LjAnLCAnLXRuJywgJzgnLCAnLW1hJywgJzIwMCcsICctaW1hZScsICc8aW5maWxlLm1hZT4nLCAnLW9tYWUnLCAnPG91dGZpbGUubWFlPic=

>  <r_lp_tautomer_probability>  (122) 
1

>  <r_epik_Ionization_Penalty>  (122) 
0.000144832

>  <r_epik_Ionization_Penalty_Charging>  (122) 
0

>  <r_epik_Ionization_Penalty_Neutral>  (122) 
0.000144832

>  <r_epik_State_Penalty>  (122) 
-0

>  <r_epik_Charging_Adjusted_Penalty>  (122) 
0

>  <i_epik_Tot_Q>  (122) 
0

>  <i_epik_Tot_abs_Q>  (122) 
0

>  <s_epik_Chemistry_Notes>  (122) 
This compound contains an acetal/aminal-like group ( X-CH(R)-Y where X, Y are N, S, or O) that may be acid/base labile, releasing an aldehyde.

>  <s_lp_Force_Field>  (122) 
OPLS3e

>  <r_lp_Energy>  (122) 
245.425

>  <b_lp_Chiralities_Consistent>  (122) 
1

>  <s_lp_Variant>  (122) 
34:0-1

>  <s_i_glide_gridfile>  (122) 
pfpi4k_grid

>  <i_i_glide_lignum>  (122) 
13

>  <i_i_glide_rotatable_bonds>  (122) 
14

>  <r_i_docking_score>  (122) 
-1.66554

>  <r_i_glide_ligand_efficiency>  (122) 
-0.0396556

>  <r_i_glide_ligand_efficiency_sa>  (122) 
-0.137844

>  <r_i_glide_ligand_efficiency_ln>  (122) 
-0.351552

>  <r_i_glide_gscore>  (122) 
-1.66554

>  <r_i_glide_lipo>  (122) 
-0.374602

>  <r_i_glide_hbond>  (122) 
-0.290146

>  <r_i_glide_metal>  (122) 
-0

>  <r_i_glide_rewards>  (122) 
-0.0135684

>  <r_i_glide_evdw>  (122) 
-29.8514

>  <r_i_glide_ecoul>  (122) 
-0.249138

>  <r_i_glide_erotb>  (122) 
0.581144

>  <r_i_glide_esite>  (122) 
-0.0384218

>  <r_i_glide_emodel>  (122) 
-28.4002

>  <r_i_glide_energy>  (122) 
-30.1005

>  <r_i_glide_einternal>  (122) 
9.83305

>  <r_i_glide_intrahb_reward>  (122) 
-0

>  <i_i_glide_confnum>  (122) 
15

>  <i_i_glide_posenum>  (122) 
4

>  <r_i_glide_eff_state_penalty>  (122) 
0

>  <ligand_id>  (122) 
34

>  <original_smiles>  (122) 
COCCOCCOCCOCCOC1OC23CC4(C)CCC5C(C)CCC(C1C)C5(OO4)C1OC2(O)C1C(C)(C)O3

>  <smiles>  (122) 
[H]OC12OC3([H])C1([H])C(C([H])([H])[H])(C([H])([H])[H])OC21OC([H])(OC([H])([H])C([H])([H])OC([H])([H])C([H])([H])OC([H])([H])C([H])([H])OC([H])([H])C([H])([H])OC([H])([H])[H])C([H])(C([H])([H])[H])C2([H])C([H])([H])C([H])([H])C([H])(C([H])([H])[H])C4([H])C([H])([H])C([H])([H])C(C([H])([H])[H])(OOC324)C1([H])[H]

$$$$
35:0:0
     RDKit          3D

 35 38  0  0  1  0  0  0  0  0999 V2000
    2.5888   -2.7721   -4.0118 C   0  0  0  0  0  0  0  0  0  0  0  0
    3.5478   -1.9712   -3.1621 C   0  0  0  0  0  0  0  0  0  0  0  0
    3.8133   -0.5465   -3.6824 C   0  0  0  0  0  0  0  0  0  0  0  0
    3.0231   -1.9032   -1.8850 O   0  0  0  0  0  0  0  0  0  0  0  0
    4.1225   -2.0964   -1.0587 C   0  0  1  0  0  0  0  0  0  0  0  0
    3.9264   -2.6332    0.3541 C   0  0  0  0  0  0  0  0  0  0  0  0
    5.2314   -2.8012    0.9264 O   0  0  0  0  0  0  0  0  0  0  0  0
    6.1365   -3.6554    0.2512 C   0  0  2  0  0  0  0  0  0  0  0  0
    5.8928   -5.0388    0.6706 N   0  0  0  0  0  0  0  0  0  0  0  0
    6.3906   -5.7008    1.7184 C   0  0  0  0  0  0  0  0  0  0  0  0
    5.8249   -6.8924    1.8473 N   0  0  0  0  0  0  0  0  0  0  0  0
    4.9097   -6.9246    0.8203 N   0  0  0  0  0  0  0  0  0  0  0  0
    4.9471   -5.8281    0.1242 N   0  0  0  0  0  0  0  0  0  0  0  0
    7.5433   -3.2405    0.6105 C   0  0  0  0  0  0  0  0  0  0  0  0
    7.7513   -1.9945   -0.2393 C   0  0  0  0  0  0  0  0  0  0  0  0
    7.0797   -2.2685   -1.4677 O   0  0  0  0  0  0  0  0  0  0  0  0
    6.1792   -3.3700   -1.2726 C   0  0  2  0  0  0  0  0  0  0  0  0
    4.8007   -3.1640   -1.8467 C   0  0  2  0  0  0  0  0  0  0  0  0
    4.7585   -2.6419   -3.1454 O   0  0  0  0  0  0  0  0  0  0  0  0
    2.3846   -3.7678   -3.6181 H   0  0  0  0  0  0  0  0  0  0  0  0
    3.0530   -2.8642   -4.9865 H   0  0  0  0  0  0  0  0  0  0  0  0
    1.6451   -2.2432   -4.1120 H   0  0  0  0  0  0  0  0  0  0  0  0
    4.5498   -0.0415   -3.0521 H   0  0  0  0  0  0  0  0  0  0  0  0
    2.8904    0.0333   -3.6581 H   0  0  0  0  0  0  0  0  0  0  0  0
    4.1935   -0.5722   -4.7060 H   0  0  0  0  0  0  0  0  0  0  0  0
    4.7174   -1.1841   -1.0418 H   0  0  0  0  0  0  0  0  0  0  0  0
    3.3593   -1.9204    0.9455 H   0  0  0  0  0  0  0  0  0  0  0  0
    3.3823   -3.5804    0.3534 H   0  0  0  0  0  0  0  0  0  0  0  0
    7.1229   -5.3276    2.4116 H   0  0  0  0  0  0  0  0  0  0  0  0
    7.6150   -3.0963    1.6759 H   0  0  0  0  0  0  0  0  0  0  0  0
    8.2535   -4.0104    0.2843 H   0  0  0  0  0  0  0  0  0  0  0  0
    7.2820   -1.1314    0.2379 H   0  0  0  0  0  0  0  0  0  0  0  0
    8.8091   -1.7630   -0.3973 H   0  0  0  0  0  0  0  0  0  0  0  0
    6.5770   -4.2327   -1.7657 H   0  0  0  0  0  0  0  0  0  0  0  0
    4.2393   -4.1009   -1.8379 H   0  0  0  0  0  0  0  0  0  0  0  0
  1  2  1  0
  1 20  1  0
  1 21  1  0
  1 22  1  0
  2 19  1  0
  2  3  1  0
  2  4  1  0
  3 23  1  0
  3 24  1  0
  3 25  1  0
  4  5  1  0
  5 18  1  0
  5  6  1  0
  5 26  1  1
  6  7  1  0
  6 27  1  0
  6 28  1  0
  7  8  1  0
  8 17  1  0
  8  9  1  6
  8 14  1  0
  9 13  1  0
  9 10  1  0
 10 11  2  0
 10 29  1  0
 11 12  1  0
 12 13  2  0
 14 15  1  0
 14 30  1  0
 14 31  1  0
 15 16  1  0
 15 32  1  0
 15 33  1  0
 16 17  1  0
 17 18  1  0
 17 34  1  6
 18 19  1  0
 18 35  1  6
M  END
>  <i_m_ct_stereo_status>  (123) 
1

>  <s_m_source_file>  (123) 
/var/tmp/pbs.5076255.sched01/tmpcsrx8n8z/40wzjmt8mb.sdf

>  <i_m_source_file_index>  (123) 
14

>  <i_lp_mmshare_version>  (123) 
48012

>  <i_f3d_flags>  (123) 
0

>  <s_epik_input>  (123) 
W0NIM11DKE8xKShbQ0gzXSlPW0NAQEhdKFtDSDJdTzIpW0NAQEhdMVtDQEBIXShPW0NIMl1bQ0gyXTMpW0NAXTIzbjRbY0hdbm5uNA==

>  <s_epik_cmdline>  (123) 
J2VwaWtfcHl0aG9uJywgJy1waHQnLCAnMi4wJywgJy1waCcsICc3LjAnLCAnLXRuJywgJzgnLCAnLW1hJywgJzIwMCcsICctaW1hZScsICc8aW5maWxlLm1hZT4nLCAnLW9tYWUnLCAnPG91dGZpbGUubWFlPic=

>  <r_lp_tautomer_probability>  (123) 
1

>  <r_epik_Ionization_Penalty>  (123) 
9.75384e-10

>  <r_epik_Ionization_Penalty_Charging>  (123) 
0

>  <r_epik_Ionization_Penalty_Neutral>  (123) 
9.75384e-10

>  <r_epik_State_Penalty>  (123) 
-0

>  <r_epik_Charging_Adjusted_Penalty>  (123) 
0

>  <i_epik_Tot_Q>  (123) 
0

>  <i_epik_Tot_abs_Q>  (123) 
0

>  <s_lp_Force_Field>  (123) 
OPLS3e

>  <r_lp_Energy>  (123) 
13.2545

>  <b_lp_Chiralities_Consistent>  (123) 
1

>  <s_lp_Variant>  (123) 
35:0-1

>  <s_i_glide_gridfile>  (123) 
pfpi4k_grid

>  <i_i_glide_lignum>  (123) 
14

>  <i_i_glide_rotatable_bonds>  (123) 
1

>  <r_i_docking_score>  (123) 
-3.91454

>  <r_i_glide_ligand_efficiency>  (123) 
-0.206029

>  <r_i_glide_ligand_efficiency_sa>  (123) 
-0.549767

>  <r_i_glide_ligand_efficiency_ln>  (123) 
-0.992421

>  <r_i_glide_gscore>  (123) 
-3.91454

>  <r_i_glide_lipo>  (123) 
-0.693084

>  <r_i_glide_hbond>  (123) 
-0.16

>  <r_i_glide_metal>  (123) 
-0

>  <r_i_glide_rewards>  (123) 
-2.04321

>  <r_i_glide_evdw>  (123) 
-21.9445

>  <r_i_glide_ecoul>  (123) 
-1.12676

>  <r_i_glide_erotb>  (123) 
0.247988

>  <r_i_glide_esite>  (123) 
0

>  <r_i_glide_emodel>  (123) 
-27.1895

>  <r_i_glide_energy>  (123) 
-23.0712

>  <r_i_glide_einternal>  (123) 
0.67406

>  <r_i_glide_intrahb_reward>  (123) 
-0

>  <i_i_glide_confnum>  (123) 
2

>  <i_i_glide_posenum>  (123) 
5

>  <r_i_glide_eff_state_penalty>  (123) 
0

>  <ligand_id>  (123) 
35

>  <original_smiles>  (123) 
CC1(C)OC2COC3(n4cnnn4)CCOC3C2O1

>  <smiles>  (123) 
[H]c1nnnn1C12OC([H])([H])C3([H])OC(C([H])([H])[H])(C([H])([H])[H])OC3([H])C1([H])OC([H])([H])C2([H])[H]

$$$$
35:0:1
     RDKit          3D

 35 38  0  0  1  0  0  0  0  0999 V2000
    2.5401   -3.0733   -4.1301 C   0  0  0  0  0  0  0  0  0  0  0  0
    3.3373   -2.2173   -3.1587 C   0  0  0  0  0  0  0  0  0  0  0  0
    3.4930   -0.7620   -3.6257 C   0  0  0  0  0  0  0  0  0  0  0  0
    2.6704   -2.2597   -1.9390 O   0  0  0  0  0  0  0  0  0  0  0  0
    3.6958   -2.2951   -0.9907 C   0  0  1  0  0  0  0  0  0  0  0  0
    3.3976   -2.8642    0.3966 C   0  0  0  0  0  0  0  0  0  0  0  0
    4.6427   -2.8784    1.1031 O   0  0  0  0  0  0  0  0  0  0  0  0
    5.7165   -3.6067    0.5374 C   0  0  2  0  0  0  0  0  0  0  0  0
    5.5774   -5.0215    0.9049 N   0  0  0  0  0  0  0  0  0  0  0  0
    4.9216   -6.0415    0.3368 C   0  0  0  0  0  0  0  0  0  0  0  0
    5.0026   -7.1430    1.0639 N   0  0  0  0  0  0  0  0  0  0  0  0
    5.7392   -6.7501    2.1652 N   0  0  0  0  0  0  0  0  0  0  0  0
    6.0514   -5.4864    2.0902 N   0  0  0  0  0  0  0  0  0  0  0  0
    6.9967   -3.0001    1.0488 C   0  0  0  0  0  0  0  0  0  0  0  0
    7.1456   -1.7331    0.2238 C   0  0  0  0  0  0  0  0  0  0  0  0
    6.6605   -2.0780   -1.0686 O   0  0  0  0  0  0  0  0  0  0  0  0
    5.9300   -3.3038   -0.9696 C   0  0  2  0  0  0  0  0  0  0  0  0
    4.6001   -3.2600   -1.7034 C   0  0  2  0  0  0  0  0  0  0  0  0
    4.6131   -2.7506   -3.0143 O   0  0  0  0  0  0  0  0  0  0  0  0
    2.4333   -4.0948   -3.7714 H   0  0  0  0  0  0  0  0  0  0  0  0
    3.0289   -3.0665   -5.1013 H   0  0  0  0  0  0  0  0  0  0  0  0
    1.5412   -2.6476   -4.2437 H   0  0  0  0  0  0  0  0  0  0  0  0
    4.0913   -0.1916   -2.9170 H   0  0  0  0  0  0  0  0  0  0  0  0
    2.5192   -0.2902   -3.7191 H   0  0  0  0  0  0  0  0  0  0  0  0
    3.9884   -0.7435   -4.5980 H   0  0  0  0  0  0  0  0  0  0  0  0
    4.1435   -1.3022   -0.8997 H   0  0  0  0  0  0  0  0  0  0  0  0
    2.6816   -2.2307    0.9194 H   0  0  0  0  0  0  0  0  0  0  0  0
    2.9734   -3.8709    0.3539 H   0  0  0  0  0  0  0  0  0  0  0  0
    4.3690   -5.9832   -0.5860 H   0  0  0  0  0  0  0  0  0  0  0  0
    6.9014   -2.7843    2.1000 H   0  0  0  0  0  0  0  0  0  0  0  0
    7.8375   -3.6821    0.8693 H   0  0  0  0  0  0  0  0  0  0  0  0
    6.5211   -0.9401    0.6447 H   0  0  0  0  0  0  0  0  0  0  0  0
    8.1764   -1.3741    0.1931 H   0  0  0  0  0  0  0  0  0  0  0  0
    6.5686   -4.0864   -1.3645 H   0  0  0  0  0  0  0  0  0  0  0  0
    4.1320   -4.2420   -1.7537 H   0  0  0  0  0  0  0  0  0  0  0  0
  1  2  1  0
  1 20  1  0
  1 21  1  0
  1 22  1  0
  2 19  1  0
  2  3  1  0
  2  4  1  0
  3 23  1  0
  3 24  1  0
  3 25  1  0
  4  5  1  0
  5 18  1  0
  5  6  1  0
  5 26  1  1
  6  7  1  0
  6 27  1  0
  6 28  1  0
  7  8  1  0
  8 17  1  0
  8  9  1  6
  8 14  1  0
  9 13  1  0
  9 10  1  0
 10 11  2  0
 10 29  1  0
 11 12  1  0
 12 13  2  0
 14 15  1  0
 14 30  1  0
 14 31  1  0
 15 16  1  0
 15 32  1  0
 15 33  1  0
 16 17  1  0
 17 18  1  0
 17 34  1  6
 18 19  1  0
 18 35  1  6
M  END
>  <i_m_ct_stereo_status>  (124) 
1

>  <s_m_source_file>  (124) 
/var/tmp/pbs.5076255.sched01/tmpcsrx8n8z/40wzjmt8mb.sdf

>  <i_m_source_file_index>  (124) 
14

>  <i_lp_mmshare_version>  (124) 
48012

>  <i_f3d_flags>  (124) 
0

>  <s_epik_input>  (124) 
W0NIM11DKE8xKShbQ0gzXSlPW0NAQEhdKFtDSDJdTzIpW0NAQEhdMVtDQEBIXShPW0NIMl1bQ0gyXTMpW0NAXTIzbjRbY0hdbm5uNA==

>  <s_epik_cmdline>  (124) 
J2VwaWtfcHl0aG9uJywgJy1waHQnLCAnMi4wJywgJy1waCcsICc3LjAnLCAnLXRuJywgJzgnLCAnLW1hJywgJzIwMCcsICctaW1hZScsICc8aW5maWxlLm1hZT4nLCAnLW9tYWUnLCAnPG91dGZpbGUubWFlPic=

>  <r_lp_tautomer_probability>  (124) 
1

>  <r_epik_Ionization_Penalty>  (124) 
9.75384e-10

>  <r_epik_Ionization_Penalty_Charging>  (124) 
0

>  <r_epik_Ionization_Penalty_Neutral>  (124) 
9.75384e-10

>  <r_epik_State_Penalty>  (124) 
-0

>  <r_epik_Charging_Adjusted_Penalty>  (124) 
0

>  <i_epik_Tot_Q>  (124) 
0

>  <i_epik_Tot_abs_Q>  (124) 
0

>  <s_lp_Force_Field>  (124) 
OPLS3e

>  <r_lp_Energy>  (124) 
13.2545

>  <b_lp_Chiralities_Consistent>  (124) 
1

>  <s_lp_Variant>  (124) 
35:0-1

>  <s_i_glide_gridfile>  (124) 
pfpi4k_grid

>  <i_i_glide_lignum>  (124) 
14

>  <i_i_glide_rotatable_bonds>  (124) 
1

>  <r_i_docking_score>  (124) 
-3.88437

>  <r_i_glide_ligand_efficiency>  (124) 
-0.204441

>  <r_i_glide_ligand_efficiency_sa>  (124) 
-0.54553

>  <r_i_glide_ligand_efficiency_ln>  (124) 
-0.984772

>  <r_i_glide_gscore>  (124) 
-3.88437

>  <r_i_glide_lipo>  (124) 
-0.461779

>  <r_i_glide_hbond>  (124) 
-0.16

>  <r_i_glide_metal>  (124) 
-0

>  <r_i_glide_rewards>  (124) 
-2.07364

>  <r_i_glide_evdw>  (124) 
-21.1352

>  <r_i_glide_ecoul>  (124) 
-2.53459

>  <r_i_glide_erotb>  (124) 
0.247988

>  <r_i_glide_esite>  (124) 
0

>  <r_i_glide_emodel>  (124) 
-27.7249

>  <r_i_glide_energy>  (124) 
-23.6697

>  <r_i_glide_einternal>  (124) 
1.17161

>  <r_i_glide_intrahb_reward>  (124) 
-0

>  <i_i_glide_confnum>  (124) 
3

>  <i_i_glide_posenum>  (124) 
3

>  <r_i_glide_eff_state_penalty>  (124) 
0

>  <ligand_id>  (124) 
35

>  <original_smiles>  (124) 
CC1(C)OC2COC3(n4cnnn4)CCOC3C2O1

>  <smiles>  (124) 
[H]c1nnnn1C12OC([H])([H])C3([H])OC(C([H])([H])[H])(C([H])([H])[H])OC3([H])C1([H])OC([H])([H])C2([H])[H]

$$$$
35:0:2
     RDKit          3D

 35 38  0  0  1  0  0  0  0  0999 V2000
    2.6349   -3.0889   -4.1189 C   0  0  0  0  0  0  0  0  0  0  0  0
    3.3644   -2.2071   -3.1318 C   0  0  0  0  0  0  0  0  0  0  0  0
    3.4600   -0.7401   -3.5958 C   0  0  0  0  0  0  0  0  0  0  0  0
    2.6354   -2.2789   -1.9582 O   0  0  0  0  0  0  0  0  0  0  0  0
    3.6179   -2.2418   -0.9790 C   0  0  1  0  0  0  0  0  0  0  0  0
    3.2590   -2.7778    0.3887 C   0  0  0  0  0  0  0  0  0  0  0  0
    4.4721   -2.7214    1.1327 O   0  0  0  0  0  0  0  0  0  0  0  0
    5.5915   -3.4434    0.6618 C   0  0  2  0  0  0  0  0  0  0  0  0
    5.4398   -4.8543    1.0557 N   0  0  0  0  0  0  0  0  0  0  0  0
    4.4905   -5.4761    1.7594 C   0  0  0  0  0  0  0  0  0  0  0  0
    4.7717   -6.7536    1.9410 N   0  0  0  0  0  0  0  0  0  0  0  0
    5.9983   -6.9000    1.3398 N   0  0  0  0  0  0  0  0  0  0  0  0
    6.4052   -5.7731    0.8271 N   0  0  0  0  0  0  0  0  0  0  0  0
    6.7807   -2.7788    1.2823 C   0  0  0  0  0  0  0  0  0  0  0  0
    6.9600   -1.5153    0.4365 C   0  0  0  0  0  0  0  0  0  0  0  0
    6.5853   -1.8877   -0.8883 O   0  0  0  0  0  0  0  0  0  0  0  0
    5.8991   -3.1470   -0.8273 C   0  0  2  0  0  0  0  0  0  0  0  0
    4.6029   -3.1852   -1.6152 C   0  0  2  0  0  0  0  0  0  0  0  0
    4.6545   -2.6938   -2.9331 O   0  0  0  0  0  0  0  0  0  0  0  0
    2.5717   -4.1215   -3.7802 H   0  0  0  0  0  0  0  0  0  0  0  0
    3.1487   -3.0501   -5.0735 H   0  0  0  0  0  0  0  0  0  0  0  0
    1.6213   -2.7067   -4.2403 H   0  0  0  0  0  0  0  0  0  0  0  0
    3.9867   -0.1269   -2.8645 H   0  0  0  0  0  0  0  0  0  0  0  0
    2.4649   -0.3196   -3.7323 H   0  0  0  0  0  0  0  0  0  0  0  0
    3.9874   -0.6813   -4.5477 H   0  0  0  0  0  0  0  0  0  0  0  0
    4.0057   -1.2309   -0.8783 H   0  0  0  0  0  0  0  0  0  0  0  0
    2.4984   -2.1770    0.8933 H   0  0  0  0  0  0  0  0  0  0  0  0
    2.8703   -3.7916    0.2940 H   0  0  0  0  0  0  0  0  0  0  0  0
    3.6090   -5.0226    2.1773 H   0  0  0  0  0  0  0  0  0  0  0  0
    6.5620   -2.5792    2.3257 H   0  0  0  0  0  0  0  0  0  0  0  0
    7.6702   -3.3994    1.1570 H   0  0  0  0  0  0  0  0  0  0  0  0
    6.2906   -0.7374    0.7991 H   0  0  0  0  0  0  0  0  0  0  0  0
    7.9703   -1.1019    0.4605 H   0  0  0  0  0  0  0  0  0  0  0  0
    6.6010   -3.8905   -1.1997 H   0  0  0  0  0  0  0  0  0  0  0  0
    4.1998   -4.2042   -1.6234 H   0  0  0  0  0  0  0  0  0  0  0  0
  1  2  1  0
  1 20  1  0
  1 21  1  0
  1 22  1  0
  2 19  1  0
  2  3  1  0
  2  4  1  0
  3 23  1  0
  3 24  1  0
  3 25  1  0
  4  5  1  0
  5 18  1  0
  5  6  1  0
  5 26  1  1
  6  7  1  0
  6 27  1  0
  6 28  1  0
  7  8  1  0
  8 17  1  0
  8  9  1  6
  8 14  1  0
  9 13  1  0
  9 10  1  0
 10 11  2  0
 10 29  1  0
 11 12  1  0
 12 13  2  0
 14 15  1  0
 14 30  1  0
 14 31  1  0
 15 16  1  0
 15 32  1  0
 15 33  1  0
 16 17  1  0
 17 18  1  0
 17 34  1  6
 18 19  1  0
 18 35  1  6
M  END
>  <i_m_ct_stereo_status>  (125) 
1

>  <s_m_source_file>  (125) 
/var/tmp/pbs.5076255.sched01/tmpcsrx8n8z/40wzjmt8mb.sdf

>  <i_m_source_file_index>  (125) 
14

>  <i_lp_mmshare_version>  (125) 
48012

>  <i_f3d_flags>  (125) 
0

>  <s_epik_input>  (125) 
W0NIM11DKE8xKShbQ0gzXSlPW0NAQEhdKFtDSDJdTzIpW0NAQEhdMVtDQEBIXShPW0NIMl1bQ0gyXTMpW0NAXTIzbjRbY0hdbm5uNA==

>  <s_epik_cmdline>  (125) 
J2VwaWtfcHl0aG9uJywgJy1waHQnLCAnMi4wJywgJy1waCcsICc3LjAnLCAnLXRuJywgJzgnLCAnLW1hJywgJzIwMCcsICctaW1hZScsICc8aW5maWxlLm1hZT4nLCAnLW9tYWUnLCAnPG91dGZpbGUubWFlPic=

>  <r_lp_tautomer_probability>  (125) 
1

>  <r_epik_Ionization_Penalty>  (125) 
9.75384e-10

>  <r_epik_Ionization_Penalty_Charging>  (125) 
0

>  <r_epik_Ionization_Penalty_Neutral>  (125) 
9.75384e-10

>  <r_epik_State_Penalty>  (125) 
-0

>  <r_epik_Charging_Adjusted_Penalty>  (125) 
0

>  <i_epik_Tot_Q>  (125) 
0

>  <i_epik_Tot_abs_Q>  (125) 
0

>  <s_lp_Force_Field>  (125) 
OPLS3e

>  <r_lp_Energy>  (125) 
13.2545

>  <b_lp_Chiralities_Consistent>  (125) 
1

>  <s_lp_Variant>  (125) 
35:0-1

>  <s_i_glide_gridfile>  (125) 
pfpi4k_grid

>  <i_i_glide_lignum>  (125) 
14

>  <i_i_glide_rotatable_bonds>  (125) 
1

>  <r_i_docking_score>  (125) 
-3.60796

>  <r_i_glide_ligand_efficiency>  (125) 
-0.189893

>  <r_i_glide_ligand_efficiency_sa>  (125) 
-0.50671

>  <r_i_glide_ligand_efficiency_ln>  (125) 
-0.914696

>  <r_i_glide_gscore>  (125) 
-3.60796

>  <r_i_glide_lipo>  (125) 
-0.396152

>  <r_i_glide_hbond>  (125) 
-0.16

>  <r_i_glide_metal>  (125) 
-0

>  <r_i_glide_rewards>  (125) 
-1.88649

>  <r_i_glide_evdw>  (125) 
-21.6823

>  <r_i_glide_ecoul>  (125) 
-2.19463

>  <r_i_glide_erotb>  (125) 
0.247988

>  <r_i_glide_esite>  (125) 
0

>  <r_i_glide_emodel>  (125) 
-27.8213

>  <r_i_glide_energy>  (125) 
-23.8769

>  <r_i_glide_einternal>  (125) 
0.337518

>  <r_i_glide_intrahb_reward>  (125) 
-0

>  <i_i_glide_confnum>  (125) 
5

>  <i_i_glide_posenum>  (125) 
23

>  <r_i_glide_eff_state_penalty>  (125) 
0

>  <ligand_id>  (125) 
35

>  <original_smiles>  (125) 
CC1(C)OC2COC3(n4cnnn4)CCOC3C2O1

>  <smiles>  (125) 
[H]c1nnnn1C12OC([H])([H])C3([H])OC(C([H])([H])[H])(C([H])([H])[H])OC3([H])C1([H])OC([H])([H])C2([H])[H]

$$$$
36:0:0
     RDKit          3D

 47 51  0  0  1  0  0  0  0  0999 V2000
    0.3458   -1.5576    6.8021 C   0  0  0  0  0  0  0  0  0  0  0  0
    1.4878   -1.0213    5.9244 C   0  0  0  0  0  0  0  0  0  0  0  0
    2.5985   -1.5279    6.0705 O   0  0  0  0  0  0  0  0  0  0  0  0
    1.2528   -0.0516    5.0002 N   0  0  0  0  0  0  0  0  0  0  0  0
    2.1307    0.1514    3.8060 C   0  0  1  0  0  0  0  0  0  0  0  0
    2.2834   -1.1366    2.9300 C   0  0  0  0  0  0  0  0  0  0  0  0
    3.2122   -1.0743    1.7333 C   0  0  0  0  0  0  0  0  0  0  0  0
    3.8790    0.0117    1.2912 C   0  0  0  0  0  0  0  0  0  0  0  0
    4.5743   -0.2831    0.1444 N   0  0  0  0  0  0  0  0  0  0  0  0
    4.4358   -1.6154   -0.1943 C   0  0  0  0  0  0  0  0  0  0  0  0
    4.9485   -2.3839   -1.2448 C   0  0  0  0  0  0  0  0  0  0  0  0
    4.6434   -3.7615   -1.2943 C   0  0  0  0  0  0  0  0  0  0  0  0
    3.8215   -4.3306   -0.3026 C   0  0  0  0  0  0  0  0  0  0  0  0
    3.2871   -3.5360    0.7360 C   0  0  0  0  0  0  0  0  0  0  0  0
    3.5844   -2.1526    0.8171 C   0  0  0  0  0  0  0  0  0  0  0  0
    1.4048    1.2489    3.0101 C   0  0  0  0  0  0  0  0  0  0  0  0
    1.5531    1.5821    1.8352 O   0  0  0  0  0  0  0  0  0  0  0  0
    0.3732    1.8799    3.8931 C   0  0  1  0  0  0  0  0  0  0  0  0
   -0.8960    2.4116    3.2109 C   0  0  0  0  0  0  0  0  0  0  0  0
   -1.9848    2.6027    4.1320 O   0  0  0  0  0  0  0  0  0  0  0  0
   -1.8055    2.3208    5.4678 C   0  0  0  0  0  0  0  0  0  0  0  0
   -2.6626    2.9522    6.3816 C   0  0  0  0  0  0  0  0  0  0  0  0
   -2.5256    2.7333    7.7626 C   0  0  0  0  0  0  0  0  0  0  0  0
   -1.4726    1.9133    8.2329 C   0  0  0  0  0  0  0  0  0  0  0  0
   -0.5657    1.3150    7.3327 C   0  0  0  0  0  0  0  0  0  0  0  0
   -0.7765    1.4407    5.9373 C   0  0  0  0  0  0  0  0  0  0  0  0
    0.0156    0.7432    4.8307 C   0  0  2  0  0  0  0  0  0  0  0  0
    5.0379    0.4335   -0.3969 H   0  0  0  0  0  0  0  0  0  0  0  0
   -0.6328   -1.2212    6.4521 H   0  0  0  0  0  0  0  0  0  0  0  0
    0.4686   -1.2253    7.8391 H   0  0  0  0  0  0  0  0  0  0  0  0
    0.3231   -2.6429    6.7856 H   0  0  0  0  0  0  0  0  0  0  0  0
    3.1142    0.4905    4.1164 H   0  0  0  0  0  0  0  0  0  0  0  0
    2.6390   -1.9692    3.5347 H   0  0  0  0  0  0  0  0  0  0  0  0
    1.2988   -1.4387    2.5735 H   0  0  0  0  0  0  0  0  0  0  0  0
    3.8366    0.9986    1.7407 H   0  0  0  0  0  0  0  0  0  0  0  0
    5.5763   -1.9355   -1.9909 H   0  0  0  0  0  0  0  0  0  0  0  0
    5.0394   -4.3739   -2.0835 H   0  0  0  0  0  0  0  0  0  0  0  0
    3.5896   -5.3812   -0.3283 H   0  0  0  0  0  0  0  0  0  0  0  0
    2.6572   -3.9779    1.4902 H   0  0  0  0  0  0  0  0  0  0  0  0
    0.8861    2.6767    4.4330 H   0  0  0  0  0  0  0  0  0  0  0  0
   -0.6629    3.3799    2.7615 H   0  0  0  0  0  0  0  0  0  0  0  0
   -1.2038    1.7566    2.3886 H   0  0  0  0  0  0  0  0  0  0  0  0
   -3.4222    3.6215    6.0055 H   0  0  0  0  0  0  0  0  0  0  0  0
   -3.1797    3.2218    8.4574 H   0  0  0  0  0  0  0  0  0  0  0  0
   -1.3600    1.7525    9.2882 H   0  0  0  0  0  0  0  0  0  0  0  0
    0.2715    0.7715    7.7413 H   0  0  0  0  0  0  0  0  0  0  0  0
   -0.6721    0.0703    4.3145 H   0  0  0  0  0  0  0  0  0  0  0  0
  1  2  1  0
  1 29  1  0
  1 30  1  0
  1 31  1  0
  2  3  2  0
  2  4  1  0
  4 27  1  0
  4  5  1  0
  5  6  1  0
  5 16  1  0
  5 32  1  1
  6  7  1  0
  6 33  1  0
  6 34  1  0
  7 15  1  0
  7  8  2  0
  8  9  1  0
  8 35  1  0
  9 28  1  0
  9 10  1  0
 10 15  2  0
 10 11  1  0
 11 12  2  0
 11 36  1  0
 12 13  1  0
 12 37  1  0
 13 14  2  0
 13 38  1  0
 14 15  1  0
 14 39  1  0
 16 17  2  0
 16 18  1  0
 18 27  1  0
 18 19  1  0
 18 40  1  1
 19 20  1  0
 19 41  1  0
 19 42  1  0
 20 21  1  0
 21 26  2  0
 21 22  1  0
 22 23  2  0
 22 43  1  0
 23 24  1  0
 23 44  1  0
 24 25  2  0
 24 45  1  0
 25 26  1  0
 25 46  1  0
 26 27  1  0
 27 47  1  6
M  END
>  <i_m_ct_stereo_status>  (126) 
1

>  <s_m_source_file>  (126) 
/var/tmp/pbs.5076255.sched01/tmpcsrx8n8z/40wzjmt8mb.sdf

>  <i_m_source_file_index>  (126) 
15

>  <i_lp_mmshare_version>  (126) 
48012

>  <i_f3d_flags>  (126) 
0

>  <s_epik_input>  (126) 
W2NIXTFbY0hdW2NIXVtjSF1jKE9bQ0gyXTIpYzFbQ0BASF0oW0NASF0yMylOKEMoPU8pW0NIM10pW0NASF0oQzM9TylbQ0gyXWMoW2NIXVtuSF00KWMoYzQ1KVtjSF1bY0hdW2NIXVtjSF01

>  <s_epik_cmdline>  (126) 
J2VwaWtfcHl0aG9uJywgJy1waHQnLCAnMi4wJywgJy1waCcsICc3LjAnLCAnLXRuJywgJzgnLCAnLW1hJywgJzIwMCcsICctaW1hZScsICc8aW5maWxlLm1hZT4nLCAnLW9tYWUnLCAnPG91dGZpbGUubWFlPic=

>  <r_lp_tautomer_probability>  (126) 
1

>  <r_epik_Ionization_Penalty>  (126) 
6.25494e-09

>  <r_epik_Ionization_Penalty_Charging>  (126) 
0

>  <r_epik_Ionization_Penalty_Neutral>  (126) 
6.25494e-09

>  <r_epik_State_Penalty>  (126) 
-0

>  <r_epik_Charging_Adjusted_Penalty>  (126) 
0

>  <i_epik_Tot_Q>  (126) 
0

>  <i_epik_Tot_abs_Q>  (126) 
0

>  <s_lp_Force_Field>  (126) 
OPLS3e

>  <r_lp_Energy>  (126) 
40.1158

>  <b_lp_Chiralities_Consistent>  (126) 
1

>  <s_lp_Variant>  (126) 
36:0-1

>  <s_i_glide_gridfile>  (126) 
pfpi4k_grid

>  <i_i_glide_lignum>  (126) 
15

>  <i_i_glide_rotatable_bonds>  (126) 
3

>  <r_i_docking_score>  (126) 
-3.19173

>  <r_i_glide_ligand_efficiency>  (126) 
-0.118212

>  <r_i_glide_ligand_efficiency_sa>  (126) 
-0.354637

>  <r_i_glide_ligand_efficiency_ln>  (126) 
-0.742982

>  <r_i_glide_gscore>  (126) 
-3.19173

>  <r_i_glide_lipo>  (126) 
-0.315742

>  <r_i_glide_hbond>  (126) 
-0.32

>  <r_i_glide_metal>  (126) 
-0

>  <r_i_glide_rewards>  (126) 
-0.951779

>  <r_i_glide_evdw>  (126) 
-25.8906

>  <r_i_glide_ecoul>  (126) 
-3.89392

>  <r_i_glide_erotb>  (126) 
0.2953

>  <r_i_glide_esite>  (126) 
-0.02089

>  <r_i_glide_emodel>  (126) 
-32.499

>  <r_i_glide_energy>  (126) 
-29.7845

>  <r_i_glide_einternal>  (126) 
4.71562

>  <r_i_glide_intrahb_reward>  (126) 
-0

>  <i_i_glide_confnum>  (126) 
6

>  <i_i_glide_posenum>  (126) 
26

>  <r_i_glide_eff_state_penalty>  (126) 
0

>  <ligand_id>  (126) 
36

>  <original_smiles>  (126) 
CC(=O)N1C(Cc2c[nH]c3ccccc23)C(=O)C2COc3ccccc3C21

>  <smiles>  (126) 
[H]c1c([H])c([H])c2c(c1[H])OC([H])([H])C1([H])C(=O)C([H])(C([H])([H])c3c([H])n([H])c4c([H])c([H])c([H])c([H])c34)N(C(=O)C([H])([H])[H])C21[H]

$$$$
36:0:1
     RDKit          3D

 47 51  0  0  1  0  0  0  0  0999 V2000
    2.1180   -2.3027    5.6748 C   0  0  0  0  0  0  0  0  0  0  0  0
    0.9402   -1.3318    5.4619 C   0  0  0  0  0  0  0  0  0  0  0  0
   -0.1464   -1.6405    5.9564 O   0  0  0  0  0  0  0  0  0  0  0  0
    1.1203   -0.2061    4.7200 N   0  0  0  0  0  0  0  0  0  0  0  0
    2.2787   -0.0024    3.8130 C   0  0  1  0  0  0  0  0  0  0  0  0
    2.4149   -1.1251    2.7281 C   0  0  0  0  0  0  0  0  0  0  0  0
    3.7493   -1.2573    2.0457 C   0  0  0  0  0  0  0  0  0  0  0  0
    4.9266   -0.7363    2.4678 C   0  0  0  0  0  0  0  0  0  0  0  0
    5.9249   -1.0568    1.5705 N   0  0  0  0  0  0  0  0  0  0  0  0
    5.4416   -1.8135    0.5200 C   0  0  0  0  0  0  0  0  0  0  0  0
    6.0380   -2.3700   -0.6236 C   0  0  0  0  0  0  0  0  0  0  0  0
    5.2491   -3.1087   -1.5220 C   0  0  0  0  0  0  0  0  0  0  0  0
    3.8771   -3.2927   -1.2622 C   0  0  0  0  0  0  0  0  0  0  0  0
    3.2938   -2.7370   -0.1053 C   0  0  0  0  0  0  0  0  0  0  0  0
    4.0539   -1.9715    0.8071 C   0  0  0  0  0  0  0  0  0  0  0  0
    1.9850    1.3211    3.1144 C   0  0  0  0  0  0  0  0  0  0  0  0
    2.5278    1.7594    2.1011 O   0  0  0  0  0  0  0  0  0  0  0  0
    0.8752    2.0125    3.8543 C   0  0  1  0  0  0  0  0  0  0  0  0
   -0.0815    2.9100    3.0625 C   0  0  0  0  0  0  0  0  0  0  0  0
   -1.3084    3.1902    3.7636 O   0  0  0  0  0  0  0  0  0  0  0  0
   -1.5228    2.6375    5.0171 C   0  0  0  0  0  0  0  0  0  0  0  0
   -2.4640    3.2832    5.8385 C   0  0  0  0  0  0  0  0  0  0  0  0
   -2.6937    2.8319    7.1466 C   0  0  0  0  0  0  0  0  0  0  0  0
   -1.9611    1.7427    7.6456 C   0  0  0  0  0  0  0  0  0  0  0  0
   -1.0190    1.0826    6.8286 C   0  0  0  0  0  0  0  0  0  0  0  0
   -0.8195    1.4950    5.4889 C   0  0  0  0  0  0  0  0  0  0  0  0
    0.1088    0.8447    4.4554 C   0  0  2  0  0  0  0  0  0  0  0  0
    6.8732   -0.7297    1.6822 H   0  0  0  0  0  0  0  0  0  0  0  0
    3.1010   -1.8858    5.4428 H   0  0  0  0  0  0  0  0  0  0  0  0
    1.9597   -3.1795    5.0468 H   0  0  0  0  0  0  0  0  0  0  0  0
    2.1528   -2.6456    6.7077 H   0  0  0  0  0  0  0  0  0  0  0  0
    3.1728    0.1152    4.4281 H   0  0  0  0  0  0  0  0  0  0  0  0
    2.1991   -2.1171    3.1103 H   0  0  0  0  0  0  0  0  0  0  0  0
    1.6688   -0.9556    1.9493 H   0  0  0  0  0  0  0  0  0  0  0  0
    5.0543   -0.1529    3.3721 H   0  0  0  0  0  0  0  0  0  0  0  0
    7.0882   -2.2341   -0.8059 H   0  0  0  0  0  0  0  0  0  0  0  0
    5.6905   -3.5416   -2.4080 H   0  0  0  0  0  0  0  0  0  0  0  0
    3.2583   -3.8540   -1.9467 H   0  0  0  0  0  0  0  0  0  0  0  0
    2.2367   -2.8743    0.0842 H   0  0  0  0  0  0  0  0  0  0  0  0
    1.3477    2.6004    4.6359 H   0  0  0  0  0  0  0  0  0  0  0  0
    0.4059    3.8692    2.8819 H   0  0  0  0  0  0  0  0  0  0  0  0
   -0.3106    2.4817    2.0811 H   0  0  0  0  0  0  0  0  0  0  0  0
   -2.9840    4.1433    5.4559 H   0  0  0  0  0  0  0  0  0  0  0  0
   -3.4030    3.3418    7.7803 H   0  0  0  0  0  0  0  0  0  0  0  0
   -2.1292    1.4094    8.6557 H   0  0  0  0  0  0  0  0  0  0  0  0
   -0.4632    0.2745    7.2663 H   0  0  0  0  0  0  0  0  0  0  0  0
   -0.5489    0.4292    3.6880 H   0  0  0  0  0  0  0  0  0  0  0  0
  1  2  1  0
  1 29  1  0
  1 30  1  0
  1 31  1  0
  2  3  2  0
  2  4  1  0
  4 27  1  0
  4  5  1  0
  5  6  1  0
  5 16  1  0
  5 32  1  1
  6  7  1  0
  6 33  1  0
  6 34  1  0
  7 15  1  0
  7  8  2  0
  8  9  1  0
  8 35  1  0
  9 28  1  0
  9 10  1  0
 10 15  2  0
 10 11  1  0
 11 12  2  0
 11 36  1  0
 12 13  1  0
 12 37  1  0
 13 14  2  0
 13 38  1  0
 14 15  1  0
 14 39  1  0
 16 17  2  0
 16 18  1  0
 18 27  1  0
 18 19  1  0
 18 40  1  1
 19 20  1  0
 19 41  1  0
 19 42  1  0
 20 21  1  0
 21 26  2  0
 21 22  1  0
 22 23  2  0
 22 43  1  0
 23 24  1  0
 23 44  1  0
 24 25  2  0
 24 45  1  0
 25 26  1  0
 25 46  1  0
 26 27  1  0
 27 47  1  6
M  END
>  <i_m_ct_stereo_status>  (127) 
1

>  <s_m_source_file>  (127) 
/var/tmp/pbs.5076255.sched01/tmpcsrx8n8z/40wzjmt8mb.sdf

>  <i_m_source_file_index>  (127) 
15

>  <i_lp_mmshare_version>  (127) 
48012

>  <i_f3d_flags>  (127) 
0

>  <s_epik_input>  (127) 
W2NIXTFbY0hdW2NIXVtjSF1jKE9bQ0gyXTIpYzFbQ0BASF0oW0NASF0yMylOKEMoPU8pW0NIM10pW0NASF0oQzM9TylbQ0gyXWMoW2NIXVtuSF00KWMoYzQ1KVtjSF1bY0hdW2NIXVtjSF01

>  <s_epik_cmdline>  (127) 
J2VwaWtfcHl0aG9uJywgJy1waHQnLCAnMi4wJywgJy1waCcsICc3LjAnLCAnLXRuJywgJzgnLCAnLW1hJywgJzIwMCcsICctaW1hZScsICc8aW5maWxlLm1hZT4nLCAnLW9tYWUnLCAnPG91dGZpbGUubWFlPic=

>  <r_lp_tautomer_probability>  (127) 
1

>  <r_epik_Ionization_Penalty>  (127) 
6.25494e-09

>  <r_epik_Ionization_Penalty_Charging>  (127) 
0

>  <r_epik_Ionization_Penalty_Neutral>  (127) 
6.25494e-09

>  <r_epik_State_Penalty>  (127) 
-0

>  <r_epik_Charging_Adjusted_Penalty>  (127) 
0

>  <i_epik_Tot_Q>  (127) 
0

>  <i_epik_Tot_abs_Q>  (127) 
0

>  <s_lp_Force_Field>  (127) 
OPLS3e

>  <r_lp_Energy>  (127) 
40.1158

>  <b_lp_Chiralities_Consistent>  (127) 
1

>  <s_lp_Variant>  (127) 
36:0-1

>  <s_i_glide_gridfile>  (127) 
pfpi4k_grid

>  <i_i_glide_lignum>  (127) 
15

>  <i_i_glide_rotatable_bonds>  (127) 
3

>  <r_i_docking_score>  (127) 
-2.98565

>  <r_i_glide_ligand_efficiency>  (127) 
-0.11058

>  <r_i_glide_ligand_efficiency_sa>  (127) 
-0.331739

>  <r_i_glide_ligand_efficiency_ln>  (127) 
-0.69501

>  <r_i_glide_gscore>  (127) 
-2.98565

>  <r_i_glide_lipo>  (127) 
-0.4307

>  <r_i_glide_hbond>  (127) 
-0.0903813

>  <r_i_glide_metal>  (127) 
-0

>  <r_i_glide_rewards>  (127) 
-0.951779

>  <r_i_glide_evdw>  (127) 
-27.1369

>  <r_i_glide_ecoul>  (127) 
-2.94967

>  <r_i_glide_erotb>  (127) 
0.2953

>  <r_i_glide_esite>  (127) 
-0.00879804

>  <r_i_glide_emodel>  (127) 
-34.1737

>  <r_i_glide_energy>  (127) 
-30.0865

>  <r_i_glide_einternal>  (127) 
1.91535

>  <r_i_glide_intrahb_reward>  (127) 
-0

>  <i_i_glide_confnum>  (127) 
6

>  <i_i_glide_posenum>  (127) 
18

>  <r_i_glide_eff_state_penalty>  (127) 
0

>  <ligand_id>  (127) 
36

>  <original_smiles>  (127) 
CC(=O)N1C(Cc2c[nH]c3ccccc23)C(=O)C2COc3ccccc3C21

>  <smiles>  (127) 
[H]c1c([H])c([H])c2c(c1[H])OC([H])([H])C1([H])C(=O)C([H])(C([H])([H])c3c([H])n([H])c4c([H])c([H])c([H])c([H])c34)N(C(=O)C([H])([H])[H])C21[H]

$$$$
36:0:2
     RDKit          3D

 47 51  0  0  1  0  0  0  0  0999 V2000
    1.6181    0.9527    1.6803 C   0  0  0  0  0  0  0  0  0  0  0  0
    2.0512    0.7806    3.1430 C   0  0  0  0  0  0  0  0  0  0  0  0
    1.7034    1.6506    3.9392 O   0  0  0  0  0  0  0  0  0  0  0  0
    2.8260   -0.2770    3.5088 N   0  0  0  0  0  0  0  0  0  0  0  0
    3.5657   -1.1376    2.5431 C   0  0  1  0  0  0  0  0  0  0  0  0
    4.5411   -0.3239    1.6307 C   0  0  0  0  0  0  0  0  0  0  0  0
    5.4020   -1.1156    0.6854 C   0  0  0  0  0  0  0  0  0  0  0  0
    6.7138   -1.3982    0.8571 C   0  0  0  0  0  0  0  0  0  0  0  0
    7.1767   -2.1483   -0.2053 N   0  0  0  0  0  0  0  0  0  0  0  0
    6.1780   -2.3718   -1.1309 C   0  0  0  0  0  0  0  0  0  0  0  0
    6.1408   -3.0548   -2.3563 C   0  0  0  0  0  0  0  0  0  0  0  0
    4.9382   -3.1067   -3.0815 C   0  0  0  0  0  0  0  0  0  0  0  0
    3.7855   -2.4728   -2.5774 C   0  0  0  0  0  0  0  0  0  0  0  0
    3.8408   -1.7902   -1.3447 C   0  0  0  0  0  0  0  0  0  0  0  0
    5.0307   -1.7214   -0.5893 C   0  0  0  0  0  0  0  0  0  0  0  0
    4.3531   -2.1046    3.4344 C   0  0  0  0  0  0  0  0  0  0  0  0
    5.2423   -2.8917    3.1023 O   0  0  0  0  0  0  0  0  0  0  0  0
    3.8665   -1.9642    4.8447 C   0  0  1  0  0  0  0  0  0  0  0  0
    4.8841   -2.1732    5.9722 C   0  0  0  0  0  0  0  0  0  0  0  0
    4.4417   -1.6510    7.2362 O   0  0  0  0  0  0  0  0  0  0  0  0
    3.2023   -1.0346    7.3234 C   0  0  0  0  0  0  0  0  0  0  0  0
    2.6130   -0.9823    8.6020 C   0  0  0  0  0  0  0  0  0  0  0  0
    1.3385   -0.4189    8.7666 C   0  0  0  0  0  0  0  0  0  0  0  0
    0.6448    0.0783    7.6491 C   0  0  0  0  0  0  0  0  0  0  0  0
    1.2228    0.0240    6.3660 C   0  0  0  0  0  0  0  0  0  0  0  0
    2.5285   -0.4927    6.1905 C   0  0  0  0  0  0  0  0  0  0  0  0
    3.3282   -0.5462    4.8818 C   0  0  2  0  0  0  0  0  0  0  0  0
    8.1107   -2.5319   -0.2437 H   0  0  0  0  0  0  0  0  0  0  0  0
    1.7362    0.0569    1.0685 H   0  0  0  0  0  0  0  0  0  0  0  0
    2.2244    1.7482    1.2573 H   0  0  0  0  0  0  0  0  0  0  0  0
    0.5757    1.2641    1.6104 H   0  0  0  0  0  0  0  0  0  0  0  0
    2.8674   -1.7179    1.9402 H   0  0  0  0  0  0  0  0  0  0  0  0
    4.0124    0.3591    0.9717 H   0  0  0  0  0  0  0  0  0  0  0  0
    5.1778    0.2917    2.2651 H   0  0  0  0  0  0  0  0  0  0  0  0
    7.2871   -1.0660    1.7153 H   0  0  0  0  0  0  0  0  0  0  0  0
    7.0271   -3.5358   -2.7281 H   0  0  0  0  0  0  0  0  0  0  0  0
    4.9008   -3.6302   -4.0270 H   0  0  0  0  0  0  0  0  0  0  0  0
    2.8541   -2.5092   -3.1255 H   0  0  0  0  0  0  0  0  0  0  0  0
    2.9555   -1.3086   -0.9529 H   0  0  0  0  0  0  0  0  0  0  0  0
    3.0535   -2.6771    4.9538 H   0  0  0  0  0  0  0  0  0  0  0  0
    5.0626   -3.2434    6.1041 H   0  0  0  0  0  0  0  0  0  0  0  0
    5.8549   -1.7392    5.7179 H   0  0  0  0  0  0  0  0  0  0  0  0
    3.1413   -1.3884    9.4507 H   0  0  0  0  0  0  0  0  0  0  0  0
    0.8882   -0.3905    9.7479 H   0  0  0  0  0  0  0  0  0  0  0  0
   -0.3289    0.5158    7.7772 H   0  0  0  0  0  0  0  0  0  0  0  0
    0.6369    0.3947    5.5421 H   0  0  0  0  0  0  0  0  0  0  0  0
    4.1611    0.1476    5.0166 H   0  0  0  0  0  0  0  0  0  0  0  0
  1  2  1  0
  1 29  1  0
  1 30  1  0
  1 31  1  0
  2  3  2  0
  2  4  1  0
  4 27  1  0
  4  5  1  0
  5  6  1  0
  5 16  1  0
  5 32  1  6
  6  7  1  0
  6 33  1  0
  6 34  1  0
  7 15  1  0
  7  8  2  0
  8  9  1  0
  8 35  1  0
  9 28  1  0
  9 10  1  0
 10 15  2  0
 10 11  1  0
 11 12  2  0
 11 36  1  0
 12 13  1  0
 12 37  1  0
 13 14  2  0
 13 38  1  0
 14 15  1  0
 14 39  1  0
 16 17  2  0
 16 18  1  0
 18 27  1  0
 18 19  1  0
 18 40  1  1
 19 20  1  0
 19 41  1  0
 19 42  1  0
 20 21  1  0
 21 26  2  0
 21 22  1  0
 22 23  2  0
 22 43  1  0
 23 24  1  0
 23 44  1  0
 24 25  2  0
 24 45  1  0
 25 26  1  0
 25 46  1  0
 26 27  1  0
 27 47  1  1
M  END
>  <i_m_ct_stereo_status>  (128) 
1

>  <s_m_source_file>  (128) 
/var/tmp/pbs.5076255.sched01/tmpcsrx8n8z/40wzjmt8mb.sdf

>  <i_m_source_file_index>  (128) 
15

>  <i_lp_mmshare_version>  (128) 
48012

>  <i_f3d_flags>  (128) 
0

>  <s_epik_input>  (128) 
W2NIXTFbY0hdW2NIXVtjSF1jKE9bQ0gyXTIpYzFbQ0BASF0oW0NASF0yMylOKEMoPU8pW0NIM10pW0NASF0oQzM9TylbQ0gyXWMoW2NIXVtuSF00KWMoYzQ1KVtjSF1bY0hdW2NIXVtjSF01

>  <s_epik_cmdline>  (128) 
J2VwaWtfcHl0aG9uJywgJy1waHQnLCAnMi4wJywgJy1waCcsICc3LjAnLCAnLXRuJywgJzgnLCAnLW1hJywgJzIwMCcsICctaW1hZScsICc8aW5maWxlLm1hZT4nLCAnLW9tYWUnLCAnPG91dGZpbGUubWFlPic=

>  <r_lp_tautomer_probability>  (128) 
1

>  <r_epik_Ionization_Penalty>  (128) 
6.25494e-09

>  <r_epik_Ionization_Penalty_Charging>  (128) 
0

>  <r_epik_Ionization_Penalty_Neutral>  (128) 
6.25494e-09

>  <r_epik_State_Penalty>  (128) 
-0

>  <r_epik_Charging_Adjusted_Penalty>  (128) 
0

>  <i_epik_Tot_Q>  (128) 
0

>  <i_epik_Tot_abs_Q>  (128) 
0

>  <s_lp_Force_Field>  (128) 
OPLS3e

>  <r_lp_Energy>  (128) 
40.1158

>  <b_lp_Chiralities_Consistent>  (128) 
1

>  <s_lp_Variant>  (128) 
36:0-1

>  <s_i_glide_gridfile>  (128) 
pfpi4k_grid

>  <i_i_glide_lignum>  (128) 
15

>  <i_i_glide_rotatable_bonds>  (128) 
3

>  <r_i_docking_score>  (128) 
-2.90733

>  <r_i_glide_ligand_efficiency>  (128) 
-0.107679

>  <r_i_glide_ligand_efficiency_sa>  (128) 
-0.323036

>  <r_i_glide_ligand_efficiency_ln>  (128) 
-0.676778

>  <r_i_glide_gscore>  (128) 
-2.90733

>  <r_i_glide_lipo>  (128) 
-0.609033

>  <r_i_glide_hbond>  (128) 
0

>  <r_i_glide_metal>  (128) 
-0

>  <r_i_glide_rewards>  (128) 
-0.974765

>  <r_i_glide_evdw>  (128) 
-25.136

>  <r_i_glide_ecoul>  (128) 
-2.1518

>  <r_i_glide_erotb>  (128) 
0.2953

>  <r_i_glide_esite>  (128) 
-0.0392605

>  <r_i_glide_emodel>  (128) 
-31.1889

>  <r_i_glide_energy>  (128) 
-27.2878

>  <r_i_glide_einternal>  (128) 
1.84635

>  <r_i_glide_intrahb_reward>  (128) 
-0

>  <i_i_glide_confnum>  (128) 
1

>  <i_i_glide_posenum>  (128) 
25

>  <r_i_glide_eff_state_penalty>  (128) 
0

>  <ligand_id>  (128) 
36

>  <original_smiles>  (128) 
CC(=O)N1C(Cc2c[nH]c3ccccc23)C(=O)C2COc3ccccc3C21

>  <smiles>  (128) 
[H]c1c([H])c([H])c2c(c1[H])OC([H])([H])C1([H])C(=O)C([H])(C([H])([H])c3c([H])n([H])c4c([H])c([H])c([H])c([H])c34)N(C(=O)C([H])([H])[H])C21[H]

$$$$
37:0:0
     RDKit          3D

 68 76  0  0  1  0  0  0  0  0999 V2000
    4.0259    1.1827    4.8785 C   0  0  0  0  0  0  0  0  0  0  0  0
    4.4485    0.3112    3.8166 O   0  0  0  0  0  0  0  0  0  0  0  0
    4.4446   -1.1475    3.9047 C   0  0  2  0  0  0  0  0  0  0  0  0
    5.1395   -1.6845    5.1676 C   0  0  1  0  0  0  0  0  0  0  0  0
    5.9774   -0.8116    6.0776 C   0  0  0  0  0  0  0  0  0  0  0  0
    6.6638    0.1535    5.7078 O   0  0  0  0  0  0  0  0  0  0  0  0
    3.7747   -2.1567    5.6474 C   0  0  2  0  0  0  0  0  0  0  0  0
    3.7529   -3.6360    5.8873 C   0  0  0  0  0  0  0  0  0  0  0  0
    3.6583   -4.4231    4.5953 C   0  0  1  0  0  0  0  0  0  0  0  0
    2.7792   -3.9504    3.5323 C   0  0  1  0  0  0  0  0  0  0  0  0
    2.2466   -2.4906    3.4404 C   0  0  2  0  0  0  0  0  0  0  0  0
    2.0229   -1.8367    1.9675 C   0  0  0  0  0  0  0  0  0  0  0  0
    3.2398   -2.0092    0.9750 C   0  0  2  0  0  0  0  0  0  0  0  0
    4.0779   -1.1284    1.6832 O   0  0  0  0  0  0  0  0  0  0  0  0
    4.8886   -1.7849    2.5658 C   0  0  2  0  0  0  0  0  0  0  0  0
    4.6919   -3.2982    2.0410 C   0  0  2  0  0  0  0  0  0  0  0  0
    6.0060   -3.4458    1.2509 C   0  0  0  0  0  0  0  0  0  0  0  0
    6.9371   -4.4428    1.6241 C   0  0  0  0  0  0  0  0  0  0  0  0
    8.1819   -4.5211    0.9679 C   0  0  0  0  0  0  0  0  0  0  0  0
    9.1120   -5.4247    1.3565 O   0  0  0  0  0  0  0  0  0  0  0  0
    8.4896   -3.6362   -0.0697 C   0  0  0  0  0  0  0  0  0  0  0  0
    7.5693   -2.6620   -0.4689 C   0  0  0  0  0  0  0  0  0  0  0  0
    6.3132   -2.5307    0.1718 C   0  0  0  0  0  0  0  0  0  0  0  0
    5.3772   -1.3937   -0.4410 C   0  0  0  0  0  0  0  0  0  0  0  0
    3.7511   -1.3371   -0.3286 C   0  0  1  0  0  0  0  0  0  0  0  0
    3.0255   -1.8702   -1.5417 N   0  0  1  0  0  0  0  0  0  0  0  0
    3.3906   -1.2108   -2.8393 C   0  0  0  0  0  0  0  0  0  0  0  0
    2.9776   -3.3669   -1.6385 C   0  0  0  0  0  0  0  0  0  0  0  0
    3.9182   -4.0138   -0.6143 C   0  0  0  0  0  0  0  0  0  0  0  0
    3.6091   -3.4864    0.8696 C   0  0  2  0  0  0  0  0  0  0  0  0
    2.3656   -4.2311    1.0392 O   0  0  0  0  0  0  0  0  0  0  0  0
    2.2673   -5.6667    1.0049 C   0  0  0  0  0  0  0  0  0  0  0  0
    4.2743   -4.2991    3.1644 C   0  0  1  0  0  0  0  0  0  0  0  0
    3.0804   -1.6032    4.3816 C   0  0  2  0  0  0  0  0  0  0  0  0
    3.8482    2.1718    4.4380 H   0  0  0  0  0  0  0  0  0  0  0  0
    4.7966    1.2848    5.6207 H   0  0  0  0  0  0  0  0  0  0  0  0
    3.0697    0.8926    5.3160 H   0  0  0  0  0  0  0  0  0  0  0  0
    5.7358   -2.5582    4.8789 H   0  0  0  0  0  0  0  0  0  0  0  0
    5.9824   -1.0440    7.1486 H   0  0  0  0  0  0  0  0  0  0  0  0
    3.4545   -1.5866    6.5173 H   0  0  0  0  0  0  0  0  0  0  0  0
    4.6390   -3.9714    6.4406 H   0  0  0  0  0  0  0  0  0  0  0  0
    2.8816   -3.8958    6.4955 H   0  0  0  0  0  0  0  0  0  0  0  0
    3.5169   -5.4696    4.8499 H   0  0  0  0  0  0  0  0  0  0  0  0
    1.9816   -4.6681    3.3631 H   0  0  0  0  0  0  0  0  0  0  0  0
    1.2473   -2.5427    3.8698 H   0  0  0  0  0  0  0  0  0  0  0  0
    1.1168   -2.2497    1.5372 H   0  0  0  0  0  0  0  0  0  0  0  0
    1.7919   -0.7778    2.0823 H   0  0  0  0  0  0  0  0  0  0  0  0
    5.9138   -1.4400    2.4287 H   0  0  0  0  0  0  0  0  0  0  0  0
    6.7402   -5.1098    2.4427 H   0  0  0  0  0  0  0  0  0  0  0  0
    8.8290   -6.0470    2.0112 H   0  0  0  0  0  0  0  0  0  0  0  0
    9.4327   -3.6905   -0.5810 H   0  0  0  0  0  0  0  0  0  0  0  0
    7.8527   -2.0293   -1.2851 H   0  0  0  0  0  0  0  0  0  0  0  0
    5.7324   -0.4801    0.0331 H   0  0  0  0  0  0  0  0  0  0  0  0
    5.6696   -1.2553   -1.4826 H   0  0  0  0  0  0  0  0  0  0  0  0
    3.4688   -0.2870   -0.3218 H   0  0  0  0  0  0  0  0  0  0  0  0
    4.3517   -1.5761   -3.2062 H   0  0  0  0  0  0  0  0  0  0  0  0
    3.4528   -0.1318   -2.7192 H   0  0  0  0  0  0  0  0  0  0  0  0
    2.6354   -1.4294   -3.5933 H   0  0  0  0  0  0  0  0  0  0  0  0
    1.9508   -3.6897   -1.4887 H   0  0  0  0  0  0  0  0  0  0  0  0
    3.2551   -3.6913   -2.6445 H   0  0  0  0  0  0  0  0  0  0  0  0
    3.8688   -5.0880   -0.7024 H   0  0  0  0  0  0  0  0  0  0  0  0
    4.9034   -3.8806   -1.0376 H   0  0  0  0  0  0  0  0  0  0  0  0
    1.4060   -5.9670    1.6004 H   0  0  0  0  0  0  0  0  0  0  0  0
    3.1381   -6.1771    1.4102 H   0  0  0  0  0  0  0  0  0  0  0  0
    2.0801   -6.0422   -0.0020 H   0  0  0  0  0  0  0  0  0  0  0  0
    4.4669   -5.3046    2.8175 H   0  0  0  0  0  0  0  0  0  0  0  0
    2.4472   -0.7790    4.6571 H   0  0  0  0  0  0  0  0  0  0  0  0
    2.0438   -1.5781   -1.3635 H   0  0  0  0  0  0  0  0  0  0  0  0
  1  2  1  0
  1 35  1  0
  1 36  1  0
  1 37  1  0
  3  2  1  6
  3 15  1  0
  3 34  1  0
  3  4  1  0
  4  5  1  0
  4  7  1  0
  4 38  1  6
  5  6  2  0
  5 39  1  0
  7 34  1  0
  7  8  1  0
  7 40  1  1
  8  9  1  0
  8 41  1  0
  8 42  1  0
  9 33  1  0
  9 10  1  0
  9 43  1  1
 10 33  1  0
 10 11  1  0
 10 44  1  6
 11 12  1  0
 11 34  1  0
 11 45  1  1
 12 13  1  0
 12 46  1  0
 12 47  1  0
 13 25  1  0
 13 30  1  0
 13 14  1  1
 14 15  1  0
 15 16  1  0
 15 48  1  6
 16 30  1  0
 16 17  1  6
 16 33  1  0
 17 23  2  0
 17 18  1  0
 18 19  2  0
 18 49  1  0
 19 20  1  0
 19 21  1  0
 20 50  1  0
 21 22  2  0
 21 51  1  0
 22 23  1  0
 22 52  1  0
 23 24  1  0
 24 25  1  0
 24 53  1  0
 24 54  1  0
 25 26  1  0
 25 55  1  1
 26 27  1  0
 26 28  1  0
 26 68  1  1
 27 56  1  0
 27 57  1  0
 27 58  1  0
 28 29  1  0
 28 59  1  0
 28 60  1  0
 29 30  1  0
 29 61  1  0
 29 62  1  0
 30 31  1  1
 31 32  1  0
 32 63  1  0
 32 64  1  0
 32 65  1  0
 33 66  1  6
 34 67  1  1
M  CHG  1  26   1
M  END
>  <i_m_ct_stereo_status>  (129) 
1

>  <s_m_source_file>  (129) 
/var/tmp/pbs.5076255.sched01/tmpcsrx8n8z/40wzjmt8mb.sdf

>  <i_m_source_file_index>  (129) 
16

>  <i_lp_mmshare_version>  (129) 
48012

>  <i_f3d_flags>  (129) 
0

>  <s_epik_input>  (129) 
W0NAQF0xMjNbQ0BIXTRbQ0gyXWM1YyhbY0hdYyhbT0hdKVtjSF1bY0hdNSlDNihbQ0BdMyhPW0NIM10pW0NIMl1bQ0gyXU40W0NIM10pW0NAQEhdKE8yKVtDQEBdNyhPW0NIM10pW0NAQEhdOFtDQEhdKFtDQEBIXTdbQ0hdPU8pW0NIMl1bQ0BIXTlbQ0BIXShbQ0hdNjkpW0NAQEhdOFtDSDJdMQ==

>  <s_epik_cmdline>  (129) 
J2VwaWtfcHl0aG9uJywgJy1waHQnLCAnMi4wJywgJy1waCcsICc3LjAnLCAnLXRuJywgJzgnLCAnLW1hJywgJzIwMCcsICctaW1hZScsICc8aW5maWxlLm1hZT4nLCAnLW9tYWUnLCAnPG91dGZpbGUubWFlPic=

>  <r_lp_tautomer_probability>  (129) 
0.9999

>  <r_epik_Ionization_Penalty>  (129) 
0.10725

>  <r_epik_Ionization_Penalty_Charging>  (129) 
0.106456

>  <r_epik_Ionization_Penalty_Neutral>  (129) 
0.000793801

>  <r_epik_State_Penalty>  (129) 
0.0963039

>  <r_epik_Charging_Adjusted_Penalty>  (129) 
0.20276

>  <i_epik_Tot_Q>  (129) 
1

>  <i_epik_Tot_abs_Q>  (129) 
1

>  <s_lp_Force_Field>  (129) 
OPLS3e

>  <r_lp_Energy>  (129) 
243.317

>  <b_lp_Chiralities_Consistent>  (129) 
1

>  <s_lp_Variant>  (129) 
37:0-1

>  <s_i_glide_gridfile>  (129) 
pfpi4k_grid

>  <i_i_glide_lignum>  (129) 
16

>  <i_i_glide_rotatable_bonds>  (129) 
4

>  <r_i_docking_score>  (129) 
-3.55128

>  <r_i_glide_ligand_efficiency>  (129) 
-0.104449

>  <r_i_glide_ligand_efficiency_sa>  (129) 
-0.338376

>  <r_i_glide_ligand_efficiency_ln>  (129) 
-0.784578

>  <r_i_glide_gscore>  (129) 
-3.55128

>  <r_i_glide_lipo>  (129) 
-0.735588

>  <r_i_glide_hbond>  (129) 
-0.211939

>  <r_i_glide_metal>  (129) 
-0

>  <r_i_glide_rewards>  (129) 
-0.2928

>  <r_i_glide_evdw>  (129) 
-23.4135

>  <r_i_glide_ecoul>  (129) 
-6.95897

>  <r_i_glide_erotb>  (129) 
0

>  <r_i_glide_esite>  (129) 
-0.0964346

>  <r_i_glide_emodel>  (129) 
-28.6157

>  <r_i_glide_energy>  (129) 
-30.3725

>  <r_i_glide_einternal>  (129) 
15.011

>  <r_i_glide_intrahb_reward>  (129) 
-0

>  <i_i_glide_confnum>  (129) 
2

>  <i_i_glide_posenum>  (129) 
18

>  <r_i_glide_eff_state_penalty>  (129) 
0

>  <ligand_id>  (129) 
37

>  <original_smiles>  (129) 
COC12C(C=O)C3CC4C5C(CC67OC1C1(c8cc(O)ccc8CC6N(C)CCC71OC)C45)C32

>  <smiles>  (129) 
[H]Oc1c([H])c([H])c2c(c1[H])C13C4([H])OC5(C([H])([H])C6([H])C7([H])C([H])(C([H])([H])C8([H])C([H])(C([H])=O)C4(OC([H])([H])[H])C86[H])C71[H])C3(OC([H])([H])[H])C([H])([H])C([H])([H])[N+]([H])(C([H])([H])[H])C5([H])C2([H])[H]

$$$$
37:0:1
     RDKit          3D

 68 76  0  0  1  0  0  0  0  0999 V2000
    4.0614    0.7431    4.7961 C   0  0  0  0  0  0  0  0  0  0  0  0
    4.4595   -0.0534    3.6449 O   0  0  0  0  0  0  0  0  0  0  0  0
    4.1481   -1.4705    3.5173 C   0  0  2  0  0  0  0  0  0  0  0  0
    4.5542   -2.2938    4.7497 C   0  0  1  0  0  0  0  0  0  0  0  0
    5.3772   -1.7210    5.8869 C   0  0  0  0  0  0  0  0  0  0  0  0
    5.0341   -1.6016    7.0630 O   0  0  0  0  0  0  0  0  0  0  0  0
    3.0723   -2.5421    4.9969 C   0  0  2  0  0  0  0  0  0  0  0  0
    2.7502   -3.9929    4.9724 C   0  0  0  0  0  0  0  0  0  0  0  0
    2.6921   -4.5692    3.5707 C   0  0  1  0  0  0  0  0  0  0  0  0
    2.0575   -3.7790    2.5256 C   0  0  1  0  0  0  0  0  0  0  0  0
    1.8295   -2.2491    2.6453 C   0  0  2  0  0  0  0  0  0  0  0  0
    1.9290   -1.3664    1.3170 C   0  0  0  0  0  0  0  0  0  0  0  0
    3.1793   -1.6267    0.3758 C   0  0  2  0  0  0  0  0  0  0  0  0
    4.0823   -1.0527    1.3019 O   0  0  0  0  0  0  0  0  0  0  0  0
    4.6315   -1.9821    2.1391 C   0  0  2  0  0  0  0  0  0  0  0  0
    4.2359   -3.3220    1.3409 C   0  0  2  0  0  0  0  0  0  0  0  0
    5.6063   -3.6221    0.7146 C   0  0  0  0  0  0  0  0  0  0  0  0
    6.2916   -4.8144    1.0294 C   0  0  0  0  0  0  0  0  0  0  0  0
    7.5830   -5.0503    0.5203 C   0  0  0  0  0  0  0  0  0  0  0  0
    8.2207   -6.2212    0.8032 O   0  0  0  0  0  0  0  0  0  0  0  0
    8.1975   -4.1016   -0.3168 C   0  0  0  0  0  0  0  0  0  0  0  0
    7.5186   -2.9272   -0.6644 C   0  0  0  0  0  0  0  0  0  0  0  0
    6.2322   -2.6359   -0.1581 C   0  0  0  0  0  0  0  0  0  0  0  0
    5.5996   -1.2737   -0.6767 C   0  0  0  0  0  0  0  0  0  0  0  0
    4.0172   -0.8991   -0.7228 C   0  0  1  0  0  0  0  0  0  0  0  0
    3.4091   -1.0863   -2.0961 N   0  0  1  0  0  0  0  0  0  0  0  0
    4.0205   -0.3207   -3.2060 C   0  0  0  0  0  0  0  0  0  0  0  0
    3.1789   -2.4789   -2.5096 C   0  0  0  0  0  0  0  0  0  0  0  0
    3.7980   -3.4433   -1.4525 C   0  0  0  0  0  0  0  0  0  0  0  0
    3.3179   -3.0979    0.0331 C   0  0  2  0  0  0  0  0  0  0  0  0
    2.0449   -3.8379   -0.0268 O   0  0  0  0  0  0  0  0  0  0  0  0
    1.1541   -4.0829   -1.1659 C   0  0  0  0  0  0  0  0  0  0  0  0
    3.4757   -4.3765    2.2223 C   0  0  1  0  0  0  0  0  0  0  0  0
    2.6683   -1.6897    3.7760 C   0  0  2  0  0  0  0  0  0  0  0  0
    4.1424    1.8088    4.5862 H   0  0  0  0  0  0  0  0  0  0  0  0
    4.7173    0.6287    5.6496 H   0  0  0  0  0  0  0  0  0  0  0  0
    3.0650    0.5653    5.1978 H   0  0  0  0  0  0  0  0  0  0  0  0
    5.0446   -3.2093    4.4021 H   0  0  0  0  0  0  0  0  0  0  0  0
    6.3797   -1.3714    5.6514 H   0  0  0  0  0  0  0  0  0  0  0  0
    2.7373   -2.0557    5.9136 H   0  0  0  0  0  0  0  0  0  0  0  0
    3.4800   -4.5482    5.5642 H   0  0  0  0  0  0  0  0  0  0  0  0
    1.7708   -4.1338    5.4320 H   0  0  0  0  0  0  0  0  0  0  0  0
    2.3158   -5.5834    3.6553 H   0  0  0  0  0  0  0  0  0  0  0  0
    1.1863   -4.2956    2.1486 H   0  0  0  0  0  0  0  0  0  0  0  0
    0.7937   -2.1380    2.9835 H   0  0  0  0  0  0  0  0  0  0  0  0
    0.9953   -1.6804    0.9079 H   0  0  0  0  0  0  0  0  0  0  0  0
    1.8436   -0.3060    1.5419 H   0  0  0  0  0  0  0  0  0  0  0  0
    5.7095   -1.8311    2.1707 H   0  0  0  0  0  0  0  0  0  0  0  0
    5.8593   -5.5503    1.6864 H   0  0  0  0  0  0  0  0  0  0  0  0
    9.0601   -6.3501    0.3800 H   0  0  0  0  0  0  0  0  0  0  0  0
    9.1567   -4.3012   -0.7584 H   0  0  0  0  0  0  0  0  0  0  0  0
    7.9982   -2.2580   -1.3631 H   0  0  0  0  0  0  0  0  0  0  0  0
    6.0547   -0.5286   -0.0344 H   0  0  0  0  0  0  0  0  0  0  0  0
    6.0281   -1.0650   -1.6579 H   0  0  0  0  0  0  0  0  0  0  0  0
    3.9889    0.1430   -0.4980 H   0  0  0  0  0  0  0  0  0  0  0  0
    4.9241   -0.8369   -3.5373 H   0  0  0  0  0  0  0  0  0  0  0  0
    4.2549    0.6972   -2.9053 H   0  0  0  0  0  0  0  0  0  0  0  0
    3.3348   -0.2914   -4.0616 H   0  0  0  0  0  0  0  0  0  0  0  0
    2.1114   -2.4368   -2.6738 H   0  0  0  0  0  0  0  0  0  0  0  0
    3.5201   -2.7355   -3.5262 H   0  0  0  0  0  0  0  0  0  0  0  0
    3.6772   -4.5040   -1.5619 H   0  0  0  0  0  0  0  0  0  0  0  0
    4.8336   -3.4586   -1.7433 H   0  0  0  0  0  0  0  0  0  0  0  0
    0.4320   -4.8621   -0.9596 H   0  0  0  0  0  0  0  0  0  0  0  0
    1.6242   -4.5194   -2.0279 H   0  0  0  0  0  0  0  0  0  0  0  0
    0.5701   -3.2149   -1.5074 H   0  0  0  0  0  0  0  0  0  0  0  0
    3.4904   -5.3340    1.7094 H   0  0  0  0  0  0  0  0  0  0  0  0
    2.1420   -0.7903    4.0676 H   0  0  0  0  0  0  0  0  0  0  0  0
    2.4691   -0.7009   -1.9927 H   0  0  0  0  0  0  0  0  0  0  0  0
  1  2  1  0
  1 35  1  0
  1 36  1  0
  1 37  1  0
  3  2  1  1
  3 15  1  0
  3 34  1  0
  3  4  1  0
  4  5  1  0
  4  7  1  0
  4 38  1  6
  5  6  2  0
  5 39  1  0
  7 34  1  0
  7  8  1  0
  7 40  1  1
  8  9  1  0
  8 41  1  0
  8 42  1  0
  9 33  1  0
  9 10  1  0
  9 43  1  1
 10 33  1  0
 10 11  1  0
 10 44  1  6
 11 12  1  0
 11 34  1  0
 11 45  1  1
 12 13  1  0
 12 46  1  0
 12 47  1  0
 13 25  1  0
 13 30  1  0
 13 14  1  1
 14 15  1  0
 15 16  1  0
 15 48  1  1
 16 30  1  0
 16 17  1  6
 16 33  1  0
 17 23  2  0
 17 18  1  0
 18 19  2  0
 18 49  1  0
 19 20  1  0
 19 21  1  0
 20 50  1  0
 21 22  2  0
 21 51  1  0
 22 23  1  0
 22 52  1  0
 23 24  1  0
 24 25  1  0
 24 53  1  0
 24 54  1  0
 25 26  1  0
 25 55  1  1
 26 27  1  0
 26 28  1  0
 26 68  1  1
 27 56  1  0
 27 57  1  0
 27 58  1  0
 28 29  1  0
 28 59  1  0
 28 60  1  0
 29 30  1  0
 29 61  1  0
 29 62  1  0
 30 31  1  1
 31 32  1  0
 32 63  1  0
 32 64  1  0
 32 65  1  0
 33 66  1  6
 34 67  1  1
M  CHG  1  26   1
M  END
>  <i_m_ct_stereo_status>  (130) 
1

>  <s_m_source_file>  (130) 
/var/tmp/pbs.5076255.sched01/tmpcsrx8n8z/40wzjmt8mb.sdf

>  <i_m_source_file_index>  (130) 
16

>  <i_lp_mmshare_version>  (130) 
48012

>  <i_f3d_flags>  (130) 
0

>  <s_epik_input>  (130) 
W0NAQF0xMjNbQ0BIXTRbQ0gyXWM1YyhbY0hdYyhbT0hdKVtjSF1bY0hdNSlDNihbQ0BdMyhPW0NIM10pW0NIMl1bQ0gyXU40W0NIM10pW0NAQEhdKE8yKVtDQEBdNyhPW0NIM10pW0NAQEhdOFtDQEhdKFtDQEBIXTdbQ0hdPU8pW0NIMl1bQ0BIXTlbQ0BIXShbQ0hdNjkpW0NAQEhdOFtDSDJdMQ==

>  <s_epik_cmdline>  (130) 
J2VwaWtfcHl0aG9uJywgJy1waHQnLCAnMi4wJywgJy1waCcsICc3LjAnLCAnLXRuJywgJzgnLCAnLW1hJywgJzIwMCcsICctaW1hZScsICc8aW5maWxlLm1hZT4nLCAnLW9tYWUnLCAnPG91dGZpbGUubWFlPic=

>  <r_lp_tautomer_probability>  (130) 
0.9999

>  <r_epik_Ionization_Penalty>  (130) 
0.10725

>  <r_epik_Ionization_Penalty_Charging>  (130) 
0.106456

>  <r_epik_Ionization_Penalty_Neutral>  (130) 
0.000793801

>  <r_epik_State_Penalty>  (130) 
0.0963039

>  <r_epik_Charging_Adjusted_Penalty>  (130) 
0.20276

>  <i_epik_Tot_Q>  (130) 
1

>  <i_epik_Tot_abs_Q>  (130) 
1

>  <s_lp_Force_Field>  (130) 
OPLS3e

>  <r_lp_Energy>  (130) 
243.317

>  <b_lp_Chiralities_Consistent>  (130) 
1

>  <s_lp_Variant>  (130) 
37:0-1

>  <s_i_glide_gridfile>  (130) 
pfpi4k_grid

>  <i_i_glide_lignum>  (130) 
16

>  <i_i_glide_rotatable_bonds>  (130) 
4

>  <r_i_docking_score>  (130) 
-1.61892

>  <r_i_glide_ligand_efficiency>  (130) 
-0.0476153

>  <r_i_glide_ligand_efficiency_sa>  (130) 
-0.154255

>  <r_i_glide_ligand_efficiency_ln>  (130) 
-0.357665

>  <r_i_glide_gscore>  (130) 
-1.61892

>  <r_i_glide_lipo>  (130) 
-0.694686

>  <r_i_glide_hbond>  (130) 
-0.134246

>  <r_i_glide_metal>  (130) 
-0

>  <r_i_glide_rewards>  (130) 
-0.264813

>  <r_i_glide_evdw>  (130) 
-6.80001

>  <r_i_glide_ecoul>  (130) 
-4.47853

>  <r_i_glide_erotb>  (130) 
0

>  <r_i_glide_esite>  (130) 
-0.0665872

>  <r_i_glide_emodel>  (130) 
20.322

>  <r_i_glide_energy>  (130) 
-11.2785

>  <r_i_glide_einternal>  (130) 
60.6059

>  <r_i_glide_intrahb_reward>  (130) 
-0

>  <i_i_glide_confnum>  (130) 
2

>  <i_i_glide_posenum>  (130) 
7

>  <r_i_glide_eff_state_penalty>  (130) 
0

>  <ligand_id>  (130) 
37

>  <original_smiles>  (130) 
COC12C(C=O)C3CC4C5C(CC67OC1C1(c8cc(O)ccc8CC6N(C)CCC71OC)C45)C32

>  <smiles>  (130) 
[H]Oc1c([H])c([H])c2c(c1[H])C13C4([H])OC5(C([H])([H])C6([H])C7([H])C([H])(C([H])([H])C8([H])C([H])(C([H])=O)C4(OC([H])([H])[H])C86[H])C71[H])C3(OC([H])([H])[H])C([H])([H])C([H])([H])[N+]([H])(C([H])([H])[H])C5([H])C2([H])[H]

$$$$
37:0:2
     RDKit          3D

 68 76  0  0  1  0  0  0  0  0999 V2000
    1.4885   -4.1958   -1.2488 C   0  0  0  0  0  0  0  0  0  0  0  0
    2.7700   -3.5968   -1.4613 O   0  0  0  0  0  0  0  0  0  0  0  0
    3.4698   -2.9485   -0.3670 C   0  0  2  0  0  0  0  0  0  0  0  0
    4.0590   -1.6131   -0.8707 C   0  0  1  0  0  0  0  0  0  0  0  0
    3.9306   -1.2308   -2.3444 C   0  0  0  0  0  0  0  0  0  0  0  0
    4.5494   -1.7773   -3.2595 O   0  0  0  0  0  0  0  0  0  0  0  0
    3.1617   -0.9106    0.1598 C   0  0  2  0  0  0  0  0  0  0  0  0
    3.8742   -0.0366    1.1220 C   0  0  0  0  0  0  0  0  0  0  0  0
    4.4808   -0.8448    2.2119 C   0  0  1  0  0  0  0  0  0  0  0  0
    3.7425   -1.9898    2.7706 C   0  0  1  0  0  0  0  0  0  0  0  0
    2.5397   -2.7104    2.0711 C   0  0  2  0  0  0  0  0  0  0  0  0
    2.3207   -4.3112    2.2842 C   0  0  0  0  0  0  0  0  0  0  0  0
    3.6274   -5.1613    1.9957 C   0  0  2  0  0  0  0  0  0  0  0  0
    3.6542   -4.9255    0.6129 O   0  0  0  0  0  0  0  0  0  0  0  0
    4.4777   -3.8902    0.2749 C   0  0  2  0  0  0  0  0  0  0  0  0
    5.2292   -3.6923    1.6744 C   0  0  2  0  0  0  0  0  0  0  0  0
    6.5262   -4.3700    1.2653 C   0  0  0  0  0  0  0  0  0  0  0  0
    7.6545   -3.5685    1.1765 C   0  0  0  0  0  0  0  0  0  0  0  0
    8.9044   -4.1279    0.8924 C   0  0  0  0  0  0  0  0  0  0  0  0
    9.9732   -3.2859    0.9372 O   0  0  0  0  0  0  0  0  0  0  0  0
    8.9949   -5.4913    0.5256 C   0  0  0  0  0  0  0  0  0  0  0  0
    7.8323   -6.2738    0.4955 C   0  0  0  0  0  0  0  0  0  0  0  0
    6.5731   -5.7562    0.8557 C   0  0  0  0  0  0  0  0  0  0  0  0
    5.3498   -6.7700    0.7886 C   0  0  0  0  0  0  0  0  0  0  0  0
    3.9829   -6.6473    1.6624 C   0  0  1  0  0  0  0  0  0  0  0  0
    3.9884   -7.4853    2.9029 N   0  0  1  0  0  0  0  0  0  0  0  0
    4.2411   -8.9402    2.6627 C   0  0  0  0  0  0  0  0  0  0  0  0
    4.7755   -6.9274    4.0414 C   0  0  0  0  0  0  0  0  0  0  0  0
    5.6449   -5.7353    3.6077 C   0  0  0  0  0  0  0  0  0  0  0  0
    4.7534   -4.6279    2.8701 C   0  0  2  0  0  0  0  0  0  0  0  0
    4.1273   -4.1275    4.0865 O   0  0  0  0  0  0  0  0  0  0  0  0
    4.8170   -3.5218    5.1866 C   0  0  0  0  0  0  0  0  0  0  0  0
    5.2084   -2.2249    2.2446 C   0  0  1  0  0  0  0  0  0  0  0  0
    2.5288   -2.2796    0.6207 C   0  0  2  0  0  0  0  0  0  0  0  0
    1.2475   -4.8853   -2.0552 H   0  0  0  0  0  0  0  0  0  0  0  0
    0.7509   -3.3912   -1.2611 H   0  0  0  0  0  0  0  0  0  0  0  0
    1.4179   -4.7652   -0.3317 H   0  0  0  0  0  0  0  0  0  0  0  0
    5.0895   -1.4977   -0.5543 H   0  0  0  0  0  0  0  0  0  0  0  0
    3.2375   -0.4243   -2.6043 H   0  0  0  0  0  0  0  0  0  0  0  0
    2.4558   -0.2562   -0.2751 H   0  0  0  0  0  0  0  0  0  0  0  0
    4.6169    0.5970    0.6254 H   0  0  0  0  0  0  0  0  0  0  0  0
    3.1277    0.6447    1.5601 H   0  0  0  0  0  0  0  0  0  0  0  0
    4.8516   -0.1497    2.9739 H   0  0  0  0  0  0  0  0  0  0  0  0
    3.5170   -1.7962    3.8323 H   0  0  0  0  0  0  0  0  0  0  0  0
    1.6659   -2.2552    2.5212 H   0  0  0  0  0  0  0  0  0  0  0  0
    2.0073   -4.4896    3.3292 H   0  0  0  0  0  0  0  0  0  0  0  0
    1.5185   -4.6752    1.6307 H   0  0  0  0  0  0  0  0  0  0  0  0
    5.1515   -4.1517   -0.5531 H   0  0  0  0  0  0  0  0  0  0  0  0
    7.5612   -2.5164    1.3749 H   0  0  0  0  0  0  0  0  0  0  0  0
    9.8302   -2.3565    0.7691 H   0  0  0  0  0  0  0  0  0  0  0  0
    9.8416   -6.0359    0.1448 H   0  0  0  0  0  0  0  0  0  0  0  0
    7.9161   -7.3038    0.2106 H   0  0  0  0  0  0  0  0  0  0  0  0
    5.0295   -6.7104   -0.2557 H   0  0  0  0  0  0  0  0  0  0  0  0
    5.7672   -7.7792    0.8850 H   0  0  0  0  0  0  0  0  0  0  0  0
    3.1800   -7.0872    1.0531 H   0  0  0  0  0  0  0  0  0  0  0  0
    5.3136   -9.1472    2.4954 H   0  0  0  0  0  0  0  0  0  0  0  0
    3.6676   -9.2884    1.7865 H   0  0  0  0  0  0  0  0  0  0  0  0
    3.9109   -9.5160    3.5434 H   0  0  0  0  0  0  0  0  0  0  0  0
    4.0755   -6.6062    4.8211 H   0  0  0  0  0  0  0  0  0  0  0  0
    5.4222   -7.6968    4.4842 H   0  0  0  0  0  0  0  0  0  0  0  0
    6.2000   -5.3463    4.4615 H   0  0  0  0  0  0  0  0  0  0  0  0
    6.4826   -6.2005    3.1069 H   0  0  0  0  0  0  0  0  0  0  0  0
    4.1214   -2.8436    5.6874 H   0  0  0  0  0  0  0  0  0  0  0  0
    5.6924   -2.9516    4.8834 H   0  0  0  0  0  0  0  0  0  0  0  0
    5.1025   -4.2688    5.9273 H   0  0  0  0  0  0  0  0  0  0  0  0
    6.0053   -2.1048    2.9633 H   0  0  0  0  0  0  0  0  0  0  0  0
    1.4895   -2.3606    0.3399 H   0  0  0  0  0  0  0  0  0  0  0  0
    3.0340   -7.4444    3.2262 H   0  0  0  0  0  0  0  0  0  0  0  0
  1  2  1  0
  1 35  1  0
  1 36  1  0
  1 37  1  0
  3  2  1  6
  3 15  1  0
  3 34  1  0
  3  4  1  0
  4  5  1  0
  4  7  1  0
  4 38  1  1
  5  6  2  0
  5 39  1  0
  7 34  1  0
  7  8  1  0
  7 40  1  6
  8  9  1  0
  8 41  1  0
  8 42  1  0
  9 33  1  0
  9 10  1  0
  9 43  1  1
 10 33  1  0
 10 11  1  0
 10 44  1  1
 11 12  1  0
 11 34  1  0
 11 45  1  1
 12 13  1  0
 12 46  1  0
 12 47  1  0
 13 25  1  0
 13 30  1  0
 13 14  1  6
 14 15  1  0
 15 16  1  0
 15 48  1  6
 16 30  1  0
 16 17  1  6
 16 33  1  0
 17 23  2  0
 17 18  1  0
 18 19  2  0
 18 49  1  0
 19 20  1  0
 19 21  1  0
 20 50  1  0
 21 22  2  0
 21 51  1  0
 22 23  1  0
 22 52  1  0
 23 24  1  0
 24 25  1  0
 24 53  1  0
 24 54  1  0
 25 26  1  0
 25 55  1  6
 26 27  1  0
 26 28  1  0
 26 68  1  1
 27 56  1  0
 27 57  1  0
 27 58  1  0
 28 29  1  0
 28 59  1  0
 28 60  1  0
 29 30  1  0
 29 61  1  0
 29 62  1  0
 30 31  1  1
 31 32  1  0
 32 63  1  0
 32 64  1  0
 32 65  1  0
 33 66  1  1
 34 67  1  6
M  CHG  1  26   1
M  END
>  <i_m_ct_stereo_status>  (131) 
1

>  <s_m_source_file>  (131) 
/var/tmp/pbs.5076255.sched01/tmpcsrx8n8z/40wzjmt8mb.sdf

>  <i_m_source_file_index>  (131) 
16

>  <i_lp_mmshare_version>  (131) 
48012

>  <i_f3d_flags>  (131) 
0

>  <s_epik_input>  (131) 
W0NAQF0xMjNbQ0BIXTRbQ0gyXWM1YyhbY0hdYyhbT0hdKVtjSF1bY0hdNSlDNihbQ0BdMyhPW0NIM10pW0NIMl1bQ0gyXU40W0NIM10pW0NAQEhdKE8yKVtDQEBdNyhPW0NIM10pW0NAQEhdOFtDQEhdKFtDQEBIXTdbQ0hdPU8pW0NIMl1bQ0BIXTlbQ0BIXShbQ0hdNjkpW0NAQEhdOFtDSDJdMQ==

>  <s_epik_cmdline>  (131) 
J2VwaWtfcHl0aG9uJywgJy1waHQnLCAnMi4wJywgJy1waCcsICc3LjAnLCAnLXRuJywgJzgnLCAnLW1hJywgJzIwMCcsICctaW1hZScsICc8aW5maWxlLm1hZT4nLCAnLW9tYWUnLCAnPG91dGZpbGUubWFlPic=

>  <r_lp_tautomer_probability>  (131) 
0.9999

>  <r_epik_Ionization_Penalty>  (131) 
0.10725

>  <r_epik_Ionization_Penalty_Charging>  (131) 
0.106456

>  <r_epik_Ionization_Penalty_Neutral>  (131) 
0.000793801

>  <r_epik_State_Penalty>  (131) 
0.0963039

>  <r_epik_Charging_Adjusted_Penalty>  (131) 
0.20276

>  <i_epik_Tot_Q>  (131) 
1

>  <i_epik_Tot_abs_Q>  (131) 
1

>  <s_lp_Force_Field>  (131) 
OPLS3e

>  <r_lp_Energy>  (131) 
243.317

>  <b_lp_Chiralities_Consistent>  (131) 
1

>  <s_lp_Variant>  (131) 
37:0-1

>  <s_i_glide_gridfile>  (131) 
pfpi4k_grid

>  <i_i_glide_lignum>  (131) 
16

>  <i_i_glide_rotatable_bonds>  (131) 
4

>  <r_i_docking_score>  (131) 
-1.3568

>  <r_i_glide_ligand_efficiency>  (131) 
-0.0399059

>  <r_i_glide_ligand_efficiency_sa>  (131) 
-0.12928

>  <r_i_glide_ligand_efficiency_ln>  (131) 
-0.299755

>  <r_i_glide_gscore>  (131) 
-1.3568

>  <r_i_glide_lipo>  (131) 
-0.644889

>  <r_i_glide_hbond>  (131) 
-0.065894

>  <r_i_glide_metal>  (131) 
-0

>  <r_i_glide_rewards>  (131) 
-0.241546

>  <r_i_glide_evdw>  (131) 
0.398177

>  <r_i_glide_ecoul>  (131) 
-2.54536

>  <r_i_glide_erotb>  (131) 
0

>  <r_i_glide_esite>  (131) 
-0.0425764

>  <r_i_glide_emodel>  (131) 
4.81521

>  <r_i_glide_energy>  (131) 
-2.14718

>  <r_i_glide_einternal>  (131) 
13.7415

>  <r_i_glide_intrahb_reward>  (131) 
-0

>  <i_i_glide_confnum>  (131) 
2

>  <i_i_glide_posenum>  (131) 
23

>  <r_i_glide_eff_state_penalty>  (131) 
0

>  <ligand_id>  (131) 
37

>  <original_smiles>  (131) 
COC12C(C=O)C3CC4C5C(CC67OC1C1(c8cc(O)ccc8CC6N(C)CCC71OC)C45)C32

>  <smiles>  (131) 
[H]Oc1c([H])c([H])c2c(c1[H])C13C4([H])OC5(C([H])([H])C6([H])C7([H])C([H])(C([H])([H])C8([H])C([H])(C([H])=O)C4(OC([H])([H])[H])C86[H])C71[H])C3(OC([H])([H])[H])C([H])([H])C([H])([H])[N+]([H])(C([H])([H])[H])C5([H])C2([H])[H]

$$$$
38:0:0
     RDKit          3D

 13 14  0  0  1  0  0  0  0  0999 V2000
    0.0025   -9.7831    3.2691 C   0  0  0  0  0  0  0  0  0  0  0  0
   -1.0996   -8.9251    3.0338 C   0  0  0  0  0  0  0  0  0  0  0  0
   -1.0188   -7.7452    2.4232 N   0  0  0  0  0  0  0  0  0  0  0  0
    0.2000   -7.3848    1.9853 C   0  0  0  0  0  0  0  0  0  0  0  0
    0.5837   -6.2791    1.3467 N   0  0  0  0  0  0  0  0  0  0  0  0
    1.9290   -6.4604    1.1977 C   0  0  0  0  0  0  0  0  0  0  0  0
    2.4319   -7.5879    1.6821 N   0  0  0  0  0  0  0  0  0  0  0  0
    1.3282   -8.1949    2.1907 N   0  0  0  0  0  0  0  0  0  0  0  0
    1.2474   -9.3945    2.8298 C   0  0  0  0  0  0  0  0  0  0  0  0
   -0.1404  -10.7270    3.7895 H   0  0  0  0  0  0  0  0  0  0  0  0
   -2.0859   -9.2236    3.3743 H   0  0  0  0  0  0  0  0  0  0  0  0
    2.5586   -5.7372    0.6986 H   0  0  0  0  0  0  0  0  0  0  0  0
    2.1572   -9.9737    2.9565 H   0  0  0  0  0  0  0  0  0  0  0  0
  1  9  2  0
  1  2  1  0
  1 10  1  0
  2  3  2  0
  2 11  1  0
  3  4  1  0
  4  8  1  0
  4  5  2  0
  5  6  1  0
  6  7  2  0
  6 12  1  0
  7  8  1  0
  8  9  1  0
  9 13  1  0
M  END
>  <i_m_ct_stereo_status>  (132) 
1

>  <s_m_source_file>  (132) 
/var/tmp/pbs.5076255.sched01/tmpcsrx8n8z/40wzjmt8mb.sdf

>  <i_m_source_file_index>  (132) 
18

>  <i_lp_mmshare_version>  (132) 
48012

>  <i_f3d_flags>  (132) 
0

>  <s_epik_input>  (132) 
bjFbY0hdW2NIXVtjSF1uKGMxMiluW2NIXW4y

>  <s_epik_cmdline>  (132) 
J2VwaWtfcHl0aG9uJywgJy1waHQnLCAnMi4wJywgJy1waCcsICc3LjAnLCAnLXRuJywgJzgnLCAnLW1hJywgJzIwMCcsICctaW1hZScsICc8aW5maWxlLm1hZT4nLCAnLW9tYWUnLCAnPG91dGZpbGUubWFlPic=

>  <r_lp_tautomer_probability>  (132) 
1

>  <r_epik_Ionization_Penalty>  (132) 
1.66986e-07

>  <r_epik_Ionization_Penalty_Charging>  (132) 
0

>  <r_epik_Ionization_Penalty_Neutral>  (132) 
1.66986e-07

>  <r_epik_State_Penalty>  (132) 
-0

>  <r_epik_Charging_Adjusted_Penalty>  (132) 
0

>  <i_epik_Tot_Q>  (132) 
0

>  <i_epik_Tot_abs_Q>  (132) 
0

>  <s_lp_Force_Field>  (132) 
OPLS3e

>  <r_lp_Energy>  (132) 
14.6748

>  <b_lp_Chiralities_Consistent>  (132) 
1

>  <s_lp_Variant>  (132) 
38:0-1

>  <s_i_glide_gridfile>  (132) 
pfpi4k_grid

>  <i_i_glide_lignum>  (132) 
18

>  <i_i_glide_rotatable_bonds>  (132) 
0

>  <r_i_docking_score>  (132) 
-4.2457

>  <r_i_glide_ligand_efficiency>  (132) 
-0.471744

>  <r_i_glide_ligand_efficiency_sa>  (132) 
-0.981268

>  <r_i_glide_ligand_efficiency_ln>  (132) 
-1.32793

>  <r_i_glide_gscore>  (132) 
-4.2457

>  <r_i_glide_lipo>  (132) 
-0.0335694

>  <r_i_glide_hbond>  (132) 
-0.16

>  <r_i_glide_metal>  (132) 
-0

>  <r_i_glide_rewards>  (132) 
-2.25

>  <r_i_glide_evdw>  (132) 
-13.9361

>  <r_i_glide_ecoul>  (132) 
-6.47193

>  <r_i_glide_erotb>  (132) 
0

>  <r_i_glide_esite>  (132) 
-0.134534

>  <r_i_glide_emodel>  (132) 
-27.1664

>  <r_i_glide_energy>  (132) 
-20.4081

>  <r_i_glide_einternal>  (132) 
0

>  <r_i_glide_intrahb_reward>  (132) 
-0

>  <i_i_glide_confnum>  (132) 
1

>  <i_i_glide_posenum>  (132) 
1

>  <r_i_glide_eff_state_penalty>  (132) 
0

>  <ligand_id>  (132) 
38

>  <original_smiles>  (132) 
c1cnc2ncnn2c1

>  <smiles>  (132) 
[H]c1nc2nc([H])c([H])c([H])n2n1

$$$$
38:0:1
     RDKit          3D

 13 14  0  0  1  0  0  0  0  0999 V2000
   -0.4155   -9.0801    2.7929 C   0  0  0  0  0  0  0  0  0  0  0  0
   -0.4283   -7.8555    2.0831 C   0  0  0  0  0  0  0  0  0  0  0  0
   -0.2420   -6.6587    2.6354 N   0  0  0  0  0  0  0  0  0  0  0  0
   -0.0091   -6.6498    3.9626 C   0  0  0  0  0  0  0  0  0  0  0  0
    0.2055   -5.6248    4.7817 N   0  0  0  0  0  0  0  0  0  0  0  0
    0.3608   -6.2201    5.9991 C   0  0  0  0  0  0  0  0  0  0  0  0
    0.2479   -7.5417    6.0266 N   0  0  0  0  0  0  0  0  0  0  0  0
    0.0132   -7.8328    4.7194 N   0  0  0  0  0  0  0  0  0  0  0  0
   -0.1860   -9.0531    4.1504 C   0  0  0  0  0  0  0  0  0  0  0  0
   -0.5784  -10.0219    2.2734 H   0  0  0  0  0  0  0  0  0  0  0  0
   -0.6059   -7.8619    1.0134 H   0  0  0  0  0  0  0  0  0  0  0  0
    0.5561   -5.6539    6.8974 H   0  0  0  0  0  0  0  0  0  0  0  0
   -0.1590   -9.9295    4.7918 H   0  0  0  0  0  0  0  0  0  0  0  0
  1  9  2  0
  1  2  1  0
  1 10  1  0
  2  3  2  0
  2 11  1  0
  3  4  1  0
  4  8  1  0
  4  5  2  0
  5  6  1  0
  6  7  2  0
  6 12  1  0
  7  8  1  0
  8  9  1  0
  9 13  1  0
M  END
>  <i_m_ct_stereo_status>  (133) 
1

>  <s_m_source_file>  (133) 
/var/tmp/pbs.5076255.sched01/tmpcsrx8n8z/40wzjmt8mb.sdf

>  <i_m_source_file_index>  (133) 
18

>  <i_lp_mmshare_version>  (133) 
48012

>  <i_f3d_flags>  (133) 
0

>  <s_epik_input>  (133) 
bjFbY0hdW2NIXVtjSF1uKGMxMiluW2NIXW4y

>  <s_epik_cmdline>  (133) 
J2VwaWtfcHl0aG9uJywgJy1waHQnLCAnMi4wJywgJy1waCcsICc3LjAnLCAnLXRuJywgJzgnLCAnLW1hJywgJzIwMCcsICctaW1hZScsICc8aW5maWxlLm1hZT4nLCAnLW9tYWUnLCAnPG91dGZpbGUubWFlPic=

>  <r_lp_tautomer_probability>  (133) 
1

>  <r_epik_Ionization_Penalty>  (133) 
1.66986e-07

>  <r_epik_Ionization_Penalty_Charging>  (133) 
0

>  <r_epik_Ionization_Penalty_Neutral>  (133) 
1.66986e-07

>  <r_epik_State_Penalty>  (133) 
-0

>  <r_epik_Charging_Adjusted_Penalty>  (133) 
0

>  <i_epik_Tot_Q>  (133) 
0

>  <i_epik_Tot_abs_Q>  (133) 
0

>  <s_lp_Force_Field>  (133) 
OPLS3e

>  <r_lp_Energy>  (133) 
14.6748

>  <b_lp_Chiralities_Consistent>  (133) 
1

>  <s_lp_Variant>  (133) 
38:0-1

>  <s_i_glide_gridfile>  (133) 
pfpi4k_grid

>  <i_i_glide_lignum>  (133) 
18

>  <i_i_glide_rotatable_bonds>  (133) 
0

>  <r_i_docking_score>  (133) 
-3.62809

>  <r_i_glide_ligand_efficiency>  (133) 
-0.403121

>  <r_i_glide_ligand_efficiency_sa>  (133) 
-0.838526

>  <r_i_glide_ligand_efficiency_ln>  (133) 
-1.13476

>  <r_i_glide_gscore>  (133) 
-3.62809

>  <r_i_glide_lipo>  (133) 
0

>  <r_i_glide_hbond>  (133) 
-0.16

>  <r_i_glide_metal>  (133) 
-0

>  <r_i_glide_rewards>  (133) 
-2.25

>  <r_i_glide_evdw>  (133) 
-11.0514

>  <r_i_glide_ecoul>  (133) 
-3.88131

>  <r_i_glide_erotb>  (133) 
0

>  <r_i_glide_esite>  (133) 
-0.0833245

>  <r_i_glide_emodel>  (133) 
-20.708

>  <r_i_glide_energy>  (133) 
-14.9327

>  <r_i_glide_einternal>  (133) 
0

>  <r_i_glide_intrahb_reward>  (133) 
-0

>  <i_i_glide_confnum>  (133) 
1

>  <i_i_glide_posenum>  (133) 
3

>  <r_i_glide_eff_state_penalty>  (133) 
0

>  <ligand_id>  (133) 
38

>  <original_smiles>  (133) 
c1cnc2ncnn2c1

>  <smiles>  (133) 
[H]c1nc2nc([H])c([H])c([H])n2n1

$$$$
38:0:2
     RDKit          3D

 13 14  0  0  1  0  0  0  0  0999 V2000
   -0.5268    1.9461    2.8817 C   0  0  0  0  0  0  0  0  0  0  0  0
   -1.3521    2.5193    3.8779 C   0  0  0  0  0  0  0  0  0  0  0  0
   -1.7836    1.8790    4.9610 N   0  0  0  0  0  0  0  0  0  0  0  0
   -1.4029    0.5968    5.0862 C   0  0  0  0  0  0  0  0  0  0  0  0
   -1.6780   -0.2914    6.0425 N   0  0  0  0  0  0  0  0  0  0  0  0
   -1.0109   -1.4096    5.6292 C   0  0  0  0  0  0  0  0  0  0  0  0
   -0.3470   -1.3156    4.4851 N   0  0  0  0  0  0  0  0  0  0  0  0
   -0.5861   -0.0272    4.1276 N   0  0  0  0  0  0  0  0  0  0  0  0
   -0.1398    0.6340    3.0230 C   0  0  0  0  0  0  0  0  0  0  0  0
   -0.2067    2.5362    2.0240 H   0  0  0  0  0  0  0  0  0  0  0  0
   -1.6632    3.5527    3.7807 H   0  0  0  0  0  0  0  0  0  0  0  0
   -1.0278   -2.3328    6.1903 H   0  0  0  0  0  0  0  0  0  0  0  0
    0.4878    0.0980    2.3180 H   0  0  0  0  0  0  0  0  0  0  0  0
  1  9  2  0
  1  2  1  0
  1 10  1  0
  2  3  2  0
  2 11  1  0
  3  4  1  0
  4  8  1  0
  4  5  2  0
  5  6  1  0
  6  7  2  0
  6 12  1  0
  7  8  1  0
  8  9  1  0
  9 13  1  0
M  END
>  <i_m_ct_stereo_status>  (134) 
1

>  <s_m_source_file>  (134) 
/var/tmp/pbs.5076255.sched01/tmpcsrx8n8z/40wzjmt8mb.sdf

>  <i_m_source_file_index>  (134) 
18

>  <i_lp_mmshare_version>  (134) 
48012

>  <i_f3d_flags>  (134) 
0

>  <s_epik_input>  (134) 
bjFbY0hdW2NIXVtjSF1uKGMxMiluW2NIXW4y

>  <s_epik_cmdline>  (134) 
J2VwaWtfcHl0aG9uJywgJy1waHQnLCAnMi4wJywgJy1waCcsICc3LjAnLCAnLXRuJywgJzgnLCAnLW1hJywgJzIwMCcsICctaW1hZScsICc8aW5maWxlLm1hZT4nLCAnLW9tYWUnLCAnPG91dGZpbGUubWFlPic=

>  <r_lp_tautomer_probability>  (134) 
1

>  <r_epik_Ionization_Penalty>  (134) 
1.66986e-07

>  <r_epik_Ionization_Penalty_Charging>  (134) 
0

>  <r_epik_Ionization_Penalty_Neutral>  (134) 
1.66986e-07

>  <r_epik_State_Penalty>  (134) 
-0

>  <r_epik_Charging_Adjusted_Penalty>  (134) 
0

>  <i_epik_Tot_Q>  (134) 
0

>  <i_epik_Tot_abs_Q>  (134) 
0

>  <s_lp_Force_Field>  (134) 
OPLS3e

>  <r_lp_Energy>  (134) 
14.6748

>  <b_lp_Chiralities_Consistent>  (134) 
1

>  <s_lp_Variant>  (134) 
38:0-1

>  <s_i_glide_gridfile>  (134) 
pfpi4k_grid

>  <i_i_glide_lignum>  (134) 
18

>  <i_i_glide_rotatable_bonds>  (134) 
0

>  <r_i_docking_score>  (134) 
-3.61166

>  <r_i_glide_ligand_efficiency>  (134) 
-0.401295

>  <r_i_glide_ligand_efficiency_sa>  (134) 
-0.834728

>  <r_i_glide_ligand_efficiency_ln>  (134) 
-1.12962

>  <r_i_glide_gscore>  (134) 
-3.61166

>  <r_i_glide_lipo>  (134) 
0

>  <r_i_glide_hbond>  (134) 
-0.136992

>  <r_i_glide_metal>  (134) 
-0

>  <r_i_glide_rewards>  (134) 
-2.25

>  <r_i_glide_evdw>  (134) 
-11.621

>  <r_i_glide_ecoul>  (134) 
-3.60831

>  <r_i_glide_erotb>  (134) 
0

>  <r_i_glide_esite>  (134) 
-0.10237

>  <r_i_glide_emodel>  (134) 
-20.9787

>  <r_i_glide_energy>  (134) 
-15.2293

>  <r_i_glide_einternal>  (134) 
0

>  <r_i_glide_intrahb_reward>  (134) 
-0

>  <i_i_glide_confnum>  (134) 
1

>  <i_i_glide_posenum>  (134) 
2

>  <r_i_glide_eff_state_penalty>  (134) 
0

>  <ligand_id>  (134) 
38

>  <original_smiles>  (134) 
c1cnc2ncnn2c1

>  <smiles>  (134) 
[H]c1nc2nc([H])c([H])c([H])n2n1

$$$$
39:0:0
     RDKit          3D

 18 20  0  0  1  0  0  0  0  0999 V2000
    3.5162   -0.9712    1.3633 C   0  0  0  0  0  0  0  0  0  0  0  0
    2.9377   -2.0530    1.8794 N   0  0  0  0  0  0  0  0  0  0  0  0
    1.7734   -1.7346    2.5748 C   0  0  0  0  0  0  0  0  0  0  0  0
    1.4798   -0.3878    2.6187 C   0  0  0  0  0  0  0  0  0  0  0  0
    0.3607    0.3318    3.2439 C   0  0  0  0  0  0  0  0  0  0  0  0
    0.1488    1.6229    2.8801 N   0  0  0  0  0  0  0  0  0  0  0  0
   -0.8332    2.3705    3.3870 N   0  0  0  0  0  0  0  0  0  0  0  0
   -1.6502    1.8314    4.3046 C   0  0  0  0  0  0  0  0  0  0  0  0
   -1.4997    0.5034    4.7595 C   0  0  0  0  0  0  0  0  0  0  0  0
   -2.1608   -0.2488    5.6497 N   0  0  0  0  0  0  0  0  0  0  0  0
   -1.5470   -1.4991    5.6849 N   0  0  0  0  0  0  0  0  0  0  0  0
   -0.5265   -1.4814    4.8237 C   0  0  0  0  0  0  0  0  0  0  0  0
   -0.4618   -0.2655    4.2156 N   0  0  0  0  0  0  0  0  0  0  0  0
    2.6871    0.5272    1.7312 S   0  0  0  0  0  0  0  0  0  0  0  0
    4.4222   -1.0732    0.7894 H   0  0  0  0  0  0  0  0  0  0  0  0
    1.2171   -2.5675    2.9696 H   0  0  0  0  0  0  0  0  0  0  0  0
   -2.4462    2.4449    4.7031 H   0  0  0  0  0  0  0  0  0  0  0  0
    0.1149   -2.3301    4.6684 H   0  0  0  0  0  0  0  0  0  0  0  0
  1 14  1  0
  1  2  2  0
  1 15  1  0
  2  3  1  0
  3  4  2  0
  3 16  1  0
  4  5  1  0
  4 14  1  0
  5 13  1  0
  5  6  2  0
  6  7  1  0
  7  8  2  0
  8  9  1  0
  8 17  1  0
  9 13  1  0
  9 10  2  0
 10 11  1  0
 11 12  2  0
 12 13  1  0
 12 18  1  0
M  END
>  <i_m_ct_stereo_status>  (135) 
1

>  <s_m_source_file>  (135) 
/var/tmp/pbs.5076255.sched01/tmpcsrx8n8z/40wzjmt8mb.sdf

>  <i_m_source_file_index>  (135) 
19

>  <i_lp_mmshare_version>  (135) 
48012

>  <i_f3d_flags>  (135) 
0

>  <s_epik_input>  (135) 
czFbY0hdbltjSF1jMS1jKG5uW2NIXTIpbihjMjMpW2NIXW5uMw==

>  <s_epik_cmdline>  (135) 
J2VwaWtfcHl0aG9uJywgJy1waHQnLCAnMi4wJywgJy1waCcsICc3LjAnLCAnLXRuJywgJzgnLCAnLW1hJywgJzIwMCcsICctaW1hZScsICc8aW5maWxlLm1hZT4nLCAnLW9tYWUnLCAnPG91dGZpbGUubWFlPic=

>  <r_lp_tautomer_probability>  (135) 
1

>  <r_epik_Ionization_Penalty>  (135) 
1.93053e-05

>  <r_epik_Ionization_Penalty_Charging>  (135) 
0

>  <r_epik_Ionization_Penalty_Neutral>  (135) 
1.93053e-05

>  <r_epik_State_Penalty>  (135) 
-0

>  <r_epik_Charging_Adjusted_Penalty>  (135) 
0

>  <i_epik_Tot_Q>  (135) 
0

>  <i_epik_Tot_abs_Q>  (135) 
0

>  <s_lp_Force_Field>  (135) 
OPLS3e

>  <r_lp_Energy>  (135) 
19.1682

>  <b_lp_Chiralities_Consistent>  (135) 
1

>  <s_lp_Variant>  (135) 
39:0-1

>  <s_i_glide_gridfile>  (135) 
pfpi4k_grid

>  <i_i_glide_lignum>  (135) 
19

>  <i_i_glide_rotatable_bonds>  (135) 
1

>  <r_i_docking_score>  (135) 
-3.62753

>  <r_i_glide_ligand_efficiency>  (135) 
-0.259109

>  <r_i_glide_ligand_efficiency_sa>  (135) 
-0.62449

>  <r_i_glide_ligand_efficiency_ln>  (135) 
-0.996831

>  <r_i_glide_gscore>  (135) 
-3.62753

>  <r_i_glide_lipo>  (135) 
-0.0175114

>  <r_i_glide_hbond>  (135) 
0

>  <r_i_glide_metal>  (135) 
-0

>  <r_i_glide_rewards>  (135) 
-2.01673

>  <r_i_glide_evdw>  (135) 
-19.1366

>  <r_i_glide_ecoul>  (135) 
-4.58265

>  <r_i_glide_erotb>  (135) 
0.394371

>  <r_i_glide_esite>  (135) 
-0.343427

>  <r_i_glide_emodel>  (135) 
-29.1815

>  <r_i_glide_energy>  (135) 
-23.7193

>  <r_i_glide_einternal>  (135) 
0.108986

>  <r_i_glide_intrahb_reward>  (135) 
-0

>  <i_i_glide_confnum>  (135) 
4

>  <i_i_glide_posenum>  (135) 
3

>  <r_i_glide_eff_state_penalty>  (135) 
0

>  <ligand_id>  (135) 
39

>  <original_smiles>  (135) 
c1ncc(-c2nncc3nncn23)s1

>  <smiles>  (135) 
[H]c1nc([H])c(-c2nnc([H])c3nnc([H])n23)s1

$$$$
39:0:1
     RDKit          3D

 18 20  0  0  1  0  0  0  0  0999 V2000
    3.3268   -1.1790    1.6236 C   0  0  0  0  0  0  0  0  0  0  0  0
    3.5569    0.1261    1.4932 N   0  0  0  0  0  0  0  0  0  0  0  0
    2.5470    0.8927    2.0845 C   0  0  0  0  0  0  0  0  0  0  0  0
    1.5482    0.1557    2.6827 C   0  0  0  0  0  0  0  0  0  0  0  0
    0.3526    0.6915    3.3528 C   0  0  0  0  0  0  0  0  0  0  0  0
    0.0666    1.9993    3.1084 N   0  0  0  0  0  0  0  0  0  0  0  0
   -0.9666    2.6278    3.6667 N   0  0  0  0  0  0  0  0  0  0  0  0
   -1.7598    1.9534    4.5129 C   0  0  0  0  0  0  0  0  0  0  0  0
   -1.5327    0.6028    4.8498 C   0  0  0  0  0  0  0  0  0  0  0  0
   -2.1534   -0.2589    5.6673 N   0  0  0  0  0  0  0  0  0  0  0  0
   -1.4641   -1.4659    5.6038 N   0  0  0  0  0  0  0  0  0  0  0  0
   -0.4397   -1.3158    4.7573 C   0  0  0  0  0  0  0  0  0  0  0  0
   -0.4400   -0.0480    4.2561 N   0  0  0  0  0  0  0  0  0  0  0  0
    1.8449   -1.5597    2.4839 S   0  0  0  0  0  0  0  0  0  0  0  0
    4.0189   -1.9026    1.2134 H   0  0  0  0  0  0  0  0  0  0  0  0
    2.6130    1.9708    2.0123 H   0  0  0  0  0  0  0  0  0  0  0  0
   -2.5880    2.4929    4.9468 H   0  0  0  0  0  0  0  0  0  0  0  0
    0.2536   -2.1081    4.5335 H   0  0  0  0  0  0  0  0  0  0  0  0
  1 14  1  0
  1  2  2  0
  1 15  1  0
  2  3  1  0
  3  4  2  0
  3 16  1  0
  4  5  1  0
  4 14  1  0
  5 13  1  0
  5  6  2  0
  6  7  1  0
  7  8  2  0
  8  9  1  0
  8 17  1  0
  9 13  1  0
  9 10  2  0
 10 11  1  0
 11 12  2  0
 12 13  1  0
 12 18  1  0
M  END
>  <i_m_ct_stereo_status>  (136) 
1

>  <s_m_source_file>  (136) 
/var/tmp/pbs.5076255.sched01/tmpcsrx8n8z/40wzjmt8mb.sdf

>  <i_m_source_file_index>  (136) 
19

>  <i_lp_mmshare_version>  (136) 
48012

>  <i_f3d_flags>  (136) 
0

>  <s_epik_input>  (136) 
czFbY0hdbltjSF1jMS1jKG5uW2NIXTIpbihjMjMpW2NIXW5uMw==

>  <s_epik_cmdline>  (136) 
J2VwaWtfcHl0aG9uJywgJy1waHQnLCAnMi4wJywgJy1waCcsICc3LjAnLCAnLXRuJywgJzgnLCAnLW1hJywgJzIwMCcsICctaW1hZScsICc8aW5maWxlLm1hZT4nLCAnLW9tYWUnLCAnPG91dGZpbGUubWFlPic=

>  <r_lp_tautomer_probability>  (136) 
1

>  <r_epik_Ionization_Penalty>  (136) 
1.93053e-05

>  <r_epik_Ionization_Penalty_Charging>  (136) 
0

>  <r_epik_Ionization_Penalty_Neutral>  (136) 
1.93053e-05

>  <r_epik_State_Penalty>  (136) 
-0

>  <r_epik_Charging_Adjusted_Penalty>  (136) 
0

>  <i_epik_Tot_Q>  (136) 
0

>  <i_epik_Tot_abs_Q>  (136) 
0

>  <s_lp_Force_Field>  (136) 
OPLS3e

>  <r_lp_Energy>  (136) 
19.1682

>  <b_lp_Chiralities_Consistent>  (136) 
1

>  <s_lp_Variant>  (136) 
39:0-1

>  <s_i_glide_gridfile>  (136) 
pfpi4k_grid

>  <i_i_glide_lignum>  (136) 
19

>  <i_i_glide_rotatable_bonds>  (136) 
1

>  <r_i_docking_score>  (136) 
-3.55387

>  <r_i_glide_ligand_efficiency>  (136) 
-0.253848

>  <r_i_glide_ligand_efficiency_sa>  (136) 
-0.61181

>  <r_i_glide_ligand_efficiency_ln>  (136) 
-0.976591

>  <r_i_glide_gscore>  (136) 
-3.55387

>  <r_i_glide_lipo>  (136) 
-0.00548184

>  <r_i_glide_hbond>  (136) 
0

>  <r_i_glide_metal>  (136) 
-0

>  <r_i_glide_rewards>  (136) 
-2.01673

>  <r_i_glide_evdw>  (136) 
-19.2651

>  <r_i_glide_ecoul>  (136) 
-4.12202

>  <r_i_glide_erotb>  (136) 
0.394371

>  <r_i_glide_esite>  (136) 
-0.344471

>  <r_i_glide_emodel>  (136) 
-26.947

>  <r_i_glide_energy>  (136) 
-23.3872

>  <r_i_glide_einternal>  (136) 
3.61079

>  <r_i_glide_intrahb_reward>  (136) 
-0

>  <i_i_glide_confnum>  (136) 
4

>  <i_i_glide_posenum>  (136) 
8

>  <r_i_glide_eff_state_penalty>  (136) 
0

>  <ligand_id>  (136) 
39

>  <original_smiles>  (136) 
c1ncc(-c2nncc3nncn23)s1

>  <smiles>  (136) 
[H]c1nc([H])c(-c2nnc([H])c3nnc([H])n23)s1

$$$$
39:0:2
     RDKit          3D

 18 20  0  0  1  0  0  0  0  0999 V2000
    3.2793   -1.4294   -4.0489 C   0  0  0  0  0  0  0  0  0  0  0  0
    4.1703   -0.6599   -3.4379 N   0  0  0  0  0  0  0  0  0  0  0  0
    4.3435   -1.0373   -2.1089 C   0  0  0  0  0  0  0  0  0  0  0  0
    3.5951   -2.1249   -1.7113 C   0  0  0  0  0  0  0  0  0  0  0  0
    3.5079   -2.7997   -0.4033 C   0  0  0  0  0  0  0  0  0  0  0  0
    2.7403   -3.9199   -0.3166 N   0  0  0  0  0  0  0  0  0  0  0  0
    2.6137   -4.6312    0.8064 N   0  0  0  0  0  0  0  0  0  0  0  0
    3.2490   -4.2178    1.9144 C   0  0  0  0  0  0  0  0  0  0  0  0
    4.0614   -3.0686    1.9265 C   0  0  0  0  0  0  0  0  0  0  0  0
    4.7891   -2.4754    2.8794 N   0  0  0  0  0  0  0  0  0  0  0  0
    5.3988   -1.3608    2.3090 N   0  0  0  0  0  0  0  0  0  0  0  0
    5.0268   -1.2899    1.0305 C   0  0  0  0  0  0  0  0  0  0  0  0
    4.1980   -2.3346    0.7364 N   0  0  0  0  0  0  0  0  0  0  0  0
    2.6233   -2.7125   -3.0538 S   0  0  0  0  0  0  0  0  0  0  0  0
    3.0295   -1.2271   -5.0755 H   0  0  0  0  0  0  0  0  0  0  0  0
    5.0340   -0.4235   -1.5589 H   0  0  0  0  0  0  0  0  0  0  0  0
    3.1270   -4.7926    2.8215 H   0  0  0  0  0  0  0  0  0  0  0  0
    5.3661   -0.4997    0.3858 H   0  0  0  0  0  0  0  0  0  0  0  0
  1 14  1  0
  1  2  2  0
  1 15  1  0
  2  3  1  0
  3  4  2  0
  3 16  1  0
  4  5  1  0
  4 14  1  0
  5 13  1  0
  5  6  2  0
  6  7  1  0
  7  8  2  0
  8  9  1  0
  8 17  1  0
  9 13  1  0
  9 10  2  0
 10 11  1  0
 11 12  2  0
 12 13  1  0
 12 18  1  0
M  END
>  <i_m_ct_stereo_status>  (137) 
1

>  <s_m_source_file>  (137) 
/var/tmp/pbs.5076255.sched01/tmpcsrx8n8z/40wzjmt8mb.sdf

>  <i_m_source_file_index>  (137) 
19

>  <i_lp_mmshare_version>  (137) 
48012

>  <i_f3d_flags>  (137) 
0

>  <s_epik_input>  (137) 
czFbY0hdbltjSF1jMS1jKG5uW2NIXTIpbihjMjMpW2NIXW5uMw==

>  <s_epik_cmdline>  (137) 
J2VwaWtfcHl0aG9uJywgJy1waHQnLCAnMi4wJywgJy1waCcsICc3LjAnLCAnLXRuJywgJzgnLCAnLW1hJywgJzIwMCcsICctaW1hZScsICc8aW5maWxlLm1hZT4nLCAnLW9tYWUnLCAnPG91dGZpbGUubWFlPic=

>  <r_lp_tautomer_probability>  (137) 
1

>  <r_epik_Ionization_Penalty>  (137) 
1.93053e-05

>  <r_epik_Ionization_Penalty_Charging>  (137) 
0

>  <r_epik_Ionization_Penalty_Neutral>  (137) 
1.93053e-05

>  <r_epik_State_Penalty>  (137) 
-0

>  <r_epik_Charging_Adjusted_Penalty>  (137) 
0

>  <i_epik_Tot_Q>  (137) 
0

>  <i_epik_Tot_abs_Q>  (137) 
0

>  <s_lp_Force_Field>  (137) 
OPLS3e

>  <r_lp_Energy>  (137) 
19.1682

>  <b_lp_Chiralities_Consistent>  (137) 
1

>  <s_lp_Variant>  (137) 
39:0-1

>  <s_i_glide_gridfile>  (137) 
pfpi4k_grid

>  <i_i_glide_lignum>  (137) 
19

>  <i_i_glide_rotatable_bonds>  (137) 
1

>  <r_i_docking_score>  (137) 
-3.20895

>  <r_i_glide_ligand_efficiency>  (137) 
-0.229211

>  <r_i_glide_ligand_efficiency_sa>  (137) 
-0.552431

>  <r_i_glide_ligand_efficiency_ln>  (137) 
-0.881809

>  <r_i_glide_gscore>  (137) 
-3.20895

>  <r_i_glide_lipo>  (137) 
-0.112193

>  <r_i_glide_hbond>  (137) 
0

>  <r_i_glide_metal>  (137) 
-0

>  <r_i_glide_rewards>  (137) 
-2.12581

>  <r_i_glide_evdw>  (137) 
-22.5948

>  <r_i_glide_ecoul>  (137) 
-0.950804

>  <r_i_glide_erotb>  (137) 
0.394371

>  <r_i_glide_esite>  (137) 
-0.092958

>  <r_i_glide_emodel>  (137) 
-28.4871

>  <r_i_glide_energy>  (137) 
-23.5456

>  <r_i_glide_einternal>  (137) 
0.00786255

>  <r_i_glide_intrahb_reward>  (137) 
-0

>  <i_i_glide_confnum>  (137) 
1

>  <i_i_glide_posenum>  (137) 
29

>  <r_i_glide_eff_state_penalty>  (137) 
0

>  <ligand_id>  (137) 
39

>  <original_smiles>  (137) 
c1ncc(-c2nncc3nncn23)s1

>  <smiles>  (137) 
[H]c1nc([H])c(-c2nnc([H])c3nnc([H])n23)s1

$$$$
40:0:0
     RDKit          3D

 97105  0  0  1  0  0  0  0  0999 V2000
    3.0661   -3.0712    5.3282 C   0  0  0  0  0  0  0  0  0  0  0  0
    3.6076   -3.7028    4.2673 C   0  0  0  0  0  0  0  0  0  0  0  0
    3.2152   -3.2038    2.9207 C   0  0  2  0  0  0  0  0  0  0  0  0
    4.2689   -3.0701    1.8627 C   0  0  2  0  0  0  0  0  0  0  0  0
    5.6063   -3.6366    2.2730 C   0  0  0  0  0  0  0  0  0  0  0  0
    5.4413   -5.0187    2.9733 C   0  0  1  0  0  0  0  0  0  0  0  0
    5.0217   -6.0761    1.9560 C   0  0  1  0  0  0  0  0  0  0  0  0
    5.9492   -7.0303    2.5274 O   0  0  0  0  0  0  0  0  0  0  0  0
    6.7333   -5.9031    3.0373 C   0  0  1  0  0  0  0  0  0  0  0  0
    7.8963   -5.5966    2.0547 C   0  0  0  0  0  0  0  0  0  0  0  0
    7.2918   -6.2965    4.4270 C   0  0  1  0  0  0  0  0  0  0  0  0
    8.7489   -6.7826    4.5263 C   0  0  0  0  0  0  0  0  0  0  0  0
    6.9811   -5.2781    5.5457 C   0  0  0  0  0  0  0  0  0  0  0  0
    5.7810   -4.3366    5.3141 C   0  0  0  0  0  0  0  0  0  0  0  0
    4.6533   -4.8620    4.3541 C   0  0  1  0  0  0  0  0  0  0  0  0
    4.0447   -6.1994    5.0744 C   0  0  1  0  0  0  0  0  0  0  0  0
    3.6278   -5.7768    6.3572 O   0  0  0  0  0  0  0  0  0  0  0  0
    2.9273   -7.2297    4.5239 C   0  0  1  0  0  0  0  0  0  0  0  0
    2.0554   -6.4098    3.5612 C   0  0  0  0  0  0  0  0  0  0  0  0
    2.2780   -6.4191    2.1176 N   0  0  0  0  0  0  0  0  0  0  0  0
    2.0350   -7.6855    1.4596 C   0  0  2  0  0  0  0  0  0  0  0  0
    1.4211   -8.8504    2.2239 C   0  0  0  0  0  0  0  0  0  0  0  0
    2.0769   -9.3677    3.5696 C   0  0  1  0  0  0  0  0  0  0  0  0
    2.3326  -10.8801    3.2401 C   0  0  0  0  0  0  0  0  0  0  0  0
    3.4143   -8.6272    4.0089 C   0  0  2  0  0  0  0  0  0  0  0  0
    3.9990   -9.3349    5.2846 C   0  0  1  0  0  0  0  0  0  0  0  0
    5.5203   -9.3286    5.5226 C   0  0  0  0  0  0  0  0  0  0  0  0
    3.1559   -8.7437    6.4163 C   0  0  0  0  0  0  0  0  0  0  0  0
    2.0445   -8.0036    5.6144 C   0  0  1  0  0  0  0  0  0  0  0  0
    1.2408   -7.0891    6.3758 O   0  0  0  0  0  0  0  0  0  0  0  0
    0.7093   -7.5116    7.6281 C   0  0  0  0  0  0  0  0  0  0  0  0
    0.1974   -6.2689    8.3667 C   0  0  0  0  0  0  0  0  0  0  0  0
   -0.1736   -6.6256    9.6907 O   0  0  0  0  0  0  0  0  0  0  0  0
   -0.4687   -5.4986   10.5038 C   0  0  0  0  0  0  0  0  0  0  0  0
    1.1647   -9.1013    4.8521 C   0  0  0  0  0  0  0  0  0  0  0  0
   -0.3233   -8.6738    4.6060 C   0  0  0  0  0  0  0  0  0  0  0  0
    0.9206  -10.4072    5.6735 C   0  0  0  0  0  0  0  0  0  0  0  0
    3.4384   -7.8550    1.1798 O   0  0  0  0  0  0  0  0  0  0  0  0
    3.6034   -6.4619    1.5014 C   0  0  2  0  0  0  0  0  0  0  0  0
    3.6182   -1.8254    2.4386 C   0  0  0  0  0  0  0  0  0  0  0  0
    2.6528   -1.0552    1.5644 C   0  0  0  0  0  0  0  0  0  0  0  0
    4.4012   -0.8728    3.3236 C   0  0  0  0  0  0  0  0  0  0  0  0
    3.3040   -3.3365    6.3449 H   0  0  0  0  0  0  0  0  0  0  0  0
    2.3611   -2.2666    5.1804 H   0  0  0  0  0  0  0  0  0  0  0  0
    2.2573   -3.5932    2.5935 H   0  0  0  0  0  0  0  0  0  0  0  0
    3.9656   -3.3397    0.8504 H   0  0  0  0  0  0  0  0  0  0  0  0
    6.1840   -3.7078    1.3548 H   0  0  0  0  0  0  0  0  0  0  0  0
    6.1511   -2.9205    2.8806 H   0  0  0  0  0  0  0  0  0  0  0  0
    5.4467   -5.7903    0.9955 H   0  0  0  0  0  0  0  0  0  0  0  0
    8.4549   -4.7117    2.3630 H   0  0  0  0  0  0  0  0  0  0  0  0
    7.5647   -5.4114    1.0387 H   0  0  0  0  0  0  0  0  0  0  0  0
    8.6084   -6.4148    1.9732 H   0  0  0  0  0  0  0  0  0  0  0  0
    6.7727   -7.2020    4.6919 H   0  0  0  0  0  0  0  0  0  0  0  0
    9.4622   -5.9822    4.3162 H   0  0  0  0  0  0  0  0  0  0  0  0
    8.9525   -7.6209    3.8558 H   0  0  0  0  0  0  0  0  0  0  0  0
    8.9481   -7.1339    5.5397 H   0  0  0  0  0  0  0  0  0  0  0  0
    6.8092   -5.8382    6.4649 H   0  0  0  0  0  0  0  0  0  0  0  0
    7.8633   -4.6627    5.7416 H   0  0  0  0  0  0  0  0  0  0  0  0
    5.3998   -4.0360    6.2874 H   0  0  0  0  0  0  0  0  0  0  0  0
    6.1740   -3.4055    4.9226 H   0  0  0  0  0  0  0  0  0  0  0  0
    4.8807   -6.8267    5.3045 H   0  0  0  0  0  0  0  0  0  0  0  0
    4.3814   -5.4167    6.7954 H   0  0  0  0  0  0  0  0  0  0  0  0
    1.0247   -6.6730    3.6926 H   0  0  0  0  0  0  0  0  0  0  0  0
    1.9943   -5.3883    3.9036 H   0  0  0  0  0  0  0  0  0  0  0  0
    1.4767   -7.5001    0.5360 H   0  0  0  0  0  0  0  0  0  0  0  0
    0.3575   -8.6746    2.3010 H   0  0  0  0  0  0  0  0  0  0  0  0
    1.4235   -9.6657    1.5047 H   0  0  0  0  0  0  0  0  0  0  0  0
    2.6909  -11.5210    4.0373 H   0  0  0  0  0  0  0  0  0  0  0  0
    3.0701  -10.9680    2.4417 H   0  0  0  0  0  0  0  0  0  0  0  0
    1.4197  -11.3632    2.8901 H   0  0  0  0  0  0  0  0  0  0  0  0
    4.1656   -8.6069    3.2259 H   0  0  0  0  0  0  0  0  0  0  0  0
    3.8051  -10.3946    5.2584 H   0  0  0  0  0  0  0  0  0  0  0  0
    5.8594   -8.4948    6.1318 H   0  0  0  0  0  0  0  0  0  0  0  0
    6.0637   -9.3451    4.5776 H   0  0  0  0  0  0  0  0  0  0  0  0
    5.8213  -10.2206    6.0736 H   0  0  0  0  0  0  0  0  0  0  0  0
    2.7971   -9.5012    7.1078 H   0  0  0  0  0  0  0  0  0  0  0  0
    3.7411   -8.0810    7.0440 H   0  0  0  0  0  0  0  0  0  0  0  0
   -0.1057   -8.2225    7.5157 H   0  0  0  0  0  0  0  0  0  0  0  0
    1.4648   -7.9892    8.2488 H   0  0  0  0  0  0  0  0  0  0  0  0
    0.9867   -5.5151    8.3914 H   0  0  0  0  0  0  0  0  0  0  0  0
   -0.6574   -5.8310    7.8424 H   0  0  0  0  0  0  0  0  0  0  0  0
   -0.7511   -5.8405   11.4986 H   0  0  0  0  0  0  0  0  0  0  0  0
   -1.2999   -4.9220   10.0976 H   0  0  0  0  0  0  0  0  0  0  0  0
    0.3972   -4.8457   10.6071 H   0  0  0  0  0  0  0  0  0  0  0  0
   -0.8835   -8.6135    5.5364 H   0  0  0  0  0  0  0  0  0  0  0  0
   -0.8454   -9.4305    4.0175 H   0  0  0  0  0  0  0  0  0  0  0  0
   -0.5069   -7.7273    4.1149 H   0  0  0  0  0  0  0  0  0  0  0  0
    0.4079  -10.2190    6.6166 H   0  0  0  0  0  0  0  0  0  0  0  0
    1.8113  -10.9750    5.9202 H   0  0  0  0  0  0  0  0  0  0  0  0
    0.2876  -11.1025    5.1232 H   0  0  0  0  0  0  0  0  0  0  0  0
    3.4884   -5.8855    0.5748 H   0  0  0  0  0  0  0  0  0  0  0  0
    3.1859   -0.3502    0.9271 H   0  0  0  0  0  0  0  0  0  0  0  0
    1.9353   -0.5070    2.1730 H   0  0  0  0  0  0  0  0  0  0  0  0
    2.1049   -1.7407    0.9196 H   0  0  0  0  0  0  0  0  0  0  0  0
    5.0085   -0.2014    2.7134 H   0  0  0  0  0  0  0  0  0  0  0  0
    5.0575   -1.4185    4.0004 H   0  0  0  0  0  0  0  0  0  0  0  0
    3.7135   -0.2837    3.9330 H   0  0  0  0  0  0  0  0  0  0  0  0
  1  2  2  0
  1 43  1  0
  1 44  1  0
  2 15  1  0
  2  3  1  0
  3 40  1  0
  3  4  1  0
  3 45  1  6
  4  5  1  0
  4 40  1  0
  4 46  1  6
  6  5  1  6
  5 47  1  0
  5 48  1  0
  6  9  1  0
  6 15  1  0
  6  7  1  0
  7 39  1  0
  7  8  1  0
  7 49  1  6
  8  9  1  0
  9 10  1  6
  9 11  1  0
 10 50  1  0
 10 51  1  0
 10 52  1  0
 11 12  1  0
 11 13  1  0
 11 53  1  1
 12 54  1  0
 12 55  1  0
 12 56  1  0
 13 14  1  0
 13 57  1  0
 13 58  1  0
 15 14  1  1
 14 59  1  0
 14 60  1  0
 15 16  1  0
 16 17  1  0
 16 18  1  0
 16 61  1  1
 17 62  1  0
 18 25  1  0
 18 29  1  0
 18 19  1  6
 19 20  1  0
 19 63  1  0
 19 64  1  0
 20 39  1  0
 20 21  1  0
 21 22  1  0
 21 38  1  0
 21 65  1  6
 22 23  1  0
 22 66  1  0
 22 67  1  0
 23 35  1  0
 23 24  1  6
 23 25  1  0
 24 68  1  0
 24 69  1  0
 24 70  1  0
 25 26  1  0
 25 71  1  6
 26 27  1  0
 26 28  1  0
 26 72  1  6
 27 73  1  0
 27 74  1  0
 27 75  1  0
 28 29  1  0
 28 76  1  0
 28 77  1  0
 29 30  1  1
 29 35  1  0
 30 31  1  0
 31 32  1  0
 31 78  1  0
 31 79  1  0
 32 33  1  0
 32 80  1  0
 32 81  1  0
 33 34  1  0
 34 82  1  0
 34 83  1  0
 34 84  1  0
 35 36  1  0
 35 37  1  0
 36 85  1  0
 36 86  1  0
 36 87  1  0
 37 88  1  0
 37 89  1  0
 37 90  1  0
 38 39  1  0
 39 91  1  6
 40 41  1  0
 40 42  1  0
 41 92  1  0
 41 93  1  0
 41 94  1  0
 42 95  1  0
 42 96  1  0
 42 97  1  0
M  END
>  <i_m_ct_stereo_status>  (138) 
1

>  <s_m_source_file>  (138) 
/var/tmp/pbs.5076255.sched01/tmpcsrx8n8z/40wzjmt8mb.sdf

>  <i_m_source_file_index>  (138) 
20

>  <i_lp_mmshare_version>  (138) 
48012

>  <i_f3d_flags>  (138) 
0

>  <s_epik_input>  (138) 
W0NIM11DMShbQ0gzXSlbQ0BASF0oW0NIMl0yKVtDQEhdMUMoPVtDSDJdKVtDQEBdMyhbQ0BdMjQ1KVtDSDJdW0NIMl1bQ0BIXShbQ0gzXSlbQ0BAXTUoW0NIM10pT1tDQEhdNFtDQEBIXTZON1tDQEBIXShPNilbQ0gyXVtDQEBdOChbQ0gzXSlbQ0BIXTlbQ0BdKFtDSDJdNykoW0NAQEhdM1tPSF0pW0NAQF0oQzgoW0NIM10pW0NIM10pKFtDSDJdW0NAQEhdOVtDSDNdKU9bQ0gyXVtDSDJdT1tDSDNd

>  <s_epik_cmdline>  (138) 
J2VwaWtfcHl0aG9uJywgJy1waHQnLCAnMi4wJywgJy1waCcsICc3LjAnLCAnLXRuJywgJzgnLCAnLW1hJywgJzIwMCcsICctaW1hZScsICc8aW5maWxlLm1hZT4nLCAnLW9tYWUnLCAnPG91dGZpbGUubWFlPic=

>  <r_lp_tautomer_probability>  (138) 
1

>  <r_epik_Ionization_Penalty>  (138) 
0.000245619

>  <r_epik_Ionization_Penalty_Charging>  (138) 
0

>  <r_epik_Ionization_Penalty_Neutral>  (138) 
0.000245619

>  <r_epik_State_Penalty>  (138) 
-0

>  <r_epik_Charging_Adjusted_Penalty>  (138) 
0

>  <i_epik_Tot_Q>  (138) 
0

>  <i_epik_Tot_abs_Q>  (138) 
0

>  <s_epik_Chemistry_Notes>  (138) 
This compound contains an acetal/aminal-like group ( X-CH(R)-Y where X, Y are N, S, or O) that may be acid/base labile, releasing an aldehyde.

>  <s_lp_Force_Field>  (138) 
OPLS3e

>  <r_lp_Energy>  (138) 
204.888

>  <b_lp_Chiralities_Consistent>  (138) 
1

>  <s_lp_Variant>  (138) 
40:0-1

>  <s_i_glide_gridfile>  (138) 
pfpi4k_grid

>  <i_i_glide_lignum>  (138) 
20

>  <i_i_glide_rotatable_bonds>  (138) 
5

>  <r_i_docking_score>  (138) 
-2.36748

>  <r_i_glide_ligand_efficiency>  (138) 
-0.0563687

>  <r_i_glide_ligand_efficiency_sa>  (138) 
-0.195939

>  <r_i_glide_ligand_efficiency_ln>  (138) 
-0.499715

>  <r_i_glide_gscore>  (138) 
-2.36748

>  <r_i_glide_lipo>  (138) 
-0.241958

>  <r_i_glide_hbond>  (138) 
-0.32

>  <r_i_glide_metal>  (138) 
-0

>  <r_i_glide_rewards>  (138) 
-0.0741444

>  <r_i_glide_evdw>  (138) 
-22.0246

>  <r_i_glide_ecoul>  (138) 
-4.60851

>  <r_i_glide_erotb>  (138) 
0.0842076

>  <r_i_glide_esite>  (138) 
-0.023084

>  <r_i_glide_emodel>  (138) 
-29.7374

>  <r_i_glide_energy>  (138) 
-26.6331

>  <r_i_glide_einternal>  (138) 
1.28291

>  <r_i_glide_intrahb_reward>  (138) 
-0

>  <i_i_glide_confnum>  (138) 
1

>  <i_i_glide_posenum>  (138) 
3

>  <r_i_glide_eff_state_penalty>  (138) 
0

>  <ligand_id>  (138) 
40

>  <original_smiles>  (138) 
C=C1C2C(CC34C5OC3(C)C(C)CCC14C(O)C13CN4C(CC6(C)C1C(C)CC3(OCCOC)C6(C)C)OC54)C2(C)C

>  <smiles>  (138) 
[H]OC1([H])C23C(=C([H])[H])C4([H])C([H])(C([H])([H])C25C([H])(OC5(C([H])([H])[H])C([H])(C([H])([H])[H])C([H])([H])C3([H])[H])C2([H])OC3([H])N2C([H])([H])C12C1([H])C([H])(C([H])([H])[H])C([H])([H])C2(OC([H])([H])C([H])([H])OC([H])([H])[H])C(C([H])([H])[H])(C([H])([H])[H])C1(C([H])([H])[H])C3([H])[H])C4(C([H])([H])[H])C([H])([H])[H]

$$$$
40:0:1
     RDKit          3D

 97105  0  0  1  0  0  0  0  0999 V2000
    0.7140   -7.0073    1.0228 C   0  0  0  0  0  0  0  0  0  0  0  0
    1.3048   -6.9431    2.2325 C   0  0  0  0  0  0  0  0  0  0  0  0
    0.3908   -6.9096    3.3990 C   0  0  2  0  0  0  0  0  0  0  0  0
    0.7390   -7.7048    4.6165 C   0  0  2  0  0  0  0  0  0  0  0  0
    2.1123   -8.3206    4.5597 C   0  0  0  0  0  0  0  0  0  0  0  0
    3.1603   -7.3052    4.0170 C   0  0  1  0  0  0  0  0  0  0  0  0
    3.4309   -6.2094    5.0416 C   0  0  1  0  0  0  0  0  0  0  0  0
    4.8508   -6.2795    4.7879 O   0  0  0  0  0  0  0  0  0  0  0  0
    4.6602   -7.6543    4.3190 C   0  0  1  0  0  0  0  0  0  0  0  0
    4.9610   -8.6485    5.4675 C   0  0  0  0  0  0  0  0  0  0  0  0
    5.6200   -7.9027    3.1318 C   0  0  1  0  0  0  0  0  0  0  0  0
    6.9449   -8.6420    3.3907 C   0  0  0  0  0  0  0  0  0  0  0  0
    4.9312   -8.4501    1.8686 C   0  0  0  0  0  0  0  0  0  0  0  0
    3.4175   -8.1887    1.7474 C   0  0  0  0  0  0  0  0  0  0  0  0
    2.8451   -6.9316    2.5011 C   0  0  1  0  0  0  0  0  0  0  0  0
    3.5864   -5.6400    1.8418 C   0  0  1  0  0  0  0  0  0  0  0  0
    3.2704   -5.7289    0.4724 O   0  0  0  0  0  0  0  0  0  0  0  0
    3.4805   -4.0820    2.2708 C   0  0  1  0  0  0  0  0  0  0  0  0
    2.1000   -3.9264    2.9272 C   0  0  0  0  0  0  0  0  0  0  0  0
    1.9249   -3.9854    4.3693 N   0  0  0  0  0  0  0  0  0  0  0  0
    2.5300   -2.9001    5.1186 C   0  0  2  0  0  0  0  0  0  0  0  0
    3.1339   -1.7161    4.3754 C   0  0  0  0  0  0  0  0  0  0  0  0
    4.2452   -1.9385    3.2642 C   0  0  1  0  0  0  0  0  0  0  0  0
    5.4105   -1.0682    3.8173 C   0  0  0  0  0  0  0  0  0  0  0  0
    4.6901   -3.4527    3.0305 C   0  0  2  0  0  0  0  0  0  0  0  0
    5.8735   -3.5024    1.9921 C   0  0  1  0  0  0  0  0  0  0  0  0
    6.8851   -4.6708    2.0461 C   0  0  0  0  0  0  0  0  0  0  0  0
    5.1578   -3.3664    0.6569 C   0  0  0  0  0  0  0  0  0  0  0  0
    3.7133   -3.0007    1.1219 C   0  0  1  0  0  0  0  0  0  0  0  0
    2.7040   -3.1152    0.1182 O   0  0  0  0  0  0  0  0  0  0  0  0
    2.9788   -2.5589   -1.1581 C   0  0  0  0  0  0  0  0  0  0  0  0
    2.0168   -3.1756   -2.1888 C   0  0  0  0  0  0  0  0  0  0  0  0
    2.1767   -2.6132   -3.4824 O   0  0  0  0  0  0  0  0  0  0  0  0
    3.4238   -2.8679   -4.1010 C   0  0  0  0  0  0  0  0  0  0  0  0
    3.7630   -1.5487    1.7950 C   0  0  0  0  0  0  0  0  0  0  0  0
    2.4351   -0.7285    1.6771 C   0  0  0  0  0  0  0  0  0  0  0  0
    4.7368   -0.5427    1.0894 C   0  0  0  0  0  0  0  0  0  0  0  0
    3.4992   -3.7890    5.7043 O   0  0  0  0  0  0  0  0  0  0  0  0
    2.6823   -4.8789    5.2412 C   0  0  2  0  0  0  0  0  0  0  0  0
   -0.4498   -8.1054    3.7653 C   0  0  0  0  0  0  0  0  0  0  0  0
   -1.8310   -7.8441    4.3130 C   0  0  0  0  0  0  0  0  0  0  0  0
   -0.4364   -9.3817    2.9547 C   0  0  0  0  0  0  0  0  0  0  0  0
    1.2898   -7.0163    0.1140 H   0  0  0  0  0  0  0  0  0  0  0  0
   -0.3586   -7.0714    0.9227 H   0  0  0  0  0  0  0  0  0  0  0  0
   -0.0213   -5.9235    3.5748 H   0  0  0  0  0  0  0  0  0  0  0  0
    0.5048   -7.2291    5.5701 H   0  0  0  0  0  0  0  0  0  0  0  0
    2.3261   -8.6321    5.5773 H   0  0  0  0  0  0  0  0  0  0  0  0
    2.0920   -9.2480    3.9933 H   0  0  0  0  0  0  0  0  0  0  0  0
    3.2762   -6.6533    6.0275 H   0  0  0  0  0  0  0  0  0  0  0  0
    4.7371   -9.6723    5.1589 H   0  0  0  0  0  0  0  0  0  0  0  0
    4.3818   -8.4640    6.3658 H   0  0  0  0  0  0  0  0  0  0  0  0
    5.9978   -8.6178    5.7910 H   0  0  0  0  0  0  0  0  0  0  0  0
    5.9946   -6.9330    2.8665 H   0  0  0  0  0  0  0  0  0  0  0  0
    6.7828   -9.6912    3.6438 H   0  0  0  0  0  0  0  0  0  0  0  0
    7.5334   -8.1708    4.1814 H   0  0  0  0  0  0  0  0  0  0  0  0
    7.5559   -8.6200    2.4884 H   0  0  0  0  0  0  0  0  0  0  0  0
    5.4213   -8.0057    1.0045 H   0  0  0  0  0  0  0  0  0  0  0  0
    5.1059   -9.5255    1.7781 H   0  0  0  0  0  0  0  0  0  0  0  0
    3.1969   -8.1653    0.6903 H   0  0  0  0  0  0  0  0  0  0  0  0
    2.9070   -9.0828    2.0825 H   0  0  0  0  0  0  0  0  0  0  0  0
    4.6357   -5.8461    1.8478 H   0  0  0  0  0  0  0  0  0  0  0  0
    3.8005   -5.1136   -0.0160 H   0  0  0  0  0  0  0  0  0  0  0  0
    1.6459   -3.0079    2.6071 H   0  0  0  0  0  0  0  0  0  0  0  0
    1.4051   -4.6013    2.4551 H   0  0  0  0  0  0  0  0  0  0  0  0
    1.8292   -2.5638    5.8855 H   0  0  0  0  0  0  0  0  0  0  0  0
    2.3237   -1.0772    4.0464 H   0  0  0  0  0  0  0  0  0  0  0  0
    3.5503   -1.0940    5.1681 H   0  0  0  0  0  0  0  0  0  0  0  0
    6.2775   -0.9587    3.1790 H   0  0  0  0  0  0  0  0  0  0  0  0
    5.7607   -1.4990    4.7548 H   0  0  0  0  0  0  0  0  0  0  0  0
    5.0843   -0.0480    4.0195 H   0  0  0  0  0  0  0  0  0  0  0  0
    4.9830   -3.9564    3.9445 H   0  0  0  0  0  0  0  0  0  0  0  0
    6.5119   -2.6387    2.0880 H   0  0  0  0  0  0  0  0  0  0  0  0
    6.6473   -5.4895    1.3716 H   0  0  0  0  0  0  0  0  0  0  0  0
    6.9975   -5.0672    3.0534 H   0  0  0  0  0  0  0  0  0  0  0  0
    7.8653   -4.3212    1.7202 H   0  0  0  0  0  0  0  0  0  0  0  0
    5.6359   -2.6351    0.0105 H   0  0  0  0  0  0  0  0  0  0  0  0
    5.2079   -4.2831    0.0800 H   0  0  0  0  0  0  0  0  0  0  0  0
    2.8930   -1.4704   -1.1631 H   0  0  0  0  0  0  0  0  0  0  0  0
    3.9956   -2.7760   -1.4565 H   0  0  0  0  0  0  0  0  0  0  0  0
    2.1484   -4.2403   -2.2204 H   0  0  0  0  0  0  0  0  0  0  0  0
    0.9736   -3.0502   -1.8896 H   0  0  0  0  0  0  0  0  0  0  0  0
    3.3955   -2.4073   -5.0826 H   0  0  0  0  0  0  0  0  0  0  0  0
    3.6030   -3.9392   -4.2093 H   0  0  0  0  0  0  0  0  0  0  0  0
    4.2596   -2.4153   -3.5662 H   0  0  0  0  0  0  0  0  0  0  0  0
    2.2418   -0.4248    0.6509 H   0  0  0  0  0  0  0  0  0  0  0  0
    2.5024    0.2074    2.2332 H   0  0  0  0  0  0  0  0  0  0  0  0
    1.5153   -1.2073    1.9856 H   0  0  0  0  0  0  0  0  0  0  0  0
    4.4671   -0.3693    0.0492 H   0  0  0  0  0  0  0  0  0  0  0  0
    5.7895   -0.8086    1.0908 H   0  0  0  0  0  0  0  0  0  0  0  0
    4.6888    0.4309    1.5742 H   0  0  0  0  0  0  0  0  0  0  0  0
    1.9708   -5.1330    6.0346 H   0  0  0  0  0  0  0  0  0  0  0  0
   -2.1323   -8.6613    4.9653 H   0  0  0  0  0  0  0  0  0  0  0  0
   -2.5561   -7.7600    3.5045 H   0  0  0  0  0  0  0  0  0  0  0  0
   -1.8417   -6.9223    4.8887 H   0  0  0  0  0  0  0  0  0  0  0  0
   -0.6446  -10.2402    3.5965 H   0  0  0  0  0  0  0  0  0  0  0  0
    0.5393   -9.5405    2.4881 H   0  0  0  0  0  0  0  0  0  0  0  0
   -1.1802   -9.3356    2.1559 H   0  0  0  0  0  0  0  0  0  0  0  0
  1  2  2  0
  1 43  1  0
  1 44  1  0
  2 15  1  0
  2  3  1  0
  3 40  1  0
  3  4  1  0
  3 45  1  1
  4  5  1  0
  4 40  1  0
  4 46  1  1
  6  5  1  1
  5 47  1  0
  5 48  1  0
  6  9  1  0
  6 15  1  0
  6  7  1  0
  7 39  1  0
  7  8  1  0
  7 49  1  1
  8  9  1  0
  9 10  1  1
  9 11  1  0
 10 50  1  0
 10 51  1  0
 10 52  1  0
 11 12  1  0
 11 13  1  0
 11 53  1  6
 12 54  1  0
 12 55  1  0
 12 56  1  0
 13 14  1  0
 13 57  1  0
 13 58  1  0
 15 14  1  6
 14 59  1  0
 14 60  1  0
 15 16  1  0
 16 17  1  0
 16 18  1  0
 16 61  1  6
 17 62  1  0
 18 25  1  0
 18 29  1  0
 18 19  1  1
 19 20  1  0
 19 63  1  0
 19 64  1  0
 20 39  1  0
 20 21  1  0
 21 22  1  0
 21 38  1  0
 21 65  1  1
 22 23  1  0
 22 66  1  0
 22 67  1  0
 23 35  1  0
 23 24  1  1
 23 25  1  0
 24 68  1  0
 24 69  1  0
 24 70  1  0
 25 26  1  0
 25 71  1  1
 26 27  1  0
 26 28  1  0
 26 72  1  1
 27 73  1  0
 27 74  1  0
 27 75  1  0
 28 29  1  0
 28 76  1  0
 28 77  1  0
 29 30  1  6
 29 35  1  0
 30 31  1  0
 31 32  1  0
 31 78  1  0
 31 79  1  0
 32 33  1  0
 32 80  1  0
 32 81  1  0
 33 34  1  0
 34 82  1  0
 34 83  1  0
 34 84  1  0
 35 36  1  0
 35 37  1  0
 36 85  1  0
 36 86  1  0
 36 87  1  0
 37 88  1  0
 37 89  1  0
 37 90  1  0
 38 39  1  0
 39 91  1  1
 40 41  1  0
 40 42  1  0
 41 92  1  0
 41 93  1  0
 41 94  1  0
 42 95  1  0
 42 96  1  0
 42 97  1  0
M  END
>  <i_m_ct_stereo_status>  (139) 
1

>  <s_m_source_file>  (139) 
/var/tmp/pbs.5076255.sched01/tmpcsrx8n8z/40wzjmt8mb.sdf

>  <i_m_source_file_index>  (139) 
20

>  <i_lp_mmshare_version>  (139) 
48012

>  <i_f3d_flags>  (139) 
0

>  <s_epik_input>  (139) 
W0NIM11DMShbQ0gzXSlbQ0BASF0oW0NIMl0yKVtDQEhdMUMoPVtDSDJdKVtDQEBdMyhbQ0BdMjQ1KVtDSDJdW0NIMl1bQ0BIXShbQ0gzXSlbQ0BAXTUoW0NIM10pT1tDQEhdNFtDQEBIXTZON1tDQEBIXShPNilbQ0gyXVtDQEBdOChbQ0gzXSlbQ0BIXTlbQ0BdKFtDSDJdNykoW0NAQEhdM1tPSF0pW0NAQF0oQzgoW0NIM10pW0NIM10pKFtDSDJdW0NAQEhdOVtDSDNdKU9bQ0gyXVtDSDJdT1tDSDNd

>  <s_epik_cmdline>  (139) 
J2VwaWtfcHl0aG9uJywgJy1waHQnLCAnMi4wJywgJy1waCcsICc3LjAnLCAnLXRuJywgJzgnLCAnLW1hJywgJzIwMCcsICctaW1hZScsICc8aW5maWxlLm1hZT4nLCAnLW9tYWUnLCAnPG91dGZpbGUubWFlPic=

>  <r_lp_tautomer_probability>  (139) 
1

>  <r_epik_Ionization_Penalty>  (139) 
0.000245619

>  <r_epik_Ionization_Penalty_Charging>  (139) 
0

>  <r_epik_Ionization_Penalty_Neutral>  (139) 
0.000245619

>  <r_epik_State_Penalty>  (139) 
-0

>  <r_epik_Charging_Adjusted_Penalty>  (139) 
0

>  <i_epik_Tot_Q>  (139) 
0

>  <i_epik_Tot_abs_Q>  (139) 
0

>  <s_epik_Chemistry_Notes>  (139) 
This compound contains an acetal/aminal-like group ( X-CH(R)-Y where X, Y are N, S, or O) that may be acid/base labile, releasing an aldehyde.

>  <s_lp_Force_Field>  (139) 
OPLS3e

>  <r_lp_Energy>  (139) 
204.888

>  <b_lp_Chiralities_Consistent>  (139) 
1

>  <s_lp_Variant>  (139) 
40:0-1

>  <s_i_glide_gridfile>  (139) 
pfpi4k_grid

>  <i_i_glide_lignum>  (139) 
20

>  <i_i_glide_rotatable_bonds>  (139) 
5

>  <r_i_docking_score>  (139) 
-1.85704

>  <r_i_glide_ligand_efficiency>  (139) 
-0.0442153

>  <r_i_glide_ligand_efficiency_sa>  (139) 
-0.153694

>  <r_i_glide_ligand_efficiency_ln>  (139) 
-0.391974

>  <r_i_glide_gscore>  (139) 
-1.85704

>  <r_i_glide_lipo>  (139) 
-0.54334

>  <r_i_glide_hbond>  (139) 
0

>  <r_i_glide_metal>  (139) 
-0

>  <r_i_glide_rewards>  (139) 
0

>  <r_i_glide_evdw>  (139) 
-28.4427

>  <r_i_glide_ecoul>  (139) 
0.161507

>  <r_i_glide_erotb>  (139) 
0.0842076

>  <r_i_glide_esite>  (139) 
0

>  <r_i_glide_emodel>  (139) 
-29.6847

>  <r_i_glide_energy>  (139) 
-28.2812

>  <r_i_glide_einternal>  (139) 
2.30359

>  <r_i_glide_intrahb_reward>  (139) 
-0

>  <i_i_glide_confnum>  (139) 
2

>  <i_i_glide_posenum>  (139) 
25

>  <r_i_glide_eff_state_penalty>  (139) 
0

>  <ligand_id>  (139) 
40

>  <original_smiles>  (139) 
C=C1C2C(CC34C5OC3(C)C(C)CCC14C(O)C13CN4C(CC6(C)C1C(C)CC3(OCCOC)C6(C)C)OC54)C2(C)C

>  <smiles>  (139) 
[H]OC1([H])C23C(=C([H])[H])C4([H])C([H])(C([H])([H])C25C([H])(OC5(C([H])([H])[H])C([H])(C([H])([H])[H])C([H])([H])C3([H])[H])C2([H])OC3([H])N2C([H])([H])C12C1([H])C([H])(C([H])([H])[H])C([H])([H])C2(OC([H])([H])C([H])([H])OC([H])([H])[H])C(C([H])([H])[H])(C([H])([H])[H])C1(C([H])([H])[H])C3([H])[H])C4(C([H])([H])[H])C([H])([H])[H]

$$$$
40:0:2
     RDKit          3D

 97105  0  0  1  0  0  0  0  0999 V2000
    2.2088   -7.9293    1.7135 C   0  0  0  0  0  0  0  0  0  0  0  0
    1.8166   -7.5220    2.9274 C   0  0  0  0  0  0  0  0  0  0  0  0
    0.3797   -7.5570    3.2328 C   0  0  2  0  0  0  0  0  0  0  0  0
   -0.0916   -8.0608    4.5481 C   0  0  2  0  0  0  0  0  0  0  0  0
    1.0262   -8.3306    5.5149 C   0  0  0  0  0  0  0  0  0  0  0  0
    2.0718   -7.1677    5.5110 C   0  0  1  0  0  0  0  0  0  0  0  0
    1.5017   -5.9232    6.1663 C   0  0  1  0  0  0  0  0  0  0  0  0
    2.7193   -5.6928    6.8561 O   0  0  0  0  0  0  0  0  0  0  0  0
    3.0174   -7.1036    6.7487 C   0  0  1  0  0  0  0  0  0  0  0  0
    2.5988   -7.8340    8.0447 C   0  0  0  0  0  0  0  0  0  0  0  0
    4.5477   -7.2557    6.5181 C   0  0  1  0  0  0  0  0  0  0  0  0
    5.4345   -7.6178    7.7268 C   0  0  0  0  0  0  0  0  0  0  0  0
    4.9169   -8.1267    5.2976 C   0  0  0  0  0  0  0  0  0  0  0  0
    3.8459   -8.2585    4.1905 C   0  0  0  0  0  0  0  0  0  0  0  0
    2.7931   -7.1066    4.0808 C   0  0  1  0  0  0  0  0  0  0  0  0
    3.6670   -5.7604    3.7086 C   0  0  1  0  0  0  0  0  0  0  0  0
    4.3720   -6.0977    2.5204 O   0  0  0  0  0  0  0  0  0  0  0  0
    3.1538   -4.2322    3.5656 C   0  0  1  0  0  0  0  0  0  0  0  0
    1.6818   -4.3323    3.1715 C   0  0  0  0  0  0  0  0  0  0  0  0
    0.6022   -4.2271    4.1668 N   0  0  0  0  0  0  0  0  0  0  0  0
    0.4611   -2.9471    4.7952 C   0  0  2  0  0  0  0  0  0  0  0  0
    1.2704   -1.7512    4.3204 C   0  0  0  0  0  0  0  0  0  0  0  0
    2.8529   -1.8514    4.2365 C   0  0  1  0  0  0  0  0  0  0  0  0
    3.2839   -0.6610    5.1598 C   0  0  0  0  0  0  0  0  0  0  0  0
    3.4864   -3.2284    4.7121 C   0  0  2  0  0  0  0  0  0  0  0  0
    5.0543   -3.1173    4.6851 C   0  0  1  0  0  0  0  0  0  0  0  0
    5.8880   -3.9348    5.6794 C   0  0  0  0  0  0  0  0  0  0  0  0
    5.3776   -3.3422    3.2012 C   0  0  0  0  0  0  0  0  0  0  0  0
    3.9689   -3.2779    2.5695 C   0  0  1  0  0  0  0  0  0  0  0  0
    3.8568   -3.7348    1.2147 O   0  0  0  0  0  0  0  0  0  0  0  0
    4.8466   -3.3372    0.2727 C   0  0  0  0  0  0  0  0  0  0  0  0
    4.3444   -3.7009   -1.1339 C   0  0  0  0  0  0  0  0  0  0  0  0
    3.4894   -2.6694   -1.5922 O   0  0  0  0  0  0  0  0  0  0  0  0
    2.8498   -2.9706   -2.8182 C   0  0  0  0  0  0  0  0  0  0  0  0
    3.4205   -1.7828    2.7449 C   0  0  0  0  0  0  0  0  0  0  0  0
    2.4273   -1.3452    1.6180 C   0  0  0  0  0  0  0  0  0  0  0  0
    4.4970   -0.6524    2.5813 C   0  0  0  0  0  0  0  0  0  0  0  0
    0.8556   -3.4793    6.0858 O   0  0  0  0  0  0  0  0  0  0  0  0
    0.6968   -4.7979    5.4962 C   0  0  2  0  0  0  0  0  0  0  0  0
   -0.4078   -8.8538    3.2895 C   0  0  0  0  0  0  0  0  0  0  0  0
   -1.8255   -8.8839    2.7759 C   0  0  0  0  0  0  0  0  0  0  0  0
    0.2765  -10.1855    3.0370 C   0  0  0  0  0  0  0  0  0  0  0  0
    3.2476   -7.9989    1.4071 H   0  0  0  0  0  0  0  0  0  0  0  0
    1.4678   -8.2335    0.9761 H   0  0  0  0  0  0  0  0  0  0  0  0
   -0.1549   -6.6774    2.8333 H   0  0  0  0  0  0  0  0  0  0  0  0
   -0.9515   -7.5409    4.9918 H   0  0  0  0  0  0  0  0  0  0  0  0
    0.5487   -8.4470    6.4889 H   0  0  0  0  0  0  0  0  0  0  0  0
    1.4729   -9.3040    5.3319 H   0  0  0  0  0  0  0  0  0  0  0  0
    0.7674   -6.2543    6.9061 H   0  0  0  0  0  0  0  0  0  0  0  0
    2.7288   -8.9147    7.9430 H   0  0  0  0  0  0  0  0  0  0  0  0
    1.5508   -7.6794    8.3049 H   0  0  0  0  0  0  0  0  0  0  0  0
    3.1484   -7.5103    8.9140 H   0  0  0  0  0  0  0  0  0  0  0  0
    4.9012   -6.2686    6.3098 H   0  0  0  0  0  0  0  0  0  0  0  0
    5.2529   -8.6294    8.0858 H   0  0  0  0  0  0  0  0  0  0  0  0
    5.3097   -6.9165    8.5556 H   0  0  0  0  0  0  0  0  0  0  0  0
    6.4863   -7.5661    7.4291 H   0  0  0  0  0  0  0  0  0  0  0  0
    5.8136   -7.6881    4.8487 H   0  0  0  0  0  0  0  0  0  0  0  0
    5.2145   -9.1215    5.6225 H   0  0  0  0  0  0  0  0  0  0  0  0
    4.3669   -8.4479    3.2591 H   0  0  0  0  0  0  0  0  0  0  0  0
    3.3311   -9.2000    4.3698 H   0  0  0  0  0  0  0  0  0  0  0  0
    4.4516   -5.7010    4.4223 H   0  0  0  0  0  0  0  0  0  0  0  0
    3.7719   -6.1256    1.8164 H   0  0  0  0  0  0  0  0  0  0  0  0
    1.4581   -3.5932    2.4304 H   0  0  0  0  0  0  0  0  0  0  0  0
    1.5187   -5.2110    2.5604 H   0  0  0  0  0  0  0  0  0  0  0  0
   -0.6085   -2.7041    4.8229 H   0  0  0  0  0  0  0  0  0  0  0  0
    0.8187   -1.3933    3.4049 H   0  0  0  0  0  0  0  0  0  0  0  0
    0.9978   -0.9506    4.9970 H   0  0  0  0  0  0  0  0  0  0  0  0
    4.3424   -0.4205    5.2072 H   0  0  0  0  0  0  0  0  0  0  0  0
    2.9836   -0.8627    6.1874 H   0  0  0  0  0  0  0  0  0  0  0  0
    2.8069    0.2628    4.8508 H   0  0  0  0  0  0  0  0  0  0  0  0
    3.1521   -3.5274    5.7046 H   0  0  0  0  0  0  0  0  0  0  0  0
    5.3689   -2.1173    4.9369 H   0  0  0  0  0  0  0  0  0  0  0  0
    6.1960   -4.9095    5.2882 H   0  0  0  0  0  0  0  0  0  0  0  0
    5.3488   -4.0770    6.6236 H   0  0  0  0  0  0  0  0  0  0  0  0
    6.8135   -3.4261    5.9260 H   0  0  0  0  0  0  0  0  0  0  0  0
    6.0841   -2.6189    2.7968 H   0  0  0  0  0  0  0  0  0  0  0  0
    5.8730   -4.2981    3.0478 H   0  0  0  0  0  0  0  0  0  0  0  0
    5.0641   -2.2725    0.2873 H   0  0  0  0  0  0  0  0  0  0  0  0
    5.7788   -3.8525    0.4888 H   0  0  0  0  0  0  0  0  0  0  0  0
    5.1783   -3.7926   -1.8276 H   0  0  0  0  0  0  0  0  0  0  0  0
    3.8298   -4.6584   -1.1075 H   0  0  0  0  0  0  0  0  0  0  0  0
    2.2168   -2.1353   -3.1142 H   0  0  0  0  0  0  0  0  0  0  0  0
    2.2160   -3.8571   -2.7262 H   0  0  0  0  0  0  0  0  0  0  0  0
    3.5757   -3.1415   -3.6187 H   0  0  0  0  0  0  0  0  0  0  0  0
    2.9330   -1.2752    0.6502 H   0  0  0  0  0  0  0  0  0  0  0  0
    2.0216   -0.3526    1.8068 H   0  0  0  0  0  0  0  0  0  0  0  0
    1.5695   -1.9796    1.4146 H   0  0  0  0  0  0  0  0  0  0  0  0
    4.9611   -0.6408    1.6044 H   0  0  0  0  0  0  0  0  0  0  0  0
    5.3126   -0.6741    3.3001 H   0  0  0  0  0  0  0  0  0  0  0  0
    4.0388    0.3284    2.6914 H   0  0  0  0  0  0  0  0  0  0  0  0
   -0.3485   -5.1098    5.6928 H   0  0  0  0  0  0  0  0  0  0  0  0
   -2.3896   -9.6629    3.2813 H   0  0  0  0  0  0  0  0  0  0  0  0
   -1.8416   -9.0612    1.7022 H   0  0  0  0  0  0  0  0  0  0  0  0
   -2.3223   -7.9288    2.9748 H   0  0  0  0  0  0  0  0  0  0  0  0
   -0.1909  -10.9857    3.6143 H   0  0  0  0  0  0  0  0  0  0  0  0
    1.3313  -10.1572    3.3358 H   0  0  0  0  0  0  0  0  0  0  0  0
    0.2427  -10.4358    1.9771 H   0  0  0  0  0  0  0  0  0  0  0  0
  1  2  2  0
  1 43  1  0
  1 44  1  0
  2 15  1  0
  2  3  1  0
  3 40  1  0
  3  4  1  0
  3 45  1  6
  4  5  1  0
  4 40  1  0
  4 46  1  1
  6  5  1  6
  5 47  1  0
  5 48  1  0
  6  9  1  0
  6 15  1  0
  6  7  1  0
  7 39  1  0
  7  8  1  0
  7 49  1  1
  8  9  1  0
  9 10  1  1
  9 11  1  0
 10 50  1  0
 10 51  1  0
 10 52  1  0
 11 12  1  0
 11 13  1  0
 11 53  1  6
 12 54  1  0
 12 55  1  0
 12 56  1  0
 13 14  1  0
 13 57  1  0
 13 58  1  0
 15 14  1  1
 14 59  1  0
 14 60  1  0
 15 16  1  0
 16 17  1  0
 16 18  1  0
 16 61  1  1
 17 62  1  0
 18 25  1  0
 18 29  1  0
 18 19  1  6
 19 20  1  0
 19 63  1  0
 19 64  1  0
 20 39  1  0
 20 21  1  0
 21 22  1  0
 21 38  1  0
 21 65  1  1
 22 23  1  0
 22 66  1  0
 22 67  1  0
 23 35  1  0
 23 24  1  1
 23 25  1  0
 24 68  1  0
 24 69  1  0
 24 70  1  0
 25 26  1  0
 25 71  1  1
 26 27  1  0
 26 28  1  0
 26 72  1  1
 27 73  1  0
 27 74  1  0
 27 75  1  0
 28 29  1  0
 28 76  1  0
 28 77  1  0
 29 30  1  6
 29 35  1  0
 30 31  1  0
 31 32  1  0
 31 78  1  0
 31 79  1  0
 32 33  1  0
 32 80  1  0
 32 81  1  0
 33 34  1  0
 34 82  1  0
 34 83  1  0
 34 84  1  0
 35 36  1  0
 35 37  1  0
 36 85  1  0
 36 86  1  0
 36 87  1  0
 37 88  1  0
 37 89  1  0
 37 90  1  0
 38 39  1  0
 39 91  1  1
 40 41  1  0
 40 42  1  0
 41 92  1  0
 41 93  1  0
 41 94  1  0
 42 95  1  0
 42 96  1  0
 42 97  1  0
M  END
>  <i_m_ct_stereo_status>  (140) 
1

>  <s_m_source_file>  (140) 
/var/tmp/pbs.5076255.sched01/tmpcsrx8n8z/40wzjmt8mb.sdf

>  <i_m_source_file_index>  (140) 
20

>  <i_lp_mmshare_version>  (140) 
48012

>  <i_f3d_flags>  (140) 
0

>  <s_epik_input>  (140) 
W0NIM11DMShbQ0gzXSlbQ0BASF0oW0NIMl0yKVtDQEhdMUMoPVtDSDJdKVtDQEBdMyhbQ0BdMjQ1KVtDSDJdW0NIMl1bQ0BIXShbQ0gzXSlbQ0BAXTUoW0NIM10pT1tDQEhdNFtDQEBIXTZON1tDQEBIXShPNilbQ0gyXVtDQEBdOChbQ0gzXSlbQ0BIXTlbQ0BdKFtDSDJdNykoW0NAQEhdM1tPSF0pW0NAQF0oQzgoW0NIM10pW0NIM10pKFtDSDJdW0NAQEhdOVtDSDNdKU9bQ0gyXVtDSDJdT1tDSDNd

>  <s_epik_cmdline>  (140) 
J2VwaWtfcHl0aG9uJywgJy1waHQnLCAnMi4wJywgJy1waCcsICc3LjAnLCAnLXRuJywgJzgnLCAnLW1hJywgJzIwMCcsICctaW1hZScsICc8aW5maWxlLm1hZT4nLCAnLW9tYWUnLCAnPG91dGZpbGUubWFlPic=

>  <r_lp_tautomer_probability>  (140) 
1

>  <r_epik_Ionization_Penalty>  (140) 
0.000245619

>  <r_epik_Ionization_Penalty_Charging>  (140) 
0

>  <r_epik_Ionization_Penalty_Neutral>  (140) 
0.000245619

>  <r_epik_State_Penalty>  (140) 
-0

>  <r_epik_Charging_Adjusted_Penalty>  (140) 
0

>  <i_epik_Tot_Q>  (140) 
0

>  <i_epik_Tot_abs_Q>  (140) 
0

>  <s_epik_Chemistry_Notes>  (140) 
This compound contains an acetal/aminal-like group ( X-CH(R)-Y where X, Y are N, S, or O) that may be acid/base labile, releasing an aldehyde.

>  <s_lp_Force_Field>  (140) 
OPLS3e

>  <r_lp_Energy>  (140) 
204.888

>  <b_lp_Chiralities_Consistent>  (140) 
1

>  <s_lp_Variant>  (140) 
40:0-1

>  <s_i_glide_gridfile>  (140) 
pfpi4k_grid

>  <i_i_glide_lignum>  (140) 
20

>  <i_i_glide_rotatable_bonds>  (140) 
5

>  <r_i_docking_score>  (140) 
-1.53178

>  <r_i_glide_ligand_efficiency>  (140) 
-0.0364709

>  <r_i_glide_ligand_efficiency_sa>  (140) 
-0.126774

>  <r_i_glide_ligand_efficiency_ln>  (140) 
-0.323318

>  <r_i_glide_gscore>  (140) 
-1.53178

>  <r_i_glide_lipo>  (140) 
-0.221659

>  <r_i_glide_hbond>  (140) 
0

>  <r_i_glide_metal>  (140) 
-0

>  <r_i_glide_rewards>  (140) 
-0.019683

>  <r_i_glide_evdw>  (140) 
-26.4654

>  <r_i_glide_ecoul>  (140) 
-0.325052

>  <r_i_glide_erotb>  (140) 
0.0842076

>  <r_i_glide_esite>  (140) 
-0.00261198

>  <r_i_glide_emodel>  (140) 
-28.4544

>  <r_i_glide_energy>  (140) 
-26.7905

>  <r_i_glide_einternal>  (140) 
0.841653

>  <r_i_glide_intrahb_reward>  (140) 
-0

>  <i_i_glide_confnum>  (140) 
3

>  <i_i_glide_posenum>  (140) 
15

>  <r_i_glide_eff_state_penalty>  (140) 
0

>  <ligand_id>  (140) 
40

>  <original_smiles>  (140) 
C=C1C2C(CC34C5OC3(C)C(C)CCC14C(O)C13CN4C(CC6(C)C1C(C)CC3(OCCOC)C6(C)C)OC54)C2(C)C

>  <smiles>  (140) 
[H]OC1([H])C23C(=C([H])[H])C4([H])C([H])(C([H])([H])C25C([H])(OC5(C([H])([H])[H])C([H])(C([H])([H])[H])C([H])([H])C3([H])[H])C2([H])OC3([H])N2C([H])([H])C12C1([H])C([H])(C([H])([H])[H])C([H])([H])C2(OC([H])([H])C([H])([H])OC([H])([H])[H])C(C([H])([H])[H])(C([H])([H])[H])C1(C([H])([H])[H])C3([H])[H])C4(C([H])([H])[H])C([H])([H])[H]

$$$$
41:0:0
     RDKit          3D

 40 42  0  0  1  0  0  0  0  0999 V2000
    4.7256   -3.2589    2.9628 C   0  0  0  0  0  0  0  0  0  0  0  0
    4.0531   -2.7927    1.8954 C   0  0  0  0  0  0  0  0  0  0  0  0
    4.0299   -1.2926    1.5733 C   0  0  0  0  0  0  0  0  0  0  0  0
    5.0371   -0.7654    0.5037 C   0  0  1  0  0  0  0  0  0  0  0  0
    6.4902   -1.0745    0.8606 C   0  0  0  0  0  0  0  0  0  0  0  0
    6.7989   -2.3324    0.0903 C   0  0  0  0  0  0  0  0  0  0  0  0
    7.8186   -2.9980    0.2697 O   0  0  0  0  0  0  0  0  0  0  0  0
    5.7258   -2.6682   -0.9409 C   0  0  1  0  0  0  0  0  0  0  0  0
    6.3829   -2.8202   -2.1829 O   0  0  0  0  0  0  0  0  0  0  0  0
    5.0017   -4.0060   -0.6180 C   0  0  0  0  0  0  0  0  0  0  0  0
    3.5636   -3.8405   -0.3565 N   0  0  0  0  0  0  0  0  0  0  0  0
    3.1734   -3.7242    1.0572 C   0  0  0  0  0  0  0  0  0  0  0  0
    2.6375   -3.7233   -1.3468 C   0  0  0  0  0  0  0  0  0  0  0  0
    1.4372   -3.8678   -1.1345 O   0  0  0  0  0  0  0  0  0  0  0  0
    3.0747   -3.4257   -2.8087 C   0  0  0  0  0  0  0  0  0  0  0  0
    2.9124   -1.9602   -3.2770 C   0  0  0  0  0  0  0  0  0  0  0  0
    4.2129   -1.1514   -3.4301 C   0  0  0  0  0  0  0  0  0  0  0  0
    4.8043   -0.5346   -2.1422 C   0  0  0  0  0  0  0  0  0  0  0  0
    4.7920   -1.4082   -0.8853 C   0  0  2  0  0  0  0  0  0  0  0  0
    4.7041   -4.3055    3.2264 H   0  0  0  0  0  0  0  0  0  0  0  0
    5.3022   -2.5974    3.5934 H   0  0  0  0  0  0  0  0  0  0  0  0
    3.0108   -1.0190    1.2909 H   0  0  0  0  0  0  0  0  0  0  0  0
    4.2192   -0.7512    2.5037 H   0  0  0  0  0  0  0  0  0  0  0  0
    4.9045    0.3163    0.4551 H   0  0  0  0  0  0  0  0  0  0  0  0
    7.1444   -0.2892    0.4885 H   0  0  0  0  0  0  0  0  0  0  0  0
    6.6489   -1.2024    1.9285 H   0  0  0  0  0  0  0  0  0  0  0  0
    5.7615   -3.1333   -2.8205 H   0  0  0  0  0  0  0  0  0  0  0  0
    5.1403   -4.7475   -1.4078 H   0  0  0  0  0  0  0  0  0  0  0  0
    5.4594   -4.4975    0.2397 H   0  0  0  0  0  0  0  0  0  0  0  0
    3.1776   -4.7302    1.4781 H   0  0  0  0  0  0  0  0  0  0  0  0
    2.1572   -3.3539    1.1842 H   0  0  0  0  0  0  0  0  0  0  0  0
    4.0536   -3.8296   -3.0630 H   0  0  0  0  0  0  0  0  0  0  0  0
    2.3914   -4.0040   -3.4295 H   0  0  0  0  0  0  0  0  0  0  0  0
    2.4362   -1.9847   -4.2595 H   0  0  0  0  0  0  0  0  0  0  0  0
    2.2144   -1.4273   -2.6312 H   0  0  0  0  0  0  0  0  0  0  0  0
    4.9696   -1.7418   -3.9437 H   0  0  0  0  0  0  0  0  0  0  0  0
    4.0094   -0.3174   -4.1020 H   0  0  0  0  0  0  0  0  0  0  0  0
    5.8056   -0.1537   -2.3188 H   0  0  0  0  0  0  0  0  0  0  0  0
    4.2226    0.3502   -1.9400 H   0  0  0  0  0  0  0  0  0  0  0  0
    3.7283   -1.5522   -0.8243 H   0  0  0  0  0  0  0  0  0  0  0  0
  1  2  2  0
  1 20  1  0
  1 21  1  0
  2 12  1  0
  2  3  1  0
  3  4  1  0
  3 22  1  0
  3 23  1  0
  4 19  1  0
  4  5  1  0
  4 24  1  6
  5  6  1  0
  5 25  1  0
  5 26  1  0
  6  7  2  0
  6  8  1  0
  8 19  1  0
  8  9  1  6
  8 10  1  0
  9 27  1  0
 10 11  1  0
 10 28  1  0
 10 29  1  0
 11 12  1  0
 11 13  1  0
 12 30  1  0
 12 31  1  0
 13 14  2  0
 13 15  1  0
 15 16  1  0
 15 32  1  0
 15 33  1  0
 16 17  1  0
 16 34  1  0
 16 35  1  0
 17 18  1  0
 17 36  1  0
 17 37  1  0
 18 19  1  0
 18 38  1  0
 18 39  1  0
 19 40  1  1
M  END
>  <i_m_ct_stereo_status>  (141) 
1

>  <s_m_source_file>  (141) 
/var/tmp/pbs.5076255.sched01/tmpcsrx8n8z/40wzjmt8mb.sdf

>  <i_m_source_file_index>  (141) 
21

>  <i_lp_mmshare_version>  (141) 
48012

>  <i_f3d_flags>  (141) 
0

>  <s_epik_input>  (141) 
Tz1DMVtDSDJdW0NAQEhdKFtDQEBIXTJbQ0BAXTEzW09IXSlbQ0gyXUMoPVtDSDJdKVtDSDJdTihbQ0gyXTMpQyg9TylbQ0gyXVtDSDJdW0NIMl1bQ0gyXTI=

>  <s_epik_cmdline>  (141) 
J2VwaWtfcHl0aG9uJywgJy1waHQnLCAnMi4wJywgJy1waCcsICc3LjAnLCAnLXRuJywgJzgnLCAnLW1hJywgJzIwMCcsICctaW1hZScsICc8aW5maWxlLm1hZT4nLCAnLW9tYWUnLCAnPG91dGZpbGUubWFlPic=

>  <r_lp_tautomer_probability>  (141) 
1

>  <r_epik_Ionization_Penalty>  (141) 
2.1848e-08

>  <r_epik_Ionization_Penalty_Charging>  (141) 
0

>  <r_epik_Ionization_Penalty_Neutral>  (141) 
2.1848e-08

>  <r_epik_State_Penalty>  (141) 
-0

>  <r_epik_Charging_Adjusted_Penalty>  (141) 
0

>  <i_epik_Tot_Q>  (141) 
0

>  <i_epik_Tot_abs_Q>  (141) 
0

>  <s_lp_Force_Field>  (141) 
OPLS3e

>  <r_lp_Energy>  (141) 
37.0309

>  <b_lp_Chiralities_Consistent>  (141) 
1

>  <s_lp_Variant>  (141) 
41:0-1

>  <s_i_glide_gridfile>  (141) 
pfpi4k_grid

>  <i_i_glide_lignum>  (141) 
21

>  <i_i_glide_rotatable_bonds>  (141) 
1

>  <r_i_docking_score>  (141) 
-3.44352

>  <r_i_glide_ligand_efficiency>  (141) 
-0.181238

>  <r_i_glide_ligand_efficiency_sa>  (141) 
-0.483615

>  <r_i_glide_ligand_efficiency_ln>  (141) 
-0.873005

>  <r_i_glide_gscore>  (141) 
-3.44352

>  <r_i_glide_lipo>  (141) 
-0.507926

>  <r_i_glide_hbond>  (141) 
-0.0291522

>  <r_i_glide_metal>  (141) 
-0

>  <r_i_glide_rewards>  (141) 
-1.66176

>  <r_i_glide_evdw>  (141) 
-17.0249

>  <r_i_glide_ecoul>  (141) 
-2.56927

>  <r_i_glide_erotb>  (141) 
0

>  <r_i_glide_esite>  (141) 
-0.0080367

>  <r_i_glide_emodel>  (141) 
-23.1018

>  <r_i_glide_energy>  (141) 
-19.5942

>  <r_i_glide_einternal>  (141) 
0.0673951

>  <r_i_glide_intrahb_reward>  (141) 
-0

>  <i_i_glide_confnum>  (141) 
2

>  <i_i_glide_posenum>  (141) 
17

>  <r_i_glide_eff_state_penalty>  (141) 
0

>  <ligand_id>  (141) 
41

>  <original_smiles>  (141) 
C=C1CC2CC(=O)C3(O)CN(C1)C(=O)CCCCC23

>  <smiles>  (141) 
[H]OC12C(=O)C([H])([H])C3([H])C([H])([H])C(=C([H])[H])C([H])([H])N(C(=O)C([H])([H])C([H])([H])C([H])([H])C([H])([H])C13[H])C2([H])[H]

$$$$
41:0:1
     RDKit          3D

 40 42  0  0  1  0  0  0  0  0999 V2000
    4.8288   -3.5207    2.8502 C   0  0  0  0  0  0  0  0  0  0  0  0
    4.1295   -2.9989    1.8273 C   0  0  0  0  0  0  0  0  0  0  0  0
    4.1178   -1.4883    1.5645 C   0  0  0  0  0  0  0  0  0  0  0  0
    5.1043   -0.9252    0.4908 C   0  0  1  0  0  0  0  0  0  0  0  0
    6.5595   -1.2668    0.8098 C   0  0  0  0  0  0  0  0  0  0  0  0
    6.8335   -2.4986   -0.0304 C   0  0  0  0  0  0  0  0  0  0  0  0
    7.8563   -3.1816    0.0813 O   0  0  0  0  0  0  0  0  0  0  0  0
    5.7226   -2.7761   -1.0445 C   0  0  1  0  0  0  0  0  0  0  0  0
    6.3386   -2.9006   -2.3106 O   0  0  0  0  0  0  0  0  0  0  0  0
    4.9949   -4.1151   -0.7527 C   0  0  0  0  0  0  0  0  0  0  0  0
    3.5662   -3.9332   -0.4521 N   0  0  0  0  0  0  0  0  0  0  0  0
    3.2194   -3.8852    0.9779 C   0  0  0  0  0  0  0  0  0  0  0  0
    2.6218   -3.7472   -1.4106 C   0  0  0  0  0  0  0  0  0  0  0  0
    1.4203   -3.8514   -1.1693 O   0  0  0  0  0  0  0  0  0  0  0  0
    3.0334   -3.4176   -2.8742 C   0  0  0  0  0  0  0  0  0  0  0  0
    2.8780   -1.9375   -3.2827 C   0  0  0  0  0  0  0  0  0  0  0  0
    4.1910   -1.1452   -3.4355 C   0  0  0  0  0  0  0  0  0  0  0  0
    4.8180   -0.5974   -2.1351 C   0  0  0  0  0  0  0  0  0  0  0  0
    4.8185   -1.5066   -0.9079 C   0  0  2  0  0  0  0  0  0  0  0  0
    4.8056   -4.5797    3.0651 H   0  0  0  0  0  0  0  0  0  0  0  0
    5.4288   -2.8937    3.4912 H   0  0  0  0  0  0  0  0  0  0  0  0
    3.0924   -1.1971    1.3176 H   0  0  0  0  0  0  0  0  0  0  0  0
    4.3337   -0.9924    2.5143 H   0  0  0  0  0  0  0  0  0  0  0  0
    4.9828    0.1559    0.4691 H   0  0  0  0  0  0  0  0  0  0  0  0
    7.2241   -0.4695    0.4799 H   0  0  0  0  0  0  0  0  0  0  0  0
    6.7367   -1.4494    1.8705 H   0  0  0  0  0  0  0  0  0  0  0  0
    6.8844   -3.6744   -2.3146 H   0  0  0  0  0  0  0  0  0  0  0  0
    5.0938   -4.8248   -1.5771 H   0  0  0  0  0  0  0  0  0  0  0  0
    5.4752   -4.6572    0.0683 H   0  0  0  0  0  0  0  0  0  0  0  0
    3.2379   -4.9132    1.3333 H   0  0  0  0  0  0  0  0  0  0  0  0
    2.2052   -3.5254    1.1520 H   0  0  0  0  0  0  0  0  0  0  0  0
    4.0074   -3.8118   -3.1668 H   0  0  0  0  0  0  0  0  0  0  0  0
    2.3327   -3.9699   -3.4949 H   0  0  0  0  0  0  0  0  0  0  0  0
    2.3658   -1.9135   -4.2470 H   0  0  0  0  0  0  0  0  0  0  0  0
    2.2252   -1.4207   -2.5803 H   0  0  0  0  0  0  0  0  0  0  0  0
    4.9259   -1.7273   -3.9888 H   0  0  0  0  0  0  0  0  0  0  0  0
    3.9706   -0.2755   -4.0575 H   0  0  0  0  0  0  0  0  0  0  0  0
    5.8084   -0.2074   -2.3245 H   0  0  0  0  0  0  0  0  0  0  0  0
    4.2239    0.2692   -1.8940 H   0  0  0  0  0  0  0  0  0  0  0  0
    3.7574   -1.6301   -0.8303 H   0  0  0  0  0  0  0  0  0  0  0  0
  1  2  2  0
  1 20  1  0
  1 21  1  0
  2 12  1  0
  2  3  1  0
  3  4  1  0
  3 22  1  0
  3 23  1  0
  4 19  1  0
  4  5  1  0
  4 24  1  6
  5  6  1  0
  5 25  1  0
  5 26  1  0
  6  7  2  0
  6  8  1  0
  8 19  1  0
  8  9  1  6
  8 10  1  0
  9 27  1  0
 10 11  1  0
 10 28  1  0
 10 29  1  0
 11 12  1  0
 11 13  1  0
 12 30  1  0
 12 31  1  0
 13 14  2  0
 13 15  1  0
 15 16  1  0
 15 32  1  0
 15 33  1  0
 16 17  1  0
 16 34  1  0
 16 35  1  0
 17 18  1  0
 17 36  1  0
 17 37  1  0
 18 19  1  0
 18 38  1  0
 18 39  1  0
 19 40  1  1
M  END
>  <i_m_ct_stereo_status>  (142) 
1

>  <s_m_source_file>  (142) 
/var/tmp/pbs.5076255.sched01/tmpcsrx8n8z/40wzjmt8mb.sdf

>  <i_m_source_file_index>  (142) 
21

>  <i_lp_mmshare_version>  (142) 
48012

>  <i_f3d_flags>  (142) 
0

>  <s_epik_input>  (142) 
Tz1DMVtDSDJdW0NAQEhdKFtDQEBIXTJbQ0BAXTEzW09IXSlbQ0gyXUMoPVtDSDJdKVtDSDJdTihbQ0gyXTMpQyg9TylbQ0gyXVtDSDJdW0NIMl1bQ0gyXTI=

>  <s_epik_cmdline>  (142) 
J2VwaWtfcHl0aG9uJywgJy1waHQnLCAnMi4wJywgJy1waCcsICc3LjAnLCAnLXRuJywgJzgnLCAnLW1hJywgJzIwMCcsICctaW1hZScsICc8aW5maWxlLm1hZT4nLCAnLW9tYWUnLCAnPG91dGZpbGUubWFlPic=

>  <r_lp_tautomer_probability>  (142) 
1

>  <r_epik_Ionization_Penalty>  (142) 
2.1848e-08

>  <r_epik_Ionization_Penalty_Charging>  (142) 
0

>  <r_epik_Ionization_Penalty_Neutral>  (142) 
2.1848e-08

>  <r_epik_State_Penalty>  (142) 
-0

>  <r_epik_Charging_Adjusted_Penalty>  (142) 
0

>  <i_epik_Tot_Q>  (142) 
0

>  <i_epik_Tot_abs_Q>  (142) 
0

>  <s_lp_Force_Field>  (142) 
OPLS3e

>  <r_lp_Energy>  (142) 
37.0309

>  <b_lp_Chiralities_Consistent>  (142) 
1

>  <s_lp_Variant>  (142) 
41:0-1

>  <s_i_glide_gridfile>  (142) 
pfpi4k_grid

>  <i_i_glide_lignum>  (142) 
21

>  <i_i_glide_rotatable_bonds>  (142) 
1

>  <r_i_docking_score>  (142) 
-3.44284

>  <r_i_glide_ligand_efficiency>  (142) 
-0.181202

>  <r_i_glide_ligand_efficiency_sa>  (142) 
-0.48352

>  <r_i_glide_ligand_efficiency_ln>  (142) 
-0.872834

>  <r_i_glide_gscore>  (142) 
-3.44284

>  <r_i_glide_lipo>  (142) 
-0.476151

>  <r_i_glide_hbond>  (142) 
-0.0310111

>  <r_i_glide_metal>  (142) 
-0

>  <r_i_glide_rewards>  (142) 
-1.65793

>  <r_i_glide_evdw>  (142) 
-17.5365

>  <r_i_glide_ecoul>  (142) 
-2.58299

>  <r_i_glide_erotb>  (142) 
0

>  <r_i_glide_esite>  (142) 
-0.0134815

>  <r_i_glide_emodel>  (142) 
-22.7673

>  <r_i_glide_energy>  (142) 
-20.1195

>  <r_i_glide_einternal>  (142) 
1.70098

>  <r_i_glide_intrahb_reward>  (142) 
-0

>  <i_i_glide_confnum>  (142) 
1

>  <i_i_glide_posenum>  (142) 
21

>  <r_i_glide_eff_state_penalty>  (142) 
0

>  <ligand_id>  (142) 
41

>  <original_smiles>  (142) 
C=C1CC2CC(=O)C3(O)CN(C1)C(=O)CCCCC23

>  <smiles>  (142) 
[H]OC12C(=O)C([H])([H])C3([H])C([H])([H])C(=C([H])[H])C([H])([H])N(C(=O)C([H])([H])C([H])([H])C([H])([H])C([H])([H])C13[H])C2([H])[H]

$$$$
41:1:0
     RDKit          3D

 40 42  0  0  1  0  0  0  0  0999 V2000
    3.8194   -1.4798   -2.0980 C   0  0  0  0  0  0  0  0  0  0  0  0
    3.9874   -2.7000   -1.5545 C   0  0  0  0  0  0  0  0  0  0  0  0
    5.3085   -3.4519   -1.6887 C   0  0  0  0  0  0  0  0  0  0  0  0
    6.3400   -3.3086   -0.5295 C   0  0  1  0  0  0  0  0  0  0  0  0
    6.5642   -1.8552   -0.0811 C   0  0  0  0  0  0  0  0  0  0  0  0
    5.8329   -1.7437    1.2490 C   0  0  0  0  0  0  0  0  0  0  0  0
    5.7904   -0.7057    1.9095 O   0  0  0  0  0  0  0  0  0  0  0  0
    5.1641   -3.0659    1.6419 C   0  0  1  0  0  0  0  0  0  0  0  0
    5.3629   -3.2837    3.0261 O   0  0  0  0  0  0  0  0  0  0  0  0
    3.6277   -2.9444    1.3835 C   0  0  0  0  0  0  0  0  0  0  0  0
    3.0564   -3.9252    0.4534 N   0  0  0  0  0  0  0  0  0  0  0  0
    2.8201   -3.4450   -0.9145 C   0  0  0  0  0  0  0  0  0  0  0  0
    2.5508   -5.1161    0.8625 C   0  0  0  0  0  0  0  0  0  0  0  0
    1.8012   -5.7901    0.1540 O   0  0  0  0  0  0  0  0  0  0  0  0
    2.9175   -5.6901    2.2412 C   0  0  0  0  0  0  0  0  0  0  0  0
    3.9800   -6.8036    2.1718 C   0  0  0  0  0  0  0  0  0  0  0  0
    5.4332   -6.3293    1.9629 C   0  0  0  0  0  0  0  0  0  0  0  0
    5.6997   -5.5615    0.6473 C   0  0  0  0  0  0  0  0  0  0  0  0
    6.0255   -4.0490    0.7927 C   0  0  1  0  0  0  0  0  0  0  0  0
    2.8650   -0.9741   -2.0491 H   0  0  0  0  0  0  0  0  0  0  0  0
    4.6258   -0.9718   -2.6063 H   0  0  0  0  0  0  0  0  0  0  0  0
    5.0904   -4.4993   -1.8997 H   0  0  0  0  0  0  0  0  0  0  0  0
    5.7900   -3.0823   -2.5972 H   0  0  0  0  0  0  0  0  0  0  0  0
    7.2853   -3.6963   -0.9096 H   0  0  0  0  0  0  0  0  0  0  0  0
    7.6197   -1.6560    0.0900 H   0  0  0  0  0  0  0  0  0  0  0  0
    6.1835   -1.1218   -0.7866 H   0  0  0  0  0  0  0  0  0  0  0  0
    4.9511   -4.0969    3.2754 H   0  0  0  0  0  0  0  0  0  0  0  0
    3.0639   -2.9292    2.3148 H   0  0  0  0  0  0  0  0  0  0  0  0
    3.3820   -1.9552    0.9950 H   0  0  0  0  0  0  0  0  0  0  0  0
    1.9490   -2.7982   -0.8807 H   0  0  0  0  0  0  0  0  0  0  0  0
    2.5505   -4.2490   -1.5979 H   0  0  0  0  0  0  0  0  0  0  0  0
    3.1979   -4.9442    2.9790 H   0  0  0  0  0  0  0  0  0  0  0  0
    1.9989   -6.1335    2.6261 H   0  0  0  0  0  0  0  0  0  0  0  0
    3.9424   -7.3623    3.1075 H   0  0  0  0  0  0  0  0  0  0  0  0
    3.7166   -7.5235    1.3942 H   0  0  0  0  0  0  0  0  0  0  0  0
    5.7836   -5.7666    2.8253 H   0  0  0  0  0  0  0  0  0  0  0  0
    6.0596   -7.2238    1.9554 H   0  0  0  0  0  0  0  0  0  0  0  0
    6.5843   -6.0131    0.1950 H   0  0  0  0  0  0  0  0  0  0  0  0
    4.9237   -5.7666   -0.0888 H   0  0  0  0  0  0  0  0  0  0  0  0
    6.9832   -4.0750    1.3178 H   0  0  0  0  0  0  0  0  0  0  0  0
  1  2  2  0
  1 20  1  0
  1 21  1  0
  2 12  1  0
  2  3  1  0
  3  4  1  0
  3 22  1  0
  3 23  1  0
  4 19  1  0
  4  5  1  0
  4 24  1  6
  5  6  1  0
  5 25  1  0
  5 26  1  0
  6  7  2  0
  6  8  1  0
  8 19  1  0
  8  9  1  1
  8 10  1  0
  9 27  1  0
 10 11  1  0
 10 28  1  0
 10 29  1  0
 11 12  1  0
 11 13  1  0
 12 30  1  0
 12 31  1  0
 13 14  2  0
 13 15  1  0
 15 16  1  0
 15 32  1  0
 15 33  1  0
 16 17  1  0
 16 34  1  0
 16 35  1  0
 17 18  1  0
 17 36  1  0
 17 37  1  0
 18 19  1  0
 18 38  1  0
 18 39  1  0
 19 40  1  1
M  END
>  <i_m_ct_stereo_status>  (143) 
1

>  <s_m_source_file>  (143) 
/var/tmp/pbs.5076255.sched01/tmpcsrx8n8z/40wzjmt8mb.sdf

>  <i_m_source_file_index>  (143) 
22

>  <i_lp_mmshare_version>  (143) 
48012

>  <i_f3d_flags>  (143) 
0

>  <s_epik_input>  (143) 
Tz1DMVtDSDJdW0NAQEhdKFtDQEBIXTJbQ0BAXTEzW09IXSlbQ0gyXUMoPVtDSDJdKVtDSDJdTihbQ0gyXTMpQyg9TylbQ0gyXVtDSDJdW0NIMl1bQ0gyXTI=

>  <s_epik_cmdline>  (143) 
J2VwaWtfcHl0aG9uJywgJy1waHQnLCAnMi4wJywgJy1waCcsICc3LjAnLCAnLXRuJywgJzgnLCAnLW1hJywgJzIwMCcsICctaW1hZScsICc8aW5maWxlLm1hZT4nLCAnLW9tYWUnLCAnPG91dGZpbGUubWFlPic=

>  <r_lp_tautomer_probability>  (143) 
1

>  <r_epik_Ionization_Penalty>  (143) 
2.1848e-08

>  <r_epik_Ionization_Penalty_Charging>  (143) 
0

>  <r_epik_Ionization_Penalty_Neutral>  (143) 
2.1848e-08

>  <r_epik_State_Penalty>  (143) 
-0

>  <r_epik_Charging_Adjusted_Penalty>  (143) 
0

>  <i_epik_Tot_Q>  (143) 
0

>  <i_epik_Tot_abs_Q>  (143) 
0

>  <s_lp_Force_Field>  (143) 
OPLS3e

>  <r_lp_Energy>  (143) 
30.49

>  <b_lp_Chiralities_Consistent>  (143) 
1

>  <s_lp_Variant>  (143) 
41:0-2

>  <s_i_glide_gridfile>  (143) 
pfpi4k_grid

>  <i_i_glide_lignum>  (143) 
22

>  <i_i_glide_rotatable_bonds>  (143) 
1

>  <r_i_docking_score>  (143) 
-3.90436

>  <r_i_glide_ligand_efficiency>  (143) 
-0.205492

>  <r_i_glide_ligand_efficiency_sa>  (143) 
-0.548336

>  <r_i_glide_ligand_efficiency_ln>  (143) 
-0.989838

>  <r_i_glide_gscore>  (143) 
-3.90436

>  <r_i_glide_lipo>  (143) 
-0.495748

>  <r_i_glide_hbond>  (143) 
-0.0556869

>  <r_i_glide_metal>  (143) 
-0

>  <r_i_glide_rewards>  (143) 
-1.80705

>  <r_i_glide_evdw>  (143) 
-22.9422

>  <r_i_glide_ecoul>  (143) 
-2.33243

>  <r_i_glide_erotb>  (143) 
0

>  <r_i_glide_esite>  (143) 
-0.0488971

>  <r_i_glide_emodel>  (143) 
-31.1856

>  <r_i_glide_energy>  (143) 
-25.2747

>  <r_i_glide_einternal>  (143) 
7.86975e-05

>  <r_i_glide_intrahb_reward>  (143) 
-0

>  <i_i_glide_confnum>  (143) 
1

>  <i_i_glide_posenum>  (143) 
36

>  <r_i_glide_eff_state_penalty>  (143) 
0

>  <ligand_id>  (143) 
41

>  <original_smiles>  (143) 
C=C1CC2CC(=O)C3(O)CN(C1)C(=O)CCCCC23

>  <smiles>  (143) 
[H]OC12C(=O)C([H])([H])C3([H])C([H])([H])C(=C([H])[H])C([H])([H])N(C(=O)C([H])([H])C([H])([H])C([H])([H])C([H])([H])C13[H])C2([H])[H]

$$$$
41:1:1
     RDKit          3D

 40 42  0  0  1  0  0  0  0  0999 V2000
    3.7032   -4.9552    2.3509 C   0  0  0  0  0  0  0  0  0  0  0  0
    3.4486   -4.0132    1.4253 C   0  0  0  0  0  0  0  0  0  0  0  0
    3.6417   -2.5301    1.7200 C   0  0  0  0  0  0  0  0  0  0  0  0
    5.0026   -1.9030    1.3057 C   0  0  1  0  0  0  0  0  0  0  0  0
    6.2051   -2.7387    1.7146 C   0  0  0  0  0  0  0  0  0  0  0  0
    6.7341   -3.3538    0.4365 C   0  0  0  0  0  0  0  0  0  0  0  0
    7.7104   -4.0815    0.3919 O   0  0  0  0  0  0  0  0  0  0  0  0
    5.8860   -2.9593   -0.7710 C   0  0  1  0  0  0  0  0  0  0  0  0
    6.7321   -2.6569   -1.8636 O   0  0  0  0  0  0  0  0  0  0  0  0
    4.9592   -4.1492   -1.1364 C   0  0  0  0  0  0  0  0  0  0  0  0
    3.5270   -3.8477   -1.0806 N   0  0  0  0  0  0  0  0  0  0  0  0
    2.8234   -4.3739    0.0925 C   0  0  0  0  0  0  0  0  0  0  0  0
    2.8286   -3.4166   -2.1508 C   0  0  0  0  0  0  0  0  0  0  0  0
    1.5983   -3.4520   -2.1619 O   0  0  0  0  0  0  0  0  0  0  0  0
    3.5378   -2.8151   -3.3784 C   0  0  0  0  0  0  0  0  0  0  0  0
    3.4616   -1.2836   -3.4075 C   0  0  0  0  0  0  0  0  0  0  0  0
    4.3817   -0.5627   -2.4111 C   0  0  0  0  0  0  0  0  0  0  0  0
    4.1640   -0.8665   -0.9105 C   0  0  0  0  0  0  0  0  0  0  0  0
    5.2686   -1.6565   -0.1953 C   0  0  1  0  0  0  0  0  0  0  0  0
    3.5096   -6.0020    2.1566 H   0  0  0  0  0  0  0  0  0  0  0  0
    4.0991   -4.6961    3.3250 H   0  0  0  0  0  0  0  0  0  0  0  0
    2.8002   -1.9662    1.3137 H   0  0  0  0  0  0  0  0  0  0  0  0
    3.5514   -2.4126    2.8020 H   0  0  0  0  0  0  0  0  0  0  0  0
    5.0620   -0.9424    1.8215 H   0  0  0  0  0  0  0  0  0  0  0  0
    6.9899   -2.0726    2.0711 H   0  0  0  0  0  0  0  0  0  0  0  0
    5.9890   -3.4908    2.4712 H   0  0  0  0  0  0  0  0  0  0  0  0
    6.1992   -2.6333   -2.6470 H   0  0  0  0  0  0  0  0  0  0  0  0
    5.2197   -4.5885   -2.0997 H   0  0  0  0  0  0  0  0  0  0  0  0
    5.1373   -4.9988   -0.4753 H   0  0  0  0  0  0  0  0  0  0  0  0
    2.7248   -5.4545   -0.0153 H   0  0  0  0  0  0  0  0  0  0  0  0
    1.8149   -3.9889    0.1638 H   0  0  0  0  0  0  0  0  0  0  0  0
    4.5667   -3.1360   -3.4970 H   0  0  0  0  0  0  0  0  0  0  0  0
    3.0209   -3.1984   -4.2554 H   0  0  0  0  0  0  0  0  0  0  0  0
    3.7041   -0.9386   -4.4134 H   0  0  0  0  0  0  0  0  0  0  0  0
    2.4377   -0.9633   -3.2308 H   0  0  0  0  0  0  0  0  0  0  0  0
    5.4143   -0.7016   -2.6830 H   0  0  0  0  0  0  0  0  0  0  0  0
    4.2179    0.5019   -2.5666 H   0  0  0  0  0  0  0  0  0  0  0  0
    4.1572    0.0799   -0.3571 H   0  0  0  0  0  0  0  0  0  0  0  0
    3.1581   -1.2505   -0.7419 H   0  0  0  0  0  0  0  0  0  0  0  0
    6.0902   -0.9328   -0.2011 H   0  0  0  0  0  0  0  0  0  0  0  0
  1  2  2  0
  1 20  1  0
  1 21  1  0
  2 12  1  0
  2  3  1  0
  3  4  1  0
  3 22  1  0
  3 23  1  0
  4 19  1  0
  4  5  1  0
  4 24  1  1
  5  6  1  0
  5 25  1  0
  5 26  1  0
  6  7  2  0
  6  8  1  0
  8 19  1  0
  8  9  1  6
  8 10  1  0
  9 27  1  0
 10 11  1  0
 10 28  1  0
 10 29  1  0
 11 12  1  0
 11 13  1  0
 12 30  1  0
 12 31  1  0
 13 14  2  0
 13 15  1  0
 15 16  1  0
 15 32  1  0
 15 33  1  0
 16 17  1  0
 16 34  1  0
 16 35  1  0
 17 18  1  0
 17 36  1  0
 17 37  1  0
 18 19  1  0
 18 38  1  0
 18 39  1  0
 19 40  1  1
M  END
>  <i_m_ct_stereo_status>  (144) 
1

>  <s_m_source_file>  (144) 
/var/tmp/pbs.5076255.sched01/tmpcsrx8n8z/40wzjmt8mb.sdf

>  <i_m_source_file_index>  (144) 
22

>  <i_lp_mmshare_version>  (144) 
48012

>  <i_f3d_flags>  (144) 
0

>  <s_epik_input>  (144) 
Tz1DMVtDSDJdW0NAQEhdKFtDQEBIXTJbQ0BAXTEzW09IXSlbQ0gyXUMoPVtDSDJdKVtDSDJdTihbQ0gyXTMpQyg9TylbQ0gyXVtDSDJdW0NIMl1bQ0gyXTI=

>  <s_epik_cmdline>  (144) 
J2VwaWtfcHl0aG9uJywgJy1waHQnLCAnMi4wJywgJy1waCcsICc3LjAnLCAnLXRuJywgJzgnLCAnLW1hJywgJzIwMCcsICctaW1hZScsICc8aW5maWxlLm1hZT4nLCAnLW9tYWUnLCAnPG91dGZpbGUubWFlPic=

>  <r_lp_tautomer_probability>  (144) 
1

>  <r_epik_Ionization_Penalty>  (144) 
2.1848e-08

>  <r_epik_Ionization_Penalty_Charging>  (144) 
0

>  <r_epik_Ionization_Penalty_Neutral>  (144) 
2.1848e-08

>  <r_epik_State_Penalty>  (144) 
-0

>  <r_epik_Charging_Adjusted_Penalty>  (144) 
0

>  <i_epik_Tot_Q>  (144) 
0

>  <i_epik_Tot_abs_Q>  (144) 
0

>  <s_lp_Force_Field>  (144) 
OPLS3e

>  <r_lp_Energy>  (144) 
30.49

>  <b_lp_Chiralities_Consistent>  (144) 
1

>  <s_lp_Variant>  (144) 
41:0-2

>  <s_i_glide_gridfile>  (144) 
pfpi4k_grid

>  <i_i_glide_lignum>  (144) 
22

>  <i_i_glide_rotatable_bonds>  (144) 
1

>  <r_i_docking_score>  (144) 
-3.37932

>  <r_i_glide_ligand_efficiency>  (144) 
-0.177859

>  <r_i_glide_ligand_efficiency_sa>  (144) 
-0.474599

>  <r_i_glide_ligand_efficiency_ln>  (144) 
-0.856731

>  <r_i_glide_gscore>  (144) 
-3.37932

>  <r_i_glide_lipo>  (144) 
-0.482231

>  <r_i_glide_hbond>  (144) 
0

>  <r_i_glide_metal>  (144) 
-0

>  <r_i_glide_rewards>  (144) 
-1.83575

>  <r_i_glide_evdw>  (144) 
-20.9293

>  <r_i_glide_ecoul>  (144) 
-0.0222518

>  <r_i_glide_erotb>  (144) 
0

>  <r_i_glide_esite>  (144) 
-0.0115416

>  <r_i_glide_emodel>  (144) 
-25.7386

>  <r_i_glide_energy>  (144) 
-20.9516

>  <r_i_glide_einternal>  (144) 
0.259952

>  <r_i_glide_intrahb_reward>  (144) 
-0

>  <i_i_glide_confnum>  (144) 
1

>  <i_i_glide_posenum>  (144) 
24

>  <r_i_glide_eff_state_penalty>  (144) 
0

>  <ligand_id>  (144) 
41

>  <original_smiles>  (144) 
C=C1CC2CC(=O)C3(O)CN(C1)C(=O)CCCCC23

>  <smiles>  (144) 
[H]OC12C(=O)C([H])([H])C3([H])C([H])([H])C(=C([H])[H])C([H])([H])N(C(=O)C([H])([H])C([H])([H])C([H])([H])C([H])([H])C13[H])C2([H])[H]

$$$$
41:1:2
     RDKit          3D

 40 42  0  0  1  0  0  0  0  0999 V2000
    3.2497   -4.9137    2.3328 C   0  0  0  0  0  0  0  0  0  0  0  0
    3.1487   -3.9666    1.3852 C   0  0  0  0  0  0  0  0  0  0  0  0
    3.3255   -2.4874    1.7142 C   0  0  0  0  0  0  0  0  0  0  0  0
    4.7431   -1.8859    1.4995 C   0  0  1  0  0  0  0  0  0  0  0  0
    5.8580   -2.7541    2.0780 C   0  0  0  0  0  0  0  0  0  0  0  0
    6.5446   -3.3790    0.8695 C   0  0  0  0  0  0  0  0  0  0  0  0
    7.5073   -4.1280    0.9389 O   0  0  0  0  0  0  0  0  0  0  0  0
    5.8852   -2.9590   -0.4415 C   0  0  1  0  0  0  0  0  0  0  0  0
    6.8934   -2.6954   -1.4026 O   0  0  0  0  0  0  0  0  0  0  0  0
    4.9993   -4.1337   -0.9418 C   0  0  0  0  0  0  0  0  0  0  0  0
    3.5828   -3.8080   -1.0986 N   0  0  0  0  0  0  0  0  0  0  0  0
    2.7132   -4.3125   -0.0311 C   0  0  0  0  0  0  0  0  0  0  0  0
    3.0515   -3.3439   -2.2542 C   0  0  0  0  0  0  0  0  0  0  0  0
    1.8339   -3.2993   -2.4384 O   0  0  0  0  0  0  0  0  0  0  0  0
    3.9486   -2.7779   -3.3623 C   0  0  0  0  0  0  0  0  0  0  0  0
    3.8846   -1.2502   -3.3971 C   0  0  0  0  0  0  0  0  0  0  0  0
    4.6603   -0.5658   -2.2669 C   0  0  0  0  0  0  0  0  0  0  0  0
    4.2158   -0.8367   -0.8152 C   0  0  0  0  0  0  0  0  0  0  0  0
    5.2151   -1.6432    0.0453 C   0  0  1  0  0  0  0  0  0  0  0  0
    3.0703   -5.9571    2.1091 H   0  0  0  0  0  0  0  0  0  0  0  0
    3.5112   -4.6646    3.3530 H   0  0  0  0  0  0  0  0  0  0  0  0
    2.5629   -1.9072    1.1927 H   0  0  0  0  0  0  0  0  0  0  0  0
    3.0863   -2.3705    2.7730 H   0  0  0  0  0  0  0  0  0  0  0  0
    4.7502   -0.9260    2.0179 H   0  0  0  0  0  0  0  0  0  0  0  0
    6.5873   -2.1121    2.5668 H   0  0  0  0  0  0  0  0  0  0  0  0
    5.5158   -3.5046    2.7865 H   0  0  0  0  0  0  0  0  0  0  0  0
    7.3079   -3.5160   -1.6214 H   0  0  0  0  0  0  0  0  0  0  0  0
    5.3836   -4.5756   -1.8558 H   0  0  0  0  0  0  0  0  0  0  0  0
    5.0639   -4.9827   -0.2606 H   0  0  0  0  0  0  0  0  0  0  0  0
    2.6236   -5.3927   -0.1539 H   0  0  0  0  0  0  0  0  0  0  0  0
    1.7132   -3.9154   -0.1313 H   0  0  0  0  0  0  0  0  0  0  0  0
    4.9846   -3.0997   -3.3206 H   0  0  0  0  0  0  0  0  0  0  0  0
    3.5582   -3.1604   -4.3037 H   0  0  0  0  0  0  0  0  0  0  0  0
    4.2877   -0.9021   -4.3482 H   0  0  0  0  0  0  0  0  0  0  0  0
    2.8481   -0.9116   -3.3760 H   0  0  0  0  0  0  0  0  0  0  0  0
    5.7295   -0.7286   -2.3338 H   0  0  0  0  0  0  0  0  0  0  0  0
    4.5254    0.4949   -2.4579 H   0  0  0  0  0  0  0  0  0  0  0  0
    4.1760    0.1296   -0.3096 H   0  0  0  0  0  0  0  0  0  0  0  0
    3.1923   -1.2017   -0.7768 H   0  0  0  0  0  0  0  0  0  0  0  0
    6.0460   -0.9408    0.1492 H   0  0  0  0  0  0  0  0  0  0  0  0
  1  2  2  0
  1 20  1  0
  1 21  1  0
  2 12  1  0
  2  3  1  0
  3  4  1  0
  3 22  1  0
  3 23  1  0
  4 19  1  0
  4  5  1  0
  4 24  1  1
  5  6  1  0
  5 25  1  0
  5 26  1  0
  6  7  2  0
  6  8  1  0
  8 19  1  0
  8  9  1  6
  8 10  1  0
  9 27  1  0
 10 11  1  0
 10 28  1  0
 10 29  1  0
 11 12  1  0
 11 13  1  0
 12 30  1  0
 12 31  1  0
 13 14  2  0
 13 15  1  0
 15 16  1  0
 15 32  1  0
 15 33  1  0
 16 17  1  0
 16 34  1  0
 16 35  1  0
 17 18  1  0
 17 36  1  0
 17 37  1  0
 18 19  1  0
 18 38  1  0
 18 39  1  0
 19 40  1  1
M  END
>  <i_m_ct_stereo_status>  (145) 
1

>  <s_m_source_file>  (145) 
/var/tmp/pbs.5076255.sched01/tmpcsrx8n8z/40wzjmt8mb.sdf

>  <i_m_source_file_index>  (145) 
22

>  <i_lp_mmshare_version>  (145) 
48012

>  <i_f3d_flags>  (145) 
0

>  <s_epik_input>  (145) 
Tz1DMVtDSDJdW0NAQEhdKFtDQEBIXTJbQ0BAXTEzW09IXSlbQ0gyXUMoPVtDSDJdKVtDSDJdTihbQ0gyXTMpQyg9TylbQ0gyXVtDSDJdW0NIMl1bQ0gyXTI=

>  <s_epik_cmdline>  (145) 
J2VwaWtfcHl0aG9uJywgJy1waHQnLCAnMi4wJywgJy1waCcsICc3LjAnLCAnLXRuJywgJzgnLCAnLW1hJywgJzIwMCcsICctaW1hZScsICc8aW5maWxlLm1hZT4nLCAnLW9tYWUnLCAnPG91dGZpbGUubWFlPic=

>  <r_lp_tautomer_probability>  (145) 
1

>  <r_epik_Ionization_Penalty>  (145) 
2.1848e-08

>  <r_epik_Ionization_Penalty_Charging>  (145) 
0

>  <r_epik_Ionization_Penalty_Neutral>  (145) 
2.1848e-08

>  <r_epik_State_Penalty>  (145) 
-0

>  <r_epik_Charging_Adjusted_Penalty>  (145) 
0

>  <i_epik_Tot_Q>  (145) 
0

>  <i_epik_Tot_abs_Q>  (145) 
0

>  <s_lp_Force_Field>  (145) 
OPLS3e

>  <r_lp_Energy>  (145) 
30.49

>  <b_lp_Chiralities_Consistent>  (145) 
1

>  <s_lp_Variant>  (145) 
41:0-2

>  <s_i_glide_gridfile>  (145) 
pfpi4k_grid

>  <i_i_glide_lignum>  (145) 
22

>  <i_i_glide_rotatable_bonds>  (145) 
1

>  <r_i_docking_score>  (145) 
-3.23499

>  <r_i_glide_ligand_efficiency>  (145) 
-0.170263

>  <r_i_glide_ligand_efficiency_sa>  (145) 
-0.454329

>  <r_i_glide_ligand_efficiency_ln>  (145) 
-0.820139

>  <r_i_glide_gscore>  (145) 
-3.23499

>  <r_i_glide_lipo>  (145) 
-0.43507

>  <r_i_glide_hbond>  (145) 
0

>  <r_i_glide_metal>  (145) 
-0

>  <r_i_glide_rewards>  (145) 
-1.72671

>  <r_i_glide_evdw>  (145) 
-21.0091

>  <r_i_glide_ecoul>  (145) 
-0.030898

>  <r_i_glide_erotb>  (145) 
0

>  <r_i_glide_esite>  (145) 
-0.0181209

>  <r_i_glide_emodel>  (145) 
-24.9647

>  <r_i_glide_energy>  (145) 
-21.04

>  <r_i_glide_einternal>  (145) 
1.69381

>  <r_i_glide_intrahb_reward>  (145) 
-0

>  <i_i_glide_confnum>  (145) 
1

>  <i_i_glide_posenum>  (145) 
39

>  <r_i_glide_eff_state_penalty>  (145) 
0

>  <ligand_id>  (145) 
41

>  <original_smiles>  (145) 
C=C1CC2CC(=O)C3(O)CN(C1)C(=O)CCCCC23

>  <smiles>  (145) 
[H]OC12C(=O)C([H])([H])C3([H])C([H])([H])C(=C([H])[H])C([H])([H])N(C(=O)C([H])([H])C([H])([H])C([H])([H])C([H])([H])C13[H])C2([H])[H]

$$$$
42:0:0
     RDKit          3D

 20 21  0  0  1  0  0  0  0  0999 V2000
    3.4134   -0.0249   -5.4488 O   0  0  0  0  0  0  0  0  0  0  0  0
    3.6718   -0.6570   -4.4207 C   0  0  0  0  0  0  0  0  0  0  0  0
    4.0756   -0.1106   -3.1442 C   0  0  0  0  0  0  0  0  0  0  0  0
    4.2229   -1.1258   -2.2908 C   0  0  0  0  0  0  0  0  0  0  0  0
    3.8811   -2.4204   -2.9525 C   0  0  2  0  0  0  0  0  0  0  0  0
    2.6215   -3.0568   -2.3603 C   0  0  0  0  0  0  0  0  0  0  0  0
    2.8585   -3.4403   -0.8919 C   0  0  0  0  0  0  0  0  0  0  0  0
    4.2167   -4.1141   -0.6072 C   0  0  0  0  0  0  0  0  0  0  0  0
    4.3760   -4.7521    0.4265 O   0  0  0  0  0  0  0  0  0  0  0  0
    5.2303   -3.8767   -1.4963 O   0  0  0  0  0  0  0  0  0  0  0  0
    5.0160   -3.4496   -2.8435 C   0  0  0  0  0  0  0  0  0  0  0  0
    3.6622   -1.9943   -4.2978 O   0  0  0  0  0  0  0  0  0  0  0  0
    4.2335    0.9294   -2.9539 H   0  0  0  0  0  0  0  0  0  0  0  0
    4.5345   -1.0454   -1.2650 H   0  0  0  0  0  0  0  0  0  0  0  0
    1.7872   -2.3600   -2.4310 H   0  0  0  0  0  0  0  0  0  0  0  0
    2.3226   -3.9161   -2.9512 H   0  0  0  0  0  0  0  0  0  0  0  0
    2.8169   -2.5287   -0.2950 H   0  0  0  0  0  0  0  0  0  0  0  0
    2.0476   -4.0746   -0.5348 H   0  0  0  0  0  0  0  0  0  0  0  0
    4.8022   -4.3303   -3.4526 H   0  0  0  0  0  0  0  0  0  0  0  0
    5.9435   -3.0251   -3.2310 H   0  0  0  0  0  0  0  0  0  0  0  0
  1  2  2  0
  2 12  1  0
  2  3  1  0
  3  4  2  0
  3 13  1  0
  4  5  1  0
  4 14  1  0
  5 11  1  0
  5  6  1  0
  5 12  1  6
  6  7  1  0
  6 15  1  0
  6 16  1  0
  7  8  1  0
  7 17  1  0
  7 18  1  0
  8  9  2  0
  8 10  1  0
 10 11  1  0
 11 19  1  0
 11 20  1  0
M  END
>  <i_m_ct_stereo_status>  (146) 
1

>  <s_m_source_file>  (146) 
/var/tmp/pbs.5076255.sched01/tmpcsrx8n8z/40wzjmt8mb.sdf

>  <i_m_source_file_index>  (146) 
23

>  <i_lp_mmshare_version>  (146) 
48012

>  <i_f3d_flags>  (146) 
0

>  <s_epik_input>  (146) 
Tz1DKE8xKVtDSF09W0NIXVtDQEBdMTJbQ0gyXVtDSDJdQyg9TylPW0NIMl0y

>  <s_epik_cmdline>  (146) 
J2VwaWtfcHl0aG9uJywgJy1waHQnLCAnMi4wJywgJy1waCcsICc3LjAnLCAnLXRuJywgJzgnLCAnLW1hJywgJzIwMCcsICctaW1hZScsICc8aW5maWxlLm1hZT4nLCAnLW9tYWUnLCAnPG91dGZpbGUubWFlPic=

>  <r_lp_tautomer_probability>  (146) 
1

>  <r_epik_Ionization_Penalty>  (146) 
1.81891e-11

>  <r_epik_Ionization_Penalty_Charging>  (146) 
0

>  <r_epik_Ionization_Penalty_Neutral>  (146) 
1.81891e-11

>  <r_epik_State_Penalty>  (146) 
-0

>  <r_epik_Charging_Adjusted_Penalty>  (146) 
0

>  <i_epik_Tot_Q>  (146) 
0

>  <i_epik_Tot_abs_Q>  (146) 
0

>  <s_epik_Chemistry_Notes>  (146) 
This compound has an ester and may undergo hydrolysis at high or low pH.

>  <s_lp_Force_Field>  (146) 
OPLS3e

>  <r_lp_Energy>  (146) 
8.08844

>  <b_lp_Chiralities_Consistent>  (146) 
1

>  <s_lp_Variant>  (146) 
42:0-1

>  <s_i_glide_gridfile>  (146) 
pfpi4k_grid

>  <i_i_glide_lignum>  (146) 
23

>  <i_i_glide_rotatable_bonds>  (146) 
0

>  <r_i_docking_score>  (146) 
-4.87981

>  <r_i_glide_ligand_efficiency>  (146) 
-0.406651

>  <r_i_glide_ligand_efficiency_sa>  (146) 
-0.930998

>  <r_i_glide_ligand_efficiency_ln>  (146) 
-1.40027

>  <r_i_glide_gscore>  (146) 
-4.87981

>  <r_i_glide_lipo>  (146) 
-0.448379

>  <r_i_glide_hbond>  (146) 
-0.32

>  <r_i_glide_metal>  (146) 
-0

>  <r_i_glide_rewards>  (146) 
-2.51083

>  <r_i_glide_evdw>  (146) 
-22.0819

>  <r_i_glide_ecoul>  (146) 
-3.20222

>  <r_i_glide_erotb>  (146) 
0

>  <r_i_glide_esite>  (146) 
-0.0161729

>  <r_i_glide_emodel>  (146) 
-32.4466

>  <r_i_glide_energy>  (146) 
-25.2841

>  <r_i_glide_einternal>  (146) 
0

>  <r_i_glide_intrahb_reward>  (146) 
-0

>  <i_i_glide_confnum>  (146) 
6

>  <i_i_glide_posenum>  (146) 
14

>  <r_i_glide_eff_state_penalty>  (146) 
0

>  <ligand_id>  (146) 
42

>  <original_smiles>  (146) 
O=C1C=CC2(CCC(=O)OC2)O1

>  <smiles>  (146) 
[H]C1=C([H])C2(OC1=O)C([H])([H])OC(=O)C([H])([H])C2([H])[H]

$$$$
42:0:1
     RDKit          3D

 20 21  0  0  1  0  0  0  0  0999 V2000
    4.8416   -4.8606    0.8951 O   0  0  0  0  0  0  0  0  0  0  0  0
    4.4359   -4.2092   -0.0633 C   0  0  0  0  0  0  0  0  0  0  0  0
    3.0552   -3.7950   -0.3217 C   0  0  0  0  0  0  0  0  0  0  0  0
    3.0615   -3.0578   -1.4255 C   0  0  0  0  0  0  0  0  0  0  0  0
    4.4639   -2.8989   -1.9628 C   0  0  2  0  0  0  0  0  0  0  0  0
    4.9575   -1.4545   -1.8733 C   0  0  0  0  0  0  0  0  0  0  0  0
    4.1198   -0.5476   -2.7806 C   0  0  0  0  0  0  0  0  0  0  0  0
    3.8212   -1.1162   -4.1724 C   0  0  0  0  0  0  0  0  0  0  0  0
    3.4918   -0.3545   -5.0855 O   0  0  0  0  0  0  0  0  0  0  0  0
    3.8852   -2.4740   -4.3162 O   0  0  0  0  0  0  0  0  0  0  0  0
    4.5837   -3.3433   -3.4212 C   0  0  0  0  0  0  0  0  0  0  0  0
    5.2224   -3.7132   -1.0794 O   0  0  0  0  0  0  0  0  0  0  0  0
    2.2014   -4.0649    0.2735 H   0  0  0  0  0  0  0  0  0  0  0  0
    2.1983   -2.6099   -1.9125 H   0  0  0  0  0  0  0  0  0  0  0  0
    4.9131   -1.0872   -0.8475 H   0  0  0  0  0  0  0  0  0  0  0  0
    6.0089   -1.4104   -2.1654 H   0  0  0  0  0  0  0  0  0  0  0  0
    3.1515   -0.3806   -2.3119 H   0  0  0  0  0  0  0  0  0  0  0  0
    4.5853    0.4313   -2.8769 H   0  0  0  0  0  0  0  0  0  0  0  0
    5.6373   -3.3681   -3.7192 H   0  0  0  0  0  0  0  0  0  0  0  0
    4.2215   -4.3629   -3.5378 H   0  0  0  0  0  0  0  0  0  0  0  0
  1  2  2  0
  2 12  1  0
  2  3  1  0
  3  4  2  0
  3 13  1  0
  4  5  1  0
  4 14  1  0
  5 11  1  0
  5  6  1  0
  5 12  1  1
  6  7  1  0
  6 15  1  0
  6 16  1  0
  7  8  1  0
  7 17  1  0
  7 18  1  0
  8  9  2  0
  8 10  1  0
 10 11  1  0
 11 19  1  0
 11 20  1  0
M  END
>  <i_m_ct_stereo_status>  (147) 
1

>  <s_m_source_file>  (147) 
/var/tmp/pbs.5076255.sched01/tmpcsrx8n8z/40wzjmt8mb.sdf

>  <i_m_source_file_index>  (147) 
23

>  <i_lp_mmshare_version>  (147) 
48012

>  <i_f3d_flags>  (147) 
0

>  <s_epik_input>  (147) 
Tz1DKE8xKVtDSF09W0NIXVtDQEBdMTJbQ0gyXVtDSDJdQyg9TylPW0NIMl0y

>  <s_epik_cmdline>  (147) 
J2VwaWtfcHl0aG9uJywgJy1waHQnLCAnMi4wJywgJy1waCcsICc3LjAnLCAnLXRuJywgJzgnLCAnLW1hJywgJzIwMCcsICctaW1hZScsICc8aW5maWxlLm1hZT4nLCAnLW9tYWUnLCAnPG91dGZpbGUubWFlPic=

>  <r_lp_tautomer_probability>  (147) 
1

>  <r_epik_Ionization_Penalty>  (147) 
1.81891e-11

>  <r_epik_Ionization_Penalty_Charging>  (147) 
0

>  <r_epik_Ionization_Penalty_Neutral>  (147) 
1.81891e-11

>  <r_epik_State_Penalty>  (147) 
-0

>  <r_epik_Charging_Adjusted_Penalty>  (147) 
0

>  <i_epik_Tot_Q>  (147) 
0

>  <i_epik_Tot_abs_Q>  (147) 
0

>  <s_epik_Chemistry_Notes>  (147) 
This compound has an ester and may undergo hydrolysis at high or low pH.

>  <s_lp_Force_Field>  (147) 
OPLS3e

>  <r_lp_Energy>  (147) 
8.08844

>  <b_lp_Chiralities_Consistent>  (147) 
1

>  <s_lp_Variant>  (147) 
42:0-1

>  <s_i_glide_gridfile>  (147) 
pfpi4k_grid

>  <i_i_glide_lignum>  (147) 
23

>  <i_i_glide_rotatable_bonds>  (147) 
0

>  <r_i_docking_score>  (147) 
-4.52606

>  <r_i_glide_ligand_efficiency>  (147) 
-0.377172

>  <r_i_glide_ligand_efficiency_sa>  (147) 
-0.863508

>  <r_i_glide_ligand_efficiency_ln>  (147) 
-1.29876

>  <r_i_glide_gscore>  (147) 
-4.52606

>  <r_i_glide_lipo>  (147) 
-0.39843

>  <r_i_glide_hbond>  (147) 
-0.340408

>  <r_i_glide_metal>  (147) 
-0

>  <r_i_glide_rewards>  (147) 
-2.32225

>  <r_i_glide_evdw>  (147) 
-21.7556

>  <r_i_glide_ecoul>  (147) 
-2.51459

>  <r_i_glide_erotb>  (147) 
0

>  <r_i_glide_esite>  (147) 
0

>  <r_i_glide_emodel>  (147) 
-30.9244

>  <r_i_glide_energy>  (147) 
-24.2702

>  <r_i_glide_einternal>  (147) 
0

>  <r_i_glide_intrahb_reward>  (147) 
-0

>  <i_i_glide_confnum>  (147) 
6

>  <i_i_glide_posenum>  (147) 
18

>  <r_i_glide_eff_state_penalty>  (147) 
0

>  <ligand_id>  (147) 
42

>  <original_smiles>  (147) 
O=C1C=CC2(CCC(=O)OC2)O1

>  <smiles>  (147) 
[H]C1=C([H])C2(OC1=O)C([H])([H])OC(=O)C([H])([H])C2([H])[H]

$$$$
42:0:2
     RDKit          3D

 20 21  0  0  1  0  0  0  0  0999 V2000
    3.4571   -0.6524   -5.0379 O   0  0  0  0  0  0  0  0  0  0  0  0
    3.8302   -1.0693   -3.9374 C   0  0  0  0  0  0  0  0  0  0  0  0
    4.2194   -0.2503   -2.7999 C   0  0  0  0  0  0  0  0  0  0  0  0
    4.5429   -1.0557   -1.8061 C   0  0  0  0  0  0  0  0  0  0  0  0
    4.3735   -2.4976   -2.1997 C   0  0  2  0  0  0  0  0  0  0  0  0
    3.2285   -3.1554   -1.4012 C   0  0  0  0  0  0  0  0  0  0  0  0
    3.7055   -4.1392   -0.3091 C   0  0  0  0  0  0  0  0  0  0  0  0
    5.0641   -3.7618    0.2918 C   0  0  0  0  0  0  0  0  0  0  0  0
    5.2657   -3.8323    1.5019 O   0  0  0  0  0  0  0  0  0  0  0  0
    5.9978   -3.3547   -0.6100 O   0  0  0  0  0  0  0  0  0  0  0  0
    5.6840   -3.2749   -2.0030 C   0  0  0  0  0  0  0  0  0  0  0  0
    4.0027   -2.3877   -3.5755 O   0  0  0  0  0  0  0  0  0  0  0  0
    4.2139    0.8259   -2.8200 H   0  0  0  0  0  0  0  0  0  0  0  0
    4.8852   -0.7499   -0.8227 H   0  0  0  0  0  0  0  0  0  0  0  0
    2.6113   -2.3850   -0.9362 H   0  0  0  0  0  0  0  0  0  0  0  0
    2.5648   -3.7036   -2.0732 H   0  0  0  0  0  0  0  0  0  0  0  0
    2.9505   -4.2356    0.4750 H   0  0  0  0  0  0  0  0  0  0  0  0
    3.8245   -5.1347   -0.7366 H   0  0  0  0  0  0  0  0  0  0  0  0
    5.6074   -4.2824   -2.4093 H   0  0  0  0  0  0  0  0  0  0  0  0
    6.5037   -2.7811   -2.5273 H   0  0  0  0  0  0  0  0  0  0  0  0
  1  2  2  0
  2 12  1  0
  2  3  1  0
  3  4  2  0
  3 13  1  0
  4  5  1  0
  4 14  1  0
  5 11  1  0
  5  6  1  0
  5 12  1  6
  6  7  1  0
  6 15  1  0
  6 16  1  0
  7  8  1  0
  7 17  1  0
  7 18  1  0
  8  9  2  0
  8 10  1  0
 10 11  1  0
 11 19  1  0
 11 20  1  0
M  END
>  <i_m_ct_stereo_status>  (148) 
1

>  <s_m_source_file>  (148) 
/var/tmp/pbs.5076255.sched01/tmpcsrx8n8z/40wzjmt8mb.sdf

>  <i_m_source_file_index>  (148) 
23

>  <i_lp_mmshare_version>  (148) 
48012

>  <i_f3d_flags>  (148) 
0

>  <s_epik_input>  (148) 
Tz1DKE8xKVtDSF09W0NIXVtDQEBdMTJbQ0gyXVtDSDJdQyg9TylPW0NIMl0y

>  <s_epik_cmdline>  (148) 
J2VwaWtfcHl0aG9uJywgJy1waHQnLCAnMi4wJywgJy1waCcsICc3LjAnLCAnLXRuJywgJzgnLCAnLW1hJywgJzIwMCcsICctaW1hZScsICc8aW5maWxlLm1hZT4nLCAnLW9tYWUnLCAnPG91dGZpbGUubWFlPic=

>  <r_lp_tautomer_probability>  (148) 
1

>  <r_epik_Ionization_Penalty>  (148) 
1.81891e-11

>  <r_epik_Ionization_Penalty_Charging>  (148) 
0

>  <r_epik_Ionization_Penalty_Neutral>  (148) 
1.81891e-11

>  <r_epik_State_Penalty>  (148) 
-0

>  <r_epik_Charging_Adjusted_Penalty>  (148) 
0

>  <i_epik_Tot_Q>  (148) 
0

>  <i_epik_Tot_abs_Q>  (148) 
0

>  <s_epik_Chemistry_Notes>  (148) 
This compound has an ester and may undergo hydrolysis at high or low pH.

>  <s_lp_Force_Field>  (148) 
OPLS3e

>  <r_lp_Energy>  (148) 
8.08844

>  <b_lp_Chiralities_Consistent>  (148) 
1

>  <s_lp_Variant>  (148) 
42:0-1

>  <s_i_glide_gridfile>  (148) 
pfpi4k_grid

>  <i_i_glide_lignum>  (148) 
23

>  <i_i_glide_rotatable_bonds>  (148) 
0

>  <r_i_docking_score>  (148) 
-4.51173

>  <r_i_glide_ligand_efficiency>  (148) 
-0.375977

>  <r_i_glide_ligand_efficiency_sa>  (148) 
-0.860773

>  <r_i_glide_ligand_efficiency_ln>  (148) 
-1.29465

>  <r_i_glide_gscore>  (148) 
-4.51173

>  <r_i_glide_lipo>  (148) 
-0.417159

>  <r_i_glide_hbond>  (148) 
-0.187414

>  <r_i_glide_metal>  (148) 
-0

>  <r_i_glide_rewards>  (148) 
-2.49891

>  <r_i_glide_evdw>  (148) 
-20.0031

>  <r_i_glide_ecoul>  (148) 
-2.72059

>  <r_i_glide_erotb>  (148) 
0

>  <r_i_glide_esite>  (148) 
0

>  <r_i_glide_emodel>  (148) 
-29.4067

>  <r_i_glide_energy>  (148) 
-22.7237

>  <r_i_glide_einternal>  (148) 
0

>  <r_i_glide_intrahb_reward>  (148) 
-0

>  <i_i_glide_confnum>  (148) 
4

>  <i_i_glide_posenum>  (148) 
2

>  <r_i_glide_eff_state_penalty>  (148) 
0

>  <ligand_id>  (148) 
42

>  <original_smiles>  (148) 
O=C1C=CC2(CCC(=O)OC2)O1

>  <smiles>  (148) 
[H]C1=C([H])C2(OC1=O)C([H])([H])OC(=O)C([H])([H])C2([H])[H]

$$$$
44:0:0
     RDKit          3D

 55 59  0  0  1  0  0  0  0  0999 V2000
    2.9877   -2.1701   -3.0789 C   0  0  0  0  0  0  0  0  0  0  0  0
    4.0860   -1.8044   -2.0860 C   0  0  0  0  0  0  0  0  0  0  0  0
    4.5037   -0.4250   -2.5367 C   0  0  0  0  0  0  0  0  0  0  0  0
    3.5474   -1.6246   -0.7930 O   0  0  0  0  0  0  0  0  0  0  0  0
    3.7897   -2.5920    0.2363 C   0  0  1  0  0  0  0  0  0  0  0  0
    3.7641   -4.0135   -0.3611 C   0  0  1  0  0  0  0  0  0  0  0  0
    2.4430   -4.3540   -0.7304 O   0  0  0  0  0  0  0  0  0  0  0  0
    4.7203   -4.1681   -1.5792 C   0  0  0  0  0  0  0  0  0  0  0  0
    5.2265   -2.8405   -2.0955 C   0  0  2  0  0  0  0  0  0  0  0  0
    6.4853   -2.4608   -1.3467 C   0  0  0  0  0  0  0  0  0  0  0  0
    6.4429   -2.6321    0.1731 C   0  0  1  0  0  0  0  0  0  0  0  0
    7.5549   -1.9060    0.6586 O   0  0  0  0  0  0  0  0  0  0  0  0
    5.1275   -2.3031    0.9272 C   0  0  1  0  0  0  0  0  0  0  0  0
    4.8865   -0.9573    1.6682 C   0  0  1  0  0  0  0  0  0  0  0  0
    5.3842    0.1467    0.9452 O   0  0  0  0  0  0  0  0  0  0  0  0
    3.3346   -0.8092    1.7929 C   0  0  2  0  0  0  0  0  0  0  0  0
    2.8183   -0.2783    3.1632 C   0  0  0  0  0  0  0  0  0  0  0  0
    2.0940   -1.3756    3.8867 C   0  0  1  0  0  0  0  0  0  0  0  0
    3.0023   -2.5914    3.8014 C   0  0  2  0  0  0  0  0  0  0  0  0
    2.6190   -3.1711    2.5054 C   0  0  0  0  0  0  0  0  0  0  0  0
    2.1889   -4.3237    2.3686 O   0  0  0  0  0  0  0  0  0  0  0  0
    2.7520   -2.1870    1.3076 C   0  0  2  0  0  0  0  0  0  0  0  0
    2.2716   -2.2951    5.0716 C   0  0  0  0  0  0  0  0  0  0  0  0
    3.0452   -1.7930    6.2718 C   0  0  0  0  0  0  0  0  0  0  0  0
    1.1671   -3.2211    5.5274 C   0  0  0  0  0  0  0  0  0  0  0  0
    3.3651   -2.2545   -4.0964 H   0  0  0  0  0  0  0  0  0  0  0  0
    2.2693   -1.3607   -3.0708 H   0  0  0  0  0  0  0  0  0  0  0  0
    2.4576   -3.0824   -2.8420 H   0  0  0  0  0  0  0  0  0  0  0  0
    4.9753   -0.5509   -3.4946 H   0  0  0  0  0  0  0  0  0  0  0  0
    5.1762    0.0189   -1.8241 H   0  0  0  0  0  0  0  0  0  0  0  0
    3.6877    0.2761   -2.7062 H   0  0  0  0  0  0  0  0  0  0  0  0
    4.0958   -4.7331    0.3899 H   0  0  0  0  0  0  0  0  0  0  0  0
    2.5199   -5.0895   -1.3220 H   0  0  0  0  0  0  0  0  0  0  0  0
    5.5414   -4.8355   -1.3186 H   0  0  0  0  0  0  0  0  0  0  0  0
    4.2922   -4.6092   -2.4724 H   0  0  0  0  0  0  0  0  0  0  0  0
    5.5382   -2.9615   -3.1287 H   0  0  0  0  0  0  0  0  0  0  0  0
    7.3324   -3.0258   -1.7451 H   0  0  0  0  0  0  0  0  0  0  0  0
    6.6854   -1.4515   -1.6053 H   0  0  0  0  0  0  0  0  0  0  0  0
    6.6716   -3.6825    0.3653 H   0  0  0  0  0  0  0  0  0  0  0  0
    8.3382   -2.3348    0.4045 H   0  0  0  0  0  0  0  0  0  0  0  0
    5.1758   -3.0201    1.7447 H   0  0  0  0  0  0  0  0  0  0  0  0
    5.3906   -1.0019    2.6506 H   0  0  0  0  0  0  0  0  0  0  0  0
    4.8599    0.2450    0.1625 H   0  0  0  0  0  0  0  0  0  0  0  0
    3.0256   -0.0777    1.0452 H   0  0  0  0  0  0  0  0  0  0  0  0
    3.6420    0.0783    3.7963 H   0  0  0  0  0  0  0  0  0  0  0  0
    2.1343    0.5585    3.0182 H   0  0  0  0  0  0  0  0  0  0  0  0
    1.0659   -1.4631    3.5131 H   0  0  0  0  0  0  0  0  0  0  0  0
    4.0773   -2.4591    3.9280 H   0  0  0  0  0  0  0  0  0  0  0  0
    1.7692   -2.0448    0.8810 H   0  0  0  0  0  0  0  0  0  0  0  0
    3.4976   -2.6293    6.8150 H   0  0  0  0  0  0  0  0  0  0  0  0
    2.3856   -1.2370    6.9442 H   0  0  0  0  0  0  0  0  0  0  0  0
    3.8378   -1.1289    5.9323 H   0  0  0  0  0  0  0  0  0  0  0  0
    1.5856   -4.0907    6.0401 H   0  0  0  0  0  0  0  0  0  0  0  0
    0.5968   -3.5729    4.6654 H   0  0  0  0  0  0  0  0  0  0  0  0
    0.4837   -2.7045    6.2089 H   0  0  0  0  0  0  0  0  0  0  0  0
  1  2  1  0
  1 26  1  0
  1 27  1  0
  1 28  1  0
  2  9  1  0
  2  3  1  0
  2  4  1  0
  3 29  1  0
  3 30  1  0
  3 31  1  0
  5  4  1  6
  5 13  1  0
  5 22  1  0
  5  6  1  0
  6  7  1  0
  6  8  1  0
  6 32  1  1
  7 33  1  0
  8  9  1  0
  8 34  1  0
  8 35  1  0
  9 10  1  0
  9 36  1  6
 10 11  1  0
 10 37  1  0
 10 38  1  0
 11 12  1  0
 11 13  1  0
 11 39  1  6
 12 40  1  0
 13 14  1  0
 13 41  1  1
 14 15  1  0
 14 16  1  0
 14 42  1  1
 15 43  1  0
 16 22  1  0
 16 17  1  0
 16 44  1  6
 17 18  1  0
 17 45  1  0
 17 46  1  0
 18 23  1  0
 18 19  1  0
 18 47  1  6
 19 20  1  0
 19 23  1  0
 19 48  1  1
 20 21  2  0
 20 22  1  0
 22 49  1  6
 23 24  1  0
 23 25  1  0
 24 50  1  0
 24 51  1  0
 24 52  1  0
 25 53  1  0
 25 54  1  0
 25 55  1  0
M  END
>  <i_m_ct_stereo_status>  (149) 
1

>  <s_m_source_file>  (149) 
/var/tmp/pbs.5076255.sched01/tmpcsrx8n8z/40wzjmt8mb.sdf

>  <i_m_source_file_index>  (149) 
25

>  <i_lp_mmshare_version>  (149) 
48012

>  <i_f3d_flags>  (149) 
0

>  <s_epik_input>  (149) 
W09IXVtDQEhdMVtDSDJdW0NAQEhdKEMoTzIpKFtDSDNdKVtDSDNdKVtDSDJdW0NAQEhdKFtPSF0pW0NASF0oW0NAXTEyMylbQ0BASF0oW09IXSlbQ0BIXTRbQ0BASF0zQyg9TylbQ0BIXTVbQ0BIXShbQ0gyXTQpQzUoW0NIM10pW0NIM10=

>  <s_epik_cmdline>  (149) 
J2VwaWtfcHl0aG9uJywgJy1waHQnLCAnMi4wJywgJy1waCcsICc3LjAnLCAnLXRuJywgJzgnLCAnLW1hJywgJzIwMCcsICctaW1hZScsICc8aW5maWxlLm1hZT4nLCAnLW9tYWUnLCAnPG91dGZpbGUubWFlPic=

>  <r_lp_tautomer_probability>  (149) 
1

>  <r_epik_Ionization_Penalty>  (149) 
2.30202e-07

>  <r_epik_Ionization_Penalty_Charging>  (149) 
0

>  <r_epik_Ionization_Penalty_Neutral>  (149) 
2.30202e-07

>  <r_epik_State_Penalty>  (149) 
-0

>  <r_epik_Charging_Adjusted_Penalty>  (149) 
0

>  <i_epik_Tot_Q>  (149) 
0

>  <i_epik_Tot_abs_Q>  (149) 
0

>  <s_lp_Force_Field>  (149) 
OPLS3e

>  <r_lp_Energy>  (149) 
65.7223

>  <b_lp_Chiralities_Consistent>  (149) 
1

>  <s_lp_Variant>  (149) 
44:0-1

>  <s_i_glide_gridfile>  (149) 
pfpi4k_grid

>  <i_i_glide_lignum>  (149) 
25

>  <i_i_glide_rotatable_bonds>  (149) 
3

>  <r_i_docking_score>  (149) 
-3.55627

>  <r_i_glide_ligand_efficiency>  (149) 
-0.142251

>  <r_i_glide_ligand_efficiency_sa>  (149) 
-0.415944

>  <r_i_glide_ligand_efficiency_ln>  (149) 
-0.842943

>  <r_i_glide_gscore>  (149) 
-3.55627

>  <r_i_glide_lipo>  (149) 
-0.36048

>  <r_i_glide_hbond>  (149) 
0

>  <r_i_glide_metal>  (149) 
-0

>  <r_i_glide_rewards>  (149) 
-1.51966

>  <r_i_glide_evdw>  (149) 
-17.7323

>  <r_i_glide_ecoul>  (149) 
-5.24689

>  <r_i_glide_erotb>  (149) 
0

>  <r_i_glide_esite>  (149) 
-0.00247928

>  <r_i_glide_emodel>  (149) 
-30.4118

>  <r_i_glide_energy>  (149) 
-22.9792

>  <r_i_glide_einternal>  (149) 
1.41906

>  <r_i_glide_intrahb_reward>  (149) 
-0.5

>  <i_i_glide_confnum>  (149) 
1

>  <i_i_glide_posenum>  (149) 
1

>  <r_i_glide_eff_state_penalty>  (149) 
0

>  <ligand_id>  (149) 
44

>  <original_smiles>  (149) 
CC1(C)OC23C(O)CC1CC(O)C2C(O)C1CC2C(C(=O)C13)C2(C)C

>  <smiles>  (149) 
[H]OC1([H])C([H])([H])C2([H])C([H])([H])C([H])(O[H])C3(OC2(C([H])([H])[H])C([H])([H])[H])C2([H])C(=O)C4([H])C([H])(C([H])([H])C2([H])C([H])(O[H])C13[H])C4(C([H])([H])[H])C([H])([H])[H]

$$$$
44:0:1
     RDKit          3D

 55 59  0  0  1  0  0  0  0  0999 V2000
    3.0152   -2.8687   -2.9913 C   0  0  0  0  0  0  0  0  0  0  0  0
    4.0383   -2.2136   -2.0466 C   0  0  0  0  0  0  0  0  0  0  0  0
    4.2543   -0.7878   -2.5774 C   0  0  0  0  0  0  0  0  0  0  0  0
    3.4307   -2.0468   -0.7747 O   0  0  0  0  0  0  0  0  0  0  0  0
    3.8114   -2.8585    0.3513 C   0  0  1  0  0  0  0  0  0  0  0  0
    4.0659   -4.3207   -0.0720 C   0  0  1  0  0  0  0  0  0  0  0  0
    2.8455   -4.9955   -0.3229 O   0  0  0  0  0  0  0  0  0  0  0  0
    5.0332   -4.3888   -1.2731 C   0  0  0  0  0  0  0  0  0  0  0  0
    5.3350   -3.0407   -1.9187 C   0  0  2  0  0  0  0  0  0  0  0  0
    6.4816   -2.3256   -1.1895 C   0  0  0  0  0  0  0  0  0  0  0  0
    6.4388   -2.3895    0.3471 C   0  0  1  0  0  0  0  0  0  0  0  0
    7.4083   -1.4956    0.8432 O   0  0  0  0  0  0  0  0  0  0  0  0
    5.0523   -2.2623    1.0504 C   0  0  1  0  0  0  0  0  0  0  0  0
    4.5567   -0.9454    1.6791 C   0  0  1  0  0  0  0  0  0  0  0  0
    4.9408    0.1216    0.8791 O   0  0  0  0  0  0  0  0  0  0  0  0
    2.9998   -1.0580    1.7314 C   0  0  2  0  0  0  0  0  0  0  0  0
    2.3472   -0.4979    3.0412 C   0  0  0  0  0  0  0  0  0  0  0  0
    1.8105   -1.6433    3.8672 C   0  0  1  0  0  0  0  0  0  0  0  0
    2.9412   -2.6673    3.9085 C   0  0  2  0  0  0  0  0  0  0  0  0
    2.6821   -3.4373    2.6556 C   0  0  0  0  0  0  0  0  0  0  0  0
    2.4405   -4.6390    2.6397 O   0  0  0  0  0  0  0  0  0  0  0  0
    2.6881   -2.5559    1.3820 C   0  0  2  0  0  0  0  0  0  0  0  0
    2.1357   -2.3955    5.1456 C   0  0  0  0  0  0  0  0  0  0  0  0
    2.7654   -1.6383    6.2893 C   0  0  0  0  0  0  0  0  0  0  0  0
    1.2020   -3.4658    5.6754 C   0  0  0  0  0  0  0  0  0  0  0  0
    3.4173   -3.0176   -3.9934 H   0  0  0  0  0  0  0  0  0  0  0  0
    2.1138   -2.2621   -3.0778 H   0  0  0  0  0  0  0  0  0  0  0  0
    2.6921   -3.8279   -2.6195 H   0  0  0  0  0  0  0  0  0  0  0  0
    4.8552   -0.7838   -3.4880 H   0  0  0  0  0  0  0  0  0  0  0  0
    4.7550   -0.1706   -1.8320 H   0  0  0  0  0  0  0  0  0  0  0  0
    3.3036   -0.2925   -2.7956 H   0  0  0  0  0  0  0  0  0  0  0  0
    4.5456   -4.8576    0.7475 H   0  0  0  0  0  0  0  0  0  0  0  0
    2.9119   -5.3700   -1.1800 H   0  0  0  0  0  0  0  0  0  0  0  0
    5.9397   -4.8165   -0.8715 H   0  0  0  0  0  0  0  0  0  0  0  0
    4.7968   -5.0638   -2.0795 H   0  0  0  0  0  0  0  0  0  0  0  0
    5.7037   -3.2201   -2.9291 H   0  0  0  0  0  0  0  0  0  0  0  0
    7.4270   -2.7744   -1.5096 H   0  0  0  0  0  0  0  0  0  0  0  0
    6.5362   -1.3055   -1.5287 H   0  0  0  0  0  0  0  0  0  0  0  0
    6.8320   -3.3707    0.6145 H   0  0  0  0  0  0  0  0  0  0  0  0
    7.2186   -1.2946    1.7414 H   0  0  0  0  0  0  0  0  0  0  0  0
    5.2165   -2.8873    1.9281 H   0  0  0  0  0  0  0  0  0  0  0  0
    5.0048   -0.8002    2.6580 H   0  0  0  0  0  0  0  0  0  0  0  0
    4.4367    0.0919    0.0899 H   0  0  0  0  0  0  0  0  0  0  0  0
    2.5867   -0.4700    0.9105 H   0  0  0  0  0  0  0  0  0  0  0  0
    3.0639    0.0602    3.6385 H   0  0  0  0  0  0  0  0  0  0  0  0
    1.5143    0.1665    2.7940 H   0  0  0  0  0  0  0  0  0  0  0  0
    0.8374   -1.9516    3.4974 H   0  0  0  0  0  0  0  0  0  0  0  0
    3.9681   -2.3318    4.0274 H   0  0  0  0  0  0  0  0  0  0  0  0
    1.7259   -2.6448    0.8751 H   0  0  0  0  0  0  0  0  0  0  0  0
    3.3530   -2.3108    6.9163 H   0  0  0  0  0  0  0  0  0  0  0  0
    1.9990   -1.1475    6.8921 H   0  0  0  0  0  0  0  0  0  0  0  0
    3.4307   -0.8704    5.8849 H   0  0  0  0  0  0  0  0  0  0  0  0
    1.7614   -4.1838    6.2729 H   0  0  0  0  0  0  0  0  0  0  0  0
    0.7402   -3.9995    4.8475 H   0  0  0  0  0  0  0  0  0  0  0  0
    0.4180   -3.0265    6.2886 H   0  0  0  0  0  0  0  0  0  0  0  0
  1  2  1  0
  1 26  1  0
  1 27  1  0
  1 28  1  0
  2  9  1  0
  2  3  1  0
  2  4  1  0
  3 29  1  0
  3 30  1  0
  3 31  1  0
  5  4  1  6
  5 13  1  0
  5 22  1  0
  5  6  1  0
  6  7  1  0
  6  8  1  0
  6 32  1  1
  7 33  1  0
  8  9  1  0
  8 34  1  0
  8 35  1  0
  9 10  1  0
  9 36  1  6
 10 11  1  0
 10 37  1  0
 10 38  1  0
 11 12  1  0
 11 13  1  0
 11 39  1  6
 12 40  1  0
 13 14  1  0
 13 41  1  1
 14 15  1  0
 14 16  1  0
 14 42  1  1
 15 43  1  0
 16 22  1  0
 16 17  1  0
 16 44  1  6
 17 18  1  0
 17 45  1  0
 17 46  1  0
 18 23  1  0
 18 19  1  0
 18 47  1  6
 19 20  1  0
 19 23  1  0
 19 48  1  1
 20 21  2  0
 20 22  1  0
 22 49  1  6
 23 24  1  0
 23 25  1  0
 24 50  1  0
 24 51  1  0
 24 52  1  0
 25 53  1  0
 25 54  1  0
 25 55  1  0
M  END
>  <i_m_ct_stereo_status>  (150) 
1

>  <s_m_source_file>  (150) 
/var/tmp/pbs.5076255.sched01/tmpcsrx8n8z/40wzjmt8mb.sdf

>  <i_m_source_file_index>  (150) 
25

>  <i_lp_mmshare_version>  (150) 
48012

>  <i_f3d_flags>  (150) 
0

>  <s_epik_input>  (150) 
W09IXVtDQEhdMVtDSDJdW0NAQEhdKEMoTzIpKFtDSDNdKVtDSDNdKVtDSDJdW0NAQEhdKFtPSF0pW0NASF0oW0NAXTEyMylbQ0BASF0oW09IXSlbQ0BIXTRbQ0BASF0zQyg9TylbQ0BIXTVbQ0BIXShbQ0gyXTQpQzUoW0NIM10pW0NIM10=

>  <s_epik_cmdline>  (150) 
J2VwaWtfcHl0aG9uJywgJy1waHQnLCAnMi4wJywgJy1waCcsICc3LjAnLCAnLXRuJywgJzgnLCAnLW1hJywgJzIwMCcsICctaW1hZScsICc8aW5maWxlLm1hZT4nLCAnLW9tYWUnLCAnPG91dGZpbGUubWFlPic=

>  <r_lp_tautomer_probability>  (150) 
1

>  <r_epik_Ionization_Penalty>  (150) 
2.30202e-07

>  <r_epik_Ionization_Penalty_Charging>  (150) 
0

>  <r_epik_Ionization_Penalty_Neutral>  (150) 
2.30202e-07

>  <r_epik_State_Penalty>  (150) 
-0

>  <r_epik_Charging_Adjusted_Penalty>  (150) 
0

>  <i_epik_Tot_Q>  (150) 
0

>  <i_epik_Tot_abs_Q>  (150) 
0

>  <s_lp_Force_Field>  (150) 
OPLS3e

>  <r_lp_Energy>  (150) 
65.7223

>  <b_lp_Chiralities_Consistent>  (150) 
1

>  <s_lp_Variant>  (150) 
44:0-1

>  <s_i_glide_gridfile>  (150) 
pfpi4k_grid

>  <i_i_glide_lignum>  (150) 
25

>  <i_i_glide_rotatable_bonds>  (150) 
3

>  <r_i_docking_score>  (150) 
-3.37466

>  <r_i_glide_ligand_efficiency>  (150) 
-0.134986

>  <r_i_glide_ligand_efficiency_sa>  (150) 
-0.394703

>  <r_i_glide_ligand_efficiency_ln>  (150) 
-0.799896

>  <r_i_glide_gscore>  (150) 
-3.37466

>  <r_i_glide_lipo>  (150) 
-0.326796

>  <r_i_glide_hbond>  (150) 
0

>  <r_i_glide_metal>  (150) 
-0

>  <r_i_glide_rewards>  (150) 
-1.01966

>  <r_i_glide_evdw>  (150) 
-22.3454

>  <r_i_glide_ecoul>  (150) 
-6.06295

>  <r_i_glide_erotb>  (150) 
0

>  <r_i_glide_esite>  (150) 
-0.00149101

>  <r_i_glide_emodel>  (150) 
-31.574

>  <r_i_glide_energy>  (150) 
-28.4083

>  <r_i_glide_einternal>  (150) 
2.1756

>  <r_i_glide_intrahb_reward>  (150) 
-0

>  <i_i_glide_confnum>  (150) 
1

>  <i_i_glide_posenum>  (150) 
3

>  <r_i_glide_eff_state_penalty>  (150) 
0

>  <ligand_id>  (150) 
44

>  <original_smiles>  (150) 
CC1(C)OC23C(O)CC1CC(O)C2C(O)C1CC2C(C(=O)C13)C2(C)C

>  <smiles>  (150) 
[H]OC1([H])C([H])([H])C2([H])C([H])([H])C([H])(O[H])C3(OC2(C([H])([H])[H])C([H])([H])[H])C2([H])C(=O)C4([H])C([H])(C([H])([H])C2([H])C([H])(O[H])C13[H])C4(C([H])([H])[H])C([H])([H])[H]

$$$$
44:0:2
     RDKit          3D

 55 59  0  0  1  0  0  0  0  0999 V2000
    2.9557   -3.1505   -2.7300 C   0  0  0  0  0  0  0  0  0  0  0  0
    4.0105   -2.4475   -1.8587 C   0  0  0  0  0  0  0  0  0  0  0  0
    4.2040   -1.0554   -2.4870 C   0  0  0  0  0  0  0  0  0  0  0  0
    3.4172   -2.2195   -0.5894 O   0  0  0  0  0  0  0  0  0  0  0  0
    3.8435   -2.9458    0.5769 C   0  0  1  0  0  0  0  0  0  0  0  0
    4.1128   -4.4416    0.2517 C   0  0  1  0  0  0  0  0  0  0  0  0
    2.9168   -5.1798    0.0776 O   0  0  0  0  0  0  0  0  0  0  0  0
    5.0659   -4.5923   -0.9532 C   0  0  0  0  0  0  0  0  0  0  0  0
    5.3148   -3.2730   -1.7131 C   0  0  2  0  0  0  0  0  0  0  0  0
    6.4577   -2.4634   -1.0747 C   0  0  0  0  0  0  0  0  0  0  0  0
    6.4446   -2.4171    0.4621 C   0  0  1  0  0  0  0  0  0  0  0  0
    7.3857   -1.4507    0.8518 O   0  0  0  0  0  0  0  0  0  0  0  0
    5.0815   -2.2705    1.2021 C   0  0  1  0  0  0  0  0  0  0  0  0
    4.5775   -0.9250    1.7519 C   0  0  1  0  0  0  0  0  0  0  0  0
    4.9394    0.0992    0.8849 O   0  0  0  0  0  0  0  0  0  0  0  0
    3.0265   -1.0630    1.8427 C   0  0  2  0  0  0  0  0  0  0  0  0
    2.3945   -0.4285    3.1280 C   0  0  0  0  0  0  0  0  0  0  0  0
    1.8792   -1.5205    4.0396 C   0  0  1  0  0  0  0  0  0  0  0  0
    3.0280   -2.5195    4.1301 C   0  0  2  0  0  0  0  0  0  0  0  0
    2.7606   -3.3801    2.9381 C   0  0  0  0  0  0  0  0  0  0  0  0
    2.5292   -4.5778    3.0087 O   0  0  0  0  0  0  0  0  0  0  0  0
    2.7345   -2.5856    1.6048 C   0  0  2  0  0  0  0  0  0  0  0  0
    2.2428   -2.1790    5.3598 C   0  0  0  0  0  0  0  0  0  0  0  0
    2.8882   -1.3353    6.4352 C   0  0  0  0  0  0  0  0  0  0  0  0
    1.3359   -3.2189    5.9852 C   0  0  0  0  0  0  0  0  0  0  0  0
    3.3429   -3.4058   -3.7211 H   0  0  0  0  0  0  0  0  0  0  0  0
    2.0430   -2.5676   -2.8499 H   0  0  0  0  0  0  0  0  0  0  0  0
    2.6448   -4.0609   -2.2400 H   0  0  0  0  0  0  0  0  0  0  0  0
    4.7792   -1.1117   -3.4115 H   0  0  0  0  0  0  0  0  0  0  0  0
    4.6995   -0.3698   -1.8003 H   0  0  0  0  0  0  0  0  0  0  0  0
    3.2354   -0.6012   -2.7208 H   0  0  0  0  0  0  0  0  0  0  0  0
    4.6049   -4.9070    1.1029 H   0  0  0  0  0  0  0  0  0  0  0  0
    2.8759   -5.4259   -0.8381 H   0  0  0  0  0  0  0  0  0  0  0  0
    6.0114   -4.9837   -0.5801 H   0  0  0  0  0  0  0  0  0  0  0  0
    4.7766   -5.3532   -1.6657 H   0  0  0  0  0  0  0  0  0  0  0  0
    5.6560   -3.5172   -2.7216 H   0  0  0  0  0  0  0  0  0  0  0  0
    7.4005   -2.9332   -1.3704 H   0  0  0  0  0  0  0  0  0  0  0  0
    6.5165   -1.4606   -1.4898 H   0  0  0  0  0  0  0  0  0  0  0  0
    6.8817   -3.3635    0.7832 H   0  0  0  0  0  0  0  0  0  0  0  0
    6.9405   -0.6198    0.9443 H   0  0  0  0  0  0  0  0  0  0  0  0
    5.2819   -2.8334    2.1121 H   0  0  0  0  0  0  0  0  0  0  0  0
    5.0467   -0.7158    2.7110 H   0  0  0  0  0  0  0  0  0  0  0  0
    4.3816    0.0552    0.1154 H   0  0  0  0  0  0  0  0  0  0  0  0
    2.5856   -0.5280    0.9948 H   0  0  0  0  0  0  0  0  0  0  0  0
    3.1063    0.1931    3.6760 H   0  0  0  0  0  0  0  0  0  0  0  0
    1.5471    0.2077    2.8608 H   0  0  0  0  0  0  0  0  0  0  0  0
    0.8958   -1.8612    3.7177 H   0  0  0  0  0  0  0  0  0  0  0  0
    4.0537   -2.1660    4.2037 H   0  0  0  0  0  0  0  0  0  0  0  0
    1.7575   -2.7160    1.1384 H   0  0  0  0  0  0  0  0  0  0  0  0
    3.4990   -1.9505    7.0988 H   0  0  0  0  0  0  0  0  0  0  0  0
    2.1245   -0.8122    7.0246 H   0  0  0  0  0  0  0  0  0  0  0  0
    3.5363   -0.5793    5.9722 H   0  0  0  0  0  0  0  0  0  0  0  0
    1.9180   -3.8845    6.6181 H   0  0  0  0  0  0  0  0  0  0  0  0
    0.8628   -3.8172    5.2079 H   0  0  0  0  0  0  0  0  0  0  0  0
    0.5592   -2.7487    6.5824 H   0  0  0  0  0  0  0  0  0  0  0  0
  1  2  1  0
  1 26  1  0
  1 27  1  0
  1 28  1  0
  2  9  1  0
  2  3  1  0
  2  4  1  0
  3 29  1  0
  3 30  1  0
  3 31  1  0
  5  4  1  6
  5 13  1  0
  5 22  1  0
  5  6  1  0
  6  7  1  0
  6  8  1  0
  6 32  1  1
  7 33  1  0
  8  9  1  0
  8 34  1  0
  8 35  1  0
  9 10  1  0
  9 36  1  6
 10 11  1  0
 10 37  1  0
 10 38  1  0
 11 12  1  0
 11 13  1  0
 11 39  1  1
 12 40  1  0
 13 14  1  0
 13 41  1  1
 14 15  1  0
 14 16  1  0
 14 42  1  1
 15 43  1  0
 16 22  1  0
 16 17  1  0
 16 44  1  6
 17 18  1  0
 17 45  1  0
 17 46  1  0
 18 23  1  0
 18 19  1  0
 18 47  1  6
 19 20  1  0
 19 23  1  0
 19 48  1  1
 20 21  2  0
 20 22  1  0
 22 49  1  6
 23 24  1  0
 23 25  1  0
 24 50  1  0
 24 51  1  0
 24 52  1  0
 25 53  1  0
 25 54  1  0
 25 55  1  0
M  END
>  <i_m_ct_stereo_status>  (151) 
1

>  <s_m_source_file>  (151) 
/var/tmp/pbs.5076255.sched01/tmpcsrx8n8z/40wzjmt8mb.sdf

>  <i_m_source_file_index>  (151) 
25

>  <i_lp_mmshare_version>  (151) 
48012

>  <i_f3d_flags>  (151) 
0

>  <s_epik_input>  (151) 
W09IXVtDQEhdMVtDSDJdW0NAQEhdKEMoTzIpKFtDSDNdKVtDSDNdKVtDSDJdW0NAQEhdKFtPSF0pW0NASF0oW0NAXTEyMylbQ0BASF0oW09IXSlbQ0BIXTRbQ0BASF0zQyg9TylbQ0BIXTVbQ0BIXShbQ0gyXTQpQzUoW0NIM10pW0NIM10=

>  <s_epik_cmdline>  (151) 
J2VwaWtfcHl0aG9uJywgJy1waHQnLCAnMi4wJywgJy1waCcsICc3LjAnLCAnLXRuJywgJzgnLCAnLW1hJywgJzIwMCcsICctaW1hZScsICc8aW5maWxlLm1hZT4nLCAnLW9tYWUnLCAnPG91dGZpbGUubWFlPic=

>  <r_lp_tautomer_probability>  (151) 
1

>  <r_epik_Ionization_Penalty>  (151) 
2.30202e-07

>  <r_epik_Ionization_Penalty_Charging>  (151) 
0

>  <r_epik_Ionization_Penalty_Neutral>  (151) 
2.30202e-07

>  <r_epik_State_Penalty>  (151) 
-0

>  <r_epik_Charging_Adjusted_Penalty>  (151) 
0

>  <i_epik_Tot_Q>  (151) 
0

>  <i_epik_Tot_abs_Q>  (151) 
0

>  <s_lp_Force_Field>  (151) 
OPLS3e

>  <r_lp_Energy>  (151) 
65.7223

>  <b_lp_Chiralities_Consistent>  (151) 
1

>  <s_lp_Variant>  (151) 
44:0-1

>  <s_i_glide_gridfile>  (151) 
pfpi4k_grid

>  <i_i_glide_lignum>  (151) 
25

>  <i_i_glide_rotatable_bonds>  (151) 
3

>  <r_i_docking_score>  (151) 
-3.29297

>  <r_i_glide_ligand_efficiency>  (151) 
-0.131719

>  <r_i_glide_ligand_efficiency_sa>  (151) 
-0.385149

>  <r_i_glide_ligand_efficiency_ln>  (151) 
-0.780533

>  <r_i_glide_gscore>  (151) 
-3.29297

>  <r_i_glide_lipo>  (151) 
-0.317847

>  <r_i_glide_hbond>  (151) 
0

>  <r_i_glide_metal>  (151) 
-0

>  <r_i_glide_rewards>  (151) 
-1.01966

>  <r_i_glide_evdw>  (151) 
-23.6324

>  <r_i_glide_ecoul>  (151) 
-5.15555

>  <r_i_glide_erotb>  (151) 
0

>  <r_i_glide_esite>  (151) 
-0.000507368

>  <r_i_glide_emodel>  (151) 
-31.6454

>  <r_i_glide_energy>  (151) 
-28.788

>  <r_i_glide_einternal>  (151) 
1.75851

>  <r_i_glide_intrahb_reward>  (151) 
-0

>  <i_i_glide_confnum>  (151) 
2

>  <i_i_glide_posenum>  (151) 
17

>  <r_i_glide_eff_state_penalty>  (151) 
0

>  <ligand_id>  (151) 
44

>  <original_smiles>  (151) 
CC1(C)OC23C(O)CC1CC(O)C2C(O)C1CC2C(C(=O)C13)C2(C)C

>  <smiles>  (151) 
[H]OC1([H])C([H])([H])C2([H])C([H])([H])C([H])(O[H])C3(OC2(C([H])([H])[H])C([H])([H])[H])C2([H])C(=O)C4([H])C([H])(C([H])([H])C2([H])C([H])(O[H])C13[H])C4(C([H])([H])[H])C([H])([H])[H]

$$$$
45:0:0
     RDKit          3D

 32 33  0  0  1  0  0  0  0  0999 V2000
  -11.6733  -12.5736   -8.6044 C   0  0  0  0  0  0  0  0  0  0  0  0
  -10.7711  -11.4034   -8.9991 C   0  0  0  0  0  0  0  0  0  0  0  0
   -9.3332  -11.5532   -8.4736 C   0  0  0  0  0  0  0  0  0  0  0  0
   -8.4074  -10.4185   -8.9462 C   0  0  2  0  0  0  0  0  0  0  0  0
   -7.0610  -10.7058   -8.6458 O   0  0  0  0  0  0  0  0  0  0  0  0
   -6.4736   -9.7655   -7.8686 C   0  0  0  0  0  0  0  0  0  0  0  0
   -5.2966   -9.7682   -7.5178 O   0  0  0  0  0  0  0  0  0  0  0  0
   -7.4164   -8.8374   -7.5904 N   0  0  0  0  0  0  0  0  0  0  0  0
   -7.1985   -7.6820   -6.7733 C   0  0  0  0  0  0  0  0  0  0  0  0
   -6.4087   -7.7661   -5.5980 C   0  0  0  0  0  0  0  0  0  0  0  0
   -6.1906   -6.6321   -4.7964 C   0  0  0  0  0  0  0  0  0  0  0  0
   -6.7750   -5.3998   -5.1411 C   0  0  0  0  0  0  0  0  0  0  0  0
   -6.5470   -4.1891   -4.2740 C   0  0  0  0  0  0  0  0  0  0  0  0
   -7.5718   -5.3005   -6.2990 C   0  0  0  0  0  0  0  0  0  0  0  0
   -7.7790   -6.4315   -7.1117 C   0  0  0  0  0  0  0  0  0  0  0  0
   -8.5839   -9.1416   -8.1659 C   0  0  0  0  0  0  0  0  0  0  0  0
   -9.6468   -8.5272   -8.0809 O   0  0  0  0  0  0  0  0  0  0  0  0
  -12.6836  -12.4207   -8.9903 H   0  0  0  0  0  0  0  0  0  0  0  0
  -11.7375  -12.6600   -7.5197 H   0  0  0  0  0  0  0  0  0  0  0  0
  -11.2925  -13.5155   -9.0030 H   0  0  0  0  0  0  0  0  0  0  0  0
  -10.7497  -11.3126  -10.0867 H   0  0  0  0  0  0  0  0  0  0  0  0
  -11.2229  -10.4862   -8.6226 H   0  0  0  0  0  0  0  0  0  0  0  0
   -9.3475  -11.6085   -7.3809 H   0  0  0  0  0  0  0  0  0  0  0  0
   -8.9240  -12.5053   -8.8127 H   0  0  0  0  0  0  0  0  0  0  0  0
   -5.9697   -8.7043   -5.2904 H   0  0  0  0  0  0  0  0  0  0  0  0
   -5.5818   -6.7217   -3.9097 H   0  0  0  0  0  0  0  0  0  0  0  0
   -7.3465   -3.4659   -4.4151 H   0  0  0  0  0  0  0  0  0  0  0  0
   -5.6051   -3.7096   -4.5360 H   0  0  0  0  0  0  0  0  0  0  0  0
   -6.5217   -4.4686   -3.2212 H   0  0  0  0  0  0  0  0  0  0  0  0
   -8.0213   -4.3584   -6.5771 H   0  0  0  0  0  0  0  0  0  0  0  0
   -8.3858   -6.3229   -7.9991 H   0  0  0  0  0  0  0  0  0  0  0  0
   -8.5155  -10.2305  -10.0177 H   0  0  0  0  0  0  0  0  0  0  0  0
  1  2  1  0
  1 18  1  0
  1 19  1  0
  1 20  1  0
  2  3  1  0
  2 21  1  0
  2 22  1  0
  3 23  1  0
  3 24  1  0
  3  4  1  0
  4 32  1  6
  4 16  1  0
  4  5  1  0
  5  6  1  0
  6  8  1  0
  6  7  2  0
  8 16  1  0
  8  9  1  0
  9 15  1  0
  9 10  2  0
 10 11  1  0
 10 25  1  0
 11 12  2  0
 11 26  1  0
 12 13  1  0
 12 14  1  0
 13 27  1  0
 13 28  1  0
 13 29  1  0
 14 15  2  0
 14 30  1  0
 15 31  1  0
 16 17  2  0
M  END
>  <i_m_ct_stereo_status>  (152) 
1

>  <s_m_source_file>  (152) 
/var/tmp/pbs.5076255.sched01/tmpcsrx8n8z/40wzjmt8mb.sdf

>  <i_m_source_file_index>  (152) 
26

>  <i_lp_mmshare_version>  (152) 
48012

>  <i_f3d_flags>  (152) 
0

>  <s_epik_input>  (152) 
W0NIM11bQ0gyXVtDSDJdYzFvYyg9TyluKGMxW09IXSktYzJbY0hdW2NIXWMoW0NIM10pW2NIXVtjSF0y

>  <s_epik_cmdline>  (152) 
J2VwaWtfcHl0aG9uJywgJy1waHQnLCAnMi4wJywgJy1waCcsICc3LjAnLCAnLXRuJywgJzgnLCAnLW1hJywgJzIwMCcsICctaW1hZScsICc8aW5maWxlLm1hZT4nLCAnLW9tYWUnLCAnPG91dGZpbGUubWFlPic=

>  <r_lp_tautomer_probability>  (152) 
1

>  <r_epik_Ionization_Penalty>  (152) 
5.04817e-11

>  <r_epik_Ionization_Penalty_Charging>  (152) 
0

>  <r_epik_Ionization_Penalty_Neutral>  (152) 
5.04817e-11

>  <r_epik_State_Penalty>  (152) 
-0

>  <r_epik_Charging_Adjusted_Penalty>  (152) 
0

>  <i_epik_Tot_Q>  (152) 
0

>  <i_epik_Tot_abs_Q>  (152) 
0

>  <s_epik_Chemistry_Notes>  (152) 
This compound has an ester and may undergo hydrolysis at high or low pH.

>  <s_lp_Force_Field>  (152) 
OPLS3e

>  <r_lp_Energy>  (152) 
16.2326

>  <b_lp_Chiralities_Consistent>  (152) 
1

>  <s_lp_Variant>  (152) 
45:0-1

>  <s_i_glide_gridfile>  (152) 
pfpi4k_grid

>  <i_i_glide_lignum>  (152) 
26

>  <i_i_glide_rotatable_bonds>  (152) 
3

>  <r_i_docking_score>  (152) 
-5.41966

>  <r_i_glide_ligand_efficiency>  (152) 
-0.318803

>  <r_i_glide_ligand_efficiency_sa>  (152) 
-0.819733

>  <r_i_glide_ligand_efficiency_ln>  (152) 
-1.41387

>  <r_i_glide_gscore>  (152) 
-5.41966

>  <r_i_glide_lipo>  (152) 
-2.03515

>  <r_i_glide_hbond>  (152) 
0

>  <r_i_glide_metal>  (152) 
-0

>  <r_i_glide_rewards>  (152) 
-2.73216

>  <r_i_glide_evdw>  (152) 
-23.978

>  <r_i_glide_ecoul>  (152) 
-0.558445

>  <r_i_glide_erotb>  (152) 
0.630322

>  <r_i_glide_esite>  (152) 
0

>  <r_i_glide_emodel>  (152) 
-34.379

>  <r_i_glide_energy>  (152) 
-24.5365

>  <r_i_glide_einternal>  (152) 
0.111289

>  <r_i_glide_intrahb_reward>  (152) 
-0

>  <i_i_glide_confnum>  (152) 
1

>  <i_i_glide_posenum>  (152) 
32

>  <r_i_glide_eff_state_penalty>  (152) 
0

>  <ligand_id>  (152) 
45

>  <original_smiles>  (152) 
CCCc1oc(=O)n(-c2ccc(C)cc2)c1O

>  <smiles>  (152) 
[H]c1c([H])c(C([H])([H])[H])c([H])c([H])c1N1C(=O)OC([H])(C([H])([H])C([H])([H])C([H])([H])[H])C1=O

$$$$
45:0:1
     RDKit          3D

 32 33  0  0  1  0  0  0  0  0999 V2000
  -12.1293   -8.0754   -7.5943 C   0  0  0  0  0  0  0  0  0  0  0  0
  -11.8306   -8.8368   -8.9004 C   0  0  0  0  0  0  0  0  0  0  0  0
  -11.7357   -7.9797  -10.1925 C   0  0  0  0  0  0  0  0  0  0  0  0
  -10.4316   -7.1726  -10.3881 C   0  0  2  0  0  0  0  0  0  0  0  0
   -9.2953   -8.0056  -10.4521 O   0  0  0  0  0  0  0  0  0  0  0  0
   -8.4104   -7.7280   -9.4703 C   0  0  0  0  0  0  0  0  0  0  0  0
   -7.3542   -8.3393   -9.3215 O   0  0  0  0  0  0  0  0  0  0  0  0
   -8.9162   -6.7431   -8.6783 N   0  0  0  0  0  0  0  0  0  0  0  0
   -8.2917   -6.2227   -7.4844 C   0  0  0  0  0  0  0  0  0  0  0  0
   -7.4437   -7.0486   -6.6918 C   0  0  0  0  0  0  0  0  0  0  0  0
   -6.8246   -6.5447   -5.5473 C   0  0  0  0  0  0  0  0  0  0  0  0
   -7.0629   -5.2174   -5.1484 C   0  0  0  0  0  0  0  0  0  0  0  0
   -6.3870   -4.6756   -3.9216 C   0  0  0  0  0  0  0  0  0  0  0  0
   -7.9312   -4.4090   -5.8835 C   0  0  0  0  0  0  0  0  0  0  0  0
   -8.5273   -4.8956   -7.0477 C   0  0  0  0  0  0  0  0  0  0  0  0
  -10.0931   -6.3157   -9.1814 C   0  0  0  0  0  0  0  0  0  0  0  0
  -10.8083   -5.3881   -8.7884 O   0  0  0  0  0  0  0  0  0  0  0  0
  -12.3072   -8.7728   -6.7796 H   0  0  0  0  0  0  0  0  0  0  0  0
  -13.0331   -7.4917   -7.7077 H   0  0  0  0  0  0  0  0  0  0  0  0
  -11.3344   -7.3774   -7.3331 H   0  0  0  0  0  0  0  0  0  0  0  0
  -10.9274   -9.4356   -8.7891 H   0  0  0  0  0  0  0  0  0  0  0  0
  -12.6224   -9.5769   -9.0592 H   0  0  0  0  0  0  0  0  0  0  0  0
  -11.8116   -8.6382  -11.0537 H   0  0  0  0  0  0  0  0  0  0  0  0
  -12.6075   -7.3240  -10.2586 H   0  0  0  0  0  0  0  0  0  0  0  0
   -7.2552   -8.0804   -6.9402 H   0  0  0  0  0  0  0  0  0  0  0  0
   -6.1611   -7.1652   -4.9790 H   0  0  0  0  0  0  0  0  0  0  0  0
   -6.9705   -3.8737   -3.4837 H   0  0  0  0  0  0  0  0  0  0  0  0
   -5.3996   -4.2903   -4.1782 H   0  0  0  0  0  0  0  0  0  0  0  0
   -6.2912   -5.4452   -3.1594 H   0  0  0  0  0  0  0  0  0  0  0  0
   -8.1350   -3.3996   -5.5834 H   0  0  0  0  0  0  0  0  0  0  0  0
   -9.1692   -4.2268   -7.5900 H   0  0  0  0  0  0  0  0  0  0  0  0
  -10.4839   -6.5275  -11.2730 H   0  0  0  0  0  0  0  0  0  0  0  0
  1  2  1  0
  1 18  1  0
  1 19  1  0
  1 20  1  0
  2  3  1  0
  2 21  1  0
  2 22  1  0
  3 23  1  0
  3 24  1  0
  3  4  1  0
  4 32  1  6
  4 16  1  0
  4  5  1  0
  5  6  1  0
  6  8  1  0
  6  7  2  0
  8 16  1  0
  8  9  1  0
  9 15  1  0
  9 10  2  0
 10 11  1  0
 10 25  1  0
 11 12  2  0
 11 26  1  0
 12 13  1  0
 12 14  1  0
 13 27  1  0
 13 28  1  0
 13 29  1  0
 14 15  2  0
 14 30  1  0
 15 31  1  0
 16 17  2  0
M  END
>  <i_m_ct_stereo_status>  (153) 
1

>  <s_m_source_file>  (153) 
/var/tmp/pbs.5076255.sched01/tmpcsrx8n8z/40wzjmt8mb.sdf

>  <i_m_source_file_index>  (153) 
26

>  <i_lp_mmshare_version>  (153) 
48012

>  <i_f3d_flags>  (153) 
0

>  <s_epik_input>  (153) 
W0NIM11bQ0gyXVtDSDJdYzFvYyg9TyluKGMxW09IXSktYzJbY0hdW2NIXWMoW0NIM10pW2NIXVtjSF0y

>  <s_epik_cmdline>  (153) 
J2VwaWtfcHl0aG9uJywgJy1waHQnLCAnMi4wJywgJy1waCcsICc3LjAnLCAnLXRuJywgJzgnLCAnLW1hJywgJzIwMCcsICctaW1hZScsICc8aW5maWxlLm1hZT4nLCAnLW9tYWUnLCAnPG91dGZpbGUubWFlPic=

>  <r_lp_tautomer_probability>  (153) 
1

>  <r_epik_Ionization_Penalty>  (153) 
5.04817e-11

>  <r_epik_Ionization_Penalty_Charging>  (153) 
0

>  <r_epik_Ionization_Penalty_Neutral>  (153) 
5.04817e-11

>  <r_epik_State_Penalty>  (153) 
-0

>  <r_epik_Charging_Adjusted_Penalty>  (153) 
0

>  <i_epik_Tot_Q>  (153) 
0

>  <i_epik_Tot_abs_Q>  (153) 
0

>  <s_epik_Chemistry_Notes>  (153) 
This compound has an ester and may undergo hydrolysis at high or low pH.

>  <s_lp_Force_Field>  (153) 
OPLS3e

>  <r_lp_Energy>  (153) 
16.2326

>  <b_lp_Chiralities_Consistent>  (153) 
1

>  <s_lp_Variant>  (153) 
45:0-1

>  <s_i_glide_gridfile>  (153) 
pfpi4k_grid

>  <i_i_glide_lignum>  (153) 
26

>  <i_i_glide_rotatable_bonds>  (153) 
3

>  <r_i_docking_score>  (153) 
-5.16469

>  <r_i_glide_ligand_efficiency>  (153) 
-0.303805

>  <r_i_glide_ligand_efficiency_sa>  (153) 
-0.781169

>  <r_i_glide_ligand_efficiency_ln>  (153) 
-1.34735

>  <r_i_glide_gscore>  (153) 
-5.16469

>  <r_i_glide_lipo>  (153) 
-1.8265

>  <r_i_glide_hbond>  (153) 
-0.0725283

>  <r_i_glide_metal>  (153) 
-0

>  <r_i_glide_rewards>  (153) 
-2.50896

>  <r_i_glide_evdw>  (153) 
-24.1892

>  <r_i_glide_ecoul>  (153) 
-1.10272

>  <r_i_glide_erotb>  (153) 
0.630322

>  <r_i_glide_esite>  (153) 
-0.0121537

>  <r_i_glide_emodel>  (153) 
-32.649

>  <r_i_glide_energy>  (153) 
-25.2919

>  <r_i_glide_einternal>  (153) 
2.76985

>  <r_i_glide_intrahb_reward>  (153) 
-0

>  <i_i_glide_confnum>  (153) 
1

>  <i_i_glide_posenum>  (153) 
18

>  <r_i_glide_eff_state_penalty>  (153) 
0

>  <ligand_id>  (153) 
45

>  <original_smiles>  (153) 
CCCc1oc(=O)n(-c2ccc(C)cc2)c1O

>  <smiles>  (153) 
[H]c1c([H])c(C([H])([H])[H])c([H])c([H])c1N1C(=O)OC([H])(C([H])([H])C([H])([H])C([H])([H])[H])C1=O

$$$$
45:0:2
     RDKit          3D

 32 33  0  0  1  0  0  0  0  0999 V2000
    1.7780    2.9777    2.7778 C   0  0  0  0  0  0  0  0  0  0  0  0
    1.5997    1.4565    2.9809 C   0  0  0  0  0  0  0  0  0  0  0  0
    0.3917    0.8364    2.2038 C   0  0  0  0  0  0  0  0  0  0  0  0
   -1.0550    1.1166    2.7237 C   0  0  2  0  0  0  0  0  0  0  0  0
   -1.4364    2.4807    2.6701 O   0  0  0  0  0  0  0  0  0  0  0  0
   -1.6326    3.0097    3.9094 C   0  0  0  0  0  0  0  0  0  0  0  0
   -1.8451    4.2150    4.1418 O   0  0  0  0  0  0  0  0  0  0  0  0
   -1.5027    2.0214    4.8100 N   0  0  0  0  0  0  0  0  0  0  0  0
   -1.6694    2.1826    6.2057 C   0  0  0  0  0  0  0  0  0  0  0  0
   -0.7626    1.6170    7.1391 C   0  0  0  0  0  0  0  0  0  0  0  0
   -0.9802    1.7673    8.5237 C   0  0  0  0  0  0  0  0  0  0  0  0
   -2.0954    2.4938    8.9955 C   0  0  0  0  0  0  0  0  0  0  0  0
   -2.3377    2.6462   10.4734 C   0  0  0  0  0  0  0  0  0  0  0  0
   -2.9872    3.0733    8.0725 C   0  0  0  0  0  0  0  0  0  0  0  0
   -2.7803    2.9183    6.6938 C   0  0  0  0  0  0  0  0  0  0  0  0
   -1.1883    0.8548    4.2108 C   0  0  0  0  0  0  0  0  0  0  0  0
   -1.0449   -0.2338    4.7456 O   0  0  0  0  0  0  0  0  0  0  0  0
    2.6500    3.3505    3.3266 H   0  0  0  0  0  0  0  0  0  0  0  0
    0.9309    3.5758    3.1206 H   0  0  0  0  0  0  0  0  0  0  0  0
    1.9026    3.2019    1.7135 H   0  0  0  0  0  0  0  0  0  0  0  0
    2.5157    0.9668    2.6506 H   0  0  0  0  0  0  0  0  0  0  0  0
    1.5493    1.2264    4.0421 H   0  0  0  0  0  0  0  0  0  0  0  0
    0.4639    1.1144    1.1483 H   0  0  0  0  0  0  0  0  0  0  0  0
    0.5471   -0.2486    2.1856 H   0  0  0  0  0  0  0  0  0  0  0  0
    0.1026    1.0641    6.8049 H   0  0  0  0  0  0  0  0  0  0  0  0
   -0.2896    1.3311    9.2322 H   0  0  0  0  0  0  0  0  0  0  0  0
   -3.3927    2.8253   10.6921 H   0  0  0  0  0  0  0  0  0  0  0  0
   -1.7722    3.4908   10.8660 H   0  0  0  0  0  0  0  0  0  0  0  0
   -2.0244    1.7490   11.0033 H   0  0  0  0  0  0  0  0  0  0  0  0
   -3.8423    3.6256    8.4276 H   0  0  0  0  0  0  0  0  0  0  0  0
   -3.4814    3.3446    5.9995 H   0  0  0  0  0  0  0  0  0  0  0  0
   -1.7840    0.5186    2.1596 H   0  0  0  0  0  0  0  0  0  0  0  0
  1  2  1  0
  1 18  1  0
  1 19  1  0
  1 20  1  0
  2  3  1  0
  2 21  1  0
  2 22  1  0
  3 23  1  0
  3 24  1  0
  3  4  1  0
  4 32  1  6
  4 16  1  0
  4  5  1  0
  5  6  1  0
  6  8  1  0
  6  7  2  0
  8 16  1  0
  8  9  1  0
  9 15  1  0
  9 10  2  0
 10 11  1  0
 10 25  1  0
 11 12  2  0
 11 26  1  0
 12 13  1  0
 12 14  1  0
 13 27  1  0
 13 28  1  0
 13 29  1  0
 14 15  2  0
 14 30  1  0
 15 31  1  0
 16 17  2  0
M  END
>  <i_m_ct_stereo_status>  (154) 
1

>  <s_m_source_file>  (154) 
/var/tmp/pbs.5076255.sched01/tmpcsrx8n8z/40wzjmt8mb.sdf

>  <i_m_source_file_index>  (154) 
26

>  <i_lp_mmshare_version>  (154) 
48012

>  <i_f3d_flags>  (154) 
0

>  <s_epik_input>  (154) 
W0NIM11bQ0gyXVtDSDJdYzFvYyg9TyluKGMxW09IXSktYzJbY0hdW2NIXWMoW0NIM10pW2NIXVtjSF0y

>  <s_epik_cmdline>  (154) 
J2VwaWtfcHl0aG9uJywgJy1waHQnLCAnMi4wJywgJy1waCcsICc3LjAnLCAnLXRuJywgJzgnLCAnLW1hJywgJzIwMCcsICctaW1hZScsICc8aW5maWxlLm1hZT4nLCAnLW9tYWUnLCAnPG91dGZpbGUubWFlPic=

>  <r_lp_tautomer_probability>  (154) 
1

>  <r_epik_Ionization_Penalty>  (154) 
5.04817e-11

>  <r_epik_Ionization_Penalty_Charging>  (154) 
0

>  <r_epik_Ionization_Penalty_Neutral>  (154) 
5.04817e-11

>  <r_epik_State_Penalty>  (154) 
-0

>  <r_epik_Charging_Adjusted_Penalty>  (154) 
0

>  <i_epik_Tot_Q>  (154) 
0

>  <i_epik_Tot_abs_Q>  (154) 
0

>  <s_epik_Chemistry_Notes>  (154) 
This compound has an ester and may undergo hydrolysis at high or low pH.

>  <s_lp_Force_Field>  (154) 
OPLS3e

>  <r_lp_Energy>  (154) 
16.2326

>  <b_lp_Chiralities_Consistent>  (154) 
1

>  <s_lp_Variant>  (154) 
45:0-1

>  <s_i_glide_gridfile>  (154) 
pfpi4k_grid

>  <i_i_glide_lignum>  (154) 
26

>  <i_i_glide_rotatable_bonds>  (154) 
3

>  <r_i_docking_score>  (154) 
-3.52341

>  <r_i_glide_ligand_efficiency>  (154) 
-0.207259

>  <r_i_glide_ligand_efficiency_sa>  (154) 
-0.532922

>  <r_i_glide_ligand_efficiency_ln>  (154) 
-0.919179

>  <r_i_glide_gscore>  (154) 
-3.52341

>  <r_i_glide_lipo>  (154) 
-0.290939

>  <r_i_glide_hbond>  (154) 
-0.073766

>  <r_i_glide_metal>  (154) 
-0

>  <r_i_glide_rewards>  (154) 
-1.81866

>  <r_i_glide_evdw>  (154) 
-22.108

>  <r_i_glide_ecoul>  (154) 
-5.19795

>  <r_i_glide_erotb>  (154) 
0.630322

>  <r_i_glide_esite>  (154) 
-0.0852704

>  <r_i_glide_emodel>  (154) 
-32.7955

>  <r_i_glide_energy>  (154) 
-27.306

>  <r_i_glide_einternal>  (154) 
1.58625

>  <r_i_glide_intrahb_reward>  (154) 
-0

>  <i_i_glide_confnum>  (154) 
2

>  <i_i_glide_posenum>  (154) 
35

>  <r_i_glide_eff_state_penalty>  (154) 
0

>  <ligand_id>  (154) 
45

>  <original_smiles>  (154) 
CCCc1oc(=O)n(-c2ccc(C)cc2)c1O

>  <smiles>  (154) 
[H]c1c([H])c(C([H])([H])[H])c([H])c([H])c1N1C(=O)OC([H])(C([H])([H])C([H])([H])C([H])([H])[H])C1=O

$$$$
48:0:0
     RDKit          3D

 42 44  0  0  1  0  0  0  0  0999 V2000
    4.6899   -5.6874    2.1641 C   0  0  0  0  0  0  0  0  0  0  0  0
    5.3843   -4.8740    1.0427 C   0  0  0  0  0  0  0  0  0  0  0  0
    6.8852   -5.2478    1.1253 C   0  0  0  0  0  0  0  0  0  0  0  0
    4.8165   -5.3494   -0.3260 C   0  0  0  0  0  0  0  0  0  0  0  0
    4.7120   -4.2398   -1.3908 C   0  0  0  0  0  0  0  0  0  0  0  0
    5.8327   -3.1935   -1.2692 C   0  0  1  0  0  0  0  0  0  0  0  0
    5.7156   -2.1928   -2.2723 O   0  0  0  0  0  0  0  0  0  0  0  0
    4.9267   -1.1037   -1.8122 C   0  0  1  0  0  0  0  0  0  0  0  0
    3.4947   -1.2161   -2.3989 C   0  0  0  0  0  0  0  0  0  0  0  0
    3.3959   -0.7207   -3.8428 C   0  0  0  0  0  0  0  0  0  0  0  0
    4.2094   -1.0584   -4.7009 O   0  0  0  0  0  0  0  0  0  0  0  0
    5.1089   -1.1076   -0.2754 C   0  0  1  0  0  0  0  0  0  0  0  0
    3.8799   -0.7504    0.5360 C   0  0  0  0  0  0  0  0  0  0  0  0
    3.2402   -1.6004    1.3360 C   0  0  0  0  0  0  0  0  0  0  0  0
    3.6562   -3.0329    1.5161 C   0  0  0  0  0  0  0  0  0  0  0  0
    5.1600   -3.3225    1.2298 C   0  0  2  0  0  0  0  0  0  0  0  0
    5.8154   -2.4461    0.0816 C   0  0  1  0  0  0  0  0  0  0  0  0
    7.2684   -2.0574    0.4643 C   0  0  0  0  0  0  0  0  0  0  0  0
    4.9367   -6.7511    2.0876 H   0  0  0  0  0  0  0  0  0  0  0  0
    3.6019   -5.6226    2.1018 H   0  0  0  0  0  0  0  0  0  0  0  0
    4.9944   -5.3433    3.1572 H   0  0  0  0  0  0  0  0  0  0  0  0
    7.4366   -4.9732    0.2295 H   0  0  0  0  0  0  0  0  0  0  0  0
    7.0313   -6.3245    1.2350 H   0  0  0  0  0  0  0  0  0  0  0  0
    7.3701   -4.7754    1.9816 H   0  0  0  0  0  0  0  0  0  0  0  0
    5.4137   -6.1728   -0.7052 H   0  0  0  0  0  0  0  0  0  0  0  0
    3.8143   -5.7712   -0.1978 H   0  0  0  0  0  0  0  0  0  0  0  0
    4.7225   -4.6553   -2.3957 H   0  0  0  0  0  0  0  0  0  0  0  0
    3.7423   -3.7690   -1.2623 H   0  0  0  0  0  0  0  0  0  0  0  0
    6.7931   -3.6822   -1.4417 H   0  0  0  0  0  0  0  0  0  0  0  0
    5.3842   -0.1951   -2.2030 H   0  0  0  0  0  0  0  0  0  0  0  0
    3.1309   -2.2391   -2.3860 H   0  0  0  0  0  0  0  0  0  0  0  0
    2.7792   -0.6576   -1.8080 H   0  0  0  0  0  0  0  0  0  0  0  0
    2.5517   -0.0638   -4.0479 H   0  0  0  0  0  0  0  0  0  0  0  0
    5.7798   -0.2783   -0.0420 H   0  0  0  0  0  0  0  0  0  0  0  0
    3.5227    0.2677    0.4767 H   0  0  0  0  0  0  0  0  0  0  0  0
    2.3515   -1.2782    1.8631 H   0  0  0  0  0  0  0  0  0  0  0  0
    3.4328   -3.2944    2.5516 H   0  0  0  0  0  0  0  0  0  0  0  0
    2.9952   -3.6313    0.8898 H   0  0  0  0  0  0  0  0  0  0  0  0
    5.6645   -3.0321    2.1535 H   0  0  0  0  0  0  0  0  0  0  0  0
    7.2787   -1.4443    1.3659 H   0  0  0  0  0  0  0  0  0  0  0  0
    7.7424   -1.4699   -0.3209 H   0  0  0  0  0  0  0  0  0  0  0  0
    7.9224   -2.9058    0.6380 H   0  0  0  0  0  0  0  0  0  0  0  0
  1  2  1  0
  1 19  1  0
  1 20  1  0
  1 21  1  0
  2 16  1  0
  2  3  1  0
  2  4  1  0
  3 22  1  0
  3 23  1  0
  3 24  1  0
  4  5  1  0
  4 25  1  0
  4 26  1  0
  5  6  1  0
  5 27  1  0
  5 28  1  0
  6 17  1  0
  6  7  1  0
  6 29  1  6
  7  8  1  0
  8  9  1  0
  8 12  1  0
  8 30  1  6
  9 10  1  0
  9 31  1  0
  9 32  1  0
 10 11  2  0
 10 33  1  0
 12 17  1  0
 12 13  1  0
 12 34  1  6
 13 14  2  0
 13 35  1  0
 14 15  1  0
 14 36  1  0
 15 16  1  0
 15 37  1  0
 15 38  1  0
 16 17  1  0
 16 39  1  1
 17 18  1  1
 18 40  1  0
 18 41  1  0
 18 42  1  0
M  END
>  <i_m_ct_stereo_status>  (155) 
1

>  <s_m_source_file>  (155) 
/var/tmp/pbs.5076255.sched01/tmpcsrx8n8z/40wzjmt8mb.sdf

>  <i_m_source_file_index>  (155) 
29

>  <i_lp_mmshare_version>  (155) 
48012

>  <i_f3d_flags>  (155) 
0

>  <s_epik_input>  (155) 
W0NIM11bQ0BdMTJbQ0BIXTNbQ0gyXVtDSDJdQyhbQ0gzXSkoW0NIM10pW0NAQEhdMltDSDJdW0NIXT1bQ0hdW0NAQEhdMVtDQEBIXShPMylbQ0gyXVtDSF09Tw==

>  <s_epik_cmdline>  (155) 
J2VwaWtfcHl0aG9uJywgJy1waHQnLCAnMi4wJywgJy1waCcsICc3LjAnLCAnLXRuJywgJzgnLCAnLW1hJywgJzIwMCcsICctaW1hZScsICc8aW5maWxlLm1hZT4nLCAnLW9tYWUnLCAnPG91dGZpbGUubWFlPic=

>  <r_lp_tautomer_probability>  (155) 
1

>  <r_epik_Ionization_Penalty>  (155) 
5.05236e-08

>  <r_epik_Ionization_Penalty_Charging>  (155) 
0

>  <r_epik_Ionization_Penalty_Neutral>  (155) 
5.05236e-08

>  <r_epik_State_Penalty>  (155) 
-0

>  <r_epik_Charging_Adjusted_Penalty>  (155) 
0

>  <i_epik_Tot_Q>  (155) 
0

>  <i_epik_Tot_abs_Q>  (155) 
0

>  <s_lp_Force_Field>  (155) 
OPLS3e

>  <r_lp_Energy>  (155) 
33.7069

>  <b_lp_Chiralities_Consistent>  (155) 
1

>  <s_lp_Variant>  (155) 
48:0-1

>  <s_i_glide_gridfile>  (155) 
pfpi4k_grid

>  <i_i_glide_lignum>  (155) 
29

>  <i_i_glide_rotatable_bonds>  (155) 
2

>  <r_i_docking_score>  (155) 
-4.17017

>  <r_i_glide_ligand_efficiency>  (155) 
-0.231676

>  <r_i_glide_ligand_efficiency_sa>  (155) 
-0.607163

>  <r_i_glide_ligand_efficiency_ln>  (155) 
-1.07192

>  <r_i_glide_gscore>  (155) 
-4.17017

>  <r_i_glide_lipo>  (155) 
-0.369323

>  <r_i_glide_hbond>  (155) 
-0.32

>  <r_i_glide_metal>  (155) 
-0

>  <r_i_glide_rewards>  (155) 
-2.02678

>  <r_i_glide_evdw>  (155) 
-21.3581

>  <r_i_glide_ecoul>  (155) 
-4.46228

>  <r_i_glide_erotb>  (155) 
0.283175

>  <r_i_glide_esite>  (155) 
0

>  <r_i_glide_emodel>  (155) 
-31.9605

>  <r_i_glide_energy>  (155) 
-25.8204

>  <r_i_glide_einternal>  (155) 
0.755849

>  <r_i_glide_intrahb_reward>  (155) 
-0

>  <i_i_glide_confnum>  (155) 
1

>  <i_i_glide_posenum>  (155) 
1

>  <r_i_glide_eff_state_penalty>  (155) 
0

>  <ligand_id>  (155) 
48

>  <original_smiles>  (155) 
CC1(C)CCC2OC(CC=O)C3C=CCC1C23C

>  <smiles>  (155) 
[H]C(=O)C([H])([H])C1([H])OC2([H])C([H])([H])C([H])([H])C(C([H])([H])[H])(C([H])([H])[H])C3([H])C([H])([H])C([H])=C([H])C1([H])C23C([H])([H])[H]

$$$$
48:0:1
     RDKit          3D

 42 44  0  0  1  0  0  0  0  0999 V2000
    3.0830   -5.0263    3.0611 C   0  0  0  0  0  0  0  0  0  0  0  0
    3.8289   -4.8901    1.7095 C   0  0  0  0  0  0  0  0  0  0  0  0
    4.6817   -6.1768    1.5853 C   0  0  0  0  0  0  0  0  0  0  0  0
    2.7746   -4.8582    0.5670 C   0  0  0  0  0  0  0  0  0  0  0  0
    3.1507   -3.9590   -0.6214 C   0  0  0  0  0  0  0  0  0  0  0  0
    4.6656   -3.9564   -0.8861 C   0  0  1  0  0  0  0  0  0  0  0  0
    4.9995   -3.1527   -2.0047 O   0  0  0  0  0  0  0  0  0  0  0  0
    5.2487   -1.8120   -1.6152 C   0  0  1  0  0  0  0  0  0  0  0  0
    4.0074   -0.9297   -1.8858 C   0  0  0  0  0  0  0  0  0  0  0  0
    3.4665   -1.0535   -3.3145 C   0  0  0  0  0  0  0  0  0  0  0  0
    4.2125   -1.0834   -4.2949 O   0  0  0  0  0  0  0  0  0  0  0  0
    5.7526   -1.9194   -0.1550 C   0  0  1  0  0  0  0  0  0  0  0  0
    5.2923   -0.8187    0.7757 C   0  0  0  0  0  0  0  0  0  0  0  0
    4.4975   -1.0171    1.8296 C   0  0  0  0  0  0  0  0  0  0  0  0
    3.9128   -2.3615    2.1772 C   0  0  0  0  0  0  0  0  0  0  0  0
    4.7252   -3.5892    1.6758 C   0  0  2  0  0  0  0  0  0  0  0  0
    5.4789   -3.3848    0.2946 C   0  0  1  0  0  0  0  0  0  0  0  0
    6.8724   -4.0697    0.3444 C   0  0  0  0  0  0  0  0  0  0  0  0
    2.5492   -5.9774    3.1233 H   0  0  0  0  0  0  0  0  0  0  0  0
    2.3312   -4.2496    3.1950 H   0  0  0  0  0  0  0  0  0  0  0  0
    3.7704   -4.9750    3.9082 H   0  0  0  0  0  0  0  0  0  0  0  0
    5.0331   -6.3475    0.5717 H   0  0  0  0  0  0  0  0  0  0  0  0
    4.1135   -7.0715    1.8449 H   0  0  0  0  0  0  0  0  0  0  0  0
    5.5499   -6.1500    2.2452 H   0  0  0  0  0  0  0  0  0  0  0  0
    2.5894   -5.8694    0.2109 H   0  0  0  0  0  0  0  0  0  0  0  0
    1.8162   -4.5144    0.9633 H   0  0  0  0  0  0  0  0  0  0  0  0
    2.6012   -4.2526   -1.5124 H   0  0  0  0  0  0  0  0  0  0  0  0
    2.8065   -2.9593   -0.3904 H   0  0  0  0  0  0  0  0  0  0  0  0
    4.9861   -4.9674   -1.1405 H   0  0  0  0  0  0  0  0  0  0  0  0
    6.0587   -1.4364   -2.2384 H   0  0  0  0  0  0  0  0  0  0  0  0
    3.1950   -1.1452   -1.1988 H   0  0  0  0  0  0  0  0  0  0  0  0
    4.2614    0.1144   -1.7221 H   0  0  0  0  0  0  0  0  0  0  0  0
    2.3845   -1.1226   -3.3896 H   0  0  0  0  0  0  0  0  0  0  0  0
    6.8308   -1.7596   -0.1808 H   0  0  0  0  0  0  0  0  0  0  0  0
    5.6731    0.1744    0.5660 H   0  0  0  0  0  0  0  0  0  0  0  0
    4.1965   -0.1887    2.4571 H   0  0  0  0  0  0  0  0  0  0  0  0
    3.8359   -2.4033    3.2637 H   0  0  0  0  0  0  0  0  0  0  0  0
    2.8920   -2.3632    1.7972 H   0  0  0  0  0  0  0  0  0  0  0  0
    5.5026   -3.7151    2.4303 H   0  0  0  0  0  0  0  0  0  0  0  0
    7.4988   -3.6427    1.1286 H   0  0  0  0  0  0  0  0  0  0  0  0
    7.4038   -3.9364   -0.5989 H   0  0  0  0  0  0  0  0  0  0  0  0
    6.8304   -5.1396    0.5181 H   0  0  0  0  0  0  0  0  0  0  0  0
  1  2  1  0
  1 19  1  0
  1 20  1  0
  1 21  1  0
  2 16  1  0
  2  3  1  0
  2  4  1  0
  3 22  1  0
  3 23  1  0
  3 24  1  0
  4  5  1  0
  4 25  1  0
  4 26  1  0
  5  6  1  0
  5 27  1  0
  5 28  1  0
  6 17  1  0
  6  7  1  0
  6 29  1  6
  7  8  1  0
  8  9  1  0
  8 12  1  0
  8 30  1  6
  9 10  1  0
  9 31  1  0
  9 32  1  0
 10 11  2  0
 10 33  1  0
 12 17  1  0
 12 13  1  0
 12 34  1  6
 13 14  2  0
 13 35  1  0
 14 15  1  0
 14 36  1  0
 15 16  1  0
 15 37  1  0
 15 38  1  0
 16 17  1  0
 16 39  1  1
 17 18  1  1
 18 40  1  0
 18 41  1  0
 18 42  1  0
M  END
>  <i_m_ct_stereo_status>  (156) 
1

>  <s_m_source_file>  (156) 
/var/tmp/pbs.5076255.sched01/tmpcsrx8n8z/40wzjmt8mb.sdf

>  <i_m_source_file_index>  (156) 
29

>  <i_lp_mmshare_version>  (156) 
48012

>  <i_f3d_flags>  (156) 
0

>  <s_epik_input>  (156) 
W0NIM11bQ0BdMTJbQ0BIXTNbQ0gyXVtDSDJdQyhbQ0gzXSkoW0NIM10pW0NAQEhdMltDSDJdW0NIXT1bQ0hdW0NAQEhdMVtDQEBIXShPMylbQ0gyXVtDSF09Tw==

>  <s_epik_cmdline>  (156) 
J2VwaWtfcHl0aG9uJywgJy1waHQnLCAnMi4wJywgJy1waCcsICc3LjAnLCAnLXRuJywgJzgnLCAnLW1hJywgJzIwMCcsICctaW1hZScsICc8aW5maWxlLm1hZT4nLCAnLW9tYWUnLCAnPG91dGZpbGUubWFlPic=

>  <r_lp_tautomer_probability>  (156) 
1

>  <r_epik_Ionization_Penalty>  (156) 
5.05236e-08

>  <r_epik_Ionization_Penalty_Charging>  (156) 
0

>  <r_epik_Ionization_Penalty_Neutral>  (156) 
5.05236e-08

>  <r_epik_State_Penalty>  (156) 
-0

>  <r_epik_Charging_Adjusted_Penalty>  (156) 
0

>  <i_epik_Tot_Q>  (156) 
0

>  <i_epik_Tot_abs_Q>  (156) 
0

>  <s_lp_Force_Field>  (156) 
OPLS3e

>  <r_lp_Energy>  (156) 
33.7069

>  <b_lp_Chiralities_Consistent>  (156) 
1

>  <s_lp_Variant>  (156) 
48:0-1

>  <s_i_glide_gridfile>  (156) 
pfpi4k_grid

>  <i_i_glide_lignum>  (156) 
29

>  <i_i_glide_rotatable_bonds>  (156) 
2

>  <r_i_docking_score>  (156) 
-3.6074

>  <r_i_glide_ligand_efficiency>  (156) 
-0.200411

>  <r_i_glide_ligand_efficiency_sa>  (156) 
-0.525226

>  <r_i_glide_ligand_efficiency_ln>  (156) 
-0.927264

>  <r_i_glide_gscore>  (156) 
-3.6074

>  <r_i_glide_lipo>  (156) 
-0.456975

>  <r_i_glide_hbond>  (156) 
-0.127488

>  <r_i_glide_metal>  (156) 
-0

>  <r_i_glide_rewards>  (156) 
-1.8826

>  <r_i_glide_evdw>  (156) 
-19.9928

>  <r_i_glide_ecoul>  (156) 
-2.82586

>  <r_i_glide_erotb>  (156) 
0.283175

>  <r_i_glide_esite>  (156) 
0

>  <r_i_glide_emodel>  (156) 
-28.1379

>  <r_i_glide_energy>  (156) 
-22.8186

>  <r_i_glide_einternal>  (156) 
0.860818

>  <r_i_glide_intrahb_reward>  (156) 
-0

>  <i_i_glide_confnum>  (156) 
4

>  <i_i_glide_posenum>  (156) 
30

>  <r_i_glide_eff_state_penalty>  (156) 
0

>  <ligand_id>  (156) 
48

>  <original_smiles>  (156) 
CC1(C)CCC2OC(CC=O)C3C=CCC1C23C

>  <smiles>  (156) 
[H]C(=O)C([H])([H])C1([H])OC2([H])C([H])([H])C([H])([H])C(C([H])([H])[H])(C([H])([H])[H])C3([H])C([H])([H])C([H])=C([H])C1([H])C23C([H])([H])[H]

$$$$
48:0:2
     RDKit          3D

 42 44  0  0  1  0  0  0  0  0999 V2000
    2.2705   -5.0798    1.8386 C   0  0  0  0  0  0  0  0  0  0  0  0
    3.0610   -4.8303    0.5328 C   0  0  0  0  0  0  0  0  0  0  0  0
    3.9427   -6.0922    0.3538 C   0  0  0  0  0  0  0  0  0  0  0  0
    2.0525   -4.7248   -0.6501 C   0  0  0  0  0  0  0  0  0  0  0  0
    2.4798   -3.7617   -1.7708 C   0  0  0  0  0  0  0  0  0  0  0  0
    4.0114   -3.7049   -1.9541 C   0  0  1  0  0  0  0  0  0  0  0  0
    4.3875   -2.8430   -3.0067 O   0  0  0  0  0  0  0  0  0  0  0  0
    4.5800   -1.5442   -2.4988 C   0  0  1  0  0  0  0  0  0  0  0  0
    3.3539   -0.6713   -2.7942 C   0  0  0  0  0  0  0  0  0  0  0  0
    3.0365   -0.4258   -4.2586 C   0  0  0  0  0  0  0  0  0  0  0  0
    3.8299   -0.7182   -5.1270 O   0  0  0  0  0  0  0  0  0  0  0  0
    5.0036   -1.7211   -1.0242 C   0  0  1  0  0  0  0  0  0  0  0  0
    4.4789   -0.7105   -0.0258 C   0  0  0  0  0  0  0  0  0  0  0  0
    3.6413   -0.9909    0.9738 C   0  0  0  0  0  0  0  0  0  0  0  0
    3.0728   -2.3584    1.1910 C   0  0  0  0  0  0  0  0  0  0  0  0
    3.9340   -3.5226    0.6360 C   0  0  2  0  0  0  0  0  0  0  0  0
    4.7431   -3.2055   -0.6960 C   0  0  1  0  0  0  0  0  0  0  0  0
    6.1449   -3.8622   -0.6384 C   0  0  0  0  0  0  0  0  0  0  0  0
    1.7493   -6.0363    1.7969 H   0  0  0  0  0  0  0  0  0  0  0  0
    1.5101   -4.3208    2.0212 H   0  0  0  0  0  0  0  0  0  0  0  0
    2.9304   -5.0902    2.7035 H   0  0  0  0  0  0  0  0  0  0  0  0
    4.3370   -6.1785   -0.6545 H   0  0  0  0  0  0  0  0  0  0  0  0
    3.3826   -7.0050    0.5226 H   0  0  0  0  0  0  0  0  0  0  0  0
    4.7802   -6.0977    1.0490 H   0  0  0  0  0  0  0  0  0  0  0  0
    1.7919   -5.7132   -1.0059 H   0  0  0  0  0  0  0  0  0  0  0  0
    1.0730   -4.4396   -0.3435 H   0  0  0  0  0  0  0  0  0  0  0  0
    1.9729   -3.9956   -2.7001 H   0  0  0  0  0  0  0  0  0  0  0  0
    2.0975   -2.7889   -1.4922 H   0  0  0  0  0  0  0  0  0  0  0  0
    4.4307   -4.6603   -2.2553 H   0  0  0  0  0  0  0  0  0  0  0  0
    5.4073   -1.0782   -3.0141 H   0  0  0  0  0  0  0  0  0  0  0  0
    2.4380   -0.9634   -2.2842 H   0  0  0  0  0  0  0  0  0  0  0  0
    3.6945    0.2897   -2.4634 H   0  0  0  0  0  0  0  0  0  0  0  0
    2.0831    0.0552   -4.4783 H   0  0  0  0  0  0  0  0  0  0  0  0
    6.0766   -1.5352   -0.9886 H   0  0  0  0  0  0  0  0  0  0  0  0
    4.8501    0.2936   -0.0900 H   0  0  0  0  0  0  0  0  0  0  0  0
    3.3031   -0.2086    1.6423 H   0  0  0  0  0  0  0  0  0  0  0  0
    2.9516   -2.4744    2.2645 H   0  0  0  0  0  0  0  0  0  0  0  0
    2.0772   -2.3336    0.7529 H   0  0  0  0  0  0  0  0  0  0  0  0
    4.6878   -3.6896    1.4051 H   0  0  0  0  0  0  0  0  0  0  0  0
    6.7368   -3.4777    0.1930 H   0  0  0  0  0  0  0  0  0  0  0  0
    6.6968   -3.6661   -1.5585 H   0  0  0  0  0  0  0  0  0  0  0  0
    6.0954   -4.9370   -0.5279 H   0  0  0  0  0  0  0  0  0  0  0  0
  1  2  1  0
  1 19  1  0
  1 20  1  0
  1 21  1  0
  2 16  1  0
  2  3  1  0
  2  4  1  0
  3 22  1  0
  3 23  1  0
  3 24  1  0
  4  5  1  0
  4 25  1  0
  4 26  1  0
  5  6  1  0
  5 27  1  0
  5 28  1  0
  6 17  1  0
  6  7  1  0
  6 29  1  6
  7  8  1  0
  8  9  1  0
  8 12  1  0
  8 30  1  6
  9 10  1  0
  9 31  1  0
  9 32  1  0
 10 11  2  0
 10 33  1  0
 12 17  1  0
 12 13  1  0
 12 34  1  6
 13 14  2  0
 13 35  1  0
 14 15  1  0
 14 36  1  0
 15 16  1  0
 15 37  1  0
 15 38  1  0
 16 17  1  0
 16 39  1  1
 17 18  1  1
 18 40  1  0
 18 41  1  0
 18 42  1  0
M  END
>  <i_m_ct_stereo_status>  (157) 
1

>  <s_m_source_file>  (157) 
/var/tmp/pbs.5076255.sched01/tmpcsrx8n8z/40wzjmt8mb.sdf

>  <i_m_source_file_index>  (157) 
29

>  <i_lp_mmshare_version>  (157) 
48012

>  <i_f3d_flags>  (157) 
0

>  <s_epik_input>  (157) 
W0NIM11bQ0BdMTJbQ0BIXTNbQ0gyXVtDSDJdQyhbQ0gzXSkoW0NIM10pW0NAQEhdMltDSDJdW0NIXT1bQ0hdW0NAQEhdMVtDQEBIXShPMylbQ0gyXVtDSF09Tw==

>  <s_epik_cmdline>  (157) 
J2VwaWtfcHl0aG9uJywgJy1waHQnLCAnMi4wJywgJy1waCcsICc3LjAnLCAnLXRuJywgJzgnLCAnLW1hJywgJzIwMCcsICctaW1hZScsICc8aW5maWxlLm1hZT4nLCAnLW9tYWUnLCAnPG91dGZpbGUubWFlPic=

>  <r_lp_tautomer_probability>  (157) 
1

>  <r_epik_Ionization_Penalty>  (157) 
5.05236e-08

>  <r_epik_Ionization_Penalty_Charging>  (157) 
0

>  <r_epik_Ionization_Penalty_Neutral>  (157) 
5.05236e-08

>  <r_epik_State_Penalty>  (157) 
-0

>  <r_epik_Charging_Adjusted_Penalty>  (157) 
0

>  <i_epik_Tot_Q>  (157) 
0

>  <i_epik_Tot_abs_Q>  (157) 
0

>  <s_lp_Force_Field>  (157) 
OPLS3e

>  <r_lp_Energy>  (157) 
33.7069

>  <b_lp_Chiralities_Consistent>  (157) 
1

>  <s_lp_Variant>  (157) 
48:0-1

>  <s_i_glide_gridfile>  (157) 
pfpi4k_grid

>  <i_i_glide_lignum>  (157) 
29

>  <i_i_glide_rotatable_bonds>  (157) 
2

>  <r_i_docking_score>  (157) 
-3.42246

>  <r_i_glide_ligand_efficiency>  (157) 
-0.190137

>  <r_i_glide_ligand_efficiency_sa>  (157) 
-0.498299

>  <r_i_glide_ligand_efficiency_ln>  (157) 
-0.879726

>  <r_i_glide_gscore>  (157) 
-3.42246

>  <r_i_glide_lipo>  (157) 
-0.224306

>  <r_i_glide_hbond>  (157) 
-0.30348

>  <r_i_glide_metal>  (157) 
-0

>  <r_i_glide_rewards>  (157) 
-2.10778

>  <r_i_glide_evdw>  (157) 
-8.73751

>  <r_i_glide_ecoul>  (157) 
-4.22131

>  <r_i_glide_erotb>  (157) 
0.283175

>  <r_i_glide_esite>  (157) 
0

>  <r_i_glide_emodel>  (157) 
-18.2936

>  <r_i_glide_energy>  (157) 
-12.9588

>  <r_i_glide_einternal>  (157) 
0.0518023

>  <r_i_glide_intrahb_reward>  (157) 
-0

>  <i_i_glide_confnum>  (157) 
4

>  <i_i_glide_posenum>  (157) 
4

>  <r_i_glide_eff_state_penalty>  (157) 
0

>  <ligand_id>  (157) 
48

>  <original_smiles>  (157) 
CC1(C)CCC2OC(CC=O)C3C=CCC1C23C

>  <smiles>  (157) 
[H]C(=O)C([H])([H])C1([H])OC2([H])C([H])([H])C([H])([H])C(C([H])([H])[H])(C([H])([H])[H])C3([H])C([H])([H])C([H])=C([H])C1([H])C23C([H])([H])[H]

$$$$
49:0:0
     RDKit          3D

 70 75  0  0  1  0  0  0  0  0999 V2000
   -1.0074    1.5569    3.6801 C   0  0  0  0  0  0  0  0  0  0  0  0
   -0.2308    0.2587    3.7928 C   0  0  0  0  0  0  0  0  0  0  0  0
    0.6101   -0.3160    2.9313 C   0  0  0  0  0  0  0  0  0  0  0  0
    1.1044   -1.6875    3.3853 C   0  0  2  0  0  0  0  0  0  0  0  0
    0.7370   -1.7051    4.8994 C   0  0  2  0  0  0  0  0  0  0  0  0
    1.7468   -1.2267    5.7533 O   0  0  0  0  0  0  0  0  0  0  0  0
    0.1385   -3.0606    5.3607 C   0  0  0  0  0  0  0  0  0  0  0  0
    0.6064   -4.3297    4.6110 C   0  0  0  0  0  0  0  0  0  0  0  0
    2.0789   -4.7725    4.7180 C   0  0  2  0  0  0  0  0  0  0  0  0
    3.0073   -3.9846    5.6842 C   0  0  0  0  0  0  0  0  0  0  0  0
    3.9312   -3.0672    4.8194 C   0  0  1  0  0  0  0  0  0  0  0  0
    5.2819   -3.3470    5.1418 O   0  0  0  0  0  0  0  0  0  0  0  0
    3.4988   -3.3178    3.3334 C   0  0  1  0  0  0  0  0  0  0  0  0
    4.5236   -3.4641    2.1545 C   0  0  1  0  0  0  0  0  0  0  0  0
    5.7707   -4.0339    2.5080 O   0  0  0  0  0  0  0  0  0  0  0  0
    3.8016   -4.5126    1.2101 C   0  0  0  0  0  0  0  0  0  0  0  0
    2.5381   -5.0455    1.9803 C   0  0  1  0  0  0  0  0  0  0  0  0
    2.2778   -6.4252    1.7514 O   0  0  0  0  0  0  0  0  0  0  0  0
    1.0415   -6.9276    1.9105 C   0  0  0  0  0  0  0  0  0  0  0  0
    0.0100   -6.2657    1.7532 O   0  0  0  0  0  0  0  0  0  0  0  0
    1.0589   -8.3425    2.3582 C   0  0  0  0  0  0  0  0  0  0  0  0
    2.2619   -9.0820    2.4502 C   0  0  0  0  0  0  0  0  0  0  0  0
    2.2225  -10.3983    2.9363 C   0  0  0  0  0  0  0  0  0  0  0  0
    0.9796  -10.9385    3.3089 C   0  0  0  0  0  0  0  0  0  0  0  0
   -0.1752  -10.2483    3.2218 N   0  0  0  0  0  0  0  0  0  0  0  0
   -0.1336   -8.9866    2.7591 C   0  0  0  0  0  0  0  0  0  0  0  0
    2.9432   -4.7724    3.4336 C   0  0  2  0  0  0  0  0  0  0  0  0
    3.9965   -5.9245    3.7547 C   0  0  0  0  0  0  0  0  0  0  0  0
    4.9461   -2.1291    1.4772 C   0  0  0  0  0  0  0  0  0  0  0  0
    4.5058   -0.8294    2.2417 C   0  0  1  0  0  0  0  0  0  0  0  0
    5.5887   -0.3306    3.2024 C   0  0  0  0  0  0  0  0  0  0  0  0
    4.2997    0.1480    1.2600 O   0  0  0  0  0  0  0  0  0  0  0  0
    3.3373   -0.9453    3.0199 O   0  0  0  0  0  0  0  0  0  0  0  0
    2.5364   -2.0691    2.8184 C   0  0  2  0  0  0  0  0  0  0  0  0
    2.2107   -2.1913    1.4362 O   0  0  0  0  0  0  0  0  0  0  0  0
   -0.3406   -0.6075    4.9593 C   0  0  0  0  0  0  0  0  0  0  0  0
   -1.1499   -0.4992    5.8841 O   0  0  0  0  0  0  0  0  0  0  0  0
   -0.7472    2.2202    4.5004 H   0  0  0  0  0  0  0  0  0  0  0  0
   -2.0756    1.3619    3.7416 H   0  0  0  0  0  0  0  0  0  0  0  0
   -0.8152    2.0812    2.7438 H   0  0  0  0  0  0  0  0  0  0  0  0
    0.8601    0.1043    1.9633 H   0  0  0  0  0  0  0  0  0  0  0  0
    0.4118   -2.3551    2.8863 H   0  0  0  0  0  0  0  0  0  0  0  0
    2.0784   -0.4172    5.3883 H   0  0  0  0  0  0  0  0  0  0  0  0
    0.2571   -3.1838    6.4370 H   0  0  0  0  0  0  0  0  0  0  0  0
   -0.9432   -3.0318    5.2230 H   0  0  0  0  0  0  0  0  0  0  0  0
    0.0118   -5.1419    5.0268 H   0  0  0  0  0  0  0  0  0  0  0  0
    0.2944   -4.3196    3.5720 H   0  0  0  0  0  0  0  0  0  0  0  0
    1.9989   -5.7941    5.0977 H   0  0  0  0  0  0  0  0  0  0  0  0
    2.4730   -3.4571    6.4649 H   0  0  0  0  0  0  0  0  0  0  0  0
    3.6068   -4.6993    6.2490 H   0  0  0  0  0  0  0  0  0  0  0  0
    3.8540   -2.0239    5.0981 H   0  0  0  0  0  0  0  0  0  0  0  0
    5.4481   -4.2627    4.9607 H   0  0  0  0  0  0  0  0  0  0  0  0
    6.2018   -3.4357    3.1008 H   0  0  0  0  0  0  0  0  0  0  0  0
    3.4817   -4.0699    0.2663 H   0  0  0  0  0  0  0  0  0  0  0  0
    4.4763   -5.3177    0.9187 H   0  0  0  0  0  0  0  0  0  0  0  0
    1.6629   -4.4589    1.7139 H   0  0  0  0  0  0  0  0  0  0  0  0
    3.2132   -8.6520    2.1747 H   0  0  0  0  0  0  0  0  0  0  0  0
    3.1214  -10.9955    3.0111 H   0  0  0  0  0  0  0  0  0  0  0  0
    0.8993  -11.9510    3.6683 H   0  0  0  0  0  0  0  0  0  0  0  0
   -1.0868   -8.4761    2.7383 H   0  0  0  0  0  0  0  0  0  0  0  0
    4.6604   -6.1872    2.9316 H   0  0  0  0  0  0  0  0  0  0  0  0
    3.4963   -6.8673    3.9847 H   0  0  0  0  0  0  0  0  0  0  0  0
    4.6461   -5.7272    4.6015 H   0  0  0  0  0  0  0  0  0  0  0  0
    6.0214   -2.0708    1.2887 H   0  0  0  0  0  0  0  0  0  0  0  0
    4.5185   -2.0916    0.4728 H   0  0  0  0  0  0  0  0  0  0  0  0
    5.2692    0.5899    3.6930 H   0  0  0  0  0  0  0  0  0  0  0  0
    6.5189   -0.1547    2.6678 H   0  0  0  0  0  0  0  0  0  0  0  0
    5.7918   -1.0707    3.9740 H   0  0  0  0  0  0  0  0  0  0  0  0
    4.1483    0.9825    1.6875 H   0  0  0  0  0  0  0  0  0  0  0  0
    1.8079   -1.3905    1.1214 H   0  0  0  0  0  0  0  0  0  0  0  0
  1  2  1  0
  1 38  1  0
  1 39  1  0
  1 40  1  0
  2 36  1  0
  2  3  2  0
  3  4  1  0
  3 41  1  0
  4 34  1  0
  4  5  1  0
  4 42  1  6
  5  6  1  1
  5  7  1  0
  5 36  1  0
  6 43  1  0
  7  8  1  0
  7 44  1  0
  7 45  1  0
  8  9  1  0
  8 46  1  0
  8 47  1  0
  9 27  1  0
  9 10  1  0
  9 48  1  1
 10 11  1  0
 10 49  1  0
 10 50  1  0
 11 12  1  0
 11 13  1  0
 11 51  1  1
 12 52  1  0
 13 27  1  0
 13 34  1  0
 13 14  1  6
 14 15  1  1
 14 16  1  0
 14 29  1  0
 15 53  1  0
 16 17  1  0
 16 54  1  0
 16 55  1  0
 17 18  1  0
 17 27  1  0
 17 56  1  6
 18 19  1  0
 19 20  2  0
 19 21  1  0
 21 26  1  0
 21 22  2  0
 22 23  1  0
 22 57  1  0
 23 24  2  0
 23 58  1  0
 24 25  1  0
 24 59  1  0
 25 26  2  0
 26 60  1  0
 27 28  1  1
 28 61  1  0
 28 62  1  0
 28 63  1  0
 29 30  1  0
 29 64  1  0
 29 65  1  0
 30 31  1  0
 30 32  1  6
 30 33  1  0
 31 66  1  0
 31 67  1  0
 31 68  1  0
 32 69  1  0
 33 34  1  0
 34 35  1  6
 35 70  1  0
 36 37  2  0
M  END
>  <i_m_ct_stereo_status>  (158) 
1

>  <s_m_source_file>  (158) 
/var/tmp/pbs.5076255.sched01/tmpcsrx8n8z/40wzjmt8mb.sdf

>  <i_m_source_file_index>  (158) 
30

>  <i_lp_mmshare_version>  (158) 
48012

>  <i_f3d_flags>  (158) 
0

>  <s_epik_input>  (158) 
W0NIMl0xW0NAQF0oW0NIM10pKFtPSF0pT1tDQF0yKFtPSF0pW0NASF0oW0NIXT1DKFtDSDNdKUMzPU8pW0NAXTMoW09IXSlbQ0gyXVtDSDJdW0NIXShbQ0gyXVtDQEhdNFtPSF0pW0NAQF01KFtDSDNdKVtDQEBIXShbQ0gyXVtDQEBdMShbQ0BdMjQ1KVtPSF0pT0MoPU8pYzZbY0hdW2NIXVtjSF1uW2NIXTY=

>  <s_epik_cmdline>  (158) 
J2VwaWtfcHl0aG9uJywgJy1waHQnLCAnMi4wJywgJy1waCcsICc3LjAnLCAnLXRuJywgJzgnLCAnLW1hJywgJzIwMCcsICctaW1hZScsICc8aW5maWxlLm1hZT4nLCAnLW9tYWUnLCAnPG91dGZpbGUubWFlPic=

>  <r_lp_tautomer_probability>  (158) 
1

>  <r_epik_Ionization_Penalty>  (158) 
0.000160255

>  <r_epik_Ionization_Penalty_Charging>  (158) 
0

>  <r_epik_Ionization_Penalty_Neutral>  (158) 
0.000160255

>  <r_epik_State_Penalty>  (158) 
-0

>  <r_epik_Charging_Adjusted_Penalty>  (158) 
0

>  <i_epik_Tot_Q>  (158) 
0

>  <i_epik_Tot_abs_Q>  (158) 
0

>  <s_epik_Chemistry_Notes>  (158) 
This compound has an ester and may undergo hydrolysis at high or low pH.

>  <s_lp_Force_Field>  (158) 
OPLS3e

>  <r_lp_Energy>  (158) 
117.989

>  <b_lp_Chiralities_Consistent>  (158) 
1

>  <s_lp_Variant>  (158) 
49:0-1

>  <s_i_glide_gridfile>  (158) 
pfpi4k_grid

>  <i_i_glide_lignum>  (158) 
30

>  <i_i_glide_rotatable_bonds>  (158) 
8

>  <r_i_docking_score>  (158) 
-3.6359

>  <r_i_glide_ligand_efficiency>  (158) 
-0.0982677

>  <r_i_glide_ligand_efficiency_sa>  (158) 
-0.32745

>  <r_i_glide_ligand_efficiency_ln>  (158) 
-0.788542

>  <r_i_glide_gscore>  (158) 
-3.6359

>  <r_i_glide_lipo>  (158) 
-0.454741

>  <r_i_glide_hbond>  (158) 
-0.294738

>  <r_i_glide_metal>  (158) 
-0

>  <r_i_glide_rewards>  (158) 
-0.0965801

>  <r_i_glide_evdw>  (158) 
-32.2801

>  <r_i_glide_ecoul>  (158) 
-8.85099

>  <r_i_glide_erotb>  (158) 
0.231606

>  <r_i_glide_esite>  (158) 
-0.0797999

>  <r_i_glide_emodel>  (158) 
-47.3899

>  <r_i_glide_energy>  (158) 
-41.131

>  <r_i_glide_einternal>  (158) 
6.49663

>  <r_i_glide_intrahb_reward>  (158) 
-0

>  <i_i_glide_confnum>  (158) 
2

>  <i_i_glide_posenum>  (158) 
1

>  <r_i_glide_eff_state_penalty>  (158) 
0

>  <ligand_id>  (158) 
49

>  <original_smiles>  (158) 
CC1=CC2C(O)(CCC3CC(O)C45C(O)(CC(OC(=O)c6cccnc6)C34C)CC(C)(O)OC25O)C1=O

>  <smiles>  (158) 
[H]OC1([H])C([H])([H])C2([H])C([H])([H])C([H])([H])C3(O[H])C(=O)C(C([H])([H])[H])=C([H])C3([H])C3(O[H])OC(O[H])(C([H])([H])[H])C([H])([H])C4(O[H])C([H])([H])C([H])(OC(=O)c5c([H])nc([H])c([H])c5[H])C2(C([H])([H])[H])C134

$$$$
49:0:1
     RDKit          3D

 70 75  0  0  1  0  0  0  0  0999 V2000
   -0.8969    1.4582    3.6144 C   0  0  0  0  0  0  0  0  0  0  0  0
   -0.1352    0.1523    3.7134 C   0  0  0  0  0  0  0  0  0  0  0  0
    0.6719   -0.4349    2.8292 C   0  0  0  0  0  0  0  0  0  0  0  0
    1.1795   -1.8037    3.2783 C   0  0  2  0  0  0  0  0  0  0  0  0
    0.8533   -1.8125    4.8025 C   0  0  2  0  0  0  0  0  0  0  0  0
    1.8954   -1.3404    5.6191 O   0  0  0  0  0  0  0  0  0  0  0  0
    0.2523   -3.1579    5.2890 C   0  0  0  0  0  0  0  0  0  0  0  0
    0.6787   -4.4358    4.5331 C   0  0  0  0  0  0  0  0  0  0  0  0
    2.1531   -4.8928    4.5948 C   0  0  2  0  0  0  0  0  0  0  0  0
    3.1218   -4.1124    5.5260 C   0  0  0  0  0  0  0  0  0  0  0  0
    4.0293   -3.2088    4.6277 C   0  0  1  0  0  0  0  0  0  0  0  0
    5.3860   -3.5042    4.9112 O   0  0  0  0  0  0  0  0  0  0  0  0
    3.5513   -3.4570    3.1549 C   0  0  1  0  0  0  0  0  0  0  0  0
    4.5389   -3.6219    1.9492 C   0  0  1  0  0  0  0  0  0  0  0  0
    5.7881   -4.2069    2.2786 O   0  0  0  0  0  0  0  0  0  0  0  0
    3.7697   -4.6716    1.0376 C   0  0  0  0  0  0  0  0  0  0  0  0
    2.5230   -5.1925    1.8486 C   0  0  1  0  0  0  0  0  0  0  0  0
    2.2593   -6.5761    1.6355 O   0  0  0  0  0  0  0  0  0  0  0  0
    1.0844   -7.1285    2.0083 C   0  0  0  0  0  0  0  0  0  0  0  0
    0.0175   -6.5142    2.0465 O   0  0  0  0  0  0  0  0  0  0  0  0
    1.2394   -8.5520    2.4186 C   0  0  0  0  0  0  0  0  0  0  0  0
    2.4999   -9.1886    2.4265 C   0  0  0  0  0  0  0  0  0  0  0  0
    2.6003  -10.5172    2.8788 C   0  0  0  0  0  0  0  0  0  0  0  0
    1.4269  -11.1724    3.2830 C   0  0  0  0  0  0  0  0  0  0  0  0
    0.2158  -10.5841    3.2784 N   0  0  0  0  0  0  0  0  0  0  0  0
    0.1271   -9.3034    2.8597 C   0  0  0  0  0  0  0  0  0  0  0  0
    2.9805   -4.9073    3.2849 C   0  0  2  0  0  0  0  0  0  0  0  0
    4.0356   -6.0666    3.5844 C   0  0  0  0  0  0  0  0  0  0  0  0
    4.9569   -2.2953    1.2444 C   0  0  0  0  0  0  0  0  0  0  0  0
    4.5559   -0.9792    2.0088 C   0  0  1  0  0  0  0  0  0  0  0  0
    5.6748   -0.4913    2.9320 C   0  0  0  0  0  0  0  0  0  0  0  0
    4.3452    0.0264    1.0471 O   0  0  0  0  0  0  0  0  0  0  0  0
    3.4126   -1.0768    2.8303 O   0  0  0  0  0  0  0  0  0  0  0  0
    2.5916   -2.1931    2.6638 C   0  0  2  0  0  0  0  0  0  0  0  0
    2.2146   -2.3063    1.2892 O   0  0  0  0  0  0  0  0  0  0  0  0
   -0.2119   -0.7047    4.8868 C   0  0  0  0  0  0  0  0  0  0  0  0
   -0.9914   -0.5851    5.8375 O   0  0  0  0  0  0  0  0  0  0  0  0
   -0.6011    2.1243    4.4204 H   0  0  0  0  0  0  0  0  0  0  0  0
   -1.9657    1.2803    3.7080 H   0  0  0  0  0  0  0  0  0  0  0  0
   -0.7237    1.9726    2.6701 H   0  0  0  0  0  0  0  0  0  0  0  0
    0.8983   -0.0211    1.8532 H   0  0  0  0  0  0  0  0  0  0  0  0
    0.4703   -2.4740    2.8097 H   0  0  0  0  0  0  0  0  0  0  0  0
    2.2205   -0.5351    5.2408 H   0  0  0  0  0  0  0  0  0  0  0  0
    0.4031   -3.2788    6.3605 H   0  0  0  0  0  0  0  0  0  0  0  0
   -0.8318   -3.1102    5.1844 H   0  0  0  0  0  0  0  0  0  0  0  0
    0.0866   -5.2432    4.9649 H   0  0  0  0  0  0  0  0  0  0  0  0
    0.3404   -4.4158    3.5040 H   0  0  0  0  0  0  0  0  0  0  0  0
    2.0754   -5.9119    4.9816 H   0  0  0  0  0  0  0  0  0  0  0  0
    2.6192   -3.5753    6.3216 H   0  0  0  0  0  0  0  0  0  0  0  0
    3.7309   -4.8322    6.0753 H   0  0  0  0  0  0  0  0  0  0  0  0
    3.9732   -2.1643    4.9034 H   0  0  0  0  0  0  0  0  0  0  0  0
    5.5346   -4.4243    4.7390 H   0  0  0  0  0  0  0  0  0  0  0  0
    6.2278   -3.6250    2.8838 H   0  0  0  0  0  0  0  0  0  0  0  0
    3.4275   -4.2340    0.0999 H   0  0  0  0  0  0  0  0  0  0  0  0
    4.4277   -5.4857    0.7305 H   0  0  0  0  0  0  0  0  0  0  0  0
    1.6390   -4.6107    1.6045 H   0  0  0  0  0  0  0  0  0  0  0  0
    3.3980   -8.6740    2.1210 H   0  0  0  0  0  0  0  0  0  0  0  0
    3.5532  -11.0277    2.8873 H   0  0  0  0  0  0  0  0  0  0  0  0
    1.4598  -12.2006    3.6104 H   0  0  0  0  0  0  0  0  0  0  0  0
   -0.8654   -8.8804    2.8990 H   0  0  0  0  0  0  0  0  0  0  0  0
    4.6669   -6.3497    2.7415 H   0  0  0  0  0  0  0  0  0  0  0  0
    3.5370   -7.0011    3.8483 H   0  0  0  0  0  0  0  0  0  0  0  0
    4.7184   -5.8721    4.4059 H   0  0  0  0  0  0  0  0  0  0  0  0
    6.0292   -2.2573    1.0286 H   0  0  0  0  0  0  0  0  0  0  0  0
    4.5026   -2.2657    0.2525 H   0  0  0  0  0  0  0  0  0  0  0  0
    5.3686    0.4251    3.4381 H   0  0  0  0  0  0  0  0  0  0  0  0
    6.5846   -0.2943    2.3662 H   0  0  0  0  0  0  0  0  0  0  0  0
    5.8852   -1.2391    3.6891 H   0  0  0  0  0  0  0  0  0  0  0  0
    3.6669   -0.2703    0.4566 H   0  0  0  0  0  0  0  0  0  0  0  0
    1.7609   -1.5193    1.0136 H   0  0  0  0  0  0  0  0  0  0  0  0
  1  2  1  0
  1 38  1  0
  1 39  1  0
  1 40  1  0
  2 36  1  0
  2  3  2  0
  3  4  1  0
  3 41  1  0
  4 34  1  0
  4  5  1  0
  4 42  1  6
  5  6  1  1
  5  7  1  0
  5 36  1  0
  6 43  1  0
  7  8  1  0
  7 44  1  0
  7 45  1  0
  8  9  1  0
  8 46  1  0
  8 47  1  0
  9 27  1  0
  9 10  1  0
  9 48  1  1
 10 11  1  0
 10 49  1  0
 10 50  1  0
 11 12  1  0
 11 13  1  0
 11 51  1  1
 12 52  1  0
 13 27  1  0
 13 34  1  0
 13 14  1  6
 14 15  1  1
 14 16  1  0
 14 29  1  0
 15 53  1  0
 16 17  1  0
 16 54  1  0
 16 55  1  0
 17 18  1  0
 17 27  1  0
 17 56  1  6
 18 19  1  0
 19 20  2  0
 19 21  1  0
 21 26  1  0
 21 22  2  0
 22 23  1  0
 22 57  1  0
 23 24  2  0
 23 58  1  0
 24 25  1  0
 24 59  1  0
 25 26  2  0
 26 60  1  0
 27 28  1  1
 28 61  1  0
 28 62  1  0
 28 63  1  0
 29 30  1  0
 29 64  1  0
 29 65  1  0
 30 31  1  0
 30 32  1  6
 30 33  1  0
 31 66  1  0
 31 67  1  0
 31 68  1  0
 32 69  1  0
 33 34  1  0
 34 35  1  6
 35 70  1  0
 36 37  2  0
M  END
>  <i_m_ct_stereo_status>  (159) 
1

>  <s_m_source_file>  (159) 
/var/tmp/pbs.5076255.sched01/tmpcsrx8n8z/40wzjmt8mb.sdf

>  <i_m_source_file_index>  (159) 
30

>  <i_lp_mmshare_version>  (159) 
48012

>  <i_f3d_flags>  (159) 
0

>  <s_epik_input>  (159) 
W0NIMl0xW0NAQF0oW0NIM10pKFtPSF0pT1tDQF0yKFtPSF0pW0NASF0oW0NIXT1DKFtDSDNdKUMzPU8pW0NAXTMoW09IXSlbQ0gyXVtDSDJdW0NIXShbQ0gyXVtDQEhdNFtPSF0pW0NAQF01KFtDSDNdKVtDQEBIXShbQ0gyXVtDQEBdMShbQ0BdMjQ1KVtPSF0pT0MoPU8pYzZbY0hdW2NIXVtjSF1uW2NIXTY=

>  <s_epik_cmdline>  (159) 
J2VwaWtfcHl0aG9uJywgJy1waHQnLCAnMi4wJywgJy1waCcsICc3LjAnLCAnLXRuJywgJzgnLCAnLW1hJywgJzIwMCcsICctaW1hZScsICc8aW5maWxlLm1hZT4nLCAnLW9tYWUnLCAnPG91dGZpbGUubWFlPic=

>  <r_lp_tautomer_probability>  (159) 
1

>  <r_epik_Ionization_Penalty>  (159) 
0.000160255

>  <r_epik_Ionization_Penalty_Charging>  (159) 
0

>  <r_epik_Ionization_Penalty_Neutral>  (159) 
0.000160255

>  <r_epik_State_Penalty>  (159) 
-0

>  <r_epik_Charging_Adjusted_Penalty>  (159) 
0

>  <i_epik_Tot_Q>  (159) 
0

>  <i_epik_Tot_abs_Q>  (159) 
0

>  <s_epik_Chemistry_Notes>  (159) 
This compound has an ester and may undergo hydrolysis at high or low pH.

>  <s_lp_Force_Field>  (159) 
OPLS3e

>  <r_lp_Energy>  (159) 
117.989

>  <b_lp_Chiralities_Consistent>  (159) 
1

>  <s_lp_Variant>  (159) 
49:0-1

>  <s_i_glide_gridfile>  (159) 
pfpi4k_grid

>  <i_i_glide_lignum>  (159) 
30

>  <i_i_glide_rotatable_bonds>  (159) 
8

>  <r_i_docking_score>  (159) 
-3.43589

>  <r_i_glide_ligand_efficiency>  (159) 
-0.0928619

>  <r_i_glide_ligand_efficiency_sa>  (159) 
-0.309436

>  <r_i_glide_ligand_efficiency_ln>  (159) 
-0.745164

>  <r_i_glide_gscore>  (159) 
-3.43589

>  <r_i_glide_lipo>  (159) 
-0.365603

>  <r_i_glide_hbond>  (159) 
-0.211733

>  <r_i_glide_metal>  (159) 
-0

>  <r_i_glide_rewards>  (159) 
-0.0920744

>  <r_i_glide_evdw>  (159) 
-33.3494

>  <r_i_glide_ecoul>  (159) 
-8.4159

>  <r_i_glide_erotb>  (159) 
0.231606

>  <r_i_glide_esite>  (159) 
-0.0682318

>  <r_i_glide_emodel>  (159) 
-47.3034

>  <r_i_glide_energy>  (159) 
-41.7653

>  <r_i_glide_einternal>  (159) 
6.73147

>  <r_i_glide_intrahb_reward>  (159) 
-0

>  <i_i_glide_confnum>  (159) 
2

>  <i_i_glide_posenum>  (159) 
36

>  <r_i_glide_eff_state_penalty>  (159) 
0

>  <ligand_id>  (159) 
49

>  <original_smiles>  (159) 
CC1=CC2C(O)(CCC3CC(O)C45C(O)(CC(OC(=O)c6cccnc6)C34C)CC(C)(O)OC25O)C1=O

>  <smiles>  (159) 
[H]OC1([H])C([H])([H])C2([H])C([H])([H])C([H])([H])C3(O[H])C(=O)C(C([H])([H])[H])=C([H])C3([H])C3(O[H])OC(O[H])(C([H])([H])[H])C([H])([H])C4(O[H])C([H])([H])C([H])(OC(=O)c5c([H])nc([H])c([H])c5[H])C2(C([H])([H])[H])C134

$$$$
49:0:2
     RDKit          3D

 70 75  0  0  1  0  0  0  0  0999 V2000
   -1.1563    1.7387    3.3975 C   0  0  0  0  0  0  0  0  0  0  0  0
   -0.3737    0.4856    3.7354 C   0  0  0  0  0  0  0  0  0  0  0  0
    0.5033   -0.1955    2.9968 C   0  0  0  0  0  0  0  0  0  0  0  0
    1.0108   -1.4677    3.6700 C   0  0  2  0  0  0  0  0  0  0  0  0
    0.5872   -1.2635    5.1556 C   0  0  2  0  0  0  0  0  0  0  0  0
    1.5544   -0.6329    5.9622 O   0  0  0  0  0  0  0  0  0  0  0  0
   -0.0029   -2.5485    5.7955 C   0  0  0  0  0  0  0  0  0  0  0  0
    0.5159   -3.9051    5.2657 C   0  0  0  0  0  0  0  0  0  0  0  0
    1.9964   -4.2802    5.4992 C   0  0  2  0  0  0  0  0  0  0  0  0
    2.8745   -3.3265    6.3647 C   0  0  0  0  0  0  0  0  0  0  0  0
    3.8130   -2.5287    5.4009 C   0  0  1  0  0  0  0  0  0  0  0  0
    5.1585   -2.7208    5.8034 O   0  0  0  0  0  0  0  0  0  0  0  0
    3.4357   -3.0161    3.9564 C   0  0  1  0  0  0  0  0  0  0  0  0
    4.4971   -3.3143    2.8498 C   0  0  1  0  0  0  0  0  0  0  0  0
    5.7104   -3.8197    3.3396 O   0  0  0  0  0  0  0  0  0  0  0  0
    3.8466   -4.5111    2.0539 C   0  0  0  0  0  0  0  0  0  0  0  0
    2.5668   -4.9538    2.8510 C   0  0  1  0  0  0  0  0  0  0  0  0
    2.3201   -6.3587    2.7740 O   0  0  0  0  0  0  0  0  0  0  0  0
    1.1378   -6.8646    2.3633 C   0  0  0  0  0  0  0  0  0  0  0  0
    0.2123   -6.2043    1.8847 O   0  0  0  0  0  0  0  0  0  0  0  0
    1.0244   -8.3188    2.5581 C   0  0  0  0  0  0  0  0  0  0  0  0
    2.1455   -9.1430    2.8089 C   0  0  0  0  0  0  0  0  0  0  0  0
    1.9352  -10.5239    2.9812 C   0  0  0  0  0  0  0  0  0  0  0  0
    0.6205  -11.0170    2.8903 C   0  0  0  0  0  0  0  0  0  0  0  0
   -0.4522  -10.2428    2.6294 N   0  0  0  0  0  0  0  0  0  0  0  0
   -0.2458   -8.9270    2.4820 C   0  0  0  0  0  0  0  0  0  0  0  0
    2.9102   -4.4605    4.2620 C   0  0  2  0  0  0  0  0  0  0  0  0
    3.9720   -5.5246    4.7984 C   0  0  0  0  0  0  0  0  0  0  0  0
    4.9413   -2.0916    1.9949 C   0  0  0  0  0  0  0  0  0  0  0  0
    4.4486   -0.6987    2.5300 C   0  0  1  0  0  0  0  0  0  0  0  0
    5.4898   -0.0420    3.4447 C   0  0  0  0  0  0  0  0  0  0  0  0
    4.2802    0.1399    1.4091 O   0  0  0  0  0  0  0  0  0  0  0  0
    3.2489   -0.7170    3.2782 O   0  0  0  0  0  0  0  0  0  0  0  0
    2.4747   -1.8791    3.2224 C   0  0  2  0  0  0  0  0  0  0  0  0
    2.2045   -2.1988    1.8577 O   0  0  0  0  0  0  0  0  0  0  0  0
   -0.5116   -0.1990    5.0127 C   0  0  0  0  0  0  0  0  0  0  0  0
   -1.3586    0.0216    5.8851 O   0  0  0  0  0  0  0  0  0  0  0  0
   -0.9409    2.5276    4.1109 H   0  0  0  0  0  0  0  0  0  0  0  0
   -2.2168    1.5305    3.4580 H   0  0  0  0  0  0  0  0  0  0  0  0
   -0.9473    2.1127    2.3954 H   0  0  0  0  0  0  0  0  0  0  0  0
    0.7840    0.0837    1.9879 H   0  0  0  0  0  0  0  0  0  0  0  0
    0.3555   -2.2258    3.2523 H   0  0  0  0  0  0  0  0  0  0  0  0
    1.8734    0.1306    5.5002 H   0  0  0  0  0  0  0  0  0  0  0  0
    0.0809   -2.5023    6.8809 H   0  0  0  0  0  0  0  0  0  0  0  0
   -1.0789   -2.5683    5.6205 H   0  0  0  0  0  0  0  0  0  0  0  0
   -0.0737   -4.6559    5.7877 H   0  0  0  0  0  0  0  0  0  0  0  0
    0.2399   -4.0697    4.2263 H   0  0  0  0  0  0  0  0  0  0  0  0
    1.9264   -5.2307    6.0349 H   0  0  0  0  0  0  0  0  0  0  0  0
    2.3021   -2.7004    7.0388 H   0  0  0  0  0  0  0  0  0  0  0  0
    3.4694   -3.9273    7.0543 H   0  0  0  0  0  0  0  0  0  0  0  0
    3.7066   -1.4568    5.5164 H   0  0  0  0  0  0  0  0  0  0  0  0
    5.3480   -3.6484    5.7870 H   0  0  0  0  0  0  0  0  0  0  0  0
    6.0925   -3.1533    3.8940 H   0  0  0  0  0  0  0  0  0  0  0  0
    3.5617   -4.2284    1.0416 H   0  0  0  0  0  0  0  0  0  0  0  0
    4.5608   -5.3268    1.9230 H   0  0  0  0  0  0  0  0  0  0  0  0
    1.7032   -4.4021    2.4946 H   0  0  0  0  0  0  0  0  0  0  0  0
    3.1426   -8.7280    2.8603 H   0  0  0  0  0  0  0  0  0  0  0  0
    2.7655  -11.1938    3.1638 H   0  0  0  0  0  0  0  0  0  0  0  0
    0.4340  -12.0724    3.0055 H   0  0  0  0  0  0  0  0  0  0  0  0
   -1.1437   -8.3552    2.2912 H   0  0  0  0  0  0  0  0  0  0  0  0
    4.6766   -5.8917    4.0526 H   0  0  0  0  0  0  0  0  0  0  0  0
    3.4843   -6.4375    5.1467 H   0  0  0  0  0  0  0  0  0  0  0  0
    4.5863   -5.1774    5.6271 H   0  0  0  0  0  0  0  0  0  0  0  0
    6.0246   -2.0389    1.8519 H   0  0  0  0  0  0  0  0  0  0  0  0
    4.5613   -2.2133    0.9776 H   0  0  0  0  0  0  0  0  0  0  0  0
    5.1247    0.9274    3.7844 H   0  0  0  0  0  0  0  0  0  0  0  0
    6.4218    0.1088    2.9037 H   0  0  0  0  0  0  0  0  0  0  0  0
    5.6990   -0.6546    4.3214 H   0  0  0  0  0  0  0  0  0  0  0  0
    3.6315   -0.2513    0.8374 H   0  0  0  0  0  0  0  0  0  0  0  0
    1.7618   -1.4645    1.4504 H   0  0  0  0  0  0  0  0  0  0  0  0
  1  2  1  0
  1 38  1  0
  1 39  1  0
  1 40  1  0
  2 36  1  0
  2  3  2  0
  3  4  1  0
  3 41  1  0
  4 34  1  0
  4  5  1  0
  4 42  1  6
  5  6  1  1
  5  7  1  0
  5 36  1  0
  6 43  1  0
  7  8  1  0
  7 44  1  0
  7 45  1  0
  8  9  1  0
  8 46  1  0
  8 47  1  0
  9 27  1  0
  9 10  1  0
  9 48  1  1
 10 11  1  0
 10 49  1  0
 10 50  1  0
 11 12  1  0
 11 13  1  0
 11 51  1  6
 12 52  1  0
 13 27  1  0
 13 34  1  0
 13 14  1  6
 14 15  1  1
 14 16  1  0
 14 29  1  0
 15 53  1  0
 16 17  1  0
 16 54  1  0
 16 55  1  0
 17 18  1  0
 17 27  1  0
 17 56  1  6
 18 19  1  0
 19 20  2  0
 19 21  1  0
 21 26  1  0
 21 22  2  0
 22 23  1  0
 22 57  1  0
 23 24  2  0
 23 58  1  0
 24 25  1  0
 24 59  1  0
 25 26  2  0
 26 60  1  0
 27 28  1  1
 28 61  1  0
 28 62  1  0
 28 63  1  0
 29 30  1  0
 29 64  1  0
 29 65  1  0
 30 31  1  0
 30 32  1  6
 30 33  1  0
 31 66  1  0
 31 67  1  0
 31 68  1  0
 32 69  1  0
 33 34  1  0
 34 35  1  6
 35 70  1  0
 36 37  2  0
M  END
>  <i_m_ct_stereo_status>  (160) 
1

>  <s_m_source_file>  (160) 
/var/tmp/pbs.5076255.sched01/tmpcsrx8n8z/40wzjmt8mb.sdf

>  <i_m_source_file_index>  (160) 
30

>  <i_lp_mmshare_version>  (160) 
48012

>  <i_f3d_flags>  (160) 
0

>  <s_epik_input>  (160) 
W0NIMl0xW0NAQF0oW0NIM10pKFtPSF0pT1tDQF0yKFtPSF0pW0NASF0oW0NIXT1DKFtDSDNdKUMzPU8pW0NAXTMoW09IXSlbQ0gyXVtDSDJdW0NIXShbQ0gyXVtDQEhdNFtPSF0pW0NAQF01KFtDSDNdKVtDQEBIXShbQ0gyXVtDQEBdMShbQ0BdMjQ1KVtPSF0pT0MoPU8pYzZbY0hdW2NIXVtjSF1uW2NIXTY=

>  <s_epik_cmdline>  (160) 
J2VwaWtfcHl0aG9uJywgJy1waHQnLCAnMi4wJywgJy1waCcsICc3LjAnLCAnLXRuJywgJzgnLCAnLW1hJywgJzIwMCcsICctaW1hZScsICc8aW5maWxlLm1hZT4nLCAnLW9tYWUnLCAnPG91dGZpbGUubWFlPic=

>  <r_lp_tautomer_probability>  (160) 
1

>  <r_epik_Ionization_Penalty>  (160) 
0.000160255

>  <r_epik_Ionization_Penalty_Charging>  (160) 
0

>  <r_epik_Ionization_Penalty_Neutral>  (160) 
0.000160255

>  <r_epik_State_Penalty>  (160) 
-0

>  <r_epik_Charging_Adjusted_Penalty>  (160) 
0

>  <i_epik_Tot_Q>  (160) 
0

>  <i_epik_Tot_abs_Q>  (160) 
0

>  <s_epik_Chemistry_Notes>  (160) 
This compound has an ester and may undergo hydrolysis at high or low pH.

>  <s_lp_Force_Field>  (160) 
OPLS3e

>  <r_lp_Energy>  (160) 
117.989

>  <b_lp_Chiralities_Consistent>  (160) 
1

>  <s_lp_Variant>  (160) 
49:0-1

>  <s_i_glide_gridfile>  (160) 
pfpi4k_grid

>  <i_i_glide_lignum>  (160) 
30

>  <i_i_glide_rotatable_bonds>  (160) 
8

>  <r_i_docking_score>  (160) 
-3.01835

>  <r_i_glide_ligand_efficiency>  (160) 
-0.0815771

>  <r_i_glide_ligand_efficiency_sa>  (160) 
-0.271833

>  <r_i_glide_ligand_efficiency_ln>  (160) 
-0.65461

>  <r_i_glide_gscore>  (160) 
-3.01835

>  <r_i_glide_lipo>  (160) 
-0.360846

>  <r_i_glide_hbond>  (160) 
-0.293164

>  <r_i_glide_metal>  (160) 
-0

>  <r_i_glide_rewards>  (160) 
-0.0931682

>  <r_i_glide_evdw>  (160) 
-26.5411

>  <r_i_glide_ecoul>  (160) 
-7.41669

>  <r_i_glide_erotb>  (160) 
0.231606

>  <r_i_glide_esite>  (160) 
-0.0632208

>  <r_i_glide_emodel>  (160) 
-40.0285

>  <r_i_glide_energy>  (160) 
-33.9578

>  <r_i_glide_einternal>  (160) 
3.41535

>  <r_i_glide_intrahb_reward>  (160) 
-0

>  <i_i_glide_confnum>  (160) 
2

>  <i_i_glide_posenum>  (160) 
19

>  <r_i_glide_eff_state_penalty>  (160) 
0

>  <ligand_id>  (160) 
49

>  <original_smiles>  (160) 
CC1=CC2C(O)(CCC3CC(O)C45C(O)(CC(OC(=O)c6cccnc6)C34C)CC(C)(O)OC25O)C1=O

>  <smiles>  (160) 
[H]OC1([H])C([H])([H])C2([H])C([H])([H])C([H])([H])C3(O[H])C(=O)C(C([H])([H])[H])=C([H])C3([H])C3(O[H])OC(O[H])(C([H])([H])[H])C([H])([H])C4(O[H])C([H])([H])C([H])(OC(=O)c5c([H])nc([H])c([H])c5[H])C2(C([H])([H])[H])C134

$$$$
50:0:0
     RDKit          3D

 35 37  0  0  1  0  0  0  0  0999 V2000
    3.6851   -0.4838   -3.4896 C   0  0  0  0  0  0  0  0  0  0  0  0
    3.7796   -1.8994   -2.8803 C   0  0  0  0  0  0  0  0  0  0  0  0
    2.7494   -2.8174   -3.5581 C   0  0  0  0  0  0  0  0  0  0  0  0
    3.6190   -1.8863   -1.3952 N   0  0  2  0  0  0  0  0  0  0  0  0
    4.5788   -1.0064   -0.6942 C   0  0  0  0  0  0  0  0  0  0  0  0
    4.5694   -1.4525    0.7619 C   0  0  0  0  0  0  0  0  0  0  0  0
    4.4030   -2.9687    0.6476 C   0  0  2  0  0  0  0  0  0  0  0  0
    3.7516   -3.2082   -0.7249 C   0  0  1  0  0  0  0  0  0  0  0  0
    2.4256   -3.8892   -0.3987 C   0  0  0  0  0  0  0  0  0  0  0  0
    2.6678   -4.5069    0.9829 C   0  0  0  0  0  0  0  0  0  0  0  0
    3.5381   -3.5667    1.6583 N   0  0  0  0  0  0  0  0  0  0  0  0
    3.9349   -3.7831    2.9988 C   0  0  0  0  0  0  0  0  0  0  0  0
    5.0037   -3.0835    3.6522 C   0  0  0  0  0  0  0  0  0  0  0  0
    5.2352   -3.4441    4.8900 N   0  0  0  0  0  0  0  0  0  0  0  0
    4.1202   -4.6416    5.2239 S   0  0  0  0  0  0  0  0  0  0  0  0
    3.3258   -4.6709    3.7533 N   0  0  0  0  0  0  0  0  0  0  0  0
    3.7708   -0.5203   -4.5765 H   0  0  0  0  0  0  0  0  0  0  0  0
    4.4789    0.1764   -3.1342 H   0  0  0  0  0  0  0  0  0  0  0  0
    2.7316   -0.0054   -3.2555 H   0  0  0  0  0  0  0  0  0  0  0  0
    4.7682   -2.2869   -3.1240 H   0  0  0  0  0  0  0  0  0  0  0  0
    2.8633   -2.7867   -4.6417 H   0  0  0  0  0  0  0  0  0  0  0  0
    1.7261   -2.5217   -3.3205 H   0  0  0  0  0  0  0  0  0  0  0  0
    2.8734   -3.8559   -3.2647 H   0  0  0  0  0  0  0  0  0  0  0  0
    5.5797   -1.1416   -1.1087 H   0  0  0  0  0  0  0  0  0  0  0  0
    4.3116    0.0445   -0.7809 H   0  0  0  0  0  0  0  0  0  0  0  0
    5.4832   -1.1548    1.2793 H   0  0  0  0  0  0  0  0  0  0  0  0
    3.7231   -0.9992    1.2818 H   0  0  0  0  0  0  0  0  0  0  0  0
    5.3811   -3.4506    0.6743 H   0  0  0  0  0  0  0  0  0  0  0  0
    4.3899   -3.8765   -1.2991 H   0  0  0  0  0  0  0  0  0  0  0  0
    1.6383   -3.1391   -0.3556 H   0  0  0  0  0  0  0  0  0  0  0  0
    2.1404   -4.6405   -1.1308 H   0  0  0  0  0  0  0  0  0  0  0  0
    1.7424   -4.6683    1.5353 H   0  0  0  0  0  0  0  0  0  0  0  0
    3.1823   -5.4668    0.9109 H   0  0  0  0  0  0  0  0  0  0  0  0
    5.6264   -2.3145    3.2250 H   0  0  0  0  0  0  0  0  0  0  0  0
    2.6869   -1.5377   -1.1803 H   0  0  0  0  0  0  0  0  0  0  0  0
  1  2  1  0
  1 17  1  0
  1 18  1  0
  1 19  1  0
  2  3  1  0
  2  4  1  0
  2 20  1  0
  3 21  1  0
  3 22  1  0
  3 23  1  0
  4  8  1  0
  4  5  1  0
  4 35  1  6
  5  6  1  0
  5 24  1  0
  5 25  1  0
  6  7  1  0
  6 26  1  0
  6 27  1  0
  7 11  1  0
  7  8  1  0
  7 28  1  6
  8  9  1  0
  8 29  1  6
  9 10  1  0
  9 30  1  0
  9 31  1  0
 10 11  1  0
 10 32  1  0
 10 33  1  0
 11 12  1  0
 12 16  2  0
 12 13  1  0
 13 14  2  0
 13 34  1  0
 14 15  1  0
 15 16  1  0
M  CHG  1   4   1
M  END
>  <i_m_ct_stereo_status>  (161) 
1

>  <s_m_source_file>  (161) 
/var/tmp/pbs.5076255.sched01/tmpcsrx8n8z/40wzjmt8mb.sdf

>  <i_m_source_file_index>  (161) 
31

>  <i_lp_mmshare_version>  (161) 
48012

>  <i_f3d_flags>  (161) 
0

>  <s_epik_input>  (161) 
W0NIM11bQ0hdKFtDSDNdKU4oW0NIMl1bQ0gyXTEpW0NAQEhdKFtDQEBIXTEyKVtDSDJdW0NIMl1OMmMzW2NIXW5zbjM=

>  <s_epik_cmdline>  (161) 
J2VwaWtfcHl0aG9uJywgJy1waHQnLCAnMi4wJywgJy1waCcsICc3LjAnLCAnLXRuJywgJzgnLCAnLW1hJywgJzIwMCcsICctaW1hZScsICc8aW5maWxlLm1hZT4nLCAnLW9tYWUnLCAnPG91dGZpbGUubWFlPic=

>  <r_lp_tautomer_probability>  (161) 
1

>  <r_epik_Ionization_Penalty>  (161) 
0.000244998

>  <r_epik_Ionization_Penalty_Charging>  (161) 
0.000244885

>  <r_epik_Ionization_Penalty_Neutral>  (161) 
1.12673e-07

>  <r_epik_State_Penalty>  (161) 
-0

>  <r_epik_Charging_Adjusted_Penalty>  (161) 
0.000244885

>  <i_epik_Tot_Q>  (161) 
1

>  <i_epik_Tot_abs_Q>  (161) 
1

>  <s_lp_Force_Field>  (161) 
OPLS3e

>  <r_lp_Energy>  (161) 
22.1312

>  <b_lp_Chiralities_Consistent>  (161) 
1

>  <s_lp_Variant>  (161) 
50:0-1

>  <s_i_glide_gridfile>  (161) 
pfpi4k_grid

>  <i_i_glide_lignum>  (161) 
31

>  <i_i_glide_rotatable_bonds>  (161) 
2

>  <r_i_docking_score>  (161) 
-3.74491

>  <r_i_glide_ligand_efficiency>  (161) 
-0.234057

>  <r_i_glide_ligand_efficiency_sa>  (161) 
-0.589787

>  <r_i_glide_ligand_efficiency_ln>  (161) 
-0.992664

>  <r_i_glide_gscore>  (161) 
-3.74491

>  <r_i_glide_lipo>  (161) 
-0.557271

>  <r_i_glide_hbond>  (161) 
-0.18475

>  <r_i_glide_metal>  (161) 
-0

>  <r_i_glide_rewards>  (161) 
-1.78248

>  <r_i_glide_evdw>  (161) 
-18.5779

>  <r_i_glide_ecoul>  (161) 
-3.49797

>  <r_i_glide_erotb>  (161) 
0.301613

>  <r_i_glide_esite>  (161) 
-0.0684332

>  <r_i_glide_emodel>  (161) 
-27.6335

>  <r_i_glide_energy>  (161) 
-22.0759

>  <r_i_glide_einternal>  (161) 
0.135219

>  <r_i_glide_intrahb_reward>  (161) 
-0

>  <i_i_glide_confnum>  (161) 
1

>  <i_i_glide_posenum>  (161) 
21

>  <r_i_glide_eff_state_penalty>  (161) 
0

>  <ligand_id>  (161) 
50

>  <original_smiles>  (161) 
CC(C)N1CCC2C1CCN2c1cnsn1

>  <smiles>  (161) 
[H]c1nsnc1N1C([H])([H])C([H])([H])C2([H])C1([H])C([H])([H])C([H])([H])[N+]2([H])C([H])(C([H])([H])[H])C([H])([H])[H]

$$$$
50:0:1
     RDKit          3D

 35 37  0  0  1  0  0  0  0  0999 V2000
    3.6096   -0.4311   -3.4679 C   0  0  0  0  0  0  0  0  0  0  0  0
    3.8072   -1.8341   -2.8572 C   0  0  0  0  0  0  0  0  0  0  0  0
    2.8529   -2.8261   -3.5424 C   0  0  0  0  0  0  0  0  0  0  0  0
    3.6371   -1.8318   -1.3724 N   0  0  2  0  0  0  0  0  0  0  0  0
    4.5715   -0.9288   -0.6605 C   0  0  0  0  0  0  0  0  0  0  0  0
    4.5610   -1.3825    0.7937 C   0  0  0  0  0  0  0  0  0  0  0  0
    4.4311   -2.9005    0.6655 C   0  0  2  0  0  0  0  0  0  0  0  0
    3.7974   -3.1550   -0.7087 C   0  0  1  0  0  0  0  0  0  0  0  0
    2.4907   -3.8770   -0.3860 C   0  0  0  0  0  0  0  0  0  0  0  0
    2.7451   -4.4930    0.9957 C   0  0  0  0  0  0  0  0  0  0  0  0
    3.5871   -3.5297    1.6728 N   0  0  0  0  0  0  0  0  0  0  0  0
    4.0149   -3.7190    3.0086 C   0  0  0  0  0  0  0  0  0  0  0  0
    3.4385   -4.6784    3.9058 C   0  0  0  0  0  0  0  0  0  0  0  0
    3.9822   -4.7240    5.0981 N   0  0  0  0  0  0  0  0  0  0  0  0
    5.1811   -3.5628    5.0888 S   0  0  0  0  0  0  0  0  0  0  0  0
    4.9960   -3.0108    3.5204 N   0  0  0  0  0  0  0  0  0  0  0  0
    3.7051   -0.4638   -4.5540 H   0  0  0  0  0  0  0  0  0  0  0  0
    4.3471    0.2897   -3.1086 H   0  0  0  0  0  0  0  0  0  0  0  0
    2.6199   -0.0287   -3.2407 H   0  0  0  0  0  0  0  0  0  0  0  0
    4.8229   -2.1483   -3.0953 H   0  0  0  0  0  0  0  0  0  0  0  0
    2.9738   -2.7855   -4.6253 H   0  0  0  0  0  0  0  0  0  0  0  0
    1.8073   -2.6102   -3.3110 H   0  0  0  0  0  0  0  0  0  0  0  0
    3.0593   -3.8567   -3.2500 H   0  0  0  0  0  0  0  0  0  0  0  0
    5.5787   -1.0338   -1.0685 H   0  0  0  0  0  0  0  0  0  0  0  0
    4.2759    0.1145   -0.7432 H   0  0  0  0  0  0  0  0  0  0  0  0
    5.4612   -1.0791    1.3334 H   0  0  0  0  0  0  0  0  0  0  0  0
    3.7000   -0.9533    1.3107 H   0  0  0  0  0  0  0  0  0  0  0  0
    5.4220   -3.3546    0.6969 H   0  0  0  0  0  0  0  0  0  0  0  0
    4.4637   -3.8007   -1.2774 H   0  0  0  0  0  0  0  0  0  0  0  0
    1.6885   -3.1431   -0.3480 H   0  0  0  0  0  0  0  0  0  0  0  0
    2.2285   -4.6392   -1.1190 H   0  0  0  0  0  0  0  0  0  0  0  0
    1.8165   -4.6809    1.5327 H   0  0  0  0  0  0  0  0  0  0  0  0
    3.2812   -5.4403    0.9176 H   0  0  0  0  0  0  0  0  0  0  0  0
    2.6287   -5.3584    3.6937 H   0  0  0  0  0  0  0  0  0  0  0  0
    2.6953   -1.5096   -1.1603 H   0  0  0  0  0  0  0  0  0  0  0  0
  1  2  1  0
  1 17  1  0
  1 18  1  0
  1 19  1  0
  2  3  1  0
  2  4  1  0
  2 20  1  0
  3 21  1  0
  3 22  1  0
  3 23  1  0
  4  8  1  0
  4  5  1  0
  4 35  1  6
  5  6  1  0
  5 24  1  0
  5 25  1  0
  6  7  1  0
  6 26  1  0
  6 27  1  0
  7 11  1  0
  7  8  1  0
  7 28  1  6
  8  9  1  0
  8 29  1  6
  9 10  1  0
  9 30  1  0
  9 31  1  0
 10 11  1  0
 10 32  1  0
 10 33  1  0
 11 12  1  0
 12 16  2  0
 12 13  1  0
 13 14  2  0
 13 34  1  0
 14 15  1  0
 15 16  1  0
M  CHG  1   4   1
M  END
>  <i_m_ct_stereo_status>  (162) 
1

>  <s_m_source_file>  (162) 
/var/tmp/pbs.5076255.sched01/tmpcsrx8n8z/40wzjmt8mb.sdf

>  <i_m_source_file_index>  (162) 
31

>  <i_lp_mmshare_version>  (162) 
48012

>  <i_f3d_flags>  (162) 
0

>  <s_epik_input>  (162) 
W0NIM11bQ0hdKFtDSDNdKU4oW0NIMl1bQ0gyXTEpW0NAQEhdKFtDQEBIXTEyKVtDSDJdW0NIMl1OMmMzW2NIXW5zbjM=

>  <s_epik_cmdline>  (162) 
J2VwaWtfcHl0aG9uJywgJy1waHQnLCAnMi4wJywgJy1waCcsICc3LjAnLCAnLXRuJywgJzgnLCAnLW1hJywgJzIwMCcsICctaW1hZScsICc8aW5maWxlLm1hZT4nLCAnLW9tYWUnLCAnPG91dGZpbGUubWFlPic=

>  <r_lp_tautomer_probability>  (162) 
1

>  <r_epik_Ionization_Penalty>  (162) 
0.000244998

>  <r_epik_Ionization_Penalty_Charging>  (162) 
0.000244885

>  <r_epik_Ionization_Penalty_Neutral>  (162) 
1.12673e-07

>  <r_epik_State_Penalty>  (162) 
-0

>  <r_epik_Charging_Adjusted_Penalty>  (162) 
0.000244885

>  <i_epik_Tot_Q>  (162) 
1

>  <i_epik_Tot_abs_Q>  (162) 
1

>  <s_lp_Force_Field>  (162) 
OPLS3e

>  <r_lp_Energy>  (162) 
22.1312

>  <b_lp_Chiralities_Consistent>  (162) 
1

>  <s_lp_Variant>  (162) 
50:0-1

>  <s_i_glide_gridfile>  (162) 
pfpi4k_grid

>  <i_i_glide_lignum>  (162) 
31

>  <i_i_glide_rotatable_bonds>  (162) 
2

>  <r_i_docking_score>  (162) 
-3.7078

>  <r_i_glide_ligand_efficiency>  (162) 
-0.231737

>  <r_i_glide_ligand_efficiency_sa>  (162) 
-0.583941

>  <r_i_glide_ligand_efficiency_ln>  (162) 
-0.982826

>  <r_i_glide_gscore>  (162) 
-3.7078

>  <r_i_glide_lipo>  (162) 
-0.487988

>  <r_i_glide_hbond>  (162) 
-0.185944

>  <r_i_glide_metal>  (162) 
-0

>  <r_i_glide_rewards>  (162) 
-1.78276

>  <r_i_glide_evdw>  (162) 
-18.796

>  <r_i_glide_ecoul>  (162) 
-3.62036

>  <r_i_glide_erotb>  (162) 
0.301613

>  <r_i_glide_esite>  (162) 
-0.0698598

>  <r_i_glide_emodel>  (162) 
-27.9159

>  <r_i_glide_energy>  (162) 
-22.4164

>  <r_i_glide_einternal>  (162) 
0.0931659

>  <r_i_glide_intrahb_reward>  (162) 
-0

>  <i_i_glide_confnum>  (162) 
1

>  <i_i_glide_posenum>  (162) 
39

>  <r_i_glide_eff_state_penalty>  (162) 
0

>  <ligand_id>  (162) 
50

>  <original_smiles>  (162) 
CC(C)N1CCC2C1CCN2c1cnsn1

>  <smiles>  (162) 
[H]c1nsnc1N1C([H])([H])C([H])([H])C2([H])C1([H])C([H])([H])C([H])([H])[N+]2([H])C([H])(C([H])([H])[H])C([H])([H])[H]

$$$$
50:0:2
     RDKit          3D

 35 37  0  0  1  0  0  0  0  0999 V2000
    6.7586   -2.9461   -1.9073 C   0  0  0  0  0  0  0  0  0  0  0  0
    5.3530   -2.3120   -1.9091 C   0  0  0  0  0  0  0  0  0  0  0  0
    5.2925   -1.0714   -0.9820 C   0  0  0  0  0  0  0  0  0  0  0  0
    4.2946   -3.3230   -1.6236 N   0  0  2  0  0  0  0  0  0  0  0  0
    2.9133   -2.8418   -1.8531 C   0  0  0  0  0  0  0  0  0  0  0  0
    2.0288   -3.8092   -1.0948 C   0  0  0  0  0  0  0  0  0  0  0  0
    2.8696   -4.2065    0.1243 C   0  0  2  0  0  0  0  0  0  0  0  0
    4.3236   -3.9419   -0.2703 C   0  0  1  0  0  0  0  0  0  0  0  0
    5.0113   -5.3053   -0.1856 C   0  0  0  0  0  0  0  0  0  0  0  0
    4.1295   -6.0640    0.8120 C   0  0  0  0  0  0  0  0  0  0  0  0
    2.7894   -5.6069    0.5055 N   0  0  0  0  0  0  0  0  0  0  0  0
    1.6871   -6.1085    1.2214 C   0  0  0  0  0  0  0  0  0  0  0  0
    1.5852   -6.1299    2.6486 C   0  0  0  0  0  0  0  0  0  0  0  0
    0.4610   -6.6335    3.1037 N   0  0  0  0  0  0  0  0  0  0  0  0
   -0.3611   -7.1828    1.7587 S   0  0  0  0  0  0  0  0  0  0  0  0
    0.6417   -6.5620    0.5771 N   0  0  0  0  0  0  0  0  0  0  0  0
    7.5372   -2.2092   -2.1118 H   0  0  0  0  0  0  0  0  0  0  0  0
    6.8551   -3.7115   -2.6838 H   0  0  0  0  0  0  0  0  0  0  0  0
    7.0001   -3.3970   -0.9395 H   0  0  0  0  0  0  0  0  0  0  0  0
    5.1862   -1.9652   -2.9266 H   0  0  0  0  0  0  0  0  0  0  0  0
    6.0980   -0.3799   -1.2039 H   0  0  0  0  0  0  0  0  0  0  0  0
    5.4003   -1.3135    0.0808 H   0  0  0  0  0  0  0  0  0  0  0  0
    4.3715   -0.4929   -1.1129 H   0  0  0  0  0  0  0  0  0  0  0  0
    2.7553   -1.8590   -1.4066 H   0  0  0  0  0  0  0  0  0  0  0  0
    2.6514   -2.7602   -2.9089 H   0  0  0  0  0  0  0  0  0  0  0  0
    1.1067   -3.3158   -0.8308 H   0  0  0  0  0  0  0  0  0  0  0  0
    1.7674   -4.6566   -1.7116 H   0  0  0  0  0  0  0  0  0  0  0  0
    2.6224   -3.5666    0.9768 H   0  0  0  0  0  0  0  0  0  0  0  0
    4.7561   -3.2968    0.4892 H   0  0  0  0  0  0  0  0  0  0  0  0
    5.0035   -5.8171   -1.1499 H   0  0  0  0  0  0  0  0  0  0  0  0
    6.0393   -5.2305    0.1621 H   0  0  0  0  0  0  0  0  0  0  0  0
    4.2266   -7.1466    0.6910 H   0  0  0  0  0  0  0  0  0  0  0  0
    4.3873   -5.8088    1.8444 H   0  0  0  0  0  0  0  0  0  0  0  0
    2.3140   -5.7608    3.3564 H   0  0  0  0  0  0  0  0  0  0  0  0
    4.4017   -4.0892   -2.2796 H   0  0  0  0  0  0  0  0  0  0  0  0
  1  2  1  0
  1 17  1  0
  1 18  1  0
  1 19  1  0
  2  3  1  0
  2  4  1  0
  2 20  1  0
  3 21  1  0
  3 22  1  0
  3 23  1  0
  4  8  1  0
  4  5  1  0
  4 35  1  6
  5  6  1  0
  5 24  1  0
  5 25  1  0
  6  7  1  0
  6 26  1  0
  6 27  1  0
  7 11  1  0
  7  8  1  0
  7 28  1  1
  8  9  1  0
  8 29  1  1
  9 10  1  0
  9 30  1  0
  9 31  1  0
 10 11  1  0
 10 32  1  0
 10 33  1  0
 11 12  1  0
 12 16  2  0
 12 13  1  0
 13 14  2  0
 13 34  1  0
 14 15  1  0
 15 16  1  0
M  CHG  1   4   1
M  END
>  <i_m_ct_stereo_status>  (163) 
1

>  <s_m_source_file>  (163) 
/var/tmp/pbs.5076255.sched01/tmpcsrx8n8z/40wzjmt8mb.sdf

>  <i_m_source_file_index>  (163) 
31

>  <i_lp_mmshare_version>  (163) 
48012

>  <i_f3d_flags>  (163) 
0

>  <s_epik_input>  (163) 
W0NIM11bQ0hdKFtDSDNdKU4oW0NIMl1bQ0gyXTEpW0NAQEhdKFtDQEBIXTEyKVtDSDJdW0NIMl1OMmMzW2NIXW5zbjM=

>  <s_epik_cmdline>  (163) 
J2VwaWtfcHl0aG9uJywgJy1waHQnLCAnMi4wJywgJy1waCcsICc3LjAnLCAnLXRuJywgJzgnLCAnLW1hJywgJzIwMCcsICctaW1hZScsICc8aW5maWxlLm1hZT4nLCAnLW9tYWUnLCAnPG91dGZpbGUubWFlPic=

>  <r_lp_tautomer_probability>  (163) 
1

>  <r_epik_Ionization_Penalty>  (163) 
0.000244998

>  <r_epik_Ionization_Penalty_Charging>  (163) 
0.000244885

>  <r_epik_Ionization_Penalty_Neutral>  (163) 
1.12673e-07

>  <r_epik_State_Penalty>  (163) 
-0

>  <r_epik_Charging_Adjusted_Penalty>  (163) 
0.000244885

>  <i_epik_Tot_Q>  (163) 
1

>  <i_epik_Tot_abs_Q>  (163) 
1

>  <s_lp_Force_Field>  (163) 
OPLS3e

>  <r_lp_Energy>  (163) 
22.1312

>  <b_lp_Chiralities_Consistent>  (163) 
1

>  <s_lp_Variant>  (163) 
50:0-1

>  <s_i_glide_gridfile>  (163) 
pfpi4k_grid

>  <i_i_glide_lignum>  (163) 
31

>  <i_i_glide_rotatable_bonds>  (163) 
2

>  <r_i_docking_score>  (163) 
-3.41168

>  <r_i_glide_ligand_efficiency>  (163) 
-0.21323

>  <r_i_glide_ligand_efficiency_sa>  (163) 
-0.537306

>  <r_i_glide_ligand_efficiency_ln>  (163) 
-0.904334

>  <r_i_glide_gscore>  (163) 
-3.41168

>  <r_i_glide_lipo>  (163) 
-0.0908076

>  <r_i_glide_hbond>  (163) 
-0.200464

>  <r_i_glide_metal>  (163) 
-0

>  <r_i_glide_rewards>  (163) 
-1.77708

>  <r_i_glide_evdw>  (163) 
-18.4504

>  <r_i_glide_ecoul>  (163) 
-4.51218

>  <r_i_glide_erotb>  (163) 
0.301613

>  <r_i_glide_esite>  (163) 
-0.0455934

>  <r_i_glide_emodel>  (163) 
-23.5904

>  <r_i_glide_energy>  (163) 
-22.9626

>  <r_i_glide_einternal>  (163) 
8.49878

>  <r_i_glide_intrahb_reward>  (163) 
-0

>  <i_i_glide_confnum>  (163) 
3

>  <i_i_glide_posenum>  (163) 
1

>  <r_i_glide_eff_state_penalty>  (163) 
0

>  <ligand_id>  (163) 
50

>  <original_smiles>  (163) 
CC(C)N1CCC2C1CCN2c1cnsn1

>  <smiles>  (163) 
[H]c1nsnc1N1C([H])([H])C([H])([H])C2([H])C1([H])C([H])([H])C([H])([H])[N+]2([H])C([H])(C([H])([H])[H])C([H])([H])[H]

$$$$
51:0:0
     RDKit          3D

 30 32  0  0  1  0  0  0  0  0999 V2000
    6.0571   -6.6812    1.9088 C   0  0  0  0  0  0  0  0  0  0  0  0
    6.0071   -5.3907    1.0977 C   0  0  0  0  0  0  0  0  0  0  0  0
    7.0430   -4.7565    0.9081 O   0  0  0  0  0  0  0  0  0  0  0  0
    4.8049   -5.0056    0.6304 N   0  0  0  0  0  0  0  0  0  0  0  0
    4.5305   -3.7752   -0.1191 C   0  0  2  0  0  0  0  0  0  0  0  0
    5.1576   -3.7769   -1.5307 C   0  0  0  0  0  0  0  0  0  0  0  0
    5.2319   -2.2748   -1.7926 C   0  0  2  0  0  0  0  0  0  0  0  0
    5.9640   -1.8273   -0.5212 C   0  0  0  0  0  0  0  0  0  0  0  0
    5.0512   -2.4496    0.5464 C   0  0  1  0  0  0  0  0  0  0  0  0
    3.7979   -1.5641    0.6156 C   0  0  0  0  0  0  0  0  0  0  0  0
    3.0418   -2.0262   -0.5677 N   0  0  1  0  0  0  0  0  0  0  0  0
    3.7865   -1.6733   -1.8244 C   0  0  0  0  0  0  0  0  0  0  0  0
    3.0299   -3.4887   -0.3463 C   0  0  0  0  0  0  0  0  0  0  0  0
    5.0751   -7.1450    2.0027 H   0  0  0  0  0  0  0  0  0  0  0  0
    6.4384   -6.4761    2.9091 H   0  0  0  0  0  0  0  0  0  0  0  0
    6.7310   -7.3903    1.4293 H   0  0  0  0  0  0  0  0  0  0  0  0
    4.0139   -5.5966    0.8490 H   0  0  0  0  0  0  0  0  0  0  0  0
    6.1606   -4.2055   -1.5300 H   0  0  0  0  0  0  0  0  0  0  0  0
    4.5770   -4.3150   -2.2823 H   0  0  0  0  0  0  0  0  0  0  0  0
    5.7869   -2.0499   -2.7029 H   0  0  0  0  0  0  0  0  0  0  0  0
    6.9691   -2.2569   -0.4734 H   0  0  0  0  0  0  0  0  0  0  0  0
    6.0546   -0.7429   -0.4283 H   0  0  0  0  0  0  0  0  0  0  0  0
    5.5419   -2.5575    1.5158 H   0  0  0  0  0  0  0  0  0  0  0  0
    3.2395   -1.7795    1.5264 H   0  0  0  0  0  0  0  0  0  0  0  0
    4.0156   -0.4938    0.6046 H   0  0  0  0  0  0  0  0  0  0  0  0
    3.8455   -0.5886   -1.9165 H   0  0  0  0  0  0  0  0  0  0  0  0
    3.2375   -2.0463   -2.6893 H   0  0  0  0  0  0  0  0  0  0  0  0
    2.6013   -4.0218   -1.1966 H   0  0  0  0  0  0  0  0  0  0  0  0
    2.4352   -3.7291    0.5352 H   0  0  0  0  0  0  0  0  0  0  0  0
    2.0953   -1.6178   -0.6181 H   0  0  0  0  0  0  0  0  0  0  0  0
  1  2  1  0
  1 14  1  0
  1 15  1  0
  1 16  1  0
  2  3  2  0
  2  4  1  0
  5  4  1  1
  4 17  1  0
  5  9  1  0
  5 13  1  0
  5  6  1  0
  6  7  1  0
  6 18  1  0
  6 19  1  0
  7 12  1  0
  7  8  1  0
  7 20  1  6
  8  9  1  0
  8 21  1  0
  8 22  1  0
  9 10  1  0
  9 23  1  1
 10 11  1  0
 10 24  1  0
 10 25  1  0
 11 12  1  0
 11 13  1  0
 11 30  1  6
 12 26  1  0
 12 27  1  0
 13 28  1  0
 13 29  1  0
M  CHG  1  11   1
M  END
>  <i_m_ct_stereo_status>  (164) 
1

>  <s_m_source_file>  (164) 
/var/tmp/pbs.5076255.sched01/tmpcsrx8n8z/40wzjmt8mb.sdf

>  <i_m_source_file_index>  (164) 
32

>  <i_lp_mmshare_version>  (164) 
48012

>  <i_f3d_flags>  (164) 
0

>  <s_epik_input>  (164) 
W0NIM11DKD1PKVtOSF1bQ0BAXTEyW0NASF0zW0NIMl1bQ0BASF0oW0NIMl0xKVtDSDJdTihbQ0gyXTMpW0NIMl0y

>  <s_epik_cmdline>  (164) 
J2VwaWtfcHl0aG9uJywgJy1waHQnLCAnMi4wJywgJy1waCcsICc3LjAnLCAnLXRuJywgJzgnLCAnLW1hJywgJzIwMCcsICctaW1hZScsICc8aW5maWxlLm1hZT4nLCAnLW9tYWUnLCAnPG91dGZpbGUubWFlPic=

>  <r_epik_Ionization_Penalty>  (164) 
0.000863834

>  <r_epik_Ionization_Penalty_Charging>  (164) 
0.000863697

>  <r_epik_Ionization_Penalty_Neutral>  (164) 
1.36927e-07

>  <r_epik_State_Penalty>  (164) 
0.000557486

>  <r_epik_Charging_Adjusted_Penalty>  (164) 
0.00142118

>  <i_epik_Tot_Q>  (164) 
1

>  <i_epik_Tot_abs_Q>  (164) 
1

>  <s_lp_Force_Field>  (164) 
OPLS3e

>  <r_lp_Energy>  (164) 
37.3835

>  <b_lp_Chiralities_Consistent>  (164) 
1

>  <s_lp_Variant>  (164) 
51:0-1

>  <s_i_glide_gridfile>  (164) 
pfpi4k_grid

>  <i_i_glide_lignum>  (164) 
32

>  <i_i_glide_rotatable_bonds>  (164) 
2

>  <r_i_docking_score>  (164) 
-4.56646

>  <r_i_glide_ligand_efficiency>  (164) 
-0.351266

>  <r_i_glide_ligand_efficiency_sa>  (164) 
-0.825943

>  <r_i_glide_ligand_efficiency_ln>  (164) 
-1.28093

>  <r_i_glide_gscore>  (164) 
-4.56646

>  <r_i_glide_lipo>  (164) 
-0.120181

>  <r_i_glide_hbond>  (164) 
-0.191425

>  <r_i_glide_metal>  (164) 
-0

>  <r_i_glide_rewards>  (164) 
-2.2988

>  <r_i_glide_evdw>  (164) 
-15.6271

>  <r_i_glide_ecoul>  (164) 
-7.16462

>  <r_i_glide_erotb>  (164) 
0

>  <r_i_glide_esite>  (164) 
-0.1

>  <r_i_glide_emodel>  (164) 
-32.5763

>  <r_i_glide_energy>  (164) 
-22.7917

>  <r_i_glide_einternal>  (164) 
0.602841

>  <r_i_glide_intrahb_reward>  (164) 
-0

>  <i_i_glide_confnum>  (164) 
2

>  <i_i_glide_posenum>  (164) 
2

>  <r_i_glide_eff_state_penalty>  (164) 
0

>  <ligand_id>  (164) 
51

>  <original_smiles>  (164) 
CC(=O)NC12CC3CC1CN(C3)C2

>  <smiles>  (164) 
[H]N(C(=O)C([H])([H])[H])C12C([H])([H])C3([H])C([H])([H])C1([H])C([H])([H])[N+]([H])(C3([H])[H])C2([H])[H]

$$$$
51:0:1
     RDKit          3D

 30 32  0  0  1  0  0  0  0  0999 V2000
   -3.0622    3.0884    3.0095 C   0  0  0  0  0  0  0  0  0  0  0  0
   -1.7802    3.4109    3.7640 C   0  0  0  0  0  0  0  0  0  0  0  0
   -1.8346    4.1455    4.7500 O   0  0  0  0  0  0  0  0  0  0  0  0
   -0.6348    2.8970    3.2892 N   0  0  0  0  0  0  0  0  0  0  0  0
    0.7108    3.2437    3.7627 C   0  0  2  0  0  0  0  0  0  0  0  0
    0.9821    2.7958    5.2188 C   0  0  0  0  0  0  0  0  0  0  0  0
    2.1154    3.7541    5.5832 C   0  0  2  0  0  0  0  0  0  0  0  0
    1.4769    5.0897    5.1852 C   0  0  0  0  0  0  0  0  0  0  0  0
    1.0682    4.7733    3.7360 C   0  0  1  0  0  0  0  0  0  0  0  0
    2.3637    4.8347    2.9104 C   0  0  0  0  0  0  0  0  0  0  0  0
    2.9678    3.5267    3.2259 N   0  0  1  0  0  0  0  0  0  0  0  0
    3.3570    3.4629    4.6740 C   0  0  0  0  0  0  0  0  0  0  0  0
    1.8441    2.6124    2.9276 C   0  0  0  0  0  0  0  0  0  0  0  0
   -2.8742    2.4655    2.1355 H   0  0  0  0  0  0  0  0  0  0  0  0
   -3.5388    4.0096    2.6771 H   0  0  0  0  0  0  0  0  0  0  0  0
   -3.7560    2.5675    3.6685 H   0  0  0  0  0  0  0  0  0  0  0  0
   -0.6902    2.3516    2.4412 H   0  0  0  0  0  0  0  0  0  0  0  0
    0.1276    2.9691    5.8776 H   0  0  0  0  0  0  0  0  0  0  0  0
    1.2516    1.7420    5.3135 H   0  0  0  0  0  0  0  0  0  0  0  0
    2.3663    3.7115    6.6445 H   0  0  0  0  0  0  0  0  0  0  0  0
    0.5981    5.3038    5.8016 H   0  0  0  0  0  0  0  0  0  0  0  0
    2.1602    5.9374    5.2739 H   0  0  0  0  0  0  0  0  0  0  0  0
    0.2960    5.4411    3.3467 H   0  0  0  0  0  0  0  0  0  0  0  0
    2.1485    4.8923    1.8423 H   0  0  0  0  0  0  0  0  0  0  0  0
    3.0089    5.6814    3.1528 H   0  0  0  0  0  0  0  0  0  0  0  0
    4.1430    4.1941    4.8727 H   0  0  0  0  0  0  0  0  0  0  0  0
    3.7691    2.4777    4.8994 H   0  0  0  0  0  0  0  0  0  0  0  0
    2.0768    1.5814    3.2028 H   0  0  0  0  0  0  0  0  0  0  0  0
    1.6228    2.6263    1.8586 H   0  0  0  0  0  0  0  0  0  0  0  0
    3.7690    3.3320    2.6348 H   0  0  0  0  0  0  0  0  0  0  0  0
  1  2  1  0
  1 14  1  0
  1 15  1  0
  1 16  1  0
  2  3  2  0
  2  4  1  0
  5  4  1  6
  4 17  1  0
  5  9  1  0
  5 13  1  0
  5  6  1  0
  6  7  1  0
  6 18  1  0
  6 19  1  0
  7 12  1  0
  7  8  1  0
  7 20  1  1
  8  9  1  0
  8 21  1  0
  8 22  1  0
  9 10  1  0
  9 23  1  6
 10 11  1  0
 10 24  1  0
 10 25  1  0
 11 12  1  0
 11 13  1  0
 11 30  1  6
 12 26  1  0
 12 27  1  0
 13 28  1  0
 13 29  1  0
M  CHG  1  11   1
M  END
>  <i_m_ct_stereo_status>  (165) 
1

>  <s_m_source_file>  (165) 
/var/tmp/pbs.5076255.sched01/tmpcsrx8n8z/40wzjmt8mb.sdf

>  <i_m_source_file_index>  (165) 
32

>  <i_lp_mmshare_version>  (165) 
48012

>  <i_f3d_flags>  (165) 
0

>  <s_epik_input>  (165) 
W0NIM11DKD1PKVtOSF1bQ0BAXTEyW0NASF0zW0NIMl1bQ0BASF0oW0NIMl0xKVtDSDJdTihbQ0gyXTMpW0NIMl0y

>  <s_epik_cmdline>  (165) 
J2VwaWtfcHl0aG9uJywgJy1waHQnLCAnMi4wJywgJy1waCcsICc3LjAnLCAnLXRuJywgJzgnLCAnLW1hJywgJzIwMCcsICctaW1hZScsICc8aW5maWxlLm1hZT4nLCAnLW9tYWUnLCAnPG91dGZpbGUubWFlPic=

>  <r_epik_Ionization_Penalty>  (165) 
0.000863834

>  <r_epik_Ionization_Penalty_Charging>  (165) 
0.000863697

>  <r_epik_Ionization_Penalty_Neutral>  (165) 
1.36927e-07

>  <r_epik_State_Penalty>  (165) 
0.000557486

>  <r_epik_Charging_Adjusted_Penalty>  (165) 
0.00142118

>  <i_epik_Tot_Q>  (165) 
1

>  <i_epik_Tot_abs_Q>  (165) 
1

>  <s_lp_Force_Field>  (165) 
OPLS3e

>  <r_lp_Energy>  (165) 
37.3835

>  <b_lp_Chiralities_Consistent>  (165) 
1

>  <s_lp_Variant>  (165) 
51:0-1

>  <s_i_glide_gridfile>  (165) 
pfpi4k_grid

>  <i_i_glide_lignum>  (165) 
32

>  <i_i_glide_rotatable_bonds>  (165) 
2

>  <r_i_docking_score>  (165) 
-4.18215

>  <r_i_glide_ligand_efficiency>  (165) 
-0.321704

>  <r_i_glide_ligand_efficiency_sa>  (165) 
-0.756434

>  <r_i_glide_ligand_efficiency_ln>  (165) 
-1.17313

>  <r_i_glide_gscore>  (165) 
-4.18215

>  <r_i_glide_lipo>  (165) 
0

>  <r_i_glide_hbond>  (165) 
-0.00428178

>  <r_i_glide_metal>  (165) 
-0

>  <r_i_glide_rewards>  (165) 
-2.17326

>  <r_i_glide_evdw>  (165) 
-15.3122

>  <r_i_glide_ecoul>  (165) 
-7.19384

>  <r_i_glide_erotb>  (165) 
0

>  <r_i_glide_esite>  (165) 
-0.159918

>  <r_i_glide_emodel>  (165) 
-31.379

>  <r_i_glide_energy>  (165) 
-22.5061

>  <r_i_glide_einternal>  (165) 
0.689073

>  <r_i_glide_intrahb_reward>  (165) 
-0

>  <i_i_glide_confnum>  (165) 
1

>  <i_i_glide_posenum>  (165) 
36

>  <r_i_glide_eff_state_penalty>  (165) 
0

>  <ligand_id>  (165) 
51

>  <original_smiles>  (165) 
CC(=O)NC12CC3CC1CN(C3)C2

>  <smiles>  (165) 
[H]N(C(=O)C([H])([H])[H])C12C([H])([H])C3([H])C([H])([H])C1([H])C([H])([H])[N+]([H])(C3([H])[H])C2([H])[H]

$$$$
51:0:2
     RDKit          3D

 30 32  0  0  1  0  0  0  0  0999 V2000
    2.3357   -6.1076    1.3863 C   0  0  0  0  0  0  0  0  0  0  0  0
    3.1394   -4.9123    0.8903 C   0  0  0  0  0  0  0  0  0  0  0  0
    4.0581   -4.4769    1.5830 O   0  0  0  0  0  0  0  0  0  0  0  0
    2.8055   -4.3928   -0.3064 N   0  0  0  0  0  0  0  0  0  0  0  0
    3.5095   -3.3027   -0.9810 C   0  0  2  0  0  0  0  0  0  0  0  0
    2.8866   -2.9633   -2.3562 C   0  0  0  0  0  0  0  0  0  0  0  0
    4.0835   -2.2926   -3.0355 C   0  0  2  0  0  0  0  0  0  0  0  0
    5.1368   -3.3816   -2.8326 C   0  0  0  0  0  0  0  0  0  0  0  0
    5.0173   -3.5881   -1.3119 C   0  0  1  0  0  0  0  0  0  0  0  0
    5.7373   -2.3990   -0.6605 C   0  0  0  0  0  0  0  0  0  0  0  0
    4.7241   -1.3297   -0.7936 N   0  0  1  0  0  0  0  0  0  0  0  0
    4.4840   -1.0053   -2.2399 C   0  0  0  0  0  0  0  0  0  0  0  0
    3.5436   -1.9747   -0.1942 C   0  0  0  0  0  0  0  0  0  0  0  0
    1.5882   -6.4325    0.6629 H   0  0  0  0  0  0  0  0  0  0  0  0
    1.8337   -5.8528    2.3203 H   0  0  0  0  0  0  0  0  0  0  0  0
    3.0039   -6.9465    1.5861 H   0  0  0  0  0  0  0  0  0  0  0  0
    2.1111   -4.8755   -0.8594 H   0  0  0  0  0  0  0  0  0  0  0  0
    2.5848   -3.8545   -2.9047 H   0  0  0  0  0  0  0  0  0  0  0  0
    2.0142   -2.3079   -2.3098 H   0  0  0  0  0  0  0  0  0  0  0  0
    3.8996   -2.0766   -4.0891 H   0  0  0  0  0  0  0  0  0  0  0  0
    4.8698   -4.2928   -3.3759 H   0  0  0  0  0  0  0  0  0  0  0  0
    6.1363   -3.0824   -3.1554 H   0  0  0  0  0  0  0  0  0  0  0  0
    5.3998   -4.5585   -0.9895 H   0  0  0  0  0  0  0  0  0  0  0  0
    5.9318   -2.6009    0.3942 H   0  0  0  0  0  0  0  0  0  0  0  0
    6.6906   -2.1491   -1.1286 H   0  0  0  0  0  0  0  0  0  0  0  0
    5.3890   -0.5684   -2.6580 H   0  0  0  0  0  0  0  0  0  0  0  0
    3.6944   -0.2587   -2.3223 H   0  0  0  0  0  0  0  0  0  0  0  0
    2.6418   -1.3764   -0.2948 H   0  0  0  0  0  0  0  0  0  0  0  0
    3.7091   -2.1070    0.8741 H   0  0  0  0  0  0  0  0  0  0  0  0
    4.9755   -0.4983   -0.2769 H   0  0  0  0  0  0  0  0  0  0  0  0
  1  2  1  0
  1 14  1  0
  1 15  1  0
  1 16  1  0
  2  3  2  0
  2  4  1  0
  5  4  1  1
  4 17  1  0
  5  9  1  0
  5 13  1  0
  5  6  1  0
  6  7  1  0
  6 18  1  0
  6 19  1  0
  7 12  1  0
  7  8  1  0
  7 20  1  6
  8  9  1  0
  8 21  1  0
  8 22  1  0
  9 10  1  0
  9 23  1  6
 10 11  1  0
 10 24  1  0
 10 25  1  0
 11 12  1  0
 11 13  1  0
 11 30  1  1
 12 26  1  0
 12 27  1  0
 13 28  1  0
 13 29  1  0
M  CHG  1  11   1
M  END
>  <i_m_ct_stereo_status>  (166) 
1

>  <s_m_source_file>  (166) 
/var/tmp/pbs.5076255.sched01/tmpcsrx8n8z/40wzjmt8mb.sdf

>  <i_m_source_file_index>  (166) 
32

>  <i_lp_mmshare_version>  (166) 
48012

>  <i_f3d_flags>  (166) 
0

>  <s_epik_input>  (166) 
W0NIM11DKD1PKVtOSF1bQ0BAXTEyW0NASF0zW0NIMl1bQ0BASF0oW0NIMl0xKVtDSDJdTihbQ0gyXTMpW0NIMl0y

>  <s_epik_cmdline>  (166) 
J2VwaWtfcHl0aG9uJywgJy1waHQnLCAnMi4wJywgJy1waCcsICc3LjAnLCAnLXRuJywgJzgnLCAnLW1hJywgJzIwMCcsICctaW1hZScsICc8aW5maWxlLm1hZT4nLCAnLW9tYWUnLCAnPG91dGZpbGUubWFlPic=

>  <r_epik_Ionization_Penalty>  (166) 
0.000863834

>  <r_epik_Ionization_Penalty_Charging>  (166) 
0.000863697

>  <r_epik_Ionization_Penalty_Neutral>  (166) 
1.36927e-07

>  <r_epik_State_Penalty>  (166) 
0.000557486

>  <r_epik_Charging_Adjusted_Penalty>  (166) 
0.00142118

>  <i_epik_Tot_Q>  (166) 
1

>  <i_epik_Tot_abs_Q>  (166) 
1

>  <s_lp_Force_Field>  (166) 
OPLS3e

>  <r_lp_Energy>  (166) 
37.3835

>  <b_lp_Chiralities_Consistent>  (166) 
1

>  <s_lp_Variant>  (166) 
51:0-1

>  <s_i_glide_gridfile>  (166) 
pfpi4k_grid

>  <i_i_glide_lignum>  (166) 
32

>  <i_i_glide_rotatable_bonds>  (166) 
2

>  <r_i_docking_score>  (166) 
-4.16806

>  <r_i_glide_ligand_efficiency>  (166) 
-0.32062

>  <r_i_glide_ligand_efficiency_sa>  (166) 
-0.753884

>  <r_i_glide_ligand_efficiency_ln>  (166) 
-1.16918

>  <r_i_glide_gscore>  (166) 
-4.16806

>  <r_i_glide_lipo>  (166) 
-0.451451

>  <r_i_glide_hbond>  (166) 
-0.0366372

>  <r_i_glide_metal>  (166) 
-0

>  <r_i_glide_rewards>  (166) 
-2.17326

>  <r_i_glide_evdw>  (166) 
-18.4879

>  <r_i_glide_ecoul>  (166) 
-3.22981

>  <r_i_glide_erotb>  (166) 
0

>  <r_i_glide_esite>  (166) 
-0.0978399

>  <r_i_glide_emodel>  (166) 
-30.4711

>  <r_i_glide_energy>  (166) 
-21.7177

>  <r_i_glide_einternal>  (166) 
0.710146

>  <r_i_glide_intrahb_reward>  (166) 
-0

>  <i_i_glide_confnum>  (166) 
2

>  <i_i_glide_posenum>  (166) 
6

>  <r_i_glide_eff_state_penalty>  (166) 
0

>  <ligand_id>  (166) 
51

>  <original_smiles>  (166) 
CC(=O)NC12CC3CC1CN(C3)C2

>  <smiles>  (166) 
[H]N(C(=O)C([H])([H])[H])C12C([H])([H])C3([H])C([H])([H])C1([H])C([H])([H])[N+]([H])(C3([H])[H])C2([H])[H]

$$$$
52:0:0
     RDKit          3D

 47 52  0  0  1  0  0  0  0  0999 V2000
    3.6653   -1.3636   -3.7327 C   0  0  0  0  0  0  0  0  0  0  0  0
    4.3932   -1.1740   -2.4269 C   0  0  2  0  0  0  0  0  0  0  0  0
    5.6221   -1.8913   -2.2694 O   0  0  0  0  0  0  0  0  0  0  0  0
    4.5426   -2.2911   -1.4141 C   0  0  1  0  0  0  0  0  0  0  0  0
    4.7046   -2.0081    0.0790 C   0  0  2  0  0  0  0  0  0  0  0  0
    5.8239   -2.8999    0.8271 C   0  0  2  0  0  0  0  0  0  0  0  0
    7.2082   -3.0647    0.2799 C   0  0  0  0  0  0  0  0  0  0  0  0
    6.2128   -4.0976    0.1394 O   0  0  0  0  0  0  0  0  0  0  0  0
    5.3968   -3.0946    2.4051 C   0  0  0  0  0  0  0  0  0  0  0  0
    5.7674   -4.4934    2.9065 C   0  0  0  0  0  0  0  0  0  0  0  0
    4.1389   -2.7833    2.0293 C   0  0  1  0  0  0  0  0  0  0  0  0
    4.9987   -1.3827    2.6418 C   0  0  0  0  0  0  0  0  0  0  0  0
    5.6624   -0.3727    2.3416 O   0  0  0  0  0  0  0  0  0  0  0  0
    4.5694   -2.0590    3.6504 C   0  0  2  0  0  0  0  0  0  0  0  0
    3.4980   -0.9890    3.2304 O   0  0  0  0  0  0  0  0  0  0  0  0
    2.6177   -1.2226    2.0075 C   0  0  2  0  0  0  0  0  0  0  0  0
    2.2613   -0.0379    1.3360 O   0  0  0  0  0  0  0  0  0  0  0  0
    1.4107   -1.7741    2.7756 C   0  0  0  0  0  0  0  0  0  0  0  0
    1.8718   -2.7477    3.9016 C   0  0  0  0  0  0  0  0  0  0  0  0
    3.2924   -2.4575    4.5620 C   0  0  1  0  0  0  0  0  0  0  0  0
    3.6211   -3.6761    5.4500 C   0  0  0  0  0  0  0  0  0  0  0  0
    3.4051   -2.2431    0.9507 C   0  0  1  0  0  0  0  0  0  0  0  0
    2.4490   -3.2929    0.3412 C   0  0  0  0  0  0  0  0  0  0  0  0
    2.6263   -1.0505   -3.6120 H   0  0  0  0  0  0  0  0  0  0  0  0
    3.6780   -2.4095   -4.0442 H   0  0  0  0  0  0  0  0  0  0  0  0
    4.1217   -0.7497   -4.5086 H   0  0  0  0  0  0  0  0  0  0  0  0
    4.4448   -0.1498   -2.0746 H   0  0  0  0  0  0  0  0  0  0  0  0
    4.1589   -3.2725   -1.6888 H   0  0  0  0  0  0  0  0  0  0  0  0
    4.9943   -0.9532    0.1004 H   0  0  0  0  0  0  0  0  0  0  0  0
    7.4403   -2.4915   -0.6091 H   0  0  0  0  0  0  0  0  0  0  0  0
    8.0319   -3.2733    0.9550 H   0  0  0  0  0  0  0  0  0  0  0  0
    5.8402   -4.4684    3.9897 H   0  0  0  0  0  0  0  0  0  0  0  0
    6.7294   -4.8402    2.5357 H   0  0  0  0  0  0  0  0  0  0  0  0
    5.0136   -5.2426    2.6602 H   0  0  0  0  0  0  0  0  0  0  0  0
    3.5603   -3.5591    2.5321 H   0  0  0  0  0  0  0  0  0  0  0  0
    1.6634   -0.2704    0.6234 H   0  0  0  0  0  0  0  0  0  0  0  0
    0.9076   -0.9271    3.2455 H   0  0  0  0  0  0  0  0  0  0  0  0
    0.6939   -2.2190    2.0965 H   0  0  0  0  0  0  0  0  0  0  0  0
    1.1223   -2.7116    4.6918 H   0  0  0  0  0  0  0  0  0  0  0  0
    1.8205   -3.7778    3.5392 H   0  0  0  0  0  0  0  0  0  0  0  0
    3.1414   -1.6565    5.2913 H   0  0  0  0  0  0  0  0  0  0  0  0
    3.6652   -4.6003    4.8702 H   0  0  0  0  0  0  0  0  0  0  0  0
    2.8525   -3.8258    6.2110 H   0  0  0  0  0  0  0  0  0  0  0  0
    4.5741   -3.5654    5.9698 H   0  0  0  0  0  0  0  0  0  0  0  0
    1.8164   -3.7652    1.0837 H   0  0  0  0  0  0  0  0  0  0  0  0
    3.0023   -4.1162   -0.1034 H   0  0  0  0  0  0  0  0  0  0  0  0
    1.8262   -2.8561   -0.4347 H   0  0  0  0  0  0  0  0  0  0  0  0
  1  2  1  0
  1 24  1  0
  1 25  1  0
  1 26  1  0
  2  4  1  0
  2  3  1  0
  2 27  1  1
  3  4  1  0
  4  5  1  0
  4 28  1  1
  5 22  1  0
  5  6  1  0
  5 29  1  6
  6  8  1  6
  6  7  1  0
  6  9  1  0
  7  8  1  0
  7 30  1  0
  7 31  1  0
  9 14  1  0
  9 10  1  0
  9 11  1  0
 10 32  1  0
 10 33  1  0
 10 34  1  0
 11 22  1  0
 11 12  1  0
 11 35  1  1
 12 13  2  0
 14 12  1  6
 14 20  1  0
 14 15  1  0
 15 16  1  0
 16 17  1  6
 16 18  1  0
 16 22  1  0
 17 36  1  0
 18 19  1  0
 18 37  1  0
 18 38  1  0
 19 20  1  0
 19 39  1  0
 19 40  1  0
 20 21  1  0
 20 41  1  1
 21 42  1  0
 21 43  1  0
 21 44  1  0
 22 23  1  6
 23 45  1  0
 23 46  1  0
 23 47  1  0
M  END
>  <i_m_ct_stereo_status>  (167) 
1

>  <s_m_source_file>  (167) 
/var/tmp/pbs.5076255.sched01/tmpcsrx8n8z/40wzjmt8mb.sdf

>  <i_m_source_file_index>  (167) 
33

>  <i_lp_mmshare_version>  (167) 
48012

>  <i_f3d_flags>  (167) 
0

>  <s_epik_input>  (167) 
W0NIM11bQ0BASF0xT1tDQEhdMVtDQEhdMltDQF0oW0NIM10pKFtDQEBdKE8zKShbT0hdKVtDSDJdW0NIMl1bQ0BIXTRbQ0gzXSlbQ0BASF01Qyg9TylDMzRbQ0BdNShbQ0gzXSlbQ0BdMjZbQ0gyXU82

>  <s_epik_cmdline>  (167) 
J2VwaWtfcHl0aG9uJywgJy1waHQnLCAnMi4wJywgJy1waCcsICc3LjAnLCAnLXRuJywgJzgnLCAnLW1hJywgJzIwMCcsICctaW1hZScsICc8aW5maWxlLm1hZT4nLCAnLW9tYWUnLCAnPG91dGZpbGUubWFlPic=

>  <r_lp_tautomer_probability>  (167) 
1

>  <r_epik_Ionization_Penalty>  (167) 
8.68509e-07

>  <r_epik_Ionization_Penalty_Charging>  (167) 
0

>  <r_epik_Ionization_Penalty_Neutral>  (167) 
8.68509e-07

>  <r_epik_State_Penalty>  (167) 
-0

>  <r_epik_Charging_Adjusted_Penalty>  (167) 
0

>  <i_epik_Tot_Q>  (167) 
0

>  <i_epik_Tot_abs_Q>  (167) 
0

>  <s_lp_Force_Field>  (167) 
OPLS3e

>  <r_lp_Energy>  (167) 
429.763

>  <b_lp_Chiralities_Consistent>  (167) 
1

>  <s_lp_Variant>  (167) 
52:0-1

>  <s_i_glide_gridfile>  (167) 
pfpi4k_grid

>  <i_i_glide_lignum>  (167) 
33

>  <i_i_glide_rotatable_bonds>  (167) 
2

>  <r_i_docking_score>  (167) 
-3.51113

>  <r_i_glide_ligand_efficiency>  (167) 
-0.152658

>  <r_i_glide_ligand_efficiency_sa>  (167) 
-0.434139

>  <r_i_glide_ligand_efficiency_ln>  (167) 
-0.849024

>  <r_i_glide_gscore>  (167) 
-3.51113

>  <r_i_glide_lipo>  (167) 
-0.487711

>  <r_i_glide_hbond>  (167) 
-0.153244

>  <r_i_glide_metal>  (167) 
-0

>  <r_i_glide_rewards>  (167) 
-1.34418

>  <r_i_glide_evdw>  (167) 
-16.6856

>  <r_i_glide_ecoul>  (167) 
-5.59655

>  <r_i_glide_erotb>  (167) 
0.181911

>  <r_i_glide_esite>  (167) 
-0.0341502

>  <r_i_glide_emodel>  (167) 
-26.1865

>  <r_i_glide_energy>  (167) 
-22.2822

>  <r_i_glide_einternal>  (167) 
1.69495

>  <r_i_glide_intrahb_reward>  (167) 
-0

>  <i_i_glide_confnum>  (167) 
2

>  <i_i_glide_posenum>  (167) 
5

>  <r_i_glide_eff_state_penalty>  (167) 
0

>  <ligand_id>  (167) 
52

>  <original_smiles>  (167) 
CC1OC1C1C2(CO2)C2(C)C3C(=O)C24OC(O)(CCC4C)C13C

>  <smiles>  (167) 
[H]OC12OC3(C(=O)C4([H])C1(C([H])([H])[H])C([H])(C1([H])OC1([H])C([H])([H])[H])C1(OC1([H])[H])C43C([H])([H])[H])C([H])(C([H])([H])[H])C([H])([H])C2([H])[H]

$$$$
52:0:1
     RDKit          3D

 47 52  0  0  1  0  0  0  0  0999 V2000
    3.7266   -3.7384   -4.1169 C   0  0  0  0  0  0  0  0  0  0  0  0
    3.6371   -3.3761   -2.6774 C   0  0  2  0  0  0  0  0  0  0  0  0
    2.6263   -2.3987   -2.3811 O   0  0  0  0  0  0  0  0  0  0  0  0
    3.9863   -2.0413   -2.0580 C   0  0  1  0  0  0  0  0  0  0  0  0
    4.3773   -1.8831   -0.5820 C   0  0  2  0  0  0  0  0  0  0  0  0
    5.7622   -2.6499   -0.2150 C   0  0  2  0  0  0  0  0  0  0  0  0
    6.9760   -2.5419   -1.0949 C   0  0  0  0  0  0  0  0  0  0  0  0
    6.1239   -3.7036   -1.0971 O   0  0  0  0  0  0  0  0  0  0  0  0
    5.8135   -3.0366    1.3855 C   0  0  1  0  0  0  0  0  0  0  0  0
    6.4570   -4.4341    1.6137 C   0  0  0  0  0  0  0  0  0  0  0  0
    4.4683   -2.8975    1.3751 C   0  0  1  0  0  0  0  0  0  0  0  0
    5.2947   -1.4383    1.9082 C   0  0  0  0  0  0  0  0  0  0  0  0
    5.7460   -0.3224    1.5849 O   0  0  0  0  0  0  0  0  0  0  0  0
    5.2302   -2.2568    2.9357 C   0  0  2  0  0  0  0  0  0  0  0  0
    3.9595   -1.3269    2.9451 O   0  0  0  0  0  0  0  0  0  0  0  0
    2.8364   -1.5652    1.9486 C   0  0  2  0  0  0  0  0  0  0  0  0
    2.1952   -0.3850    1.5056 O   0  0  0  0  0  0  0  0  0  0  0  0
    1.9180   -2.3651    2.8920 C   0  0  0  0  0  0  0  0  0  0  0  0
    2.7719   -3.3732    3.7279 C   0  0  0  0  0  0  0  0  0  0  0  0
    4.2773   -2.9505    4.0580 C   0  0  1  0  0  0  0  0  0  0  0  0
    4.9558   -4.1957    4.6742 C   0  0  0  0  0  0  0  0  0  0  0  0
    3.3873   -2.3745    0.5829 C   0  0  1  0  0  0  0  0  0  0  0  0
    2.4038   -3.5211    0.2111 C   0  0  0  0  0  0  0  0  0  0  0  0
    4.6841   -4.2688   -4.2479 H   0  0  0  0  0  0  0  0  0  0  0  0
    3.6483   -2.8291   -4.7489 H   0  0  0  0  0  0  0  0  0  0  0  0
    2.8974   -4.4389   -4.3217 H   0  0  0  0  0  0  0  0  0  0  0  0
    3.7894   -4.2062   -2.0170 H   0  0  0  0  0  0  0  0  0  0  0  0
    4.4088   -1.2852   -2.7212 H   0  0  0  0  0  0  0  0  0  0  0  0
    4.5616   -0.8068   -0.4926 H   0  0  0  0  0  0  0  0  0  0  0  0
    6.8810   -1.8691   -1.9434 H   0  0  0  0  0  0  0  0  0  0  0  0
    7.9789   -2.6879   -0.6611 H   0  0  0  0  0  0  0  0  0  0  0  0
    6.7615   -4.5554    2.6437 H   0  0  0  0  0  0  0  0  0  0  0  0
    7.3483   -4.5990    1.0074 H   0  0  0  0  0  0  0  0  0  0  0  0
    5.7450   -5.2443    1.4601 H   0  0  0  0  0  0  0  0  0  0  0  0
    4.1387   -3.7900    1.9160 H   0  0  0  0  0  0  0  0  0  0  0  0
    1.6777   -0.6163    0.7364 H   0  0  0  0  0  0  0  0  0  0  0  0
    1.4287   -1.6609    3.5532 H   0  0  0  0  0  0  0  0  0  0  0  0
    1.1139   -2.8509    2.3614 H   0  0  0  0  0  0  0  0  0  0  0  0
    2.2492   -3.5159    4.6685 H   0  0  0  0  0  0  0  0  0  0  0  0
    2.7328   -4.3601    3.2566 H   0  0  0  0  0  0  0  0  0  0  0  0
    4.2236   -2.2544    4.9098 H   0  0  0  0  0  0  0  0  0  0  0  0
    4.9604   -5.0498    4.0011 H   0  0  0  0  0  0  0  0  0  0  0  0
    4.4276   -4.5136    5.5675 H   0  0  0  0  0  0  0  0  0  0  0  0
    5.9802   -3.9911    4.9660 H   0  0  0  0  0  0  0  0  0  0  0  0
    2.0241   -4.0803    1.0645 H   0  0  0  0  0  0  0  0  0  0  0  0
    2.9211   -4.2752   -0.3277 H   0  0  0  0  0  0  0  0  0  0  0  0
    1.5772   -3.0797   -0.3481 H   0  0  0  0  0  0  0  0  0  0  0  0
  1  2  1  0
  1 24  1  0
  1 25  1  0
  1 26  1  0
  2  4  1  0
  2  3  1  0
  2 27  1  1
  3  4  1  0
  4  5  1  0
  4 28  1  6
  5 22  1  0
  5  6  1  0
  5 29  1  1
  6  8  1  6
  6  7  1  0
  6  9  1  0
  7  8  1  0
  7 30  1  0
  7 31  1  0
  9 14  1  0
  9 10  1  6
  9 11  1  0
 10 32  1  0
 10 33  1  0
 10 34  1  0
 11 22  1  0
 11 12  1  0
 11 35  1  1
 12 13  2  0
 14 12  1  6
 14 20  1  0
 14 15  1  0
 15 16  1  0
 16 17  1  6
 16 18  1  0
 16 22  1  0
 17 36  1  0
 18 19  1  0
 18 37  1  0
 18 38  1  0
 19 20  1  0
 19 39  1  0
 19 40  1  0
 20 21  1  0
 20 41  1  1
 21 42  1  0
 21 43  1  0
 21 44  1  0
 22 23  1  6
 23 45  1  0
 23 46  1  0
 23 47  1  0
M  END
>  <i_m_ct_stereo_status>  (168) 
1

>  <s_m_source_file>  (168) 
/var/tmp/pbs.5076255.sched01/tmpcsrx8n8z/40wzjmt8mb.sdf

>  <i_m_source_file_index>  (168) 
33

>  <i_lp_mmshare_version>  (168) 
48012

>  <i_f3d_flags>  (168) 
0

>  <s_epik_input>  (168) 
W0NIM11bQ0BASF0xT1tDQEhdMVtDQEhdMltDQF0oW0NIM10pKFtDQEBdKE8zKShbT0hdKVtDSDJdW0NIMl1bQ0BIXTRbQ0gzXSlbQ0BASF01Qyg9TylDMzRbQ0BdNShbQ0gzXSlbQ0BdMjZbQ0gyXU82

>  <s_epik_cmdline>  (168) 
J2VwaWtfcHl0aG9uJywgJy1waHQnLCAnMi4wJywgJy1waCcsICc3LjAnLCAnLXRuJywgJzgnLCAnLW1hJywgJzIwMCcsICctaW1hZScsICc8aW5maWxlLm1hZT4nLCAnLW9tYWUnLCAnPG91dGZpbGUubWFlPic=

>  <r_lp_tautomer_probability>  (168) 
1

>  <r_epik_Ionization_Penalty>  (168) 
8.68509e-07

>  <r_epik_Ionization_Penalty_Charging>  (168) 
0

>  <r_epik_Ionization_Penalty_Neutral>  (168) 
8.68509e-07

>  <r_epik_State_Penalty>  (168) 
-0

>  <r_epik_Charging_Adjusted_Penalty>  (168) 
0

>  <i_epik_Tot_Q>  (168) 
0

>  <i_epik_Tot_abs_Q>  (168) 
0

>  <s_lp_Force_Field>  (168) 
OPLS3e

>  <r_lp_Energy>  (168) 
429.763

>  <b_lp_Chiralities_Consistent>  (168) 
1

>  <s_lp_Variant>  (168) 
52:0-1

>  <s_i_glide_gridfile>  (168) 
pfpi4k_grid

>  <i_i_glide_lignum>  (168) 
33

>  <i_i_glide_rotatable_bonds>  (168) 
2

>  <r_i_docking_score>  (168) 
-2.86399

>  <r_i_glide_ligand_efficiency>  (168) 
-0.124521

>  <r_i_glide_ligand_efficiency_sa>  (168) 
-0.354121

>  <r_i_glide_ligand_efficiency_ln>  (168) 
-0.692538

>  <r_i_glide_gscore>  (168) 
-2.86399

>  <r_i_glide_lipo>  (168) 
-0.254183

>  <r_i_glide_hbond>  (168) 
-0.232849

>  <r_i_glide_metal>  (168) 
-0

>  <r_i_glide_rewards>  (168) 
-1.37032

>  <r_i_glide_evdw>  (168) 
-16.9344

>  <r_i_glide_ecoul>  (168) 
-2.11084

>  <r_i_glide_erotb>  (168) 
0.181911

>  <r_i_glide_esite>  (168) 
-0.025196

>  <r_i_glide_emodel>  (168) 
-16.8327

>  <r_i_glide_energy>  (168) 
-19.0453

>  <r_i_glide_einternal>  (168) 
10.4048

>  <r_i_glide_intrahb_reward>  (168) 
-0

>  <i_i_glide_confnum>  (168) 
2

>  <i_i_glide_posenum>  (168) 
7

>  <r_i_glide_eff_state_penalty>  (168) 
0

>  <ligand_id>  (168) 
52

>  <original_smiles>  (168) 
CC1OC1C1C2(CO2)C2(C)C3C(=O)C24OC(O)(CCC4C)C13C

>  <smiles>  (168) 
[H]OC12OC3(C(=O)C4([H])C1(C([H])([H])[H])C([H])(C1([H])OC1([H])C([H])([H])[H])C1(OC1([H])[H])C43C([H])([H])[H])C([H])(C([H])([H])[H])C([H])([H])C2([H])[H]

$$$$
52:0:2
     RDKit          3D

 47 52  0  0  1  0  0  0  0  0999 V2000
    5.0605   -3.7018   -3.4403 C   0  0  0  0  0  0  0  0  0  0  0  0
    4.6312   -3.2545   -2.1126 C   0  0  2  0  0  0  0  0  0  0  0  0
    3.9158   -2.0177   -2.1440 O   0  0  0  0  0  0  0  0  0  0  0  0
    5.1275   -2.0355   -1.3679 C   0  0  1  0  0  0  0  0  0  0  0  0
    5.0470   -1.8493    0.1672 C   0  0  2  0  0  0  0  0  0  0  0  0
    6.0159   -2.8818    0.9435 C   0  0  2  0  0  0  0  0  0  0  0  0
    7.4449   -3.1228    0.5167 C   0  0  0  0  0  0  0  0  0  0  0  0
    6.3810   -4.0521    0.2077 O   0  0  0  0  0  0  0  0  0  0  0  0
    5.4321   -3.1816    2.4644 C   0  0  0  0  0  0  0  0  0  0  0  0
    5.6251   -4.6595    2.8744 C   0  0  0  0  0  0  0  0  0  0  0  0
    4.2469   -2.7274    2.0184 C   0  0  1  0  0  0  0  0  0  0  0  0
    5.1668   -1.4870    2.8301 C   0  0  0  0  0  0  0  0  0  0  0  0
    5.9502   -0.5285    2.7003 O   0  0  0  0  0  0  0  0  0  0  0  0
    4.5918   -2.1993    3.7443 C   0  0  2  0  0  0  0  0  0  0  0  0
    3.6598   -0.9835    3.3646 O   0  0  0  0  0  0  0  0  0  0  0  0
    2.9007   -1.0139    2.0451 C   0  0  2  0  0  0  0  0  0  0  0  0
    2.6929    0.2529    1.4457 O   0  0  0  0  0  0  0  0  0  0  0  0
    1.5579   -1.5144    2.6106 C   0  0  0  0  0  0  0  0  0  0  0  0
    1.8182   -2.6452    3.6592 C   0  0  0  0  0  0  0  0  0  0  0  0
    3.1828   -2.5641    4.4802 C   0  0  1  0  0  0  0  0  0  0  0  0
    3.3069   -3.8914    5.2588 C   0  0  0  0  0  0  0  0  0  0  0  0
    3.6443   -2.0163    0.9389 C   0  0  1  0  0  0  0  0  0  0  0  0
    2.5982   -2.9162    0.2562 C   0  0  0  0  0  0  0  0  0  0  0  0
    5.8148   -4.4431   -3.2135 H   0  0  0  0  0  0  0  0  0  0  0  0
    5.4534   -2.8316   -3.9268 H   0  0  0  0  0  0  0  0  0  0  0  0
    4.2168   -4.1944   -3.9453 H   0  0  0  0  0  0  0  0  0  0  0  0
    4.3037   -4.0885   -1.5412 H   0  0  0  0  0  0  0  0  0  0  0  0
    5.9198   -1.4535   -1.8218 H   0  0  0  0  0  0  0  0  0  0  0  0
    5.4476   -0.8288    0.3244 H   0  0  0  0  0  0  0  0  0  0  0  0
    7.8001   -2.4724   -0.2834 H   0  0  0  0  0  0  0  0  0  0  0  0
    8.1777   -3.4727    1.2556 H   0  0  0  0  0  0  0  0  0  0  0  0
    5.5842   -4.7368    3.9565 H   0  0  0  0  0  0  0  0  0  0  0  0
    6.5918   -5.0731    2.5806 H   0  0  0  0  0  0  0  0  0  0  0  0
    4.8294   -5.2967    2.4938 H   0  0  0  0  0  0  0  0  0  0  0  0
    3.5608   -3.4862    2.3955 H   0  0  0  0  0  0  0  0  0  0  0  0
    2.0572    0.1213    0.7636 H   0  0  0  0  0  0  0  0  0  0  0  0
    1.0653   -0.6760    3.0937 H   0  0  0  0  0  0  0  0  0  0  0  0
    0.8843   -1.8077    1.8205 H   0  0  0  0  0  0  0  0  0  0  0  0
    1.0042   -2.5998    4.3672 H   0  0  0  0  0  0  0  0  0  0  0  0
    1.6984   -3.6254    3.1832 H   0  0  0  0  0  0  0  0  0  0  0  0
    3.0297   -1.8196    5.2813 H   0  0  0  0  0  0  0  0  0  0  0  0
    3.3257   -4.7655    4.6072 H   0  0  0  0  0  0  0  0  0  0  0  0
    2.4594   -4.0251    5.9213 H   0  0  0  0  0  0  0  0  0  0  0  0
    4.2009   -3.9196    5.8767 H   0  0  0  0  0  0  0  0  0  0  0  0
    1.8057   -3.2882    0.9049 H   0  0  0  0  0  0  0  0  0  0  0  0
    3.0587   -3.8471   -0.0563 H   0  0  0  0  0  0  0  0  0  0  0  0
    2.1862   -2.3658   -0.5645 H   0  0  0  0  0  0  0  0  0  0  0  0
  1  2  1  0
  1 24  1  0
  1 25  1  0
  1 26  1  0
  2  4  1  0
  2  3  1  0
  2 27  1  1
  3  4  1  0
  4  5  1  0
  4 28  1  6
  5 22  1  0
  5  6  1  0
  5 29  1  6
  6  8  1  6
  6  7  1  0
  6  9  1  0
  7  8  1  0
  7 30  1  0
  7 31  1  0
  9 14  1  0
  9 10  1  0
  9 11  1  0
 10 32  1  0
 10 33  1  0
 10 34  1  0
 11 22  1  0
 11 12  1  0
 11 35  1  1
 12 13  2  0
 14 12  1  6
 14 20  1  0
 14 15  1  0
 15 16  1  0
 16 17  1  6
 16 18  1  0
 16 22  1  0
 17 36  1  0
 18 19  1  0
 18 37  1  0
 18 38  1  0
 19 20  1  0
 19 39  1  0
 19 40  1  0
 20 21  1  0
 20 41  1  1
 21 42  1  0
 21 43  1  0
 21 44  1  0
 22 23  1  6
 23 45  1  0
 23 46  1  0
 23 47  1  0
M  END
>  <i_m_ct_stereo_status>  (169) 
1

>  <s_m_source_file>  (169) 
/var/tmp/pbs.5076255.sched01/tmpcsrx8n8z/40wzjmt8mb.sdf

>  <i_m_source_file_index>  (169) 
33

>  <i_lp_mmshare_version>  (169) 
48012

>  <i_f3d_flags>  (169) 
0

>  <s_epik_input>  (169) 
W0NIM11bQ0BASF0xT1tDQEhdMVtDQEhdMltDQF0oW0NIM10pKFtDQEBdKE8zKShbT0hdKVtDSDJdW0NIMl1bQ0BIXTRbQ0gzXSlbQ0BASF01Qyg9TylDMzRbQ0BdNShbQ0gzXSlbQ0BdMjZbQ0gyXU82

>  <s_epik_cmdline>  (169) 
J2VwaWtfcHl0aG9uJywgJy1waHQnLCAnMi4wJywgJy1waCcsICc3LjAnLCAnLXRuJywgJzgnLCAnLW1hJywgJzIwMCcsICctaW1hZScsICc8aW5maWxlLm1hZT4nLCAnLW9tYWUnLCAnPG91dGZpbGUubWFlPic=

>  <r_lp_tautomer_probability>  (169) 
1

>  <r_epik_Ionization_Penalty>  (169) 
8.68509e-07

>  <r_epik_Ionization_Penalty_Charging>  (169) 
0

>  <r_epik_Ionization_Penalty_Neutral>  (169) 
8.68509e-07

>  <r_epik_State_Penalty>  (169) 
-0

>  <r_epik_Charging_Adjusted_Penalty>  (169) 
0

>  <i_epik_Tot_Q>  (169) 
0

>  <i_epik_Tot_abs_Q>  (169) 
0

>  <s_lp_Force_Field>  (169) 
OPLS3e

>  <r_lp_Energy>  (169) 
429.763

>  <b_lp_Chiralities_Consistent>  (169) 
1

>  <s_lp_Variant>  (169) 
52:0-1

>  <s_i_glide_gridfile>  (169) 
pfpi4k_grid

>  <i_i_glide_lignum>  (169) 
33

>  <i_i_glide_rotatable_bonds>  (169) 
2

>  <r_i_docking_score>  (169) 
-2.68849

>  <r_i_glide_ligand_efficiency>  (169) 
-0.116891

>  <r_i_glide_ligand_efficiency_sa>  (169) 
-0.332421

>  <r_i_glide_ligand_efficiency_ln>  (169) 
-0.6501

>  <r_i_glide_gscore>  (169) 
-2.68849

>  <r_i_glide_lipo>  (169) 
-0.514641

>  <r_i_glide_hbond>  (169) 
0

>  <r_i_glide_metal>  (169) 
-0

>  <r_i_glide_rewards>  (169) 
-1.35085

>  <r_i_glide_evdw>  (169) 
-14.7169

>  <r_i_glide_ecoul>  (169) 
-1.64156

>  <r_i_glide_erotb>  (169) 
0.181911

>  <r_i_glide_esite>  (169) 
-0.0228307

>  <r_i_glide_emodel>  (169) 
-13.4607

>  <r_i_glide_energy>  (169) 
-16.3584

>  <r_i_glide_einternal>  (169) 
10.4905

>  <r_i_glide_intrahb_reward>  (169) 
-0

>  <i_i_glide_confnum>  (169) 
2

>  <i_i_glide_posenum>  (169) 
1

>  <r_i_glide_eff_state_penalty>  (169) 
0

>  <ligand_id>  (169) 
52

>  <original_smiles>  (169) 
CC1OC1C1C2(CO2)C2(C)C3C(=O)C24OC(O)(CCC4C)C13C

>  <smiles>  (169) 
[H]OC12OC3(C(=O)C4([H])C1(C([H])([H])[H])C([H])(C1([H])OC1([H])C([H])([H])[H])C1(OC1([H])[H])C43C([H])([H])[H])C([H])(C([H])([H])[H])C([H])([H])C2([H])[H]

$$$$
53:0:0
     RDKit          3D

 49 52  0  0  1  0  0  0  0  0999 V2000
    5.9394   -0.1668    4.0063 C   0  0  0  0  0  0  0  0  0  0  0  0
    4.5216   -0.0737    3.4299 C   0  0  0  0  0  0  0  0  0  0  0  0
    3.5650    0.4555    4.5130 C   0  0  0  0  0  0  0  0  0  0  0  0
    4.0334   -1.3660    2.7069 C   0  0  2  0  0  0  0  0  0  0  0  0
    3.9415   -2.5446    3.6870 C   0  0  0  0  0  0  0  0  0  0  0  0
    2.9799   -3.6599    3.2683 C   0  0  0  0  0  0  0  0  0  0  0  0
    3.2548   -4.3291    1.9098 C   0  0  1  0  0  0  0  0  0  0  0  0
    2.5605   -5.7148    1.9451 C   0  0  0  0  0  0  0  0  0  0  0  0
    2.8706   -3.4007    0.7055 C   0  0  2  0  0  0  0  0  0  0  0  0
    2.4204   -4.2425   -0.5076 C   0  0  0  0  0  0  0  0  0  0  0  0
    2.1929   -3.4859   -1.8242 C   0  0  0  0  0  0  0  0  0  0  0  0
    3.3963   -2.6506   -2.2790 C   0  0  2  0  0  0  0  0  0  0  0  0
    3.3522   -2.4286   -3.7901 C   0  0  0  0  0  0  0  0  0  0  0  0
    4.6334   -3.2837   -1.9872 O   0  0  0  0  0  0  0  0  0  0  0  0
    5.0078   -3.2010   -0.4916 O   0  0  0  0  0  0  0  0  0  0  0  0
    4.0590   -2.4691    0.3005 C   0  0  1  0  0  0  0  0  0  0  0  0
    3.5776   -1.1883   -0.4261 C   0  0  1  0  0  0  0  0  0  0  0  0
    4.5679   -0.2537   -0.2437 O   0  0  0  0  0  0  0  0  0  0  0  0
    5.5436   -0.7040    0.6563 C   0  0  0  0  0  0  0  0  0  0  0  0
    4.8612   -1.8178    1.4481 C   0  0  1  0  0  0  0  0  0  0  0  0
    3.3658   -1.3484   -1.7815 O   0  0  0  0  0  0  0  0  0  0  0  0
    5.9701   -0.8681    4.8377 H   0  0  0  0  0  0  0  0  0  0  0  0
    6.2817    0.7966    4.3847 H   0  0  0  0  0  0  0  0  0  0  0  0
    6.6474   -0.4786    3.2459 H   0  0  0  0  0  0  0  0  0  0  0  0
    4.5094    0.7082    2.6810 H   0  0  0  0  0  0  0  0  0  0  0  0
    3.5619   -0.1621    5.4137 H   0  0  0  0  0  0  0  0  0  0  0  0
    2.5462    0.5260    4.1343 H   0  0  0  0  0  0  0  0  0  0  0  0
    3.8715    1.4569    4.8244 H   0  0  0  0  0  0  0  0  0  0  0  0
    3.0234   -1.1268    2.3770 H   0  0  0  0  0  0  0  0  0  0  0  0
    4.9359   -2.9560    3.8720 H   0  0  0  0  0  0  0  0  0  0  0  0
    3.5923   -2.2066    4.6554 H   0  0  0  0  0  0  0  0  0  0  0  0
    3.0390   -4.4127    4.0588 H   0  0  0  0  0  0  0  0  0  0  0  0
    1.9529   -3.2898    3.2917 H   0  0  0  0  0  0  0  0  0  0  0  0
    4.3222   -4.5473    1.8442 H   0  0  0  0  0  0  0  0  0  0  0  0
    1.4737   -5.6195    1.9842 H   0  0  0  0  0  0  0  0  0  0  0  0
    2.8648   -6.2817    2.8299 H   0  0  0  0  0  0  0  0  0  0  0  0
    2.8242   -6.3470    1.0938 H   0  0  0  0  0  0  0  0  0  0  0  0
    2.0319   -2.7839    1.0124 H   0  0  0  0  0  0  0  0  0  0  0  0
    3.1895   -4.9994   -0.6778 H   0  0  0  0  0  0  0  0  0  0  0  0
    1.5023   -4.7777   -0.2799 H   0  0  0  0  0  0  0  0  0  0  0  0
    1.9560   -4.2169   -2.5931 H   0  0  0  0  0  0  0  0  0  0  0  0
    1.2850   -2.8944   -1.8014 H   0  0  0  0  0  0  0  0  0  0  0  0
    4.1589   -1.7574   -4.0855 H   0  0  0  0  0  0  0  0  0  0  0  0
    2.4065   -1.9679   -4.1017 H   0  0  0  0  0  0  0  0  0  0  0  0
    3.4615   -3.3736   -4.3276 H   0  0  0  0  0  0  0  0  0  0  0  0
    2.6881   -0.7630    0.0514 H   0  0  0  0  0  0  0  0  0  0  0  0
    6.3782   -1.1037    0.0762 H   0  0  0  0  0  0  0  0  0  0  0  0
    5.9152    0.1472    1.2269 H   0  0  0  0  0  0  0  0  0  0  0  0
    5.6445   -2.5004    1.7837 H   0  0  0  0  0  0  0  0  0  0  0  0
  1  2  1  0
  1 22  1  0
  1 23  1  0
  1 24  1  0
  2  3  1  0
  2  4  1  0
  2 25  1  0
  3 26  1  0
  3 27  1  0
  3 28  1  0
  4 20  1  0
  4  5  1  0
  4 29  1  6
  5  6  1  0
  5 30  1  0
  5 31  1  0
  6  7  1  0
  6 32  1  0
  6 33  1  0
  7  8  1  0
  7  9  1  0
  7 34  1  6
  8 35  1  0
  8 36  1  0
  8 37  1  0
  9 16  1  0
  9 10  1  0
  9 38  1  1
 10 11  1  0
 10 39  1  0
 10 40  1  0
 11 12  1  0
 11 41  1  0
 11 42  1  0
 12 21  1  0
 12 13  1  6
 12 14  1  0
 13 43  1  0
 13 44  1  0
 13 45  1  0
 14 15  1  0
 16 15  1  6
 16 20  1  0
 16 17  1  0
 17 18  1  0
 17 21  1  0
 17 46  1  1
 18 19  1  0
 19 20  1  0
 19 47  1  0
 19 48  1  0
 20 49  1  1
M  END
>  <i_m_ct_stereo_status>  (170) 
1

>  <s_m_source_file>  (170) 
/var/tmp/pbs.5076255.sched01/tmpcsrx8n8z/40wzjmt8mb.sdf

>  <i_m_source_file_index>  (170) 
34

>  <i_lp_mmshare_version>  (170) 
48012

>  <i_f3d_flags>  (170) 
0

>  <s_epik_input>  (170) 
W0NAXTEyM1tDQEBIXTRbQ0BIXShbQ0gzXSlbQ0gyXVtDSDJdW0NAQEhdKFtDSF0oW0NIM10pW0NIM10pW0NAQEhdM1tDSDJdT1tDQEhdMk9bQ0BAXShbQ0gzXSkoT08xKVtDSDJdW0NIMl00

>  <s_epik_cmdline>  (170) 
J2VwaWtfcHl0aG9uJywgJy1waHQnLCAnMi4wJywgJy1waCcsICc3LjAnLCAnLXRuJywgJzgnLCAnLW1hJywgJzIwMCcsICctaW1hZScsICc8aW5maWxlLm1hZT4nLCAnLW9tYWUnLCAnPG91dGZpbGUubWFlPic=

>  <r_lp_tautomer_probability>  (170) 
1

>  <r_epik_Ionization_Penalty>  (170) 
2.11809e-14

>  <r_epik_Ionization_Penalty_Charging>  (170) 
0

>  <r_epik_Ionization_Penalty_Neutral>  (170) 
2.11809e-14

>  <r_epik_State_Penalty>  (170) 
-0

>  <r_epik_Charging_Adjusted_Penalty>  (170) 
0

>  <i_epik_Tot_Q>  (170) 
0

>  <i_epik_Tot_abs_Q>  (170) 
0

>  <s_epik_Chemistry_Notes>  (170) 
This compound contains an acetal/aminal-like group ( X-CH(R)-Y where X, Y are N, S, or O) that may be acid/base labile, releasing an aldehyde.

>  <s_lp_Force_Field>  (170) 
OPLS3e

>  <r_lp_Energy>  (170) 
31.1289

>  <b_lp_Chiralities_Consistent>  (170) 
1

>  <s_lp_Variant>  (170) 
53:0-1

>  <s_i_glide_gridfile>  (170) 
pfpi4k_grid

>  <i_i_glide_lignum>  (170) 
34

>  <i_i_glide_rotatable_bonds>  (170) 
1

>  <r_i_docking_score>  (170) 
-3.00421

>  <r_i_glide_ligand_efficiency>  (170) 
-0.143057

>  <r_i_glide_ligand_efficiency_sa>  (170) 
-0.394685

>  <r_i_glide_ligand_efficiency_ln>  (170) 
-0.742784

>  <r_i_glide_gscore>  (170) 
-3.00421

>  <r_i_glide_lipo>  (170) 
-0.617803

>  <r_i_glide_hbond>  (170) 
0

>  <r_i_glide_metal>  (170) 
-0

>  <r_i_glide_rewards>  (170) 
-1.38817

>  <r_i_glide_evdw>  (170) 
-15.6851

>  <r_i_glide_ecoul>  (170) 
-0.671077

>  <r_i_glide_erotb>  (170) 
0

>  <r_i_glide_esite>  (170) 
-0.113317

>  <r_i_glide_emodel>  (170) 
-18.0081

>  <r_i_glide_energy>  (170) 
-16.3562

>  <r_i_glide_einternal>  (170) 
0.0152918

>  <r_i_glide_intrahb_reward>  (170) 
-0

>  <i_i_glide_confnum>  (170) 
1

>  <i_i_glide_posenum>  (170) 
38

>  <r_i_glide_eff_state_penalty>  (170) 
0

>  <ligand_id>  (170) 
53

>  <original_smiles>  (170) 
CC(C)C1CCC(C)C2CCC3(C)OOC24C(OCC14)O3

>  <smiles>  (170) 
[H]C([H])([H])C12OOC34C([H])(OC([H])([H])C3([H])C([H])(C([H])(C([H])([H])[H])C([H])([H])[H])C([H])([H])C([H])([H])C([H])(C([H])([H])[H])C4([H])C([H])([H])C1([H])[H])O2

$$$$
54:0:0
     RDKit          3D

 52 56  0  0  1  0  0  0  0  0999 V2000
    3.4993   -9.2786    1.6500 C   0  0  0  0  0  0  0  0  0  0  0  0
    4.0802   -8.2384    0.8593 O   0  0  0  0  0  0  0  0  0  0  0  0
    4.2363   -7.0102    1.4505 C   0  0  0  0  0  0  0  0  0  0  0  0
    3.9175   -6.7534    2.8169 C   0  0  0  0  0  0  0  0  0  0  0  0
    4.0925   -5.4844    3.3862 C   0  0  0  0  0  0  0  0  0  0  0  0
    4.5589   -4.4230    2.5979 C   0  0  0  0  0  0  0  0  0  0  0  0
    4.8584   -4.6661    1.2367 C   0  0  0  0  0  0  0  0  0  0  0  0
    4.7134   -5.9457    0.6526 C   0  0  0  0  0  0  0  0  0  0  0  0
    5.3055   -3.4341    0.5064 C   0  0  1  0  0  0  0  0  0  0  0  0
    5.3336   -3.0398   -0.9736 C   0  0  1  0  0  0  0  0  0  0  0  0
    6.5950   -3.0235   -1.6673 O   0  0  0  0  0  0  0  0  0  0  0  0
    7.7953   -3.1315   -0.9082 C   0  0  0  0  0  0  0  0  0  0  0  0
    4.2979   -3.5507   -1.9578 C   0  0  0  0  0  0  0  0  0  0  0  0
    3.7110   -2.2841   -2.6165 C   0  0  0  0  0  0  0  0  0  0  0  0
    3.9618   -1.1006   -1.6490 C   0  0  0  0  0  0  0  0  0  0  0  0
    4.8804   -1.6316   -0.5384 C   0  0  2  0  0  0  0  0  0  0  0  0
    5.8648   -0.6642   -0.2662 O   0  0  0  0  0  0  0  0  0  0  0  0
    4.3075   -2.2976    0.7533 C   0  0  1  0  0  0  0  0  0  0  0  0
    2.7835   -2.5603    0.7785 C   0  0  0  0  0  0  0  0  0  0  0  0
    2.1935   -1.4349    1.6257 C   0  0  0  0  0  0  0  0  0  0  0  0
    3.2958   -0.9614    2.4784 N   0  0  1  0  0  0  0  0  0  0  0  0
    2.9252   -0.7088    3.8892 C   0  0  0  0  0  0  0  0  0  0  0  0
    4.4930   -1.7930    2.1944 C   0  0  1  0  0  0  0  0  0  0  0  0
    4.7241   -3.0064    3.1883 C   0  0  0  0  0  0  0  0  0  0  0  0
    3.3935  -10.2158    1.1024 H   0  0  0  0  0  0  0  0  0  0  0  0
    2.4977   -8.9933    1.9835 H   0  0  0  0  0  0  0  0  0  0  0  0
    4.1266   -9.4847    2.5210 H   0  0  0  0  0  0  0  0  0  0  0  0
    3.5182   -7.5065    3.4736 H   0  0  0  0  0  0  0  0  0  0  0  0
    3.8370   -5.3211    4.4221 H   0  0  0  0  0  0  0  0  0  0  0  0
    4.9546   -6.1005   -0.3901 H   0  0  0  0  0  0  0  0  0  0  0  0
    6.2255   -3.1360    1.0197 H   0  0  0  0  0  0  0  0  0  0  0  0
    8.6670   -3.1082   -1.5563 H   0  0  0  0  0  0  0  0  0  0  0  0
    7.8242   -4.0769   -0.3581 H   0  0  0  0  0  0  0  0  0  0  0  0
    7.9003   -2.3119   -0.1912 H   0  0  0  0  0  0  0  0  0  0  0  0
    4.6993   -4.2529   -2.6838 H   0  0  0  0  0  0  0  0  0  0  0  0
    3.4978   -4.0803   -1.4323 H   0  0  0  0  0  0  0  0  0  0  0  0
    4.2518   -2.1077   -3.5488 H   0  0  0  0  0  0  0  0  0  0  0  0
    2.6535   -2.3973   -2.8711 H   0  0  0  0  0  0  0  0  0  0  0  0
    4.4019   -0.2700   -2.2043 H   0  0  0  0  0  0  0  0  0  0  0  0
    3.0194   -0.7356   -1.2498 H   0  0  0  0  0  0  0  0  0  0  0  0
    5.4598    0.1904   -0.3517 H   0  0  0  0  0  0  0  0  0  0  0  0
    2.3147   -2.6051   -0.2082 H   0  0  0  0  0  0  0  0  0  0  0  0
    2.5566   -3.5177    1.2587 H   0  0  0  0  0  0  0  0  0  0  0  0
    1.8807   -0.5946    1.0013 H   0  0  0  0  0  0  0  0  0  0  0  0
    1.3276   -1.7952    2.1924 H   0  0  0  0  0  0  0  0  0  0  0  0
    2.4614   -1.5890    4.3455 H   0  0  0  0  0  0  0  0  0  0  0  0
    2.1953    0.1004    3.9157 H   0  0  0  0  0  0  0  0  0  0  0  0
    3.7974   -0.4088    4.4729 H   0  0  0  0  0  0  0  0  0  0  0  0
    5.3616   -1.1408    2.2722 H   0  0  0  0  0  0  0  0  0  0  0  0
    4.1288   -2.9469    4.0996 H   0  0  0  0  0  0  0  0  0  0  0  0
    5.7564   -2.9522    3.5329 H   0  0  0  0  0  0  0  0  0  0  0  0
    3.5324   -0.0530    2.0793 H   0  0  0  0  0  0  0  0  0  0  0  0
  1  2  1  0
  1 25  1  0
  1 26  1  0
  1 27  1  0
  2  3  1  0
  3  8  2  0
  3  4  1  0
  4  5  2  0
  4 28  1  0
  5  6  1  0
  5 29  1  0
  6 24  1  0
  6  7  2  0
  7  8  1  0
  7  9  1  0
  8 30  1  0
  9 18  1  0
  9 10  1  0
  9 31  1  1
 10 16  1  0
 10 11  1  6
 10 13  1  0
 11 12  1  0
 12 32  1  0
 12 33  1  0
 12 34  1  0
 13 14  1  0
 13 35  1  0
 13 36  1  0
 14 15  1  0
 14 37  1  0
 14 38  1  0
 15 16  1  0
 15 39  1  0
 15 40  1  0
 16 17  1  1
 16 18  1  0
 17 41  1  0
 18 23  1  0
 18 19  1  6
 19 20  1  0
 19 42  1  0
 19 43  1  0
 20 21  1  0
 20 44  1  0
 20 45  1  0
 21 22  1  0
 21 23  1  0
 21 52  1  6
 22 46  1  0
 22 47  1  0
 22 48  1  0
 23 24  1  0
 23 49  1  6
 24 50  1  0
 24 51  1  0
M  CHG  1  21   1
M  END
>  <i_m_ct_stereo_status>  (171) 
1

>  <s_m_source_file>  (171) 
/var/tmp/pbs.5076255.sched01/tmpcsrx8n8z/40wzjmt8mb.sdf

>  <i_m_source_file_index>  (171) 
35

>  <i_lp_mmshare_version>  (171) 
48012

>  <i_f3d_flags>  (171) 
0

>  <s_epik_input>  (171) 
W0NIM11PYyhbY0hdMSlbY0hdW2NIXWMoW0NIMl1bQ0BASF0yTihbQ0gzXSlbQ0gyXVtDSDJdMyljMVtDQEhdKFtDQF0yMzQpW0NAXTUoT1tDSDNdKVtDQEBdNChbT0hdKVtDSDJdW0NIMl1bQ0gyXTU=

>  <s_epik_cmdline>  (171) 
J2VwaWtfcHl0aG9uJywgJy1waHQnLCAnMi4wJywgJy1waCcsICc3LjAnLCAnLXRuJywgJzgnLCAnLW1hJywgJzIwMCcsICctaW1hZScsICc8aW5maWxlLm1hZT4nLCAnLW9tYWUnLCAnPG91dGZpbGUubWFlPic=

>  <r_lp_tautomer_probability>  (171) 
1

>  <r_epik_Ionization_Penalty>  (171) 
0.00475648

>  <r_epik_Ionization_Penalty_Charging>  (171) 
0.00475629

>  <r_epik_Ionization_Penalty_Neutral>  (171) 
1.81107e-07

>  <r_epik_State_Penalty>  (171) 
0.00344592

>  <r_epik_Charging_Adjusted_Penalty>  (171) 
0.00820222

>  <i_epik_Tot_Q>  (171) 
1

>  <i_epik_Tot_abs_Q>  (171) 
1

>  <s_lp_Force_Field>  (171) 
OPLS3e

>  <r_lp_Energy>  (171) 
87.1433

>  <b_lp_Chiralities_Consistent>  (171) 
1

>  <s_lp_Variant>  (171) 
54:0-1

>  <s_i_glide_gridfile>  (171) 
pfpi4k_grid

>  <i_i_glide_lignum>  (171) 
35

>  <i_i_glide_rotatable_bonds>  (171) 
3

>  <r_i_docking_score>  (171) 
-3.82358

>  <r_i_glide_ligand_efficiency>  (171) 
-0.159316

>  <r_i_glide_ligand_efficiency_sa>  (171) 
-0.459547

>  <r_i_glide_ligand_efficiency_ln>  (171) 
-0.915159

>  <r_i_glide_gscore>  (171) 
-3.82358

>  <r_i_glide_lipo>  (171) 
-0.403695

>  <r_i_glide_hbond>  (171) 
0

>  <r_i_glide_metal>  (171) 
-0

>  <r_i_glide_rewards>  (171) 
-1.15608

>  <r_i_glide_evdw>  (171) 
-20.3902

>  <r_i_glide_ecoul>  (171) 
-8.27944

>  <r_i_glide_erotb>  (171) 
0

>  <r_i_glide_esite>  (171) 
-0.0023761

>  <r_i_glide_emodel>  (171) 
-29.4791

>  <r_i_glide_energy>  (171) 
-28.6697

>  <r_i_glide_einternal>  (171) 
12.3524

>  <r_i_glide_intrahb_reward>  (171) 
-0

>  <i_i_glide_confnum>  (171) 
1

>  <i_i_glide_posenum>  (171) 
6

>  <r_i_glide_eff_state_penalty>  (171) 
0

>  <ligand_id>  (171) 
54

>  <original_smiles>  (171) 
COc1ccc2c(c1)C1C3(OC)CCCC3(O)C13CCN(C)C3C2

>  <smiles>  (171) 
[H]OC12C([H])([H])C([H])([H])C([H])([H])C1(OC([H])([H])[H])C1([H])c3c([H])c(OC([H])([H])[H])c([H])c([H])c3C([H])([H])C3([H])C12C([H])([H])C([H])([H])[N+]3([H])C([H])([H])[H]

$$$$
54:0:1
     RDKit          3D

 52 56  0  0  1  0  0  0  0  0999 V2000
    0.0544   -7.7891    1.9332 C   0  0  0  0  0  0  0  0  0  0  0  0
    0.4257   -6.6628    1.1337 O   0  0  0  0  0  0  0  0  0  0  0  0
    1.4879   -5.9356    1.6045 C   0  0  0  0  0  0  0  0  0  0  0  0
    1.7016   -5.6326    2.9810 C   0  0  0  0  0  0  0  0  0  0  0  0
    2.7986   -4.8430    3.3849 C   0  0  0  0  0  0  0  0  0  0  0  0
    3.6658   -4.3050    2.4253 C   0  0  0  0  0  0  0  0  0  0  0  0
    3.4300   -4.5631    1.0515 C   0  0  0  0  0  0  0  0  0  0  0  0
    2.3408   -5.3679    0.6332 C   0  0  0  0  0  0  0  0  0  0  0  0
    4.3599   -3.8610    0.1030 C   0  0  1  0  0  0  0  0  0  0  0  0
    4.2722   -3.3955   -1.3545 C   0  0  1  0  0  0  0  0  0  0  0  0
    5.0500   -4.2195   -2.2379 O   0  0  0  0  0  0  0  0  0  0  0  0
    5.2282   -3.7108   -3.5587 C   0  0  0  0  0  0  0  0  0  0  0  0
    2.9432   -2.9916   -1.9753 C   0  0  0  0  0  0  0  0  0  0  0  0
    3.2022   -1.5561   -2.5406 C   0  0  0  0  0  0  0  0  0  0  0  0
    4.4678   -0.9999   -1.7917 C   0  0  0  0  0  0  0  0  0  0  0  0
    5.0194   -2.1264   -0.9228 C   0  0  2  0  0  0  0  0  0  0  0  0
    6.4355   -2.1003   -0.9753 O   0  0  0  0  0  0  0  0  0  0  0  0
    4.4780   -2.3800    0.5151 C   0  0  1  0  0  0  0  0  0  0  0  0
    3.2248   -1.5694    0.9252 C   0  0  0  0  0  0  0  0  0  0  0  0
    3.7268   -0.4207    1.7779 C   0  0  0  0  0  0  0  0  0  0  0  0
    5.0107   -0.8701    2.3131 N   0  0  1  0  0  0  0  0  0  0  0  0
    5.2139   -0.5467    3.7328 C   0  0  0  0  0  0  0  0  0  0  0  0
    5.2557   -2.2539    1.8377 C   0  0  1  0  0  0  0  0  0  0  0  0
    4.8407   -3.3919    2.8453 C   0  0  0  0  0  0  0  0  0  0  0  0
   -0.8310   -8.2847    1.5198 H   0  0  0  0  0  0  0  0  0  0  0  0
   -0.1959   -7.5464    2.9660 H   0  0  0  0  0  0  0  0  0  0  0  0
    0.8783   -8.5070    1.9388 H   0  0  0  0  0  0  0  0  0  0  0  0
    1.0311   -5.9583    3.7576 H   0  0  0  0  0  0  0  0  0  0  0  0
    2.9319   -4.6297    4.4377 H   0  0  0  0  0  0  0  0  0  0  0  0
    2.1617   -5.5295   -0.4220 H   0  0  0  0  0  0  0  0  0  0  0  0
    5.3224   -4.3631    0.2356 H   0  0  0  0  0  0  0  0  0  0  0  0
    5.8121   -4.2776   -4.2029 H   0  0  0  0  0  0  0  0  0  0  0  0
    5.7092   -2.7387   -3.5109 H   0  0  0  0  0  0  0  0  0  0  0  0
    4.3125   -3.6928   -4.1349 H   0  0  0  0  0  0  0  0  0  0  0  0
    2.5765   -3.7245   -2.6966 H   0  0  0  0  0  0  0  0  0  0  0  0
    2.1737   -2.9530   -1.2087 H   0  0  0  0  0  0  0  0  0  0  0  0
    3.4204   -1.5888   -3.6079 H   0  0  0  0  0  0  0  0  0  0  0  0
    2.3255   -0.9124   -2.4680 H   0  0  0  0  0  0  0  0  0  0  0  0
    5.1991   -0.6431   -2.5194 H   0  0  0  0  0  0  0  0  0  0  0  0
    4.2435   -0.1505   -1.1624 H   0  0  0  0  0  0  0  0  0  0  0  0
    6.7250   -2.9559   -0.7172 H   0  0  0  0  0  0  0  0  0  0  0  0
    2.6469   -1.1842    0.0879 H   0  0  0  0  0  0  0  0  0  0  0  0
    2.5304   -2.1754    1.5183 H   0  0  0  0  0  0  0  0  0  0  0  0
    3.8799    0.4759    1.1683 H   0  0  0  0  0  0  0  0  0  0  0  0
    3.0002   -0.1613    2.5434 H   0  0  0  0  0  0  0  0  0  0  0  0
    4.4232   -0.9316    4.3719 H   0  0  0  0  0  0  0  0  0  0  0  0
    5.2333    0.5352    3.8627 H   0  0  0  0  0  0  0  0  0  0  0  0
    6.1658   -0.9135    4.0934 H   0  0  0  0  0  0  0  0  0  0  0  0
    6.3317   -2.3505    1.6801 H   0  0  0  0  0  0  0  0  0  0  0  0
    4.6510   -3.0380    3.8602 H   0  0  0  0  0  0  0  0  0  0  0  0
    5.6859   -4.0669    2.9491 H   0  0  0  0  0  0  0  0  0  0  0  0
    5.6887   -0.3273    1.7924 H   0  0  0  0  0  0  0  0  0  0  0  0
  1  2  1  0
  1 25  1  0
  1 26  1  0
  1 27  1  0
  2  3  1  0
  3  8  2  0
  3  4  1  0
  4  5  2  0
  4 28  1  0
  5  6  1  0
  5 29  1  0
  6 24  1  0
  6  7  2  0
  7  8  1  0
  7  9  1  0
  8 30  1  0
  9 18  1  0
  9 10  1  0
  9 31  1  6
 10 16  1  0
 10 11  1  6
 10 13  1  0
 11 12  1  0
 12 32  1  0
 12 33  1  0
 12 34  1  0
 13 14  1  0
 13 35  1  0
 13 36  1  0
 14 15  1  0
 14 37  1  0
 14 38  1  0
 15 16  1  0
 15 39  1  0
 15 40  1  0
 16 17  1  1
 16 18  1  0
 17 41  1  0
 18 23  1  0
 18 19  1  1
 19 20  1  0
 19 42  1  0
 19 43  1  0
 20 21  1  0
 20 44  1  0
 20 45  1  0
 21 22  1  0
 21 23  1  0
 21 52  1  6
 22 46  1  0
 22 47  1  0
 22 48  1  0
 23 24  1  0
 23 49  1  6
 24 50  1  0
 24 51  1  0
M  CHG  1  21   1
M  END
>  <i_m_ct_stereo_status>  (172) 
1

>  <s_m_source_file>  (172) 
/var/tmp/pbs.5076255.sched01/tmpcsrx8n8z/40wzjmt8mb.sdf

>  <i_m_source_file_index>  (172) 
35

>  <i_lp_mmshare_version>  (172) 
48012

>  <i_f3d_flags>  (172) 
0

>  <s_epik_input>  (172) 
W0NIM11PYyhbY0hdMSlbY0hdW2NIXWMoW0NIMl1bQ0BASF0yTihbQ0gzXSlbQ0gyXVtDSDJdMyljMVtDQEhdKFtDQF0yMzQpW0NAXTUoT1tDSDNdKVtDQEBdNChbT0hdKVtDSDJdW0NIMl1bQ0gyXTU=

>  <s_epik_cmdline>  (172) 
J2VwaWtfcHl0aG9uJywgJy1waHQnLCAnMi4wJywgJy1waCcsICc3LjAnLCAnLXRuJywgJzgnLCAnLW1hJywgJzIwMCcsICctaW1hZScsICc8aW5maWxlLm1hZT4nLCAnLW9tYWUnLCAnPG91dGZpbGUubWFlPic=

>  <r_lp_tautomer_probability>  (172) 
1

>  <r_epik_Ionization_Penalty>  (172) 
0.00475648

>  <r_epik_Ionization_Penalty_Charging>  (172) 
0.00475629

>  <r_epik_Ionization_Penalty_Neutral>  (172) 
1.81107e-07

>  <r_epik_State_Penalty>  (172) 
0.00344592

>  <r_epik_Charging_Adjusted_Penalty>  (172) 
0.00820222

>  <i_epik_Tot_Q>  (172) 
1

>  <i_epik_Tot_abs_Q>  (172) 
1

>  <s_lp_Force_Field>  (172) 
OPLS3e

>  <r_lp_Energy>  (172) 
87.1433

>  <b_lp_Chiralities_Consistent>  (172) 
1

>  <s_lp_Variant>  (172) 
54:0-1

>  <s_i_glide_gridfile>  (172) 
pfpi4k_grid

>  <i_i_glide_lignum>  (172) 
35

>  <i_i_glide_rotatable_bonds>  (172) 
3

>  <r_i_docking_score>  (172) 
-3.43581

>  <r_i_glide_ligand_efficiency>  (172) 
-0.143159

>  <r_i_glide_ligand_efficiency_sa>  (172) 
-0.412941

>  <r_i_glide_ligand_efficiency_ln>  (172) 
-0.822346

>  <r_i_glide_gscore>  (172) 
-3.43581

>  <r_i_glide_lipo>  (172) 
-0.371055

>  <r_i_glide_hbond>  (172) 
-0.128513

>  <r_i_glide_metal>  (172) 
-0

>  <r_i_glide_rewards>  (172) 
-1.15608

>  <r_i_glide_evdw>  (172) 
-21.2333

>  <r_i_glide_ecoul>  (172) 
-4.78994

>  <r_i_glide_erotb>  (172) 
0

>  <r_i_glide_esite>  (172) 
0

>  <r_i_glide_emodel>  (172) 
-27.145

>  <r_i_glide_energy>  (172) 
-26.0232

>  <r_i_glide_einternal>  (172) 
8.65785

>  <r_i_glide_intrahb_reward>  (172) 
-0

>  <i_i_glide_confnum>  (172) 
1

>  <i_i_glide_posenum>  (172) 
7

>  <r_i_glide_eff_state_penalty>  (172) 
0

>  <ligand_id>  (172) 
54

>  <original_smiles>  (172) 
COc1ccc2c(c1)C1C3(OC)CCCC3(O)C13CCN(C)C3C2

>  <smiles>  (172) 
[H]OC12C([H])([H])C([H])([H])C([H])([H])C1(OC([H])([H])[H])C1([H])c3c([H])c(OC([H])([H])[H])c([H])c([H])c3C([H])([H])C3([H])C12C([H])([H])C([H])([H])[N+]3([H])C([H])([H])[H]

$$$$
54:0:2
     RDKit          3D

 52 56  0  0  1  0  0  0  0  0999 V2000
    3.0886   -7.4488    5.0412 C   0  0  0  0  0  0  0  0  0  0  0  0
    3.6763   -6.7852    3.9239 O   0  0  0  0  0  0  0  0  0  0  0  0
    3.8436   -5.4153    4.0114 C   0  0  0  0  0  0  0  0  0  0  0  0
    3.4227   -4.6510    5.1390 C   0  0  0  0  0  0  0  0  0  0  0  0
    3.5983   -3.2545    5.1781 C   0  0  0  0  0  0  0  0  0  0  0  0
    4.1797   -2.5929    4.0974 C   0  0  0  0  0  0  0  0  0  0  0  0
    4.5985   -3.3489    2.9651 C   0  0  0  0  0  0  0  0  0  0  0  0
    4.4383   -4.7495    2.9235 C   0  0  0  0  0  0  0  0  0  0  0  0
    5.1235   -2.5103    1.8388 C   0  0  1  0  0  0  0  0  0  0  0  0
    5.2295   -2.7362    0.3354 C   0  0  1  0  0  0  0  0  0  0  0  0
    6.5562   -2.9256   -0.1619 O   0  0  0  0  0  0  0  0  0  0  0  0
    7.2114   -4.0942    0.3138 C   0  0  0  0  0  0  0  0  0  0  0  0
    4.2473   -3.5878   -0.4520 C   0  0  0  0  0  0  0  0  0  0  0  0
    3.7789   -2.6642   -1.5905 C   0  0  0  0  0  0  0  0  0  0  0  0
    4.0022   -1.1966   -1.1420 C   0  0  0  0  0  0  0  0  0  0  0  0
    4.8216   -1.2512    0.1585 C   0  0  2  0  0  0  0  0  0  0  0  0
    5.8487   -0.2752    0.1198 O   0  0  0  0  0  0  0  0  0  0  0  0
    4.1348   -1.3659    1.5540 C   0  0  1  0  0  0  0  0  0  0  0  0
    2.6060   -1.6006    1.5532 C   0  0  0  0  0  0  0  0  0  0  0  0
    1.9729   -0.2454    1.8289 C   0  0  0  0  0  0  0  0  0  0  0  0
    3.0146    0.5342    2.5281 N   0  0  1  0  0  0  0  0  0  0  0  0
    2.5276    1.3183    3.6903 C   0  0  0  0  0  0  0  0  0  0  0  0
    4.2110   -0.3400    2.6981 C   0  0  1  0  0  0  0  0  0  0  0  0
    4.3181   -1.0601    4.0976 C   0  0  0  0  0  0  0  0  0  0  0  0
    3.0089   -8.5311    4.9016 H   0  0  0  0  0  0  0  0  0  0  0  0
    2.0783   -7.0792    5.2225 H   0  0  0  0  0  0  0  0  0  0  0  0
    3.6808   -7.2893    5.9437 H   0  0  0  0  0  0  0  0  0  0  0  0
    2.9500   -5.0756    6.0048 H   0  0  0  0  0  0  0  0  0  0  0  0
    3.2474   -2.7126    6.0494 H   0  0  0  0  0  0  0  0  0  0  0  0
    4.7471   -5.2999    2.0392 H   0  0  0  0  0  0  0  0  0  0  0  0
    6.0745   -2.0977    2.1805 H   0  0  0  0  0  0  0  0  0  0  0  0
    8.1925   -4.1689   -0.1546 H   0  0  0  0  0  0  0  0  0  0  0  0
    6.6667   -5.0096    0.0793 H   0  0  0  0  0  0  0  0  0  0  0  0
    7.3659   -4.0609    1.3927 H   0  0  0  0  0  0  0  0  0  0  0  0
    4.6705   -4.5203   -0.8196 H   0  0  0  0  0  0  0  0  0  0  0  0
    3.4035   -3.8632    0.1780 H   0  0  0  0  0  0  0  0  0  0  0  0
    4.4089   -2.8634   -2.4564 H   0  0  0  0  0  0  0  0  0  0  0  0
    2.7481   -2.8640   -1.8837 H   0  0  0  0  0  0  0  0  0  0  0  0
    4.5099   -0.6406   -1.9308 H   0  0  0  0  0  0  0  0  0  0  0  0
    3.0487   -0.7034   -0.9841 H   0  0  0  0  0  0  0  0  0  0  0  0
    5.4655    0.5270   -0.2226 H   0  0  0  0  0  0  0  0  0  0  0  0
    2.2123   -2.0119    0.6296 H   0  0  0  0  0  0  0  0  0  0  0  0
    2.3039   -2.2914    2.3368 H   0  0  0  0  0  0  0  0  0  0  0  0
    1.7165    0.2689    0.9020 H   0  0  0  0  0  0  0  0  0  0  0  0
    1.0570   -0.3494    2.4087 H   0  0  0  0  0  0  0  0  0  0  0  0
    2.0020    0.6962    4.4102 H   0  0  0  0  0  0  0  0  0  0  0  0
    1.8256    2.0716    3.3435 H   0  0  0  0  0  0  0  0  0  0  0  0
    3.3483    1.8294    4.1851 H   0  0  0  0  0  0  0  0  0  0  0  0
    5.0858    0.3004    2.6036 H   0  0  0  0  0  0  0  0  0  0  0  0
    3.6460   -0.6562    4.8563 H   0  0  0  0  0  0  0  0  0  0  0  0
    5.3128   -0.8687    4.4897 H   0  0  0  0  0  0  0  0  0  0  0  0
    3.3044    1.2271    1.8466 H   0  0  0  0  0  0  0  0  0  0  0  0
  1  2  1  0
  1 25  1  0
  1 26  1  0
  1 27  1  0
  2  3  1  0
  3  8  2  0
  3  4  1  0
  4  5  2  0
  4 28  1  0
  5  6  1  0
  5 29  1  0
  6 24  1  0
  6  7  2  0
  7  8  1  0
  7  9  1  0
  8 30  1  0
  9 18  1  0
  9 10  1  0
  9 31  1  1
 10 16  1  0
 10 11  1  1
 10 13  1  0
 11 12  1  0
 12 32  1  0
 12 33  1  0
 12 34  1  0
 13 14  1  0
 13 35  1  0
 13 36  1  0
 14 15  1  0
 14 37  1  0
 14 38  1  0
 15 16  1  0
 15 39  1  0
 15 40  1  0
 16 17  1  1
 16 18  1  0
 17 41  1  0
 18 23  1  0
 18 19  1  6
 19 20  1  0
 19 42  1  0
 19 43  1  0
 20 21  1  0
 20 44  1  0
 20 45  1  0
 21 22  1  0
 21 23  1  0
 21 52  1  6
 22 46  1  0
 22 47  1  0
 22 48  1  0
 23 24  1  0
 23 49  1  6
 24 50  1  0
 24 51  1  0
M  CHG  1  21   1
M  END
>  <i_m_ct_stereo_status>  (173) 
1

>  <s_m_source_file>  (173) 
/var/tmp/pbs.5076255.sched01/tmpcsrx8n8z/40wzjmt8mb.sdf

>  <i_m_source_file_index>  (173) 
35

>  <i_lp_mmshare_version>  (173) 
48012

>  <i_f3d_flags>  (173) 
0

>  <s_epik_input>  (173) 
W0NIM11PYyhbY0hdMSlbY0hdW2NIXWMoW0NIMl1bQ0BASF0yTihbQ0gzXSlbQ0gyXVtDSDJdMyljMVtDQEhdKFtDQF0yMzQpW0NAXTUoT1tDSDNdKVtDQEBdNChbT0hdKVtDSDJdW0NIMl1bQ0gyXTU=

>  <s_epik_cmdline>  (173) 
J2VwaWtfcHl0aG9uJywgJy1waHQnLCAnMi4wJywgJy1waCcsICc3LjAnLCAnLXRuJywgJzgnLCAnLW1hJywgJzIwMCcsICctaW1hZScsICc8aW5maWxlLm1hZT4nLCAnLW9tYWUnLCAnPG91dGZpbGUubWFlPic=

>  <r_lp_tautomer_probability>  (173) 
1

>  <r_epik_Ionization_Penalty>  (173) 
0.00475648

>  <r_epik_Ionization_Penalty_Charging>  (173) 
0.00475629

>  <r_epik_Ionization_Penalty_Neutral>  (173) 
1.81107e-07

>  <r_epik_State_Penalty>  (173) 
0.00344592

>  <r_epik_Charging_Adjusted_Penalty>  (173) 
0.00820222

>  <i_epik_Tot_Q>  (173) 
1

>  <i_epik_Tot_abs_Q>  (173) 
1

>  <s_lp_Force_Field>  (173) 
OPLS3e

>  <r_lp_Energy>  (173) 
87.1433

>  <b_lp_Chiralities_Consistent>  (173) 
1

>  <s_lp_Variant>  (173) 
54:0-1

>  <s_i_glide_gridfile>  (173) 
pfpi4k_grid

>  <i_i_glide_lignum>  (173) 
35

>  <i_i_glide_rotatable_bonds>  (173) 
3

>  <r_i_docking_score>  (173) 
-3.3772

>  <r_i_glide_ligand_efficiency>  (173) 
-0.140717

>  <r_i_glide_ligand_efficiency_sa>  (173) 
-0.405897

>  <r_i_glide_ligand_efficiency_ln>  (173) 
-0.808319

>  <r_i_glide_gscore>  (173) 
-3.3772

>  <r_i_glide_lipo>  (173) 
-0.352168

>  <r_i_glide_hbond>  (173) 
0

>  <r_i_glide_metal>  (173) 
-0

>  <r_i_glide_rewards>  (173) 
-1.15608

>  <r_i_glide_evdw>  (173) 
-14.3374

>  <r_i_glide_ecoul>  (173) 
-7.68054

>  <r_i_glide_erotb>  (173) 
0

>  <r_i_glide_esite>  (173) 
0

>  <r_i_glide_emodel>  (173) 
-26.2931

>  <r_i_glide_energy>  (173) 
-22.0179

>  <r_i_glide_einternal>  (173) 
3.92693

>  <r_i_glide_intrahb_reward>  (173) 
-0

>  <i_i_glide_confnum>  (173) 
1

>  <i_i_glide_posenum>  (173) 
4

>  <r_i_glide_eff_state_penalty>  (173) 
0

>  <ligand_id>  (173) 
54

>  <original_smiles>  (173) 
COc1ccc2c(c1)C1C3(OC)CCCC3(O)C13CCN(C)C3C2

>  <smiles>  (173) 
[H]OC12C([H])([H])C([H])([H])C([H])([H])C1(OC([H])([H])[H])C1([H])c3c([H])c(OC([H])([H])[H])c([H])c([H])c3C([H])([H])C3([H])C12C([H])([H])C([H])([H])[N+]3([H])C([H])([H])[H]

$$$$
55:0:0
     RDKit          3D

 59 64  0  0  1  0  0  0  0  0999 V2000
    2.9988   -0.5720    4.3771 C   0  0  0  0  0  0  0  0  0  0  0  0
    1.9180    0.5236    4.4683 C   0  0  0  0  0  0  0  0  0  0  0  0
    1.8584    1.5486    3.6223 C   0  0  0  0  0  0  0  0  0  0  0  0
    0.8601    2.7055    3.2925 C   0  0  1  0  0  0  0  0  0  0  0  0
   -0.6626    2.2101    3.1875 C   0  0  1  0  0  0  0  0  0  0  0  0
   -0.7484    0.9956    2.2351 C   0  0  0  0  0  0  0  0  0  0  0  0
   -1.5492    2.0452    4.4978 C   0  0  1  0  0  0  0  0  0  0  0  0
   -1.6106    0.5753    4.9531 C   0  0  2  0  0  0  0  0  0  0  0  0
   -1.4328    0.1869    6.3167 O   0  0  0  0  0  0  0  0  0  0  0  0
   -0.4064   -0.2454    5.4007 C   0  0  1  0  0  0  0  0  0  0  0  0
   -0.3699   -1.7255    5.0862 C   0  0  0  0  0  0  0  0  0  0  0  0
    0.9662    0.3476    5.7091 C   0  0  1  0  0  0  0  0  0  0  0  0
    1.5706    0.0528    7.0756 C   0  0  0  0  0  0  0  0  0  0  0  0
    0.8311    0.7879    8.2340 C   0  0  0  0  0  0  0  0  0  0  0  0
    1.0124    2.3372    8.3632 C   0  0  1  0  0  0  0  0  0  0  0  0
    2.4855    2.7794    8.3223 C   0  0  0  0  0  0  0  0  0  0  0  0
    0.0199    3.3873    7.7038 C   0  0  2  0  0  0  0  0  0  0  0  0
   -1.4635    3.1045    7.1290 C   0  0  0  0  0  0  0  0  0  0  0  0
   -1.4471    3.2499    5.5198 C   0  0  2  0  0  0  0  0  0  0  0  0
   -1.5232    4.4713    4.7535 O   0  0  0  0  0  0  0  0  0  0  0  0
   -0.1785    4.8619    3.9280 O   0  0  0  0  0  0  0  0  0  0  0  0
    1.0732    4.0850    4.1445 C   0  0  2  0  0  0  0  0  0  0  0  0
    2.2220    4.8824    3.5049 C   0  0  0  0  0  0  0  0  0  0  0  0
    1.5438    3.9488    5.5855 O   0  0  0  0  0  0  0  0  0  0  0  0
    0.4664    4.1104    6.4523 C   0  0  2  0  0  0  0  0  0  0  0  0
    0.0745    5.6337    6.5724 C   0  0  0  0  0  0  0  0  0  0  0  0
   -0.2134    3.1567    5.7875 O   0  0  0  0  0  0  0  0  0  0  0  0
    3.6522   -0.5299    5.2452 H   0  0  0  0  0  0  0  0  0  0  0  0
    3.6218   -0.4560    3.4908 H   0  0  0  0  0  0  0  0  0  0  0  0
    2.5401   -1.5550    4.3612 H   0  0  0  0  0  0  0  0  0  0  0  0
    1.2866    1.9864    4.3299 H   0  0  0  0  0  0  0  0  0  0  0  0
    1.1030    2.9537    2.2645 H   0  0  0  0  0  0  0  0  0  0  0  0
   -1.1513    3.0021    2.6195 H   0  0  0  0  0  0  0  0  0  0  0  0
   -0.2826    0.0927    2.6276 H   0  0  0  0  0  0  0  0  0  0  0  0
   -0.2667    1.2069    1.2821 H   0  0  0  0  0  0  0  0  0  0  0  0
   -1.7858    0.7442    2.0081 H   0  0  0  0  0  0  0  0  0  0  0  0
   -2.5619    2.1781    4.1066 H   0  0  0  0  0  0  0  0  0  0  0  0
   -2.4063    0.0118    4.4777 H   0  0  0  0  0  0  0  0  0  0  0  0
    0.1574   -1.8964    4.1453 H   0  0  0  0  0  0  0  0  0  0  0  0
   -1.3778   -2.1188    4.9762 H   0  0  0  0  0  0  0  0  0  0  0  0
    0.1304   -2.2832    5.8752 H   0  0  0  0  0  0  0  0  0  0  0  0
    0.7834    1.3350    6.0273 H   0  0  0  0  0  0  0  0  0  0  0  0
    1.5457   -1.0176    7.2282 H   0  0  0  0  0  0  0  0  0  0  0  0
    2.6221    0.3454    7.0942 H   0  0  0  0  0  0  0  0  0  0  0  0
   -0.2229    0.5367    8.2826 H   0  0  0  0  0  0  0  0  0  0  0  0
    1.2370    0.3511    9.1389 H   0  0  0  0  0  0  0  0  0  0  0  0
    0.7674    2.4567    9.4255 H   0  0  0  0  0  0  0  0  0  0  0  0
    2.9001    2.6794    7.3203 H   0  0  0  0  0  0  0  0  0  0  0  0
    3.1015    2.1802    8.9904 H   0  0  0  0  0  0  0  0  0  0  0  0
    2.5978    3.8213    8.6246 H   0  0  0  0  0  0  0  0  0  0  0  0
   -0.1051    4.1320    8.4946 H   0  0  0  0  0  0  0  0  0  0  0  0
   -1.8635    2.1603    7.4923 H   0  0  0  0  0  0  0  0  0  0  0  0
   -2.1495    3.8493    7.5365 H   0  0  0  0  0  0  0  0  0  0  0  0
    2.3523    5.8443    4.0042 H   0  0  0  0  0  0  0  0  0  0  0  0
    2.0281    5.0748    2.4524 H   0  0  0  0  0  0  0  0  0  0  0  0
    3.1673    4.3409    3.5805 H   0  0  0  0  0  0  0  0  0  0  0  0
    0.4108    6.2264    5.7255 H   0  0  0  0  0  0  0  0  0  0  0  0
    0.6073    6.0482    7.4325 H   0  0  0  0  0  0  0  0  0  0  0  0
   -0.9835    5.7953    6.7606 H   0  0  0  0  0  0  0  0  0  0  0  0
  1  2  1  0
  1 28  1  0
  1 29  1  0
  1 30  1  0
  2 12  1  0
  2  3  2  3
  3  4  1  0
  3 31  1  0
  4 22  1  0
  4  5  1  0
  4 32  1  6
  5  6  1  0
  5  7  1  0
  5 33  1  6
  6 34  1  0
  6 35  1  0
  6 36  1  0
  7 19  1  0
  7  8  1  0
  7 37  1  6
  8 10  1  0
  8  9  1  0
  8 38  1  6
  9 10  1  0
 10 11  1  6
 10 12  1  0
 11 39  1  0
 11 40  1  0
 11 41  1  0
 12 13  1  0
 12 42  1  1
 13 14  1  0
 13 43  1  0
 13 44  1  0
 14 15  1  0
 14 45  1  0
 14 46  1  0
 15 16  1  0
 15 17  1  0
 15 47  1  1
 16 48  1  0
 16 49  1  0
 16 50  1  0
 17 25  1  0
 17 18  1  0
 17 51  1  1
 18 19  1  0
 18 52  1  0
 18 53  1  0
 19 27  1  1
 19 20  1  0
 20 21  1  0
 21 22  1  0
 22 23  1  6
 22 24  1  0
 23 54  1  0
 23 55  1  0
 23 56  1  0
 24 25  1  0
 25 26  1  1
 25 27  1  0
 26 57  1  0
 26 58  1  0
 26 59  1  0
M  END
>  <i_m_ct_stereo_status>  (174) 
1

>  <s_m_source_file>  (174) 
/var/tmp/pbs.5076255.sched01/tmpcsrx8n8z/40wzjmt8mb.sdf

>  <i_m_source_file_index>  (174) 
36

>  <i_lp_mmshare_version>  (174) 
48012

>  <i_f3d_flags>  (174) 
0

>  <s_epik_input>  (174) 
W0NAQF0xMjNbQ0BASF00W0NASF01W0NAQF0oTzUpKFtDSDNdKVtDQEBIXTZDKFxbQ0gzXSk9W0NIXS9bQ0BASF0oW0NASF00W0NIM10pW0NAXShPTzIpKFtDSDNdKU9bQ0BdKE8zKShbQ0gzXSlbQ0BASF0oW0NIMl0xKVtDQEhdKFtDSDNdKVtDSDJdW0NIMl02

>  <s_epik_cmdline>  (174) 
J2VwaWtfcHl0aG9uJywgJy1waHQnLCAnMi4wJywgJy1waCcsICc3LjAnLCAnLXRuJywgJzgnLCAnLW1hJywgJzIwMCcsICctaW1hZScsICc8aW5maWxlLm1hZT4nLCAnLW9tYWUnLCAnPG91dGZpbGUubWFlPic=

>  <r_lp_tautomer_probability>  (174) 
1

>  <r_epik_Ionization_Penalty>  (174) 
3.61141e-12

>  <r_epik_Ionization_Penalty_Charging>  (174) 
0

>  <r_epik_Ionization_Penalty_Neutral>  (174) 
3.61141e-12

>  <r_epik_State_Penalty>  (174) 
-0

>  <r_epik_Charging_Adjusted_Penalty>  (174) 
0

>  <i_epik_Tot_Q>  (174) 
0

>  <i_epik_Tot_abs_Q>  (174) 
0

>  <s_lp_Force_Field>  (174) 
OPLS3e

>  <r_lp_Energy>  (174) 
199.135

>  <b_lp_Chiralities_Consistent>  (174) 
1

>  <s_lp_Variant>  (174) 
55:0-1

>  <s_i_glide_gridfile>  (174) 
pfpi4k_grid

>  <i_i_glide_lignum>  (174) 
36

>  <i_i_glide_rotatable_bonds>  (174) 
0

>  <r_i_docking_score>  (174) 
-1.057

>  <r_i_glide_ligand_efficiency>  (174) 
-0.0391483

>  <r_i_glide_ligand_efficiency_sa>  (174) 
-0.117445

>  <r_i_glide_ligand_efficiency_ln>  (174) 
-0.246053

>  <r_i_glide_gscore>  (174) 
-1.057

>  <r_i_glide_lipo>  (174) 
-0.0294756

>  <r_i_glide_hbond>  (174) 
-0.189775

>  <r_i_glide_metal>  (174) 
-0

>  <r_i_glide_rewards>  (174) 
-0.842138

>  <r_i_glide_evdw>  (174) 
-22.6465

>  <r_i_glide_ecoul>  (174) 
-3.79936

>  <r_i_glide_erotb>  (174) 
0

>  <r_i_glide_esite>  (174) 
-0.0492315

>  <r_i_glide_emodel>  (174) 
-20.4806

>  <r_i_glide_energy>  (174) 
-26.4459

>  <r_i_glide_einternal>  (174) 
0

>  <r_i_glide_intrahb_reward>  (174) 
-0

>  <i_i_glide_confnum>  (174) 
2

>  <i_i_glide_posenum>  (174) 
35

>  <r_i_glide_eff_state_penalty>  (174) 
0

>  <ligand_id>  (174) 
55

>  <original_smiles>  (174) 
CC1=CC2C(C)C3C4OC4(C)C1CCC(C)C1CC34OOC2(C)OC1(C)O4

>  <smiles>  (174) 
[H]C1=C(C([H])([H])[H])C2([H])C([H])([H])C([H])([H])C([H])(C([H])([H])[H])C3([H])C([H])([H])C45OOC(C([H])([H])[H])(OC3(C([H])([H])[H])O4)C1([H])C([H])(C([H])([H])[H])C5([H])C1([H])OC12C([H])([H])[H]

$$$$
55:0:1
     RDKit          3D

 59 64  0  0  1  0  0  0  0  0999 V2000
   -2.5804    3.1288    4.0823 C   0  0  0  0  0  0  0  0  0  0  0  0
   -1.2885    2.3905    4.4037 C   0  0  0  0  0  0  0  0  0  0  0  0
   -1.0845    1.1109    3.9995 C   0  0  0  0  0  0  0  0  0  0  0  0
    0.1440    0.1237    3.9866 C   0  0  1  0  0  0  0  0  0  0  0  0
    1.4758    0.7939    3.4296 C   0  0  1  0  0  0  0  0  0  0  0  0
    1.2263    1.5104    2.0771 C   0  0  0  0  0  0  0  0  0  0  0  0
    2.4295    1.6151    4.4074 C   0  0  1  0  0  0  0  0  0  0  0  0
    2.1937    3.1360    4.2553 C   0  0  2  0  0  0  0  0  0  0  0  0
    2.0411    3.9882    5.3807 O   0  0  0  0  0  0  0  0  0  0  0  0
    0.8776    3.8347    4.5587 C   0  0  1  0  0  0  0  0  0  0  0  0
    0.4807    5.0402    3.7187 C   0  0  0  0  0  0  0  0  0  0  0  0
   -0.2910    3.1848    5.2925 C   0  0  1  0  0  0  0  0  0  0  0  0
   -0.8285    3.9020    6.5261 C   0  0  0  0  0  0  0  0  0  0  0  0
    0.1555    3.8419    7.7361 C   0  0  0  0  0  0  0  0  0  0  0  0
    0.3421    2.4783    8.4746 C   0  0  1  0  0  0  0  0  0  0  0  0
   -0.9916    1.8060    8.8501 C   0  0  0  0  0  0  0  0  0  0  0  0
    1.4808    1.4413    8.1037 C   0  0  2  0  0  0  0  0  0  0  0  0
    2.8089    1.7139    7.2181 C   0  0  0  0  0  0  0  0  0  0  0  0
    2.7007    0.9322    5.8083 C   0  0  2  0  0  0  0  0  0  0  0  0
    2.9612   -0.4689    5.5549 O   0  0  0  0  0  0  0  0  0  0  0  0
    1.6741   -1.3684    5.1791 O   0  0  0  0  0  0  0  0  0  0  0  0
    0.2954   -0.8059    5.2954 C   0  0  2  0  0  0  0  0  0  0  0  0
   -0.6769   -1.9773    5.2225 C   0  0  0  0  0  0  0  0  0  0  0  0
   -0.0515   -0.1835    6.6458 O   0  0  0  0  0  0  0  0  0  0  0  0
    1.1069    0.2024    7.3134 C   0  0  2  0  0  0  0  0  0  0  0  0
    1.8363   -1.0459    7.9294 C   0  0  0  0  0  0  0  0  0  0  0  0
    1.5075    0.9160    6.2410 O   0  0  0  0  0  0  0  0  0  0  0  0
   -3.1359    3.3221    4.9983 H   0  0  0  0  0  0  0  0  0  0  0  0
   -3.2439    2.5625    3.4215 H   0  0  0  0  0  0  0  0  0  0  0  0
   -2.3634    4.0882    3.6148 H   0  0  0  0  0  0  0  0  0  0  0  0
   -0.2948    1.0560    4.6487 H   0  0  0  0  0  0  0  0  0  0  0  0
   -0.1308   -0.5628    3.1819 H   0  0  0  0  0  0  0  0  0  0  0  0
    2.0820   -0.0623    3.1308 H   0  0  0  0  0  0  0  0  0  0  0  0
    0.5982    2.3999    2.1743 H   0  0  0  0  0  0  0  0  0  0  0  0
    0.7135    0.8505    1.3726 H   0  0  0  0  0  0  0  0  0  0  0  0
    2.1528    1.8245    1.6166 H   0  0  0  0  0  0  0  0  0  0  0  0
    3.3987    1.5147    3.9292 H   0  0  0  0  0  0  0  0  0  0  0  0
    2.8017    3.5854    3.4721 H   0  0  0  0  0  0  0  0  0  0  0  0
   -0.1507    4.7259    2.8888 H   0  0  0  0  0  0  0  0  0  0  0  0
    1.3588    5.5227    3.2964 H   0  0  0  0  0  0  0  0  0  0  0  0
   -0.0584    5.7757    4.3118 H   0  0  0  0  0  0  0  0  0  0  0  0
    0.1215    2.4471    5.9148 H   0  0  0  0  0  0  0  0  0  0  0  0
   -1.0212    4.9320    6.2602 H   0  0  0  0  0  0  0  0  0  0  0  0
   -1.7806    3.4758    6.8374 H   0  0  0  0  0  0  0  0  0  0  0  0
    1.1245    4.2731    7.5075 H   0  0  0  0  0  0  0  0  0  0  0  0
   -0.2569    4.5361    8.4643 H   0  0  0  0  0  0  0  0  0  0  0  0
    0.6964    2.8422    9.4445 H   0  0  0  0  0  0  0  0  0  0  0  0
   -1.5034    1.4231    7.9705 H   0  0  0  0  0  0  0  0  0  0  0  0
   -1.6677    2.5088    9.3385 H   0  0  0  0  0  0  0  0  0  0  0  0
   -0.8395    0.9766    9.5394 H   0  0  0  0  0  0  0  0  0  0  0  0
    1.8428    1.1112    9.0825 H   0  0  0  0  0  0  0  0  0  0  0  0
    3.0165    2.7772    7.1260 H   0  0  0  0  0  0  0  0  0  0  0  0
    3.6774    1.3296    7.7551 H   0  0  0  0  0  0  0  0  0  0  0  0
   -0.5448   -2.6626    6.0526 H   0  0  0  0  0  0  0  0  0  0  0  0
   -0.5411   -2.5464    4.2974 H   0  0  0  0  0  0  0  0  0  0  0  0
   -1.7159   -1.6280    5.2415 H   0  0  0  0  0  0  0  0  0  0  0  0
    1.5735   -1.9787    7.4390 H   0  0  0  0  0  0  0  0  0  0  0  0
    1.4930   -1.1641    8.9605 H   0  0  0  0  0  0  0  0  0  0  0  0
    2.9213   -0.9374    7.9764 H   0  0  0  0  0  0  0  0  0  0  0  0
  1  2  1  0
  1 28  1  0
  1 29  1  0
  1 30  1  0
  2 12  1  0
  2  3  2  3
  3  4  1  0
  3 31  1  0
  4 22  1  0
  4  5  1  0
  4 32  1  6
  5  6  1  0
  5  7  1  0
  5 33  1  6
  6 34  1  0
  6 35  1  0
  6 36  1  0
  7 19  1  0
  7  8  1  0
  7 37  1  6
  8 10  1  0
  8  9  1  0
  8 38  1  6
  9 10  1  0
 10 11  1  6
 10 12  1  0
 11 39  1  0
 11 40  1  0
 11 41  1  0
 12 13  1  0
 12 42  1  1
 13 14  1  0
 13 43  1  0
 13 44  1  0
 14 15  1  0
 14 45  1  0
 14 46  1  0
 15 16  1  0
 15 17  1  0
 15 47  1  1
 16 48  1  0
 16 49  1  0
 16 50  1  0
 17 25  1  0
 17 18  1  0
 17 51  1  1
 18 19  1  0
 18 52  1  0
 18 53  1  0
 19 27  1  1
 19 20  1  0
 20 21  1  0
 21 22  1  0
 22 23  1  6
 22 24  1  0
 23 54  1  0
 23 55  1  0
 23 56  1  0
 24 25  1  0
 25 26  1  1
 25 27  1  0
 26 57  1  0
 26 58  1  0
 26 59  1  0
M  END
>  <i_m_ct_stereo_status>  (175) 
1

>  <s_m_source_file>  (175) 
/var/tmp/pbs.5076255.sched01/tmpcsrx8n8z/40wzjmt8mb.sdf

>  <i_m_source_file_index>  (175) 
36

>  <i_lp_mmshare_version>  (175) 
48012

>  <i_f3d_flags>  (175) 
0

>  <s_epik_input>  (175) 
W0NAQF0xMjNbQ0BASF00W0NASF01W0NAQF0oTzUpKFtDSDNdKVtDQEBIXTZDKFxbQ0gzXSk9W0NIXS9bQ0BASF0oW0NASF00W0NIM10pW0NAXShPTzIpKFtDSDNdKU9bQ0BdKE8zKShbQ0gzXSlbQ0BASF0oW0NIMl0xKVtDQEhdKFtDSDNdKVtDSDJdW0NIMl02

>  <s_epik_cmdline>  (175) 
J2VwaWtfcHl0aG9uJywgJy1waHQnLCAnMi4wJywgJy1waCcsICc3LjAnLCAnLXRuJywgJzgnLCAnLW1hJywgJzIwMCcsICctaW1hZScsICc8aW5maWxlLm1hZT4nLCAnLW9tYWUnLCAnPG91dGZpbGUubWFlPic=

>  <r_lp_tautomer_probability>  (175) 
1

>  <r_epik_Ionization_Penalty>  (175) 
3.61141e-12

>  <r_epik_Ionization_Penalty_Charging>  (175) 
0

>  <r_epik_Ionization_Penalty_Neutral>  (175) 
3.61141e-12

>  <r_epik_State_Penalty>  (175) 
-0

>  <r_epik_Charging_Adjusted_Penalty>  (175) 
0

>  <i_epik_Tot_Q>  (175) 
0

>  <i_epik_Tot_abs_Q>  (175) 
0

>  <s_lp_Force_Field>  (175) 
OPLS3e

>  <r_lp_Energy>  (175) 
199.135

>  <b_lp_Chiralities_Consistent>  (175) 
1

>  <s_lp_Variant>  (175) 
55:0-1

>  <s_i_glide_gridfile>  (175) 
pfpi4k_grid

>  <i_i_glide_lignum>  (175) 
36

>  <i_i_glide_rotatable_bonds>  (175) 
0

>  <r_i_docking_score>  (175) 
-0.652839

>  <r_i_glide_ligand_efficiency>  (175) 
-0.0241792

>  <r_i_glide_ligand_efficiency_sa>  (175) 
-0.0725376

>  <r_i_glide_ligand_efficiency_ln>  (175) 
-0.15197

>  <r_i_glide_gscore>  (175) 
-0.652839

>  <r_i_glide_lipo>  (175) 
0

>  <r_i_glide_hbond>  (175) 
0

>  <r_i_glide_metal>  (175) 
-0

>  <r_i_glide_rewards>  (175) 
-0.842138

>  <r_i_glide_evdw>  (175) 
-21.5711

>  <r_i_glide_ecoul>  (175) 
-1.54905

>  <r_i_glide_erotb>  (175) 
0

>  <r_i_glide_esite>  (175) 
-0.0119738

>  <r_i_glide_emodel>  (175) 
-16.9646

>  <r_i_glide_energy>  (175) 
-23.1201

>  <r_i_glide_einternal>  (175) 
0

>  <r_i_glide_intrahb_reward>  (175) 
-0

>  <i_i_glide_confnum>  (175) 
2

>  <i_i_glide_posenum>  (175) 
21

>  <r_i_glide_eff_state_penalty>  (175) 
0

>  <ligand_id>  (175) 
55

>  <original_smiles>  (175) 
CC1=CC2C(C)C3C4OC4(C)C1CCC(C)C1CC34OOC2(C)OC1(C)O4

>  <smiles>  (175) 
[H]C1=C(C([H])([H])[H])C2([H])C([H])([H])C([H])([H])C([H])(C([H])([H])[H])C3([H])C([H])([H])C45OOC(C([H])([H])[H])(OC3(C([H])([H])[H])O4)C1([H])C([H])(C([H])([H])[H])C5([H])C1([H])OC12C([H])([H])[H]

$$$$
55:0:2
     RDKit          3D

 59 64  0  0  1  0  0  0  0  0999 V2000
   -1.7855    4.1149    3.2596 C   0  0  0  0  0  0  0  0  0  0  0  0
   -0.7721    3.1488    3.8598 C   0  0  0  0  0  0  0  0  0  0  0  0
   -0.8217    1.7991    3.5423 C   0  0  0  0  0  0  0  0  0  0  0  0
    0.1098    0.5776    3.8051 C   0  0  1  0  0  0  0  0  0  0  0  0
    1.6541    0.8649    3.4958 C   0  0  1  0  0  0  0  0  0  0  0  0
    1.8218    1.5055    2.0980 C   0  0  0  0  0  0  0  0  0  0  0  0
    2.5758    1.5268    4.6051 C   0  0  1  0  0  0  0  0  0  0  0  0
    2.7396    3.0473    4.3545 C   0  0  2  0  0  0  0  0  0  0  0  0
    2.6003    3.9957    5.3879 O   0  0  0  0  0  0  0  0  0  0  0  0
    1.6144    4.0521    4.3688 C   0  0  1  0  0  0  0  0  0  0  0  0
    1.6723    5.2432    3.4221 C   0  0  0  0  0  0  0  0  0  0  0  0
    0.1969    3.7540    4.8776 C   0  0  1  0  0  0  0  0  0  0  0  0
   -0.3549    4.6784    5.9611 C   0  0  0  0  0  0  0  0  0  0  0  0
    0.3490    4.4927    7.3376 C   0  0  0  0  0  0  0  0  0  0  0  0
    0.0631    3.1861    8.1501 C   0  0  1  0  0  0  0  0  0  0  0  0
   -1.4378    2.8739    8.2859 C   0  0  0  0  0  0  0  0  0  0  0  0
    0.9686    1.8882    8.0509 C   0  0  2  0  0  0  0  0  0  0  0  0
    2.4596    1.7773    7.4310 C   0  0  0  0  0  0  0  0  0  0  0  0
    2.4220    0.9254    6.0611 C   0  0  2  0  0  0  0  0  0  0  0  0
    2.3784   -0.5133    5.9212 O   0  0  0  0  0  0  0  0  0  0  0  0
    1.0017   -1.1251    5.3336 O   0  0  0  0  0  0  0  0  0  0  0  0
   -0.1942   -0.2555    5.1665 C   0  0  2  0  0  0  0  0  0  0  0  0
   -1.3941   -1.1754    4.9402 C   0  0  0  0  0  0  0  0  0  0  0  0
   -0.6242    0.5346    6.3837 O   0  0  0  0  0  0  0  0  0  0  0  0
    0.4532    0.7100    7.2504 C   0  0  2  0  0  0  0  0  0  0  0  0
    0.7443   -0.6191    8.0484 C   0  0  0  0  0  0  0  0  0  0  0  0
    1.2002    1.2193    6.2486 O   0  0  0  0  0  0  0  0  0  0  0  0
   -2.4273    4.5203    4.0408 H   0  0  0  0  0  0  0  0  0  0  0  0
   -2.4313    3.6646    2.5012 H   0  0  0  0  0  0  0  0  0  0  0  0
   -1.2577    4.9541    2.8040 H   0  0  0  0  0  0  0  0  0  0  0  0
   -0.2067    1.6504    4.3600 H   0  0  0  0  0  0  0  0  0  0  0  0
   -0.1671   -0.1009    2.9915 H   0  0  0  0  0  0  0  0  0  0  0  0
    2.0750   -0.1271    3.3543 H   0  0  0  0  0  0  0  0  0  0  0  0
    1.4225    2.5212    2.0344 H   0  0  0  0  0  0  0  0  0  0  0  0
    1.3046    0.9276    1.3286 H   0  0  0  0  0  0  0  0  0  0  0  0
    2.8688    1.5614    1.8100 H   0  0  0  0  0  0  0  0  0  0  0  0
    3.5652    1.1704    4.3337 H   0  0  0  0  0  0  0  0  0  0  0  0
    3.5744    3.2760    3.6836 H   0  0  0  0  0  0  0  0  0  0  0  0
    1.1537    5.0142    2.4958 H   0  0  0  0  0  0  0  0  0  0  0  0
    2.7063    5.4729    3.1664 H   0  0  0  0  0  0  0  0  0  0  0  0
    1.2245    6.1262    3.8659 H   0  0  0  0  0  0  0  0  0  0  0  0
    0.3170    3.0169    5.6207 H   0  0  0  0  0  0  0  0  0  0  0  0
   -0.2488    5.6963    5.6189 H   0  0  0  0  0  0  0  0  0  0  0  0
   -1.4220    4.4992    6.0941 H   0  0  0  0  0  0  0  0  0  0  0  0
    1.4197    4.6673    7.2869 H   0  0  0  0  0  0  0  0  0  0  0  0
   -0.0082    5.3180    7.9440 H   0  0  0  0  0  0  0  0  0  0  0  0
    0.3164    3.5392    9.1552 H   0  0  0  0  0  0  0  0  0  0  0  0
   -1.8618    2.5444    7.3390 H   0  0  0  0  0  0  0  0  0  0  0  0
   -1.9975    3.7523    8.6053 H   0  0  0  0  0  0  0  0  0  0  0  0
   -1.6180    2.0915    9.0238 H   0  0  0  0  0  0  0  0  0  0  0  0
    1.0591    1.5699    9.0929 H   0  0  0  0  0  0  0  0  0  0  0  0
    2.9316    2.7547    7.3396 H   0  0  0  0  0  0  0  0  0  0  0  0
    3.1011    1.2522    8.1397 H   0  0  0  0  0  0  0  0  0  0  0  0
   -1.5807   -1.7984    5.8108 H   0  0  0  0  0  0  0  0  0  0  0  0
   -1.2308   -1.8329    4.0884 H   0  0  0  0  0  0  0  0  0  0  0  0
   -2.3033   -0.5943    4.7476 H   0  0  0  0  0  0  0  0  0  0  0  0
    0.3544   -1.5041    7.5527 H   0  0  0  0  0  0  0  0  0  0  0  0
    0.2047   -0.5622    8.9968 H   0  0  0  0  0  0  0  0  0  0  0  0
    1.7945   -0.7563    8.3005 H   0  0  0  0  0  0  0  0  0  0  0  0
  1  2  1  0
  1 28  1  0
  1 29  1  0
  1 30  1  0
  2 12  1  0
  2  3  2  3
  3  4  1  0
  3 31  1  0
  4 22  1  0
  4  5  1  0
  4 32  1  6
  5  6  1  0
  5  7  1  0
  5 33  1  6
  6 34  1  0
  6 35  1  0
  6 36  1  0
  7 19  1  0
  7  8  1  0
  7 37  1  6
  8 10  1  0
  8  9  1  0
  8 38  1  6
  9 10  1  0
 10 11  1  6
 10 12  1  0
 11 39  1  0
 11 40  1  0
 11 41  1  0
 12 13  1  0
 12 42  1  1
 13 14  1  0
 13 43  1  0
 13 44  1  0
 14 15  1  0
 14 45  1  0
 14 46  1  0
 15 16  1  0
 15 17  1  0
 15 47  1  1
 16 48  1  0
 16 49  1  0
 16 50  1  0
 17 25  1  0
 17 18  1  0
 17 51  1  1
 18 19  1  0
 18 52  1  0
 18 53  1  0
 19 27  1  6
 19 20  1  0
 20 21  1  0
 21 22  1  0
 22 23  1  6
 22 24  1  0
 23 54  1  0
 23 55  1  0
 23 56  1  0
 24 25  1  0
 25 26  1  1
 25 27  1  0
 26 57  1  0
 26 58  1  0
 26 59  1  0
M  END
>  <i_m_ct_stereo_status>  (176) 
1

>  <s_m_source_file>  (176) 
/var/tmp/pbs.5076255.sched01/tmpcsrx8n8z/40wzjmt8mb.sdf

>  <i_m_source_file_index>  (176) 
36

>  <i_lp_mmshare_version>  (176) 
48012

>  <i_f3d_flags>  (176) 
0

>  <s_epik_input>  (176) 
W0NAQF0xMjNbQ0BASF00W0NASF01W0NAQF0oTzUpKFtDSDNdKVtDQEBIXTZDKFxbQ0gzXSk9W0NIXS9bQ0BASF0oW0NASF00W0NIM10pW0NAXShPTzIpKFtDSDNdKU9bQ0BdKE8zKShbQ0gzXSlbQ0BASF0oW0NIMl0xKVtDQEhdKFtDSDNdKVtDSDJdW0NIMl02

>  <s_epik_cmdline>  (176) 
J2VwaWtfcHl0aG9uJywgJy1waHQnLCAnMi4wJywgJy1waCcsICc3LjAnLCAnLXRuJywgJzgnLCAnLW1hJywgJzIwMCcsICctaW1hZScsICc8aW5maWxlLm1hZT4nLCAnLW9tYWUnLCAnPG91dGZpbGUubWFlPic=

>  <r_lp_tautomer_probability>  (176) 
1

>  <r_epik_Ionization_Penalty>  (176) 
3.61141e-12

>  <r_epik_Ionization_Penalty_Charging>  (176) 
0

>  <r_epik_Ionization_Penalty_Neutral>  (176) 
3.61141e-12

>  <r_epik_State_Penalty>  (176) 
-0

>  <r_epik_Charging_Adjusted_Penalty>  (176) 
0

>  <i_epik_Tot_Q>  (176) 
0

>  <i_epik_Tot_abs_Q>  (176) 
0

>  <s_lp_Force_Field>  (176) 
OPLS3e

>  <r_lp_Energy>  (176) 
199.135

>  <b_lp_Chiralities_Consistent>  (176) 
1

>  <s_lp_Variant>  (176) 
55:0-1

>  <s_i_glide_gridfile>  (176) 
pfpi4k_grid

>  <i_i_glide_lignum>  (176) 
36

>  <i_i_glide_rotatable_bonds>  (176) 
0

>  <r_i_docking_score>  (176) 
-0.523386

>  <r_i_glide_ligand_efficiency>  (176) 
-0.0193847

>  <r_i_glide_ligand_efficiency_sa>  (176) 
-0.058154

>  <r_i_glide_ligand_efficiency_ln>  (176) 
-0.121836

>  <r_i_glide_gscore>  (176) 
-0.523386

>  <r_i_glide_lipo>  (176) 
0

>  <r_i_glide_hbond>  (176) 
0

>  <r_i_glide_metal>  (176) 
-0

>  <r_i_glide_rewards>  (176) 
-0.842138

>  <r_i_glide_evdw>  (176) 
-22.6143

>  <r_i_glide_ecoul>  (176) 
-1.332

>  <r_i_glide_erotb>  (176) 
0

>  <r_i_glide_esite>  (176) 
-0.0289048

>  <r_i_glide_emodel>  (176) 
-17.1925

>  <r_i_glide_energy>  (176) 
-23.9463

>  <r_i_glide_einternal>  (176) 
0

>  <r_i_glide_intrahb_reward>  (176) 
-0

>  <i_i_glide_confnum>  (176) 
1

>  <i_i_glide_posenum>  (176) 
2

>  <r_i_glide_eff_state_penalty>  (176) 
0

>  <ligand_id>  (176) 
55

>  <original_smiles>  (176) 
CC1=CC2C(C)C3C4OC4(C)C1CCC(C)C1CC34OOC2(C)OC1(C)O4

>  <smiles>  (176) 
[H]C1=C(C([H])([H])[H])C2([H])C([H])([H])C([H])([H])C([H])(C([H])([H])[H])C3([H])C([H])([H])C45OOC(C([H])([H])[H])(OC3(C([H])([H])[H])O4)C1([H])C([H])(C([H])([H])[H])C5([H])C1([H])OC12C([H])([H])[H]

$$$$
56:0:0
     RDKit          3D

 38 41  0  0  1  0  0  0  0  0999 V2000
    3.7898   -0.2996   -3.1975 C   0  0  0  0  0  0  0  0  0  0  0  0
    4.2108   -1.3851   -2.5310 C   0  0  0  0  0  0  0  0  0  0  0  0
    5.2858   -1.4079   -1.4700 C   0  0  0  0  0  0  0  0  0  0  0  0
    5.3899   -2.8977   -1.0454 C   0  0  2  0  0  0  0  0  0  0  0  0
    5.0048   -3.5940   -2.3700 C   0  0  0  0  0  0  0  0  0  0  0  0
    3.7719   -2.8047   -2.7970 C   0  0  1  0  0  0  0  0  0  0  0  0
    2.5966   -3.2050   -1.8858 C   0  0  0  0  0  0  0  0  0  0  0  0
    2.8837   -2.9536   -0.3870 C   0  0  0  0  0  0  0  0  0  0  0  0
    4.3459   -3.1953    0.0814 C   0  0  1  0  0  0  0  0  0  0  0  0
    4.5741   -4.5042    0.8950 C   0  0  2  0  0  0  0  0  0  0  0  0
    4.2205   -5.7989    0.1328 C   0  0  0  0  0  0  0  0  0  0  0  0
    3.6907   -4.4762    2.0312 O   0  0  0  0  0  0  0  0  0  0  0  0
    3.9416   -5.0881    3.2343 C   0  0  0  0  0  0  0  0  0  0  0  0
    3.0651   -5.2337    4.0821 O   0  0  0  0  0  0  0  0  0  0  0  0
    5.3372   -5.5178    3.4547 C   0  0  0  0  0  0  0  0  0  0  0  0
    6.3166   -5.2497    2.5753 C   0  0  0  0  0  0  0  0  0  0  0  0
    6.0318   -4.5732    1.3337 C   0  0  0  0  0  0  0  0  0  0  0  0
    7.0425   -4.0252    0.6323 C   0  0  0  0  0  0  0  0  0  0  0  0
    6.8275   -3.2572   -0.6051 C   0  0  0  0  0  0  0  0  0  0  0  0
    7.7688   -2.9020   -1.3101 O   0  0  0  0  0  0  0  0  0  0  0  0
    3.0249   -0.3718   -3.9587 H   0  0  0  0  0  0  0  0  0  0  0  0
    4.1888    0.6775   -2.9715 H   0  0  0  0  0  0  0  0  0  0  0  0
    6.2000   -1.0548   -1.9373 H   0  0  0  0  0  0  0  0  0  0  0  0
    5.0495   -0.7294   -0.6505 H   0  0  0  0  0  0  0  0  0  0  0  0
    5.7958   -3.4824   -3.1136 H   0  0  0  0  0  0  0  0  0  0  0  0
    4.8006   -4.6572   -2.2838 H   0  0  0  0  0  0  0  0  0  0  0  0
    3.5239   -2.9623   -3.8466 H   0  0  0  0  0  0  0  0  0  0  0  0
    1.7042   -2.6556   -2.1824 H   0  0  0  0  0  0  0  0  0  0  0  0
    2.3378   -4.2529   -2.0225 H   0  0  0  0  0  0  0  0  0  0  0  0
    2.6438   -1.9068   -0.1856 H   0  0  0  0  0  0  0  0  0  0  0  0
    2.1795   -3.5203    0.2191 H   0  0  0  0  0  0  0  0  0  0  0  0
    4.5052   -2.4181    0.8317 H   0  0  0  0  0  0  0  0  0  0  0  0
    4.9382   -6.0113   -0.6564 H   0  0  0  0  0  0  0  0  0  0  0  0
    3.2262   -5.7454   -0.3105 H   0  0  0  0  0  0  0  0  0  0  0  0
    4.2350   -6.6643    0.7966 H   0  0  0  0  0  0  0  0  0  0  0  0
    5.5562   -6.0190    4.3848 H   0  0  0  0  0  0  0  0  0  0  0  0
    7.3269   -5.5498    2.8119 H   0  0  0  0  0  0  0  0  0  0  0  0
    8.0615   -4.1080    0.9887 H   0  0  0  0  0  0  0  0  0  0  0  0
  1  2  2  0
  1 21  1  0
  1 22  1  0
  2  6  1  0
  2  3  1  0
  4  3  1  6
  3 23  1  0
  3 24  1  0
  4  9  1  0
  4 19  1  0
  4  5  1  0
  5  6  1  0
  5 25  1  0
  5 26  1  0
  6  7  1  0
  6 27  1  6
  7  8  1  0
  7 28  1  0
  7 29  1  0
  8  9  1  0
  8 30  1  0
  8 31  1  0
  9 10  1  0
  9 32  1  1
 10 17  1  0
 10 11  1  6
 10 12  1  0
 11 33  1  0
 11 34  1  0
 11 35  1  0
 12 13  1  0
 13 14  2  0
 13 15  1  0
 15 16  2  0
 15 36  1  0
 16 17  1  0
 16 37  1  0
 17 18  2  0
 18 19  1  0
 18 38  1  0
 19 20  2  0
M  END
>  <i_m_ct_stereo_status>  (177) 
1

>  <s_m_source_file>  (177) 
/var/tmp/pbs.5076255.sched01/tmpcsrx8n8z/40wzjmt8mb.sdf

>  <i_m_source_file_index>  (177) 
37

>  <i_lp_mmshare_version>  (177) 
48012

>  <i_f3d_flags>  (177) 
0

>  <s_epik_input>  (177) 
W0NIMl09QyhbQ0gyXTEpW0NAQEhdKFtDSDJdMilbQ0gyXVtDSDJdW0NASF0oW0NAXTEyMylbQ0BAXTQoW0NIM10pQyg9W0NIXUMzPU8pW0NIXT1bQ0hdQyhPNCk9Tw==

>  <s_epik_cmdline>  (177) 
J2VwaWtfcHl0aG9uJywgJy1waHQnLCAnMi4wJywgJy1waCcsICc3LjAnLCAnLXRuJywgJzgnLCAnLW1hJywgJzIwMCcsICctaW1hZScsICc8aW5maWxlLm1hZT4nLCAnLW9tYWUnLCAnPG91dGZpbGUubWFlPic=

>  <r_lp_tautomer_probability>  (177) 
1

>  <r_epik_Ionization_Penalty>  (177) 
2.37868e-11

>  <r_epik_Ionization_Penalty_Charging>  (177) 
0

>  <r_epik_Ionization_Penalty_Neutral>  (177) 
2.37868e-11

>  <r_epik_State_Penalty>  (177) 
-0

>  <r_epik_Charging_Adjusted_Penalty>  (177) 
0

>  <i_epik_Tot_Q>  (177) 
0

>  <i_epik_Tot_abs_Q>  (177) 
0

>  <s_epik_Chemistry_Notes>  (177) 
This compound has an ester and may undergo hydrolysis at high or low pH.

>  <s_lp_Force_Field>  (177) 
OPLS3e

>  <r_lp_Energy>  (177) 
38.1394

>  <b_lp_Chiralities_Consistent>  (177) 
1

>  <s_lp_Variant>  (177) 
56:0-1

>  <s_i_glide_gridfile>  (177) 
pfpi4k_grid

>  <i_i_glide_lignum>  (177) 
37

>  <i_i_glide_rotatable_bonds>  (177) 
0

>  <r_i_docking_score>  (177) 
-3.78616

>  <r_i_glide_ligand_efficiency>  (177) 
-0.189308

>  <r_i_glide_ligand_efficiency_sa>  (177) 
-0.513862

>  <r_i_glide_ligand_efficiency_ln>  (177) 
-0.947552

>  <r_i_glide_gscore>  (177) 
-3.78616

>  <r_i_glide_lipo>  (177) 
-0.653495

>  <r_i_glide_hbond>  (177) 
-0.0494812

>  <r_i_glide_metal>  (177) 
-0

>  <r_i_glide_rewards>  (177) 
-1.73058

>  <r_i_glide_evdw>  (177) 
-24.2719

>  <r_i_glide_ecoul>  (177) 
-0.926746

>  <r_i_glide_erotb>  (177) 
0

>  <r_i_glide_esite>  (177) 
0

>  <r_i_glide_emodel>  (177) 
-30.9168

>  <r_i_glide_energy>  (177) 
-25.1986

>  <r_i_glide_einternal>  (177) 
0

>  <r_i_glide_intrahb_reward>  (177) 
-0

>  <i_i_glide_confnum>  (177) 
1

>  <i_i_glide_posenum>  (177) 
27

>  <r_i_glide_eff_state_penalty>  (177) 
0

>  <ligand_id>  (177) 
56

>  <original_smiles>  (177) 
C=C1CC23CC1CCC2C1(C)OC(=O)C=CC1=CC3=O

>  <smiles>  (177) 
[H]C([H])=C1C([H])([H])C23C(=O)C([H])=C4C([H])=C([H])C(=O)OC4(C([H])([H])[H])C2([H])C([H])([H])C([H])([H])C1([H])C3([H])[H]

$$$$
56:0:1
     RDKit          3D

 38 41  0  0  1  0  0  0  0  0999 V2000
    4.2024   -0.1438   -3.1209 C   0  0  0  0  0  0  0  0  0  0  0  0
    4.4779   -1.0709   -2.1907 C   0  0  0  0  0  0  0  0  0  0  0  0
    4.4209   -0.8988   -0.6846 C   0  0  0  0  0  0  0  0  0  0  0  0
    4.7943   -2.2896   -0.1110 C   0  0  2  0  0  0  0  0  0  0  0  0
    5.7511   -2.7964   -1.2147 C   0  0  0  0  0  0  0  0  0  0  0  0
    4.9802   -2.4564   -2.4824 C   0  0  1  0  0  0  0  0  0  0  0  0
    3.8208   -3.4399   -2.6235 C   0  0  0  0  0  0  0  0  0  0  0  0
    2.8511   -3.4095   -1.4137 C   0  0  0  0  0  0  0  0  0  0  0  0
    3.5064   -3.1762   -0.0181 C   0  0  1  0  0  0  0  0  0  0  0  0
    3.6267   -4.4347    0.8965 C   0  0  2  0  0  0  0  0  0  0  0  0
    4.4773   -5.5771    0.2974 C   0  0  0  0  0  0  0  0  0  0  0  0
    2.3106   -4.9929    1.0617 O   0  0  0  0  0  0  0  0  0  0  0  0
    1.8778   -5.6728    2.1713 C   0  0  0  0  0  0  0  0  0  0  0  0
    0.8048   -6.2737    2.1753 O   0  0  0  0  0  0  0  0  0  0  0  0
    2.7421   -5.5739    3.3676 C   0  0  0  0  0  0  0  0  0  0  0  0
    3.8203   -4.7719    3.4062 C   0  0  0  0  0  0  0  0  0  0  0  0
    4.2221   -4.0229    2.2369 C   0  0  0  0  0  0  0  0  0  0  0  0
    5.0910   -3.0033    2.3824 C   0  0  0  0  0  0  0  0  0  0  0  0
    5.5121   -2.1622    1.2490 C   0  0  0  0  0  0  0  0  0  0  0  0
    6.4495   -1.3725    1.3524 O   0  0  0  0  0  0  0  0  0  0  0  0
    4.2944   -0.3527   -4.1780 H   0  0  0  0  0  0  0  0  0  0  0  0
    3.8960    0.8476   -2.8314 H   0  0  0  0  0  0  0  0  0  0  0  0
    5.1473   -0.1400   -0.4024 H   0  0  0  0  0  0  0  0  0  0  0  0
    3.4432   -0.5579   -0.3462 H   0  0  0  0  0  0  0  0  0  0  0  0
    6.6921   -2.2449   -1.1932 H   0  0  0  0  0  0  0  0  0  0  0  0
    6.0005   -3.8507   -1.1536 H   0  0  0  0  0  0  0  0  0  0  0  0
    5.6117   -2.4830   -3.3674 H   0  0  0  0  0  0  0  0  0  0  0  0
    3.2504   -3.2352   -3.5307 H   0  0  0  0  0  0  0  0  0  0  0  0
    4.2590   -4.4255   -2.7493 H   0  0  0  0  0  0  0  0  0  0  0  0
    2.1440   -2.6015   -1.5922 H   0  0  0  0  0  0  0  0  0  0  0  0
    2.2230   -4.2980   -1.4049 H   0  0  0  0  0  0  0  0  0  0  0  0
    2.7723   -2.5615    0.5125 H   0  0  0  0  0  0  0  0  0  0  0  0
    5.5369   -5.3327    0.2904 H   0  0  0  0  0  0  0  0  0  0  0  0
    4.1738   -5.8191   -0.7203 H   0  0  0  0  0  0  0  0  0  0  0  0
    4.3798   -6.4881    0.8904 H   0  0  0  0  0  0  0  0  0  0  0  0
    2.4477   -6.1376    4.2398 H   0  0  0  0  0  0  0  0  0  0  0  0
    4.3922   -4.7054    4.3192 H   0  0  0  0  0  0  0  0  0  0  0  0
    5.4966   -2.7575    3.3520 H   0  0  0  0  0  0  0  0  0  0  0  0
  1  2  2  0
  1 21  1  0
  1 22  1  0
  2  6  1  0
  2  3  1  0
  4  3  1  6
  3 23  1  0
  3 24  1  0
  4  9  1  0
  4 19  1  0
  4  5  1  0
  5  6  1  0
  5 25  1  0
  5 26  1  0
  6  7  1  0
  6 27  1  6
  7  8  1  0
  7 28  1  0
  7 29  1  0
  8  9  1  0
  8 30  1  0
  8 31  1  0
  9 10  1  0
  9 32  1  1
 10 17  1  0
 10 11  1  6
 10 12  1  0
 11 33  1  0
 11 34  1  0
 11 35  1  0
 12 13  1  0
 13 14  2  0
 13 15  1  0
 15 16  2  0
 15 36  1  0
 16 17  1  0
 16 37  1  0
 17 18  2  0
 18 19  1  0
 18 38  1  0
 19 20  2  0
M  END
>  <i_m_ct_stereo_status>  (178) 
1

>  <s_m_source_file>  (178) 
/var/tmp/pbs.5076255.sched01/tmpcsrx8n8z/40wzjmt8mb.sdf

>  <i_m_source_file_index>  (178) 
37

>  <i_lp_mmshare_version>  (178) 
48012

>  <i_f3d_flags>  (178) 
0

>  <s_epik_input>  (178) 
W0NIMl09QyhbQ0gyXTEpW0NAQEhdKFtDSDJdMilbQ0gyXVtDSDJdW0NASF0oW0NAXTEyMylbQ0BAXTQoW0NIM10pQyg9W0NIXUMzPU8pW0NIXT1bQ0hdQyhPNCk9Tw==

>  <s_epik_cmdline>  (178) 
J2VwaWtfcHl0aG9uJywgJy1waHQnLCAnMi4wJywgJy1waCcsICc3LjAnLCAnLXRuJywgJzgnLCAnLW1hJywgJzIwMCcsICctaW1hZScsICc8aW5maWxlLm1hZT4nLCAnLW9tYWUnLCAnPG91dGZpbGUubWFlPic=

>  <r_lp_tautomer_probability>  (178) 
1

>  <r_epik_Ionization_Penalty>  (178) 
2.37868e-11

>  <r_epik_Ionization_Penalty_Charging>  (178) 
0

>  <r_epik_Ionization_Penalty_Neutral>  (178) 
2.37868e-11

>  <r_epik_State_Penalty>  (178) 
-0

>  <r_epik_Charging_Adjusted_Penalty>  (178) 
0

>  <i_epik_Tot_Q>  (178) 
0

>  <i_epik_Tot_abs_Q>  (178) 
0

>  <s_epik_Chemistry_Notes>  (178) 
This compound has an ester and may undergo hydrolysis at high or low pH.

>  <s_lp_Force_Field>  (178) 
OPLS3e

>  <r_lp_Energy>  (178) 
38.1394

>  <b_lp_Chiralities_Consistent>  (178) 
1

>  <s_lp_Variant>  (178) 
56:0-1

>  <s_i_glide_gridfile>  (178) 
pfpi4k_grid

>  <i_i_glide_lignum>  (178) 
37

>  <i_i_glide_rotatable_bonds>  (178) 
0

>  <r_i_docking_score>  (178) 
-3.59811

>  <r_i_glide_ligand_efficiency>  (178) 
-0.179906

>  <r_i_glide_ligand_efficiency_sa>  (178) 
-0.488339

>  <r_i_glide_ligand_efficiency_ln>  (178) 
-0.900489

>  <r_i_glide_gscore>  (178) 
-3.59811

>  <r_i_glide_lipo>  (178) 
-0.513388

>  <r_i_glide_hbond>  (178) 
-0.0320244

>  <r_i_glide_metal>  (178) 
-0

>  <r_i_glide_rewards>  (178) 
-1.67699

>  <r_i_glide_evdw>  (178) 
-20.6192

>  <r_i_glide_ecoul>  (178) 
-2.08252

>  <r_i_glide_erotb>  (178) 
0

>  <r_i_glide_esite>  (178) 
-0.0323721

>  <r_i_glide_emodel>  (178) 
-28.1157

>  <r_i_glide_energy>  (178) 
-22.7017

>  <r_i_glide_einternal>  (178) 
0

>  <r_i_glide_intrahb_reward>  (178) 
-0

>  <i_i_glide_confnum>  (178) 
2

>  <i_i_glide_posenum>  (178) 
1

>  <r_i_glide_eff_state_penalty>  (178) 
0

>  <ligand_id>  (178) 
56

>  <original_smiles>  (178) 
C=C1CC23CC1CCC2C1(C)OC(=O)C=CC1=CC3=O

>  <smiles>  (178) 
[H]C([H])=C1C([H])([H])C23C(=O)C([H])=C4C([H])=C([H])C(=O)OC4(C([H])([H])[H])C2([H])C([H])([H])C([H])([H])C1([H])C3([H])[H]

$$$$
56:0:2
     RDKit          3D

 38 41  0  0  1  0  0  0  0  0999 V2000
    2.1396   -1.6286    4.8977 C   0  0  0  0  0  0  0  0  0  0  0  0
    2.9375   -1.9800    3.8760 C   0  0  0  0  0  0  0  0  0  0  0  0
    2.6514   -3.0680    2.8639 C   0  0  0  0  0  0  0  0  0  0  0  0
    3.8761   -3.0414    1.9042 C   0  0  2  0  0  0  0  0  0  0  0  0
    4.9868   -2.5940    2.8812 C   0  0  0  0  0  0  0  0  0  0  0  0
    4.3191   -1.4311    3.6058 C   0  0  1  0  0  0  0  0  0  0  0  0
    4.2761   -0.2309    2.6437 C   0  0  0  0  0  0  0  0  0  0  0  0
    3.4903   -0.5260    1.3443 C   0  0  0  0  0  0  0  0  0  0  0  0
    3.6475   -1.9712    0.7778 C   0  0  1  0  0  0  0  0  0  0  0  0
    4.5757   -2.1024   -0.4694 C   0  0  2  0  0  0  0  0  0  0  0  0
    6.0327   -1.6511   -0.2280 C   0  0  0  0  0  0  0  0  0  0  0  0
    4.0753   -1.2237   -1.4943 O   0  0  0  0  0  0  0  0  0  0  0  0
    4.1972   -1.4405   -2.8455 C   0  0  0  0  0  0  0  0  0  0  0  0
    3.9639   -0.5648   -3.6743 O   0  0  0  0  0  0  0  0  0  0  0  0
    4.6093   -2.8011   -3.2437 C   0  0  0  0  0  0  0  0  0  0  0  0
    4.7625   -3.7902   -2.3522 C   0  0  0  0  0  0  0  0  0  0  0  0
    4.5867   -3.5519   -0.9421 C   0  0  0  0  0  0  0  0  0  0  0  0
    4.4221   -4.6013   -0.1160 C   0  0  0  0  0  0  0  0  0  0  0  0
    4.1704   -4.4451    1.3238 C   0  0  0  0  0  0  0  0  0  0  0  0
    4.2114   -5.4116    2.0818 O   0  0  0  0  0  0  0  0  0  0  0  0
    2.4380   -0.8628    5.5991 H   0  0  0  0  0  0  0  0  0  0  0  0
    1.1823   -2.1049    5.0469 H   0  0  0  0  0  0  0  0  0  0  0  0
    2.5654   -4.0114    3.4044 H   0  0  0  0  0  0  0  0  0  0  0  0
    1.7022   -2.8929    2.3586 H   0  0  0  0  0  0  0  0  0  0  0  0
    5.2187   -3.3875    3.5947 H   0  0  0  0  0  0  0  0  0  0  0  0
    5.9244   -2.3074    2.4153 H   0  0  0  0  0  0  0  0  0  0  0  0
    4.8412   -1.1729    4.5263 H   0  0  0  0  0  0  0  0  0  0  0  0
    3.8178    0.6255    3.1413 H   0  0  0  0  0  0  0  0  0  0  0  0
    5.2935    0.0779    2.4030 H   0  0  0  0  0  0  0  0  0  0  0  0
    2.4306   -0.3662    1.5565 H   0  0  0  0  0  0  0  0  0  0  0  0
    3.7332    0.2230    0.5907 H   0  0  0  0  0  0  0  0  0  0  0  0
    2.6607   -2.1941    0.3659 H   0  0  0  0  0  0  0  0  0  0  0  0
    6.5765   -2.3521    0.4016 H   0  0  0  0  0  0  0  0  0  0  0  0
    6.0819   -0.6611    0.2259 H   0  0  0  0  0  0  0  0  0  0  0  0
    6.5826   -1.6108   -1.1675 H   0  0  0  0  0  0  0  0  0  0  0  0
    4.7342   -2.9983   -4.2956 H   0  0  0  0  0  0  0  0  0  0  0  0
    5.0131   -4.7785   -2.7091 H   0  0  0  0  0  0  0  0  0  0  0  0
    4.4377   -5.6111   -0.5062 H   0  0  0  0  0  0  0  0  0  0  0  0
  1  2  2  0
  1 21  1  0
  1 22  1  0
  2  6  1  0
  2  3  1  0
  4  3  1  1
  3 23  1  0
  3 24  1  0
  4  9  1  0
  4 19  1  0
  4  5  1  0
  5  6  1  0
  5 25  1  0
  5 26  1  0
  6  7  1  0
  6 27  1  1
  7  8  1  0
  7 28  1  0
  7 29  1  0
  8  9  1  0
  8 30  1  0
  8 31  1  0
  9 10  1  0
  9 32  1  6
 10 17  1  0
 10 11  1  1
 10 12  1  0
 11 33  1  0
 11 34  1  0
 11 35  1  0
 12 13  1  0
 13 14  2  0
 13 15  1  0
 15 16  2  0
 15 36  1  0
 16 17  1  0
 16 37  1  0
 17 18  2  0
 18 19  1  0
 18 38  1  0
 19 20  2  0
M  END
>  <i_m_ct_stereo_status>  (179) 
1

>  <s_m_source_file>  (179) 
/var/tmp/pbs.5076255.sched01/tmpcsrx8n8z/40wzjmt8mb.sdf

>  <i_m_source_file_index>  (179) 
37

>  <i_lp_mmshare_version>  (179) 
48012

>  <i_f3d_flags>  (179) 
0

>  <s_epik_input>  (179) 
W0NIMl09QyhbQ0gyXTEpW0NAQEhdKFtDSDJdMilbQ0gyXVtDSDJdW0NASF0oW0NAXTEyMylbQ0BAXTQoW0NIM10pQyg9W0NIXUMzPU8pW0NIXT1bQ0hdQyhPNCk9Tw==

>  <s_epik_cmdline>  (179) 
J2VwaWtfcHl0aG9uJywgJy1waHQnLCAnMi4wJywgJy1waCcsICc3LjAnLCAnLXRuJywgJzgnLCAnLW1hJywgJzIwMCcsICctaW1hZScsICc8aW5maWxlLm1hZT4nLCAnLW9tYWUnLCAnPG91dGZpbGUubWFlPic=

>  <r_lp_tautomer_probability>  (179) 
1

>  <r_epik_Ionization_Penalty>  (179) 
2.37868e-11

>  <r_epik_Ionization_Penalty_Charging>  (179) 
0

>  <r_epik_Ionization_Penalty_Neutral>  (179) 
2.37868e-11

>  <r_epik_State_Penalty>  (179) 
-0

>  <r_epik_Charging_Adjusted_Penalty>  (179) 
0

>  <i_epik_Tot_Q>  (179) 
0

>  <i_epik_Tot_abs_Q>  (179) 
0

>  <s_epik_Chemistry_Notes>  (179) 
This compound has an ester and may undergo hydrolysis at high or low pH.

>  <s_lp_Force_Field>  (179) 
OPLS3e

>  <r_lp_Energy>  (179) 
38.1394

>  <b_lp_Chiralities_Consistent>  (179) 
1

>  <s_lp_Variant>  (179) 
56:0-1

>  <s_i_glide_gridfile>  (179) 
pfpi4k_grid

>  <i_i_glide_lignum>  (179) 
37

>  <i_i_glide_rotatable_bonds>  (179) 
0

>  <r_i_docking_score>  (179) 
-3.17967

>  <r_i_glide_ligand_efficiency>  (179) 
-0.158984

>  <r_i_glide_ligand_efficiency_sa>  (179) 
-0.431548

>  <r_i_glide_ligand_efficiency_ln>  (179) 
-0.795767

>  <r_i_glide_gscore>  (179) 
-3.17967

>  <r_i_glide_lipo>  (179) 
-0.271325

>  <r_i_glide_hbond>  (179) 
0

>  <r_i_glide_metal>  (179) 
-0

>  <r_i_glide_rewards>  (179) 
-1.59231

>  <r_i_glide_evdw>  (179) 
-25.7953

>  <r_i_glide_ecoul>  (179) 
-0.0896404

>  <r_i_glide_erotb>  (179) 
0

>  <r_i_glide_esite>  (179) 
-0.0128218

>  <r_i_glide_emodel>  (179) 
-30.6949

>  <r_i_glide_energy>  (179) 
-25.8849

>  <r_i_glide_einternal>  (179) 
0

>  <r_i_glide_intrahb_reward>  (179) 
-0

>  <i_i_glide_confnum>  (179) 
1

>  <i_i_glide_posenum>  (179) 
2

>  <r_i_glide_eff_state_penalty>  (179) 
0

>  <ligand_id>  (179) 
56

>  <original_smiles>  (179) 
C=C1CC23CC1CCC2C1(C)OC(=O)C=CC1=CC3=O

>  <smiles>  (179) 
[H]C([H])=C1C([H])([H])C23C(=O)C([H])=C4C([H])=C([H])C(=O)OC4(C([H])([H])[H])C2([H])C([H])([H])C([H])([H])C1([H])C3([H])[H]

$$$$
57:0:0
     RDKit          3D

116125  0  0  1  0  0  0  0  0999 V2000
   -2.0940   -4.5145    8.0699 C   0  0  0  0  0  0  0  0  0  0  0  0
   -1.2630   -3.8220    7.1493 O   0  0  0  0  0  0  0  0  0  0  0  0
   -0.1086   -4.5038    6.7659 C   0  0  2  0  0  0  0  0  0  0  0  0
    0.6327   -4.8912    7.8691 O   0  0  0  0  0  0  0  0  0  0  0  0
    2.0020   -5.2608    7.8058 C   0  0  0  0  0  0  0  0  0  0  0  0
    3.0339   -4.1291    7.4690 C   0  0  2  0  0  0  0  0  0  0  0  0
    4.3390   -4.6939    8.1305 C   0  0  0  0  0  0  0  0  0  0  0  0
    2.7202   -2.7847    8.2339 C   0  0  0  0  0  0  0  0  0  0  0  0
    3.5987   -1.9476    8.4099 O   0  0  0  0  0  0  0  0  0  0  0  0
    1.3257   -2.4641    8.8304 C   0  0  0  0  0  0  0  0  0  0  0  0
    0.9347   -3.0786    9.8168 O   0  0  0  0  0  0  0  0  0  0  0  0
    0.5203   -1.2539    8.3420 C   0  0  0  0  0  0  0  0  0  0  0  0
   -0.0151   -1.0931    6.8570 C   0  0  1  0  0  0  0  0  0  0  0  0
   -0.2835    0.5095    6.5532 C   0  0  1  0  0  0  0  0  0  0  0  0
   -0.4169    1.1182    7.8495 O   0  0  0  0  0  0  0  0  0  0  0  0
   -0.0498    2.3974    8.3331 C   0  0  0  0  0  0  0  0  0  0  0  0
   -0.8476    3.5665    7.6946 C   0  0  0  0  0  0  0  0  0  0  0  0
   -0.5166    2.3050    9.7957 C   0  0  0  0  0  0  0  0  0  0  0  0
    1.3210    2.7058    8.4853 O   0  0  0  0  0  0  0  0  0  0  0  0
    2.2148    2.6382    7.4031 C   0  0  1  0  0  0  0  0  0  0  0  0
    2.8539    1.2381    7.3344 C   0  0  0  0  0  0  0  0  0  0  0  0
    3.9038    1.1123    6.2178 C   0  0  2  0  0  0  0  0  0  0  0  0
    3.9098    2.1922    5.3058 O   0  0  0  0  0  0  0  0  0  0  0  0
    2.9642    1.8695    4.3173 C   0  0  2  0  0  0  0  0  0  0  0  0
    1.5666    2.2469    5.0830 C   0  0  2  0  0  0  0  0  0  0  0  0
    1.7621    3.1377    6.1769 O   0  0  0  0  0  0  0  0  0  0  0  0
    0.1792    1.4817    5.3272 C   0  0  1  0  0  0  0  0  0  0  0  0
   -0.6366    1.4728    4.1624 O   0  0  0  0  0  0  0  0  0  0  0  0
    3.4107    0.4104    3.8824 C   0  0  1  0  0  0  0  0  0  0  0  0
    2.1568   -0.0651    3.0892 C   0  0  0  0  0  0  0  0  0  0  0  0
    4.4694   -0.0518    2.8286 C   0  0  0  0  0  0  0  0  0  0  0  0
    4.8501   -1.6240    2.7723 C   0  0  0  0  0  0  0  0  0  0  0  0
    4.2252   -2.9186    3.5662 C   0  0  2  0  0  0  0  0  0  0  0  0
    5.2047   -4.1120    3.2954 C   0  0  0  0  0  0  0  0  0  0  0  0
    2.9462   -3.4470    2.8824 C   0  0  0  0  0  0  0  0  0  0  0  0
    2.7247   -3.2442    1.3594 C   0  0  0  0  0  0  0  0  0  0  0  0
    3.7643   -3.7892    0.3423 C   0  0  0  0  0  0  0  0  0  0  0  0
    3.4593   -3.3686   -1.0913 C   0  0  0  0  0  0  0  0  0  0  0  0
    4.2745   -2.7996   -1.9836 C   0  0  0  0  0  0  0  0  0  0  0  0
    5.7313   -2.3686   -1.8741 C   0  0  0  0  0  0  0  0  0  0  0  0
    3.5391   -2.6367   -3.2423 C   0  0  0  0  0  0  0  0  0  0  0  0
    3.9880   -2.1806   -4.2962 O   0  0  0  0  0  0  0  0  0  0  0  0
    2.2854   -3.1004   -3.0447 O   0  0  0  0  0  0  0  0  0  0  0  0
    2.1054   -3.5983   -1.7152 C   0  0  0  0  0  0  0  0  0  0  0  0
    1.9674   -4.0449    3.5974 C   0  0  0  0  0  0  0  0  0  0  0  0
    1.9005   -4.3033    5.1037 C   0  0  2  0  0  0  0  0  0  0  0  0
    0.6613   -3.6232    5.7192 C   0  0  2  0  0  0  0  0  0  0  0  0
    0.6285   -2.0136    5.7321 C   0  0  1  0  0  0  0  0  0  0  0  0
   -0.2748   -1.7730    4.4805 C   0  0  0  0  0  0  0  0  0  0  0  0
    1.9681   -1.3015    5.5996 C   0  0  0  0  0  0  0  0  0  0  0  0
    3.3067   -1.4634    5.4679 C   0  0  0  0  0  0  0  0  0  0  0  0
    4.0214   -2.8045    5.1860 C   0  0  2  0  0  0  0  0  0  0  0  0
    5.4028   -2.9382    5.8805 C   0  0  0  0  0  0  0  0  0  0  0  0
    3.2035   -3.9982    5.8593 C   0  0  1  0  0  0  0  0  0  0  0  0
    4.0464   -0.1189    5.2303 C   0  0  2  0  0  0  0  0  0  0  0  0
    5.6338   -0.1027    5.2976 C   0  0  0  0  0  0  0  0  0  0  0  0
   -2.9773   -3.9175    8.2834 H   0  0  0  0  0  0  0  0  0  0  0  0
   -1.5996   -4.6986    9.0229 H   0  0  0  0  0  0  0  0  0  0  0  0
   -2.4246   -5.4481    7.6496 H   0  0  0  0  0  0  0  0  0  0  0  0
   -0.4364   -5.4435    6.3046 H   0  0  0  0  0  0  0  0  0  0  0  0
    2.1859   -5.6333    8.8142 H   0  0  0  0  0  0  0  0  0  0  0  0
    2.1431   -6.1437    7.1758 H   0  0  0  0  0  0  0  0  0  0  0  0
    4.7096   -5.5829    7.6117 H   0  0  0  0  0  0  0  0  0  0  0  0
    4.1816   -4.9855    9.1729 H   0  0  0  0  0  0  0  0  0  0  0  0
    5.1634   -3.9874    8.2007 H   0  0  0  0  0  0  0  0  0  0  0  0
   -0.3420   -1.2115    9.0027 H   0  0  0  0  0  0  0  0  0  0  0  0
    1.1058   -0.4093    8.6812 H   0  0  0  0  0  0  0  0  0  0  0  0
   -1.0190   -1.4942    6.8983 H   0  0  0  0  0  0  0  0  0  0  0  0
   -1.3430    0.4668    6.3018 H   0  0  0  0  0  0  0  0  0  0  0  0
   -0.3200    4.0309    6.8683 H   0  0  0  0  0  0  0  0  0  0  0  0
   -1.0033    4.3604    8.4270 H   0  0  0  0  0  0  0  0  0  0  0  0
   -1.8256    3.2212    7.3560 H   0  0  0  0  0  0  0  0  0  0  0  0
   -0.0018    1.4822   10.3018 H   0  0  0  0  0  0  0  0  0  0  0  0
   -1.5938    2.1234    9.8604 H   0  0  0  0  0  0  0  0  0  0  0  0
   -0.2857    3.2263   10.3390 H   0  0  0  0  0  0  0  0  0  0  0  0
    2.9891    3.3516    7.6836 H   0  0  0  0  0  0  0  0  0  0  0  0
    3.3420    1.0656    8.2926 H   0  0  0  0  0  0  0  0  0  0  0  0
    2.0941    0.5036    7.3062 H   0  0  0  0  0  0  0  0  0  0  0  0
    4.7994    1.3098    6.8057 H   0  0  0  0  0  0  0  0  0  0  0  0
    3.1137    2.5513    3.4771 H   0  0  0  0  0  0  0  0  0  0  0  0
    1.2330    2.9894    4.3635 H   0  0  0  0  0  0  0  0  0  0  0  0
   -0.3846    2.3434    5.6428 H   0  0  0  0  0  0  0  0  0  0  0  0
   -0.4710    2.2564    3.6580 H   0  0  0  0  0  0  0  0  0  0  0  0
    2.1410   -1.1215    2.9150 H   0  0  0  0  0  0  0  0  0  0  0  0
    2.0672    0.4304    2.1207 H   0  0  0  0  0  0  0  0  0  0  0  0
    1.2254    0.1482    3.5519 H   0  0  0  0  0  0  0  0  0  0  0  0
    4.1519    0.2438    1.8244 H   0  0  0  0  0  0  0  0  0  0  0  0
    5.3811    0.5453    2.9154 H   0  0  0  0  0  0  0  0  0  0  0  0
    4.7818   -1.7846    1.7049 H   0  0  0  0  0  0  0  0  0  0  0  0
    5.9287   -1.6939    2.8835 H   0  0  0  0  0  0  0  0  0  0  0  0
    6.2084   -3.9684    3.6710 H   0  0  0  0  0  0  0  0  0  0  0  0
    5.3658   -4.3413    2.2512 H   0  0  0  0  0  0  0  0  0  0  0  0
    4.8420   -5.0434    3.7270 H   0  0  0  0  0  0  0  0  0  0  0  0
    1.8227   -3.7931    1.1174 H   0  0  0  0  0  0  0  0  0  0  0  0
    2.4945   -2.1973    1.1398 H   0  0  0  0  0  0  0  0  0  0  0  0
    4.7777   -3.4325    0.5102 H   0  0  0  0  0  0  0  0  0  0  0  0
    3.7777   -4.8795    0.4096 H   0  0  0  0  0  0  0  0  0  0  0  0
    6.3397   -2.9126   -2.5953 H   0  0  0  0  0  0  0  0  0  0  0  0
    6.1664   -2.5233   -0.8851 H   0  0  0  0  0  0  0  0  0  0  0  0
    5.8092   -1.3098   -2.1102 H   0  0  0  0  0  0  0  0  0  0  0  0
    1.8160   -4.6514   -1.6787 H   0  0  0  0  0  0  0  0  0  0  0  0
    1.3239   -3.0592   -1.1818 H   0  0  0  0  0  0  0  0  0  0  0  0
    1.0811   -4.3891    3.0834 H   0  0  0  0  0  0  0  0  0  0  0  0
    1.7313   -5.3807    5.1548 H   0  0  0  0  0  0  0  0  0  0  0  0
   -0.0387   -3.9096    4.9396 H   0  0  0  0  0  0  0  0  0  0  0  0
   -1.2488   -2.2563    4.5978 H   0  0  0  0  0  0  0  0  0  0  0  0
    0.1635   -2.1392    3.5528 H   0  0  0  0  0  0  0  0  0  0  0  0
   -0.5586   -0.7689    4.2958 H   0  0  0  0  0  0  0  0  0  0  0  0
    1.7462   -0.2783    5.5587 H   0  0  0  0  0  0  0  0  0  0  0  0
    5.7029   -3.9730    6.0397 H   0  0  0  0  0  0  0  0  0  0  0  0
    5.4672   -2.4122    6.8247 H   0  0  0  0  0  0  0  0  0  0  0  0
    6.2057   -2.5791    5.2663 H   0  0  0  0  0  0  0  0  0  0  0  0
    3.7861   -4.8859    5.6188 H   0  0  0  0  0  0  0  0  0  0  0  0
    6.0397    0.8899    5.0842 H   0  0  0  0  0  0  0  0  0  0  0  0
    6.1951   -0.6904    4.6040 H   0  0  0  0  0  0  0  0  0  0  0  0
    6.0105   -0.3747    6.2815 H   0  0  0  0  0  0  0  0  0  0  0  0
  1  2  1  0
  1 57  1  0
  1 58  1  0
  1 59  1  0
  2  3  1  0
  3 47  1  0
  3  4  1  0
  3 60  1  6
  4  5  1  0
  5  6  1  0
  5 61  1  0
  5 62  1  0
  6 54  1  0
  6  7  1  1
  6  8  1  0
  7 63  1  0
  7 64  1  0
  7 65  1  0
  8  9  2  0
  8 10  1  0
 10 11  2  0
 10 12  1  0
 12 13  1  0
 12 66  1  0
 12 67  1  0
 13 48  1  0
 13 14  1  0
 13 68  1  1
 14 27  1  0
 14 15  1  0
 14 69  1  6
 15 16  1  0
 16 17  1  0
 16 18  1  0
 16 19  1  0
 17 70  1  0
 17 71  1  0
 17 72  1  0
 18 73  1  0
 18 74  1  0
 18 75  1  0
 19 20  1  0
 20 26  1  0
 20 21  1  0
 20 76  1  1
 21 22  1  0
 21 77  1  0
 21 78  1  0
 22 55  1  0
 22 23  1  0
 22 79  1  1
 23 24  1  0
 24 25  1  0
 24 29  1  0
 24 80  1  6
 25 26  1  0
 25 27  1  0
 25 81  1  6
 27 28  1  0
 27 82  1  1
 28 83  1  0
 29 55  1  0
 29 30  1  6
 29 31  1  0
 30 84  1  0
 30 85  1  0
 30 86  1  0
 31 32  1  0
 31 87  1  0
 31 88  1  0
 32 33  1  0
 32 89  1  0
 32 90  1  0
 33 52  1  0
 33 34  1  1
 33 35  1  0
 34 91  1  0
 34 92  1  0
 34 93  1  0
 35 36  1  0
 35 45  2  0
 36 37  1  0
 36 94  1  0
 36 95  1  0
 37 38  1  0
 37 96  1  0
 37 97  1  0
 38 44  1  0
 38 39  2  0
 39 40  1  0
 39 41  1  0
 40 98  1  0
 40 99  1  0
 40100  1  0
 41 42  2  0
 41 43  1  0
 43 44  1  0
 44101  1  0
 44102  1  0
 45 46  1  0
 45103  1  0
 46 54  1  0
 46 47  1  0
 46104  1  6
 47 48  1  0
 47105  1  6
 48 49  1  6
 48 50  1  0
 49106  1  0
 49107  1  0
 49108  1  0
 50 51  2  0
 50109  1  0
 51 52  1  0
 51 55  1  0
 52 53  1  1
 52 54  1  0
 53110  1  0
 53111  1  0
 53112  1  0
 54113  1  6
 55 56  1  6
 56114  1  0
 56115  1  0
 56116  1  0
M  END
>  <i_m_ct_stereo_status>  (180) 
1

>  <s_m_source_file>  (180) 
/var/tmp/pbs.5076255.sched01/tmpcsrx8n8z/40wzjmt8mb.sdf

>  <i_m_source_file_index>  (180) 
38

>  <i_lp_mmshare_version>  (180) 
48012

>  <i_f3d_flags>  (180) 
0

>  <s_epik_input>  (180) 
W0NIM11bQ0BAXTEyW0NIXTNbQ0BIXTRbQ0BASF0oW0NASF0oT1tDSDNdKU9bQ0gyXTEpW0NAQF01KFtDSDNdKVtDQEBIXShbQ0gyXUMoPU8pQzI9TylbQ0BIXTZPQyhbQ0gzXSkoW0NIM10pT1tDQEhdN1tDSDJdW0NASF04W0NAXTkoW0NIM10pW0NAQF0oW0NIM10pKFtDQEhdKE84KVtDQEhdKE83KVtDQEhdNltPSF0pW0NIMl1bQ0gyXVtDQEBdKFtDSDNdKShbQ0BAXTMoW0NIM10pQzk9W0NIXTUpQyg9W0NIXTQpW0NIMl1bQ0gyXUMxPUMoW0NIM10pQyg9TylPW0NIMl0x

>  <s_epik_cmdline>  (180) 
J2VwaWtfcHl0aG9uJywgJy1waHQnLCAnMi4wJywgJy1waCcsICc3LjAnLCAnLXRuJywgJzgnLCAnLW1hJywgJzIwMCcsICctaW1hZScsICc8aW5maWxlLm1hZT4nLCAnLW9tYWUnLCAnPG91dGZpbGUubWFlPic=

>  <r_lp_tautomer_probability>  (180) 
1

>  <r_epik_Ionization_Penalty>  (180) 
5.10711e-07

>  <r_epik_Ionization_Penalty_Charging>  (180) 
0

>  <r_epik_Ionization_Penalty_Neutral>  (180) 
5.10711e-07

>  <r_epik_State_Penalty>  (180) 
-0

>  <r_epik_Charging_Adjusted_Penalty>  (180) 
0

>  <i_epik_Tot_Q>  (180) 
0

>  <i_epik_Tot_abs_Q>  (180) 
0

>  <s_epik_Chemistry_Notes>  (180) 
This compound has an ester and may undergo hydrolysis at high or low pH. This compound contains an acetal/aminal-like group ( X-CH(R)-Y where X, Y are N, S, or O) that may be acid/base labile, releasing an aldehyde.

>  <s_lp_Force_Field>  (180) 
OPLS3e

>  <r_lp_Energy>  (180) 
340.975

>  <b_lp_Chiralities_Consistent>  (180) 
1

>  <s_lp_Variant>  (180) 
57:0-1

>  <s_i_glide_gridfile>  (180) 
pfpi4k_grid

>  <i_i_glide_lignum>  (180) 
38

>  <i_i_glide_rotatable_bonds>  (180) 
5

>  <r_i_docking_score>  (180) 
-3.2438

>  <r_i_glide_ligand_efficiency>  (180) 
-0.0579249

>  <r_i_glide_ligand_efficiency_sa>  (180) 
-0.221613

>  <r_i_glide_ligand_efficiency_ln>  (180) 
-0.645486

>  <r_i_glide_gscore>  (180) 
-3.2438

>  <r_i_glide_lipo>  (180) 
-0.374599

>  <r_i_glide_hbond>  (180) 
-0.32

>  <r_i_glide_metal>  (180) 
-0

>  <r_i_glide_rewards>  (180) 
-0.168206

>  <r_i_glide_evdw>  (180) 
-33.8933

>  <r_i_glide_ecoul>  (180) 
-5.19858

>  <r_i_glide_erotb>  (180) 
0.107874

>  <r_i_glide_esite>  (180) 
-0.0144132

>  <r_i_glide_emodel>  (180) 
-44.5059

>  <r_i_glide_energy>  (180) 
-39.0919

>  <r_i_glide_einternal>  (180) 
1.88309

>  <r_i_glide_intrahb_reward>  (180) 
-0

>  <i_i_glide_confnum>  (180) 
2

>  <i_i_glide_posenum>  (180) 
1

>  <r_i_glide_eff_state_penalty>  (180) 
0

>  <ligand_id>  (180) 
57

>  <original_smiles>  (180) 
COC1OCC2(C)C(=O)C(=O)CC3C4OC(C)(C)OC5CC6OC(C(O5)C4O)C4(C)CCC5(C)C(CCC7=C(C)C(=O)OC7)=CC7C1C3(C)C=C(C5(C)C72)C64C

>  <smiles>  (180) 
[H]OC1([H])C2([H])OC3([H])OC(C([H])([H])[H])(C([H])([H])[H])OC1([H])C1([H])C([H])([H])C(=O)C(=O)C4(C([H])([H])[H])C([H])([H])OC([H])(OC([H])([H])[H])C5([H])C6([H])C([H])=C(C([H])([H])C([H])([H])C7=C(C([H])([H])[H])C(=O)OC7([H])[H])C7(C([H])([H])[H])C([H])([H])C([H])([H])C8(C([H])([H])[H])C2([H])OC([H])(C3([H])[H])C8(C([H])([H])[H])C(=C([H])C15C([H])([H])[H])C7(C([H])([H])[H])C64[H]

$$$$
57:0:1
     RDKit          3D

116125  0  0  1  0  0  0  0  0999 V2000
   -2.1248   -4.4735    7.9558 C   0  0  0  0  0  0  0  0  0  0  0  0
   -1.3403   -3.7316    7.0360 O   0  0  0  0  0  0  0  0  0  0  0  0
   -0.2226   -4.4043    6.5302 C   0  0  2  0  0  0  0  0  0  0  0  0
    0.5089   -4.9957    7.5478 O   0  0  0  0  0  0  0  0  0  0  0  0
    1.8551   -5.4216    7.4043 C   0  0  0  0  0  0  0  0  0  0  0  0
    2.9389   -4.3035    7.2425 C   0  0  2  0  0  0  0  0  0  0  0  0
    4.2142   -5.0311    7.7890 C   0  0  0  0  0  0  0  0  0  0  0  0
    2.7028   -3.0861    8.2169 C   0  0  0  0  0  0  0  0  0  0  0  0
    3.6198   -2.3321    8.5071 O   0  0  0  0  0  0  0  0  0  0  0  0
    1.3270   -2.7895    8.8719 C   0  0  0  0  0  0  0  0  0  0  0  0
    0.9135   -3.5274    9.7541 O   0  0  0  0  0  0  0  0  0  0  0  0
    0.5902   -1.4759    8.5906 C   0  0  0  0  0  0  0  0  0  0  0  0
    0.0571   -1.0598    7.1570 C   0  0  1  0  0  0  0  0  0  0  0  0
   -0.1355    0.5803    7.1069 C   0  0  1  0  0  0  0  0  0  0  0  0
   -0.2352    0.9830    8.4832 O   0  0  0  0  0  0  0  0  0  0  0  0
    0.2003    2.1503    9.1601 C   0  0  0  0  0  0  0  0  0  0  0  0
   -0.5378    3.4444    8.7251 C   0  0  0  0  0  0  0  0  0  0  0  0
   -0.2659    1.8528   10.5975 C   0  0  0  0  0  0  0  0  0  0  0  0
    1.5879    2.3643    9.3430 O   0  0  0  0  0  0  0  0  0  0  0  0
    2.4718    2.4201    8.2518 C   0  0  1  0  0  0  0  0  0  0  0  0
    3.0336    1.0169    7.9554 C   0  0  0  0  0  0  0  0  0  0  0  0
    4.0685    1.0154    6.8181 C   0  0  2  0  0  0  0  0  0  0  0  0
    4.1280    2.2244    6.0817 O   0  0  0  0  0  0  0  0  0  0  0  0
    3.1656    2.1011    5.0660 C   0  0  2  0  0  0  0  0  0  0  0  0
    1.7970    2.4269    5.9034 C   0  0  2  0  0  0  0  0  0  0  0  0
    2.0398    3.1260    7.1236 O   0  0  0  0  0  0  0  0  0  0  0  0
    0.3710    1.7081    6.0410 C   0  0  1  0  0  0  0  0  0  0  0  0
   -0.4520    1.9160    4.9071 O   0  0  0  0  0  0  0  0  0  0  0  0
    3.5296    0.7041    4.4026 C   0  0  1  0  0  0  0  0  0  0  0  0
    2.2484    0.4271    3.5581 C   0  0  0  0  0  0  0  0  0  0  0  0
    4.5422    0.3417    3.2664 C   0  0  0  0  0  0  0  0  0  0  0  0
    4.8510   -1.2245    2.9731 C   0  0  0  0  0  0  0  0  0  0  0  0
    4.1592   -2.5740    3.5627 C   0  0  2  0  0  0  0  0  0  0  0  0
    5.1058   -3.7235    3.1022 C   0  0  0  0  0  0  0  0  0  0  0  0
    2.8358   -2.9217    2.8234 C   0  0  0  0  0  0  0  0  0  0  0  0
    2.5939   -2.4490    1.3723 C   0  0  0  0  0  0  0  0  0  0  0  0
    3.1640   -3.3136    0.2091 C   0  0  0  0  0  0  0  0  0  0  0  0
    3.6737   -2.4834   -0.9579 C   0  0  0  0  0  0  0  0  0  0  0  0
    3.2887   -2.4912   -2.2444 C   0  0  0  0  0  0  0  0  0  0  0  0
    2.2216   -3.3135   -2.9382 C   0  0  0  0  0  0  0  0  0  0  0  0
    4.1085   -1.5348   -2.9801 C   0  0  0  0  0  0  0  0  0  0  0  0
    4.0523   -1.2805   -4.1886 O   0  0  0  0  0  0  0  0  0  0  0  0
    4.9867   -0.9918   -2.1055 O   0  0  0  0  0  0  0  0  0  0  0  0
    4.7988   -1.4970   -0.7947 C   0  0  0  0  0  0  0  0  0  0  0  0
    1.8389   -3.5736    3.4528 C   0  0  0  0  0  0  0  0  0  0  0  0
    1.7821   -4.0499    4.8964 C   0  0  2  0  0  0  0  0  0  0  0  0
    0.5838   -3.4138    5.6262 C   0  0  2  0  0  0  0  0  0  0  0  0
    0.6390   -1.8217    5.8865 C   0  0  1  0  0  0  0  0  0  0  0  0
   -0.2625   -1.3507    4.6998 C   0  0  0  0  0  0  0  0  0  0  0  0
    2.0031   -1.1708    5.8536 C   0  0  0  0  0  0  0  0  0  0  0  0
    3.3412   -1.3813    5.6740 C   0  0  0  0  0  0  0  0  0  0  0  0
    3.9828   -2.6908    5.1836 C   0  0  2  0  0  0  0  0  0  0  0  0
    5.3722   -2.9918    5.8236 C   0  0  0  0  0  0  0  0  0  0  0  0
    3.1084   -3.9292    5.6688 C   0  0  1  0  0  0  0  0  0  0  0  0
    4.1403   -0.0533    5.6475 C   0  0  2  0  0  0  0  0  0  0  0  0
    5.7216   -0.1298    5.6923 C   0  0  0  0  0  0  0  0  0  0  0  0
   -2.9875   -3.8843    8.2697 H   0  0  0  0  0  0  0  0  0  0  0  0
   -1.5714   -4.7307    8.8584 H   0  0  0  0  0  0  0  0  0  0  0  0
   -2.4962   -5.3849    7.5003 H   0  0  0  0  0  0  0  0  0  0  0  0
   -0.6012   -5.2436    5.9373 H   0  0  0  0  0  0  0  0  0  0  0  0
    2.0192   -5.9570    8.3412 H   0  0  0  0  0  0  0  0  0  0  0  0
    1.9420   -6.1982    6.6436 H   0  0  0  0  0  0  0  0  0  0  0  0
    4.5345   -5.8436    7.1343 H   0  0  0  0  0  0  0  0  0  0  0  0
    4.0441   -5.4740    8.7725 H   0  0  0  0  0  0  0  0  0  0  0  0
    5.0721   -4.3881    7.9598 H   0  0  0  0  0  0  0  0  0  0  0  0
   -0.2745   -1.4987    9.2525 H   0  0  0  0  0  0  0  0  0  0  0  0
    1.2145   -0.7259    9.0579 H   0  0  0  0  0  0  0  0  0  0  0  0
   -0.9611   -1.4145    7.1644 H   0  0  0  0  0  0  0  0  0  0  0  0
   -1.1965    0.6285    6.8639 H   0  0  0  0  0  0  0  0  0  0  0  0
    0.0071    4.0083    7.9719 H   0  0  0  0  0  0  0  0  0  0  0  0
   -0.6480    4.1194    9.5762 H   0  0  0  0  0  0  0  0  0  0  0  0
   -1.5359    3.2062    8.3519 H   0  0  0  0  0  0  0  0  0  0  0  0
    0.2049    0.9378   10.9593 H   0  0  0  0  0  0  0  0  0  0  0  0
   -1.3500    1.7223   10.6430 H   0  0  0  0  0  0  0  0  0  0  0  0
    0.0140    2.6653   11.2718 H   0  0  0  0  0  0  0  0  0  0  0  0
    3.2845    3.0396    8.6314 H   0  0  0  0  0  0  0  0  0  0  0  0
    3.5171    0.6664    8.8671 H   0  0  0  0  0  0  0  0  0  0  0  0
    2.2349    0.3372    7.8192 H   0  0  0  0  0  0  0  0  0  0  0  0
    4.9759    1.0750    7.4225 H   0  0  0  0  0  0  0  0  0  0  0  0
    3.3465    2.9016    4.3464 H   0  0  0  0  0  0  0  0  0  0  0  0
    1.4950    3.2937    5.3171 H   0  0  0  0  0  0  0  0  0  0  0  0
   -0.1416    2.5393    6.4945 H   0  0  0  0  0  0  0  0  0  0  0  0
   -0.0440    2.5673    4.3386 H   0  0  0  0  0  0  0  0  0  0  0  0
    2.1803   -0.5773    3.1862 H   0  0  0  0  0  0  0  0  0  0  0  0
    2.1774    1.0904    2.6945 H   0  0  0  0  0  0  0  0  0  0  0  0
    1.3327    0.6060    4.0656 H   0  0  0  0  0  0  0  0  0  0  0  0
    4.2146    0.7881    2.3277 H   0  0  0  0  0  0  0  0  0  0  0  0
    5.4836    0.8659    3.4325 H   0  0  0  0  0  0  0  0  0  0  0  0
    4.8269   -1.3004    1.8937 H   0  0  0  0  0  0  0  0  0  0  0  0
    5.9302   -1.3490    3.0592 H   0  0  0  0  0  0  0  0  0  0  0  0
    6.0974   -3.7052    3.5319 H   0  0  0  0  0  0  0  0  0  0  0  0
    5.3253   -3.6951    2.0400 H   0  0  0  0  0  0  0  0  0  0  0  0
    4.6942   -4.7027    3.3309 H   0  0  0  0  0  0  0  0  0  0  0  0
    1.5186   -2.3955    1.2189 H   0  0  0  0  0  0  0  0  0  0  0  0
    2.8412   -1.3975    1.2508 H   0  0  0  0  0  0  0  0  0  0  0  0
    3.9858   -3.9644    0.5027 H   0  0  0  0  0  0  0  0  0  0  0  0
    2.4012   -4.0220   -0.1182 H   0  0  0  0  0  0  0  0  0  0  0  0
    1.4707   -2.6573   -3.3748 H   0  0  0  0  0  0  0  0  0  0  0  0
    1.7170   -4.0029   -2.2665 H   0  0  0  0  0  0  0  0  0  0  0  0
    2.6695   -3.8832   -3.7531 H   0  0  0  0  0  0  0  0  0  0  0  0
    4.5223   -0.6861   -0.1210 H   0  0  0  0  0  0  0  0  0  0  0  0
    5.7037   -1.9853   -0.4292 H   0  0  0  0  0  0  0  0  0  0  0  0
    0.9398   -3.7754    2.8919 H   0  0  0  0  0  0  0  0  0  0  0  0
    1.5589   -5.1128    4.7795 H   0  0  0  0  0  0  0  0  0  0  0  0
   -0.1313   -3.5393    4.8172 H   0  0  0  0  0  0  0  0  0  0  0  0
   -1.2555   -1.8010    4.7464 H   0  0  0  0  0  0  0  0  0  0  0  0
    0.1530   -1.5793    3.7196 H   0  0  0  0  0  0  0  0  0  0  0  0
   -0.4977   -0.3158    4.6813 H   0  0  0  0  0  0  0  0  0  0  0  0
    1.8435   -0.1410    5.9731 H   0  0  0  0  0  0  0  0  0  0  0  0
    5.6040   -4.0549    5.8201 H   0  0  0  0  0  0  0  0  0  0  0  0
    5.4523   -2.6326    6.8426 H   0  0  0  0  0  0  0  0  0  0  0  0
    6.2100   -2.5958    5.2850 H   0  0  0  0  0  0  0  0  0  0  0  0
    3.6418   -4.7969    5.2842 H   0  0  0  0  0  0  0  0  0  0  0  0
    6.1827    0.8602    5.6284 H   0  0  0  0  0  0  0  0  0  0  0  0
    6.2199   -0.6504    4.9105 H   0  0  0  0  0  0  0  0  0  0  0  0
    6.0908   -0.5658    6.6171 H   0  0  0  0  0  0  0  0  0  0  0  0
  1  2  1  0
  1 57  1  0
  1 58  1  0
  1 59  1  0
  2  3  1  0
  3 47  1  0
  3  4  1  0
  3 60  1  6
  4  5  1  0
  5  6  1  0
  5 61  1  0
  5 62  1  0
  6 54  1  0
  6  7  1  1
  6  8  1  0
  7 63  1  0
  7 64  1  0
  7 65  1  0
  8  9  2  0
  8 10  1  0
 10 11  2  0
 10 12  1  0
 12 13  1  0
 12 66  1  0
 12 67  1  0
 13 48  1  0
 13 14  1  0
 13 68  1  1
 14 27  1  0
 14 15  1  0
 14 69  1  6
 15 16  1  0
 16 17  1  0
 16 18  1  0
 16 19  1  0
 17 70  1  0
 17 71  1  0
 17 72  1  0
 18 73  1  0
 18 74  1  0
 18 75  1  0
 19 20  1  0
 20 26  1  0
 20 21  1  0
 20 76  1  1
 21 22  1  0
 21 77  1  0
 21 78  1  0
 22 55  1  0
 22 23  1  0
 22 79  1  1
 23 24  1  0
 24 25  1  0
 24 29  1  0
 24 80  1  6
 25 26  1  0
 25 27  1  0
 25 81  1  6
 27 28  1  0
 27 82  1  1
 28 83  1  0
 29 55  1  0
 29 30  1  6
 29 31  1  0
 30 84  1  0
 30 85  1  0
 30 86  1  0
 31 32  1  0
 31 87  1  0
 31 88  1  0
 32 33  1  0
 32 89  1  0
 32 90  1  0
 33 52  1  0
 33 34  1  6
 33 35  1  0
 34 91  1  0
 34 92  1  0
 34 93  1  0
 35 36  1  0
 35 45  2  0
 36 37  1  0
 36 94  1  0
 36 95  1  0
 37 38  1  0
 37 96  1  0
 37 97  1  0
 38 44  1  0
 38 39  2  0
 39 40  1  0
 39 41  1  0
 40 98  1  0
 40 99  1  0
 40100  1  0
 41 42  2  0
 41 43  1  0
 43 44  1  0
 44101  1  0
 44102  1  0
 45 46  1  0
 45103  1  0
 46 54  1  0
 46 47  1  0
 46104  1  6
 47 48  1  0
 47105  1  6
 48 49  1  6
 48 50  1  0
 49106  1  0
 49107  1  0
 49108  1  0
 50 51  2  0
 50109  1  0
 51 52  1  0
 51 55  1  0
 52 53  1  1
 52 54  1  0
 53110  1  0
 53111  1  0
 53112  1  0
 54113  1  6
 55 56  1  6
 56114  1  0
 56115  1  0
 56116  1  0
M  END
>  <i_m_ct_stereo_status>  (181) 
1

>  <s_m_source_file>  (181) 
/var/tmp/pbs.5076255.sched01/tmpcsrx8n8z/40wzjmt8mb.sdf

>  <i_m_source_file_index>  (181) 
38

>  <i_lp_mmshare_version>  (181) 
48012

>  <i_f3d_flags>  (181) 
0

>  <s_epik_input>  (181) 
W0NIM11bQ0BAXTEyW0NIXTNbQ0BIXTRbQ0BASF0oW0NASF0oT1tDSDNdKU9bQ0gyXTEpW0NAQF01KFtDSDNdKVtDQEBIXShbQ0gyXUMoPU8pQzI9TylbQ0BIXTZPQyhbQ0gzXSkoW0NIM10pT1tDQEhdN1tDSDJdW0NASF04W0NAXTkoW0NIM10pW0NAQF0oW0NIM10pKFtDQEhdKE84KVtDQEhdKE83KVtDQEhdNltPSF0pW0NIMl1bQ0gyXVtDQEBdKFtDSDNdKShbQ0BAXTMoW0NIM10pQzk9W0NIXTUpQyg9W0NIXTQpW0NIMl1bQ0gyXUMxPUMoW0NIM10pQyg9TylPW0NIMl0x

>  <s_epik_cmdline>  (181) 
J2VwaWtfcHl0aG9uJywgJy1waHQnLCAnMi4wJywgJy1waCcsICc3LjAnLCAnLXRuJywgJzgnLCAnLW1hJywgJzIwMCcsICctaW1hZScsICc8aW5maWxlLm1hZT4nLCAnLW9tYWUnLCAnPG91dGZpbGUubWFlPic=

>  <r_lp_tautomer_probability>  (181) 
1

>  <r_epik_Ionization_Penalty>  (181) 
5.10711e-07

>  <r_epik_Ionization_Penalty_Charging>  (181) 
0

>  <r_epik_Ionization_Penalty_Neutral>  (181) 
5.10711e-07

>  <r_epik_State_Penalty>  (181) 
-0

>  <r_epik_Charging_Adjusted_Penalty>  (181) 
0

>  <i_epik_Tot_Q>  (181) 
0

>  <i_epik_Tot_abs_Q>  (181) 
0

>  <s_epik_Chemistry_Notes>  (181) 
This compound has an ester and may undergo hydrolysis at high or low pH. This compound contains an acetal/aminal-like group ( X-CH(R)-Y where X, Y are N, S, or O) that may be acid/base labile, releasing an aldehyde.

>  <s_lp_Force_Field>  (181) 
OPLS3e

>  <r_lp_Energy>  (181) 
340.975

>  <b_lp_Chiralities_Consistent>  (181) 
1

>  <s_lp_Variant>  (181) 
57:0-1

>  <s_i_glide_gridfile>  (181) 
pfpi4k_grid

>  <i_i_glide_lignum>  (181) 
38

>  <i_i_glide_rotatable_bonds>  (181) 
5

>  <r_i_docking_score>  (181) 
-2.88542

>  <r_i_glide_ligand_efficiency>  (181) 
-0.0515254

>  <r_i_glide_ligand_efficiency_sa>  (181) 
-0.197129

>  <r_i_glide_ligand_efficiency_ln>  (181) 
-0.574174

>  <r_i_glide_gscore>  (181) 
-2.88542

>  <r_i_glide_lipo>  (181) 
-0.441076

>  <r_i_glide_hbond>  (181) 
-0.13662

>  <r_i_glide_metal>  (181) 
-0

>  <r_i_glide_rewards>  (181) 
-0.0314882

>  <r_i_glide_evdw>  (181) 
-33.4788

>  <r_i_glide_ecoul>  (181) 
-4.63225

>  <r_i_glide_erotb>  (181) 
0.107874

>  <r_i_glide_esite>  (181) 
-0.015336

>  <r_i_glide_emodel>  (181) 
-42.0496

>  <r_i_glide_energy>  (181) 
-38.1111

>  <r_i_glide_einternal>  (181) 
4.19383

>  <r_i_glide_intrahb_reward>  (181) 
-0

>  <i_i_glide_confnum>  (181) 
2

>  <i_i_glide_posenum>  (181) 
31

>  <r_i_glide_eff_state_penalty>  (181) 
0

>  <ligand_id>  (181) 
57

>  <original_smiles>  (181) 
COC1OCC2(C)C(=O)C(=O)CC3C4OC(C)(C)OC5CC6OC(C(O5)C4O)C4(C)CCC5(C)C(CCC7=C(C)C(=O)OC7)=CC7C1C3(C)C=C(C5(C)C72)C64C

>  <smiles>  (181) 
[H]OC1([H])C2([H])OC3([H])OC(C([H])([H])[H])(C([H])([H])[H])OC1([H])C1([H])C([H])([H])C(=O)C(=O)C4(C([H])([H])[H])C([H])([H])OC([H])(OC([H])([H])[H])C5([H])C6([H])C([H])=C(C([H])([H])C([H])([H])C7=C(C([H])([H])[H])C(=O)OC7([H])[H])C7(C([H])([H])[H])C([H])([H])C([H])([H])C8(C([H])([H])[H])C2([H])OC([H])(C3([H])[H])C8(C([H])([H])[H])C(=C([H])C15C([H])([H])[H])C7(C([H])([H])[H])C64[H]

$$$$
57:0:2
     RDKit          3D

116125  0  0  1  0  0  0  0  0999 V2000
   -2.0818   -4.4746    8.3685 C   0  0  0  0  0  0  0  0  0  0  0  0
   -1.2201   -3.8410    7.4315 O   0  0  0  0  0  0  0  0  0  0  0  0
   -0.0446   -4.5298    7.1451 C   0  0  2  0  0  0  0  0  0  0  0  0
    0.7211   -4.7109    8.2821 O   0  0  0  0  0  0  0  0  0  0  0  0
    2.1029   -5.0278    8.2568 C   0  0  0  0  0  0  0  0  0  0  0  0
    3.0875   -3.9255    7.7224 C   0  0  2  0  0  0  0  0  0  0  0  0
    4.4305   -4.3219    8.4251 C   0  0  0  0  0  0  0  0  0  0  0  0
    2.7238   -2.4874    8.2445 C   0  0  0  0  0  0  0  0  0  0  0  0
    3.5824   -1.5885    8.2646 O   0  0  0  0  0  0  0  0  0  0  0  0
    1.3360   -2.1211    8.8147 C   0  0  0  0  0  0  0  0  0  0  0  0
    0.9788   -2.5936    9.9061 O   0  0  0  0  0  0  0  0  0  0  0  0
    0.4718   -1.0458    8.1607 C   0  0  0  0  0  0  0  0  0  0  0  0
   -0.1026   -1.1505    6.6822 C   0  0  1  0  0  0  0  0  0  0  0  0
   -0.4400    0.3733    6.1227 C   0  0  1  0  0  0  0  0  0  0  0  0
   -0.5770    1.1859    7.3046 O   0  0  0  0  0  0  0  0  0  0  0  0
   -0.2591    2.5370    7.5677 C   0  0  0  0  0  0  0  0  0  0  0  0
   -1.1076    3.5485    6.7582 C   0  0  0  0  0  0  0  0  0  0  0  0
   -0.6910    2.6630    9.0341 C   0  0  0  0  0  0  0  0  0  0  0  0
    1.1032    2.9071    7.6287 O   0  0  0  0  0  0  0  0  0  0  0  0
    1.9824    2.7047    6.5539 C   0  0  1  0  0  0  0  0  0  0  0  0
    2.6811    1.3477    6.7060 C   0  0  0  0  0  0  0  0  0  0  0  0
    3.7162    1.0807    5.6068 C   0  0  2  0  0  0  0  0  0  0  0  0
    3.6645    1.9903    4.5228 O   0  0  0  0  0  0  0  0  0  0  0  0
    2.7120    1.4780    3.6217 C   0  0  2  0  0  0  0  0  0  0  0  0
    1.3109    1.9241    4.3444 C   0  0  2  0  0  0  0  0  0  0  0  0
    1.4869    2.9840    5.2813 O   0  0  0  0  0  0  0  0  0  0  0  0
   -0.0352    1.1446    4.7402 C   0  0  1  0  0  0  0  0  0  0  0  0
   -0.8590    0.9083    3.6044 O   0  0  0  0  0  0  0  0  0  0  0  0
    3.2118   -0.0074    3.4282 C   0  0  1  0  0  0  0  0  0  0  0  0
    1.9731   -0.6673    2.7415 C   0  0  0  0  0  0  0  0  0  0  0  0
    4.2859   -0.5903    2.4578 C   0  0  0  0  0  0  0  0  0  0  0  0
    4.7364   -2.1514    2.6541 C   0  0  0  0  0  0  0  0  0  0  0  0
    4.1639   -3.3068    3.6767 C   0  0  2  0  0  0  0  0  0  0  0  0
    5.1805   -4.4919    3.5760 C   0  0  0  0  0  0  0  0  0  0  0  0
    2.8935   -3.9876    3.0962 C   0  0  0  0  0  0  0  0  0  0  0  0
    2.6400   -4.0688    1.5557 C   0  0  0  0  0  0  0  0  0  0  0  0
    3.6598   -4.7716    0.6208 C   0  0  0  0  0  0  0  0  0  0  0  0
    4.6753   -3.8384   -0.0319 C   0  0  0  0  0  0  0  0  0  0  0  0
    6.0239   -3.8152    0.0765 C   0  0  0  0  0  0  0  0  0  0  0  0
    6.9965   -4.7512    0.7596 C   0  0  0  0  0  0  0  0  0  0  0  0
    6.5226   -2.6162   -0.6182 C   0  0  0  0  0  0  0  0  0  0  0  0
    7.6873   -2.2614   -0.6987 O   0  0  0  0  0  0  0  0  0  0  0  0
    5.4541   -1.9225   -1.0702 O   0  0  0  0  0  0  0  0  0  0  0  0
    4.2344   -2.5936   -0.7884 C   0  0  0  0  0  0  0  0  0  0  0  0
    1.9490   -4.5155    3.9086 C   0  0  0  0  0  0  0  0  0  0  0  0
    1.9167   -4.5254    5.4362 C   0  0  2  0  0  0  0  0  0  0  0  0
    0.6610   -3.8051    5.9551 C   0  0  2  0  0  0  0  0  0  0  0  0
    0.5653   -2.2146    5.7071 C   0  0  1  0  0  0  0  0  0  0  0  0
   -0.3552   -2.2018    4.4562 C   0  0  0  0  0  0  0  0  0  0  0  0
    1.8764   -1.4747    5.4389 C   0  0  0  0  0  0  0  0  0  0  0  0
    3.2093   -1.6007    5.3200 C   0  0  0  0  0  0  0  0  0  0  0  0
    3.9797   -2.9448    5.2528 C   0  0  2  0  0  0  0  0  0  0  0  0
    5.3919   -2.9036    5.8980 C   0  0  0  0  0  0  0  0  0  0  0  0
    3.2178   -4.0542    6.1111 C   0  0  1  0  0  0  0  0  0  0  0  0
    3.8927   -0.2859    4.8326 C   0  0  2  0  0  0  0  0  0  0  0  0
    5.4826   -0.2021    4.8606 C   0  0  0  0  0  0  0  0  0  0  0  0
   -2.9767   -3.8764    8.5069 H   0  0  0  0  0  0  0  0  0  0  0  0
   -1.6177   -4.5989    9.3493 H   0  0  0  0  0  0  0  0  0  0  0  0
   -2.3875   -5.4498    7.9939 H   0  0  0  0  0  0  0  0  0  0  0  0
   -0.3320   -5.5434    6.8410 H   0  0  0  0  0  0  0  0  0  0  0  0
    2.3239   -5.2193    9.3036 H   0  0  0  0  0  0  0  0  0  0  0  0
    2.2783   -5.9899    7.7705 H   0  0  0  0  0  0  0  0  0  0  0  0
    4.8265   -5.2661    8.0463 H   0  0  0  0  0  0  0  0  0  0  0  0
    4.3030   -4.4428    9.5005 H   0  0  0  0  0  0  0  0  0  0  0  0
    5.2224   -3.5808    8.3542 H   0  0  0  0  0  0  0  0  0  0  0  0
   -0.3842   -0.9251    8.8189 H   0  0  0  0  0  0  0  0  0  0  0  0
    1.0257   -0.1314    8.3354 H   0  0  0  0  0  0  0  0  0  0  0  0
   -1.0926   -1.5660    6.8398 H   0  0  0  0  0  0  0  0  0  0  0  0
   -1.5010    0.2476    5.9048 H   0  0  0  0  0  0  0  0  0  0  0  0
   -0.6127    3.8912    5.8548 H   0  0  0  0  0  0  0  0  0  0  0  0
   -1.2872    4.4449    7.3515 H   0  0  0  0  0  0  0  0  0  0  0  0
   -2.0742    3.1152    6.4995 H   0  0  0  0  0  0  0  0  0  0  0  0
   -0.1323    1.9554    9.6506 H   0  0  0  0  0  0  0  0  0  0  0  0
   -1.7553    2.4513    9.1490 H   0  0  0  0  0  0  0  0  0  0  0  0
   -0.4901    3.6668    9.4106 H   0  0  0  0  0  0  0  0  0  0  0  0
    2.7326    3.4830    6.6967 H   0  0  0  0  0  0  0  0  0  0  0  0
    3.1915    1.3501    7.6673 H   0  0  0  0  0  0  0  0  0  0  0  0
    1.9555    0.5854    6.8107 H   0  0  0  0  0  0  0  0  0  0  0  0
    4.6151    1.4051    6.1273 H   0  0  0  0  0  0  0  0  0  0  0  0
    2.8221    2.0147    2.6779 H   0  0  0  0  0  0  0  0  0  0  0  0
    0.9357    2.5239    3.5191 H   0  0  0  0  0  0  0  0  0  0  0  0
   -0.6335    2.0213    4.9179 H   0  0  0  0  0  0  0  0  0  0  0  0
   -0.6359    1.5281    2.9248 H   0  0  0  0  0  0  0  0  0  0  0  0
    1.9982   -1.7391    2.7359 H   0  0  0  0  0  0  0  0  0  0  0  0
    1.8437   -0.3426    1.7063 H   0  0  0  0  0  0  0  0  0  0  0  0
    1.0363   -0.4233    3.1825 H   0  0  0  0  0  0  0  0  0  0  0  0
    3.9426   -0.5004    1.4315 H   0  0  0  0  0  0  0  0  0  0  0  0
    5.1584    0.0566    2.4055 H   0  0  0  0  0  0  0  0  0  0  0  0
    4.5416   -2.4919    1.7406 H   0  0  0  0  0  0  0  0  0  0  0  0
    5.8317   -2.1651    2.7474 H   0  0  0  0  0  0  0  0  0  0  0  0
    6.1961   -4.2451    3.8877 H   0  0  0  0  0  0  0  0  0  0  0  0
    5.2757   -4.8261    2.5523 H   0  0  0  0  0  0  0  0  0  0  0  0
    4.8693   -5.3563    4.1692 H   0  0  0  0  0  0  0  0  0  0  0  0
    1.7365   -4.6455    1.4264 H   0  0  0  0  0  0  0  0  0  0  0  0
    2.3607   -3.0943    1.1550 H   0  0  0  0  0  0  0  0  0  0  0  0
    4.1410   -5.6225    1.1123 H   0  0  0  0  0  0  0  0  0  0  0  0
    3.1095   -5.2338   -0.2186 H   0  0  0  0  0  0  0  0  0  0  0  0
    7.7541   -5.1234    0.0631 H   0  0  0  0  0  0  0  0  0  0  0  0
    6.5033   -5.5918    1.2605 H   0  0  0  0  0  0  0  0  0  0  0  0
    7.5369   -4.1894    1.5247 H   0  0  0  0  0  0  0  0  0  0  0  0
    3.6699   -2.8264   -1.7046 H   0  0  0  0  0  0  0  0  0  0  0  0
    3.6105   -1.9696   -0.1671 H   0  0  0  0  0  0  0  0  0  0  0  0
    1.0815   -4.9845    3.4627 H   0  0  0  0  0  0  0  0  0  0  0  0
    1.8011   -5.5873    5.6553 H   0  0  0  0  0  0  0  0  0  0  0  0
   -0.0376   -4.2375    5.2441 H   0  0  0  0  0  0  0  0  0  0  0  0
   -1.3154   -2.6526    4.7075 H   0  0  0  0  0  0  0  0  0  0  0  0
    0.0664   -2.7153    3.5938 H   0  0  0  0  0  0  0  0  0  0  0  0
   -0.6780   -1.2594    4.1086 H   0  0  0  0  0  0  0  0  0  0  0  0
    1.6029   -0.4830    5.2188 H   0  0  0  0  0  0  0  0  0  0  0  0
    5.7326   -3.8898    6.2141 H   0  0  0  0  0  0  0  0  0  0  0  0
    5.4532   -2.2297    6.7476 H   0  0  0  0  0  0  0  0  0  0  0  0
    6.1818   -2.6247    5.2132 H   0  0  0  0  0  0  0  0  0  0  0  0
    3.8376   -4.9401    5.9961 H   0  0  0  0  0  0  0  0  0  0  0  0
    5.8473    0.7514    4.4665 H   0  0  0  0  0  0  0  0  0  0  0  0
    6.0642   -0.8729    4.2654 H   0  0  0  0  0  0  0  0  0  0  0  0
    5.8907   -0.2960    5.8639 H   0  0  0  0  0  0  0  0  0  0  0  0
  1  2  1  0
  1 57  1  0
  1 58  1  0
  1 59  1  0
  2  3  1  0
  3 47  1  0
  3  4  1  0
  3 60  1  6
  4  5  1  0
  5  6  1  0
  5 61  1  0
  5 62  1  0
  6 54  1  0
  6  7  1  1
  6  8  1  0
  7 63  1  0
  7 64  1  0
  7 65  1  0
  8  9  2  0
  8 10  1  0
 10 11  2  0
 10 12  1  0
 12 13  1  0
 12 66  1  0
 12 67  1  0
 13 48  1  0
 13 14  1  0
 13 68  1  1
 14 27  1  0
 14 15  1  0
 14 69  1  6
 15 16  1  0
 16 17  1  0
 16 18  1  0
 16 19  1  0
 17 70  1  0
 17 71  1  0
 17 72  1  0
 18 73  1  0
 18 74  1  0
 18 75  1  0
 19 20  1  0
 20 26  1  0
 20 21  1  0
 20 76  1  1
 21 22  1  0
 21 77  1  0
 21 78  1  0
 22 55  1  0
 22 23  1  0
 22 79  1  1
 23 24  1  0
 24 25  1  0
 24 29  1  0
 24 80  1  6
 25 26  1  0
 25 27  1  0
 25 81  1  6
 27 28  1  0
 27 82  1  1
 28 83  1  0
 29 55  1  0
 29 30  1  1
 29 31  1  0
 30 84  1  0
 30 85  1  0
 30 86  1  0
 31 32  1  0
 31 87  1  0
 31 88  1  0
 32 33  1  0
 32 89  1  0
 32 90  1  0
 33 52  1  0
 33 34  1  1
 33 35  1  0
 34 91  1  0
 34 92  1  0
 34 93  1  0
 35 36  1  0
 35 45  2  0
 36 37  1  0
 36 94  1  0
 36 95  1  0
 37 38  1  0
 37 96  1  0
 37 97  1  0
 38 44  1  0
 38 39  2  0
 39 40  1  0
 39 41  1  0
 40 98  1  0
 40 99  1  0
 40100  1  0
 41 42  2  0
 41 43  1  0
 43 44  1  0
 44101  1  0
 44102  1  0
 45 46  1  0
 45103  1  0
 46 54  1  0
 46 47  1  0
 46104  1  1
 47 48  1  0
 47105  1  6
 48 49  1  6
 48 50  1  0
 49106  1  0
 49107  1  0
 49108  1  0
 50 51  2  0
 50109  1  0
 51 52  1  0
 51 55  1  0
 52 53  1  1
 52 54  1  0
 53110  1  0
 53111  1  0
 53112  1  0
 54113  1  1
 55 56  1  6
 56114  1  0
 56115  1  0
 56116  1  0
M  END
>  <i_m_ct_stereo_status>  (182) 
1

>  <s_m_source_file>  (182) 
/var/tmp/pbs.5076255.sched01/tmpcsrx8n8z/40wzjmt8mb.sdf

>  <i_m_source_file_index>  (182) 
38

>  <i_lp_mmshare_version>  (182) 
48012

>  <i_f3d_flags>  (182) 
0

>  <s_epik_input>  (182) 
W0NIM11bQ0BAXTEyW0NIXTNbQ0BIXTRbQ0BASF0oW0NASF0oT1tDSDNdKU9bQ0gyXTEpW0NAQF01KFtDSDNdKVtDQEBIXShbQ0gyXUMoPU8pQzI9TylbQ0BIXTZPQyhbQ0gzXSkoW0NIM10pT1tDQEhdN1tDSDJdW0NASF04W0NAXTkoW0NIM10pW0NAQF0oW0NIM10pKFtDQEhdKE84KVtDQEhdKE83KVtDQEhdNltPSF0pW0NIMl1bQ0gyXVtDQEBdKFtDSDNdKShbQ0BAXTMoW0NIM10pQzk9W0NIXTUpQyg9W0NIXTQpW0NIMl1bQ0gyXUMxPUMoW0NIM10pQyg9TylPW0NIMl0x

>  <s_epik_cmdline>  (182) 
J2VwaWtfcHl0aG9uJywgJy1waHQnLCAnMi4wJywgJy1waCcsICc3LjAnLCAnLXRuJywgJzgnLCAnLW1hJywgJzIwMCcsICctaW1hZScsICc8aW5maWxlLm1hZT4nLCAnLW9tYWUnLCAnPG91dGZpbGUubWFlPic=

>  <r_lp_tautomer_probability>  (182) 
1

>  <r_epik_Ionization_Penalty>  (182) 
5.10711e-07

>  <r_epik_Ionization_Penalty_Charging>  (182) 
0

>  <r_epik_Ionization_Penalty_Neutral>  (182) 
5.10711e-07

>  <r_epik_State_Penalty>  (182) 
-0

>  <r_epik_Charging_Adjusted_Penalty>  (182) 
0

>  <i_epik_Tot_Q>  (182) 
0

>  <i_epik_Tot_abs_Q>  (182) 
0

>  <s_epik_Chemistry_Notes>  (182) 
This compound has an ester and may undergo hydrolysis at high or low pH. This compound contains an acetal/aminal-like group ( X-CH(R)-Y where X, Y are N, S, or O) that may be acid/base labile, releasing an aldehyde.

>  <s_lp_Force_Field>  (182) 
OPLS3e

>  <r_lp_Energy>  (182) 
340.975

>  <b_lp_Chiralities_Consistent>  (182) 
1

>  <s_lp_Variant>  (182) 
57:0-1

>  <s_i_glide_gridfile>  (182) 
pfpi4k_grid

>  <i_i_glide_lignum>  (182) 
38

>  <i_i_glide_rotatable_bonds>  (182) 
5

>  <r_i_docking_score>  (182) 
-2.57522

>  <r_i_glide_ligand_efficiency>  (182) 
-0.0459861

>  <r_i_glide_ligand_efficiency_sa>  (182) 
-0.175937

>  <r_i_glide_ligand_efficiency_ln>  (182) 
-0.512446

>  <r_i_glide_gscore>  (182) 
-2.57522

>  <r_i_glide_lipo>  (182) 
-0.42341

>  <r_i_glide_hbond>  (182) 
-0.16

>  <r_i_glide_metal>  (182) 
-0

>  <r_i_glide_rewards>  (182) 
0

>  <r_i_glide_evdw>  (182) 
-31.3707

>  <r_i_glide_ecoul>  (182) 
-3.33723

>  <r_i_glide_erotb>  (182) 
0.107874

>  <r_i_glide_esite>  (182) 
-0.0305705

>  <r_i_glide_emodel>  (182) 
-36.544

>  <r_i_glide_energy>  (182) 
-34.7079

>  <r_i_glide_einternal>  (182) 
3.0707

>  <r_i_glide_intrahb_reward>  (182) 
-0

>  <i_i_glide_confnum>  (182) 
2

>  <i_i_glide_posenum>  (182) 
28

>  <r_i_glide_eff_state_penalty>  (182) 
0

>  <ligand_id>  (182) 
57

>  <original_smiles>  (182) 
COC1OCC2(C)C(=O)C(=O)CC3C4OC(C)(C)OC5CC6OC(C(O5)C4O)C4(C)CCC5(C)C(CCC7=C(C)C(=O)OC7)=CC7C1C3(C)C=C(C5(C)C72)C64C

>  <smiles>  (182) 
[H]OC1([H])C2([H])OC3([H])OC(C([H])([H])[H])(C([H])([H])[H])OC1([H])C1([H])C([H])([H])C(=O)C(=O)C4(C([H])([H])[H])C([H])([H])OC([H])(OC([H])([H])[H])C5([H])C6([H])C([H])=C(C([H])([H])C([H])([H])C7=C(C([H])([H])[H])C(=O)OC7([H])[H])C7(C([H])([H])[H])C([H])([H])C([H])([H])C8(C([H])([H])[H])C2([H])OC([H])(C3([H])[H])C8(C([H])([H])[H])C(=C([H])C15C([H])([H])[H])C7(C([H])([H])[H])C64[H]

$$$$
58:0:0
     RDKit          3D

 48 53  0  0  1  0  0  0  0  0999 V2000
    8.5999   -2.2470   -1.0508 O   0  0  0  0  0  0  0  0  0  0  0  0
    7.5324   -2.9599   -0.5803 C   0  0  0  0  0  0  0  0  0  0  0  0
    7.7072   -4.1172    0.2336 C   0  0  0  0  0  0  0  0  0  0  0  0
    6.6032   -4.9052    0.6617 C   0  0  0  0  0  0  0  0  0  0  0  0
    5.3009   -4.4856    0.3322 C   0  0  0  0  0  0  0  0  0  0  0  0
    5.2067   -3.2873   -0.3744 C   0  0  0  0  0  0  0  0  0  0  0  0
    6.2325   -2.5371   -0.9224 C   0  0  0  0  0  0  0  0  0  0  0  0
    5.7617   -1.5568   -1.7816 O   0  0  0  0  0  0  0  0  0  0  0  0
    4.4544   -2.0803   -2.0925 C   0  0  2  0  0  0  0  0  0  0  0  0
    3.3294   -1.5064   -2.9674 C   0  0  1  0  0  0  0  0  0  0  0  0
    3.8181   -1.2466   -4.2703 O   0  0  0  0  0  0  0  0  0  0  0  0
    2.3133   -2.6514   -3.0677 C   0  0  0  0  0  0  0  0  0  0  0  0
    2.0738   -3.5016   -2.0417 C   0  0  0  0  0  0  0  0  0  0  0  0
    2.6658   -3.2918   -0.6623 C   0  0  1  0  0  0  0  0  0  0  0  0
    2.7157   -4.2611    0.5370 C   0  0  1  0  0  0  0  0  0  0  0  0
    3.9602   -5.1949    0.5114 C   0  0  0  0  0  0  0  0  0  0  0  0
    2.6818   -3.3940    1.7814 N   0  0  1  0  0  0  0  0  0  0  0  0
    2.6997   -4.1628    3.0585 C   0  0  0  0  0  0  0  0  0  0  0  0
    2.1697   -3.3663    4.2417 C   0  0  0  0  0  0  0  0  0  0  0  0
    1.8665   -4.0623    5.5522 C   0  0  0  0  0  0  0  0  0  0  0  0
    0.7409   -3.5412    4.7006 C   0  0  0  0  0  0  0  0  0  0  0  0
    3.6328   -2.2207    1.7871 C   0  0  0  0  0  0  0  0  0  0  0  0
    3.7729   -1.4856    0.4220 C   0  0  0  0  0  0  0  0  0  0  0  0
    3.9689   -2.5283   -0.7018 C   0  0  1  0  0  0  0  0  0  0  0  0
    9.4551   -2.6670   -1.0815 H   0  0  0  0  0  0  0  0  0  0  0  0
    8.6951   -4.4312    0.5100 H   0  0  0  0  0  0  0  0  0  0  0  0
    6.7559   -5.8250    1.2130 H   0  0  0  0  0  0  0  0  0  0  0  0
    4.6955   -2.9853   -2.6693 H   0  0  0  0  0  0  0  0  0  0  0  0
    2.8628   -0.6260   -2.5253 H   0  0  0  0  0  0  0  0  0  0  0  0
    3.1516   -0.7691   -4.7436 H   0  0  0  0  0  0  0  0  0  0  0  0
    1.8518   -2.8239   -4.0307 H   0  0  0  0  0  0  0  0  0  0  0  0
    1.4114   -4.3402   -2.1782 H   0  0  0  0  0  0  0  0  0  0  0  0
    1.8444   -2.6630   -0.3560 H   0  0  0  0  0  0  0  0  0  0  0  0
    1.8239   -4.8848    0.5498 H   0  0  0  0  0  0  0  0  0  0  0  0
    3.8418   -5.8844   -0.3252 H   0  0  0  0  0  0  0  0  0  0  0  0
    4.0007   -5.8247    1.4011 H   0  0  0  0  0  0  0  0  0  0  0  0
    2.0926   -5.0608    2.9531 H   0  0  0  0  0  0  0  0  0  0  0  0
    3.7111   -4.4963    3.2897 H   0  0  0  0  0  0  0  0  0  0  0  0
    2.6141   -2.3812    4.3838 H   0  0  0  0  0  0  0  0  0  0  0  0
    2.0080   -5.1404    5.6091 H   0  0  0  0  0  0  0  0  0  0  0  0
    2.0741   -3.5185    6.4728 H   0  0  0  0  0  0  0  0  0  0  0  0
    0.2204   -2.6459    5.0387 H   0  0  0  0  0  0  0  0  0  0  0  0
    0.1339   -4.2676    4.1636 H   0  0  0  0  0  0  0  0  0  0  0  0
    3.3096   -1.4865    2.5207 H   0  0  0  0  0  0  0  0  0  0  0  0
    4.6142   -2.5549    2.1221 H   0  0  0  0  0  0  0  0  0  0  0  0
    2.8869   -0.8700    0.2450 H   0  0  0  0  0  0  0  0  0  0  0  0
    4.6020   -0.7813    0.4767 H   0  0  0  0  0  0  0  0  0  0  0  0
    1.7675   -2.9606    1.7547 H   0  0  0  0  0  0  0  0  0  0  0  0
  1  2  1  0
  1 25  1  0
  2  7  2  0
  2  3  1  0
  3  4  2  0
  3 26  1  0
  4  5  1  0
  4 27  1  0
  5 16  1  0
  5  6  2  0
  6 24  1  0
  6  7  1  0
  7  8  1  0
  8  9  1  0
  9 24  1  0
  9 10  1  0
  9 28  1  6
 10 11  1  0
 10 12  1  0
 10 29  1  1
 11 30  1  0
 12 13  2  0
 12 31  1  0
 13 14  1  0
 13 32  1  0
 14 24  1  0
 14 15  1  0
 14 33  1  1
 15 16  1  0
 15 17  1  0
 15 34  1  1
 16 35  1  0
 16 36  1  0
 17 18  1  0
 17 22  1  0
 17 48  1  6
 18 19  1  0
 18 37  1  0
 18 38  1  0
 19 21  1  0
 19 20  1  0
 19 39  1  0
 20 21  1  0
 20 40  1  0
 20 41  1  0
 21 42  1  0
 21 43  1  0
 22 23  1  0
 22 44  1  0
 22 45  1  0
 24 23  1  1
 23 46  1  0
 23 47  1  0
M  CHG  1  17   1
M  END
>  <i_m_ct_stereo_status>  (183) 
1

>  <s_m_source_file>  (183) 
/var/tmp/pbs.5076255.sched01/tmpcsrx8n8z/40wzjmt8mb.sdf

>  <i_m_source_file_index>  (183) 
39

>  <i_lp_mmshare_version>  (183) 
48012

>  <i_f3d_flags>  (183) 
0

>  <s_epik_input>  (183) 
W0NAXTEyM2M0YzVbY0hdW2NIXWMoW09IXSljNE9bQ0BASF0xW0NAQEhdKFtPSF0pW0NIXT1bQ0hdW0NASF0yW0NAQEhdKFtDSDJdNSlOKFtDSDJdW0NIMl0zKVtDSDJdW0NIXTZbQ0gyXVtDSDJdNg==

>  <s_epik_cmdline>  (183) 
J2VwaWtfcHl0aG9uJywgJy1waHQnLCAnMi4wJywgJy1waCcsICc3LjAnLCAnLXRuJywgJzgnLCAnLW1hJywgJzIwMCcsICctaW1hZScsICc8aW5maWxlLm1hZT4nLCAnLW9tYWUnLCAnPG91dGZpbGUubWFlPic=

>  <r_lp_tautomer_probability>  (183) 
1

>  <r_epik_Ionization_Penalty>  (183) 
0.041057

>  <r_epik_Ionization_Penalty_Charging>  (183) 
0.0303035

>  <r_epik_Ionization_Penalty_Neutral>  (183) 
0.0107535

>  <r_epik_State_Penalty>  (183) 
0.0328767

>  <r_epik_Charging_Adjusted_Penalty>  (183) 
0.0631802

>  <i_epik_Tot_Q>  (183) 
1

>  <i_epik_Tot_abs_Q>  (183) 
1

>  <s_lp_Force_Field>  (183) 
OPLS3e

>  <r_lp_Energy>  (183) 
96.6814

>  <b_lp_Chiralities_Consistent>  (183) 
1

>  <s_lp_Variant>  (183) 
58:0-1

>  <s_i_glide_gridfile>  (183) 
pfpi4k_grid

>  <i_i_glide_lignum>  (183) 
39

>  <i_i_glide_rotatable_bonds>  (183) 
4

>  <r_i_docking_score>  (183) 
-4.66372

>  <r_i_glide_ligand_efficiency>  (183) 
-0.194322

>  <r_i_glide_ligand_efficiency_sa>  (183) 
-0.560521

>  <r_i_glide_ligand_efficiency_ln>  (183) 
-1.11624

>  <r_i_glide_gscore>  (183) 
-4.66372

>  <r_i_glide_lipo>  (183) 
-0.712528

>  <r_i_glide_hbond>  (183) 
-0.056476

>  <r_i_glide_metal>  (183) 
-0

>  <r_i_glide_rewards>  (183) 
-1.18357

>  <r_i_glide_evdw>  (183) 
-25.0762

>  <r_i_glide_ecoul>  (183) 
-11.3207

>  <r_i_glide_erotb>  (183) 
0.246436

>  <r_i_glide_esite>  (183) 
-0.00566579

>  <r_i_glide_emodel>  (183) 
-46.055

>  <r_i_glide_energy>  (183) 
-36.3969

>  <r_i_glide_einternal>  (183) 
0.847212

>  <r_i_glide_intrahb_reward>  (183) 
-0

>  <i_i_glide_confnum>  (183) 
3

>  <i_i_glide_posenum>  (183) 
9

>  <r_i_glide_eff_state_penalty>  (183) 
0

>  <ligand_id>  (183) 
58

>  <original_smiles>  (183) 
Oc1ccc2c3c1OC1C(O)C=CC4C(C2)N(CC2CC2)CCC341

>  <smiles>  (183) 
[H]Oc1c([H])c([H])c2c3c1OC1([H])C([H])(O[H])C([H])=C([H])C4([H])C31C([H])([H])C([H])([H])[N+]([H])(C([H])([H])C1([H])C([H])([H])C1([H])[H])C4([H])C2([H])[H]

$$$$
58:0:1
     RDKit          3D

 48 53  0  0  1  0  0  0  0  0999 V2000
    8.6205   -2.1210   -0.7269 O   0  0  0  0  0  0  0  0  0  0  0  0
    7.5449   -2.8522   -0.3352 C   0  0  0  0  0  0  0  0  0  0  0  0
    7.7099   -4.0513    0.4135 C   0  0  0  0  0  0  0  0  0  0  0  0
    6.6118   -4.8835    0.7472 C   0  0  0  0  0  0  0  0  0  0  0  0
    5.3139   -4.4739    0.3823 C   0  0  0  0  0  0  0  0  0  0  0  0
    5.2269   -3.2325   -0.2622 C   0  0  0  0  0  0  0  0  0  0  0  0
    6.2516   -2.4265   -0.7065 C   0  0  0  0  0  0  0  0  0  0  0  0
    5.8040   -1.4063   -1.5182 O   0  0  0  0  0  0  0  0  0  0  0  0
    4.5200   -1.9364   -1.9271 C   0  0  2  0  0  0  0  0  0  0  0  0
    3.4161   -1.3381   -2.7994 C   0  0  1  0  0  0  0  0  0  0  0  0
    3.9530   -0.9520   -4.0492 O   0  0  0  0  0  0  0  0  0  0  0  0
    2.4520   -2.5063   -3.0295 C   0  0  0  0  0  0  0  0  0  0  0  0
    2.1852   -3.4615   -2.0811 C   0  0  0  0  0  0  0  0  0  0  0  0
    2.7001   -3.2963   -0.6605 C   0  0  1  0  0  0  0  0  0  0  0  0
    2.7332   -4.3314    0.4853 C   0  0  1  0  0  0  0  0  0  0  0  0
    3.9964   -5.2250    0.4614 C   0  0  0  0  0  0  0  0  0  0  0  0
    2.6638   -3.5314    1.7654 N   0  0  1  0  0  0  0  0  0  0  0  0
    2.6142   -4.3460    3.0121 C   0  0  0  0  0  0  0  0  0  0  0  0
    1.8280   -3.6838    4.1488 C   0  0  0  0  0  0  0  0  0  0  0  0
    1.0561   -2.3885    3.9551 C   0  0  0  0  0  0  0  0  0  0  0  0
    2.3042   -2.4170    4.8320 C   0  0  0  0  0  0  0  0  0  0  0  0
    3.5718   -2.3227    1.8643 C   0  0  0  0  0  0  0  0  0  0  0  0
    3.7315   -1.5158    0.5570 C   0  0  0  0  0  0  0  0  0  0  0  0
    3.9824   -2.4896   -0.6032 C   0  0  1  0  0  0  0  0  0  0  0  0
    9.4478   -2.5628   -0.8340 H   0  0  0  0  0  0  0  0  0  0  0  0
    8.6953   -4.3566    0.7058 H   0  0  0  0  0  0  0  0  0  0  0  0
    6.7624   -5.8374    1.2467 H   0  0  0  0  0  0  0  0  0  0  0  0
    4.8085   -2.7935   -2.5488 H   0  0  0  0  0  0  0  0  0  0  0  0
    2.9074   -0.4971   -2.3239 H   0  0  0  0  0  0  0  0  0  0  0  0
    3.3892   -0.2914   -4.4188 H   0  0  0  0  0  0  0  0  0  0  0  0
    2.0078   -2.5973   -4.0041 H   0  0  0  0  0  0  0  0  0  0  0  0
    1.4952   -4.2541   -2.2748 H   0  0  0  0  0  0  0  0  0  0  0  0
    1.8251   -2.7445   -0.3399 H   0  0  0  0  0  0  0  0  0  0  0  0
    1.8444   -4.9547    0.4304 H   0  0  0  0  0  0  0  0  0  0  0  0
    3.9278   -5.8682   -0.4165 H   0  0  0  0  0  0  0  0  0  0  0  0
    4.0091   -5.8936    1.3196 H   0  0  0  0  0  0  0  0  0  0  0  0
    2.1347   -5.3124    2.8131 H   0  0  0  0  0  0  0  0  0  0  0  0
    3.6193   -4.6011    3.3623 H   0  0  0  0  0  0  0  0  0  0  0  0
    1.4132   -4.4191    4.8325 H   0  0  0  0  0  0  0  0  0  0  0  0
    1.0623   -1.9520    2.9554 H   0  0  0  0  0  0  0  0  0  0  0  0
    0.0912   -2.3039    4.4469 H   0  0  0  0  0  0  0  0  0  0  0  0
    2.0959   -2.2850    5.9033 H   0  0  0  0  0  0  0  0  0  0  0  0
    3.2735   -2.0574    4.4933 H   0  0  0  0  0  0  0  0  0  0  0  0
    3.1935   -1.5787    2.5450 H   0  0  0  0  0  0  0  0  0  0  0  0
    4.5469   -2.6349    2.2560 H   0  0  0  0  0  0  0  0  0  0  0  0
    2.8355   -0.9134    0.4098 H   0  0  0  0  0  0  0  0  0  0  0  0
    4.5364   -0.7967    0.7027 H   0  0  0  0  0  0  0  0  0  0  0  0
    1.7359   -3.1201    1.7332 H   0  0  0  0  0  0  0  0  0  0  0  0
  1  2  1  0
  1 25  1  0
  2  7  2  0
  2  3  1  0
  3  4  2  0
  3 26  1  0
  4  5  1  0
  4 27  1  0
  5 16  1  0
  5  6  2  0
  6 24  1  0
  6  7  1  0
  7  8  1  0
  8  9  1  0
  9 24  1  0
  9 10  1  0
  9 28  1  6
 10 11  1  0
 10 12  1  0
 10 29  1  1
 11 30  1  0
 12 13  2  0
 12 31  1  0
 13 14  1  0
 13 32  1  0
 14 24  1  0
 14 15  1  0
 14 33  1  1
 15 16  1  0
 15 17  1  0
 15 34  1  6
 16 35  1  0
 16 36  1  0
 17 18  1  0
 17 22  1  0
 17 48  1  6
 18 19  1  0
 18 37  1  0
 18 38  1  0
 19 21  1  0
 19 20  1  0
 19 39  1  0
 20 21  1  0
 20 40  1  0
 20 41  1  0
 21 42  1  0
 21 43  1  0
 22 23  1  0
 22 44  1  0
 22 45  1  0
 24 23  1  1
 23 46  1  0
 23 47  1  0
M  CHG  1  17   1
M  END
>  <i_m_ct_stereo_status>  (184) 
1

>  <s_m_source_file>  (184) 
/var/tmp/pbs.5076255.sched01/tmpcsrx8n8z/40wzjmt8mb.sdf

>  <i_m_source_file_index>  (184) 
39

>  <i_lp_mmshare_version>  (184) 
48012

>  <i_f3d_flags>  (184) 
0

>  <s_epik_input>  (184) 
W0NAXTEyM2M0YzVbY0hdW2NIXWMoW09IXSljNE9bQ0BASF0xW0NAQEhdKFtPSF0pW0NIXT1bQ0hdW0NASF0yW0NAQEhdKFtDSDJdNSlOKFtDSDJdW0NIMl0zKVtDSDJdW0NIXTZbQ0gyXVtDSDJdNg==

>  <s_epik_cmdline>  (184) 
J2VwaWtfcHl0aG9uJywgJy1waHQnLCAnMi4wJywgJy1waCcsICc3LjAnLCAnLXRuJywgJzgnLCAnLW1hJywgJzIwMCcsICctaW1hZScsICc8aW5maWxlLm1hZT4nLCAnLW9tYWUnLCAnPG91dGZpbGUubWFlPic=

>  <r_lp_tautomer_probability>  (184) 
1

>  <r_epik_Ionization_Penalty>  (184) 
0.041057

>  <r_epik_Ionization_Penalty_Charging>  (184) 
0.0303035

>  <r_epik_Ionization_Penalty_Neutral>  (184) 
0.0107535

>  <r_epik_State_Penalty>  (184) 
0.0328767

>  <r_epik_Charging_Adjusted_Penalty>  (184) 
0.0631802

>  <i_epik_Tot_Q>  (184) 
1

>  <i_epik_Tot_abs_Q>  (184) 
1

>  <s_lp_Force_Field>  (184) 
OPLS3e

>  <r_lp_Energy>  (184) 
96.6814

>  <b_lp_Chiralities_Consistent>  (184) 
1

>  <s_lp_Variant>  (184) 
58:0-1

>  <s_i_glide_gridfile>  (184) 
pfpi4k_grid

>  <i_i_glide_lignum>  (184) 
39

>  <i_i_glide_rotatable_bonds>  (184) 
4

>  <r_i_docking_score>  (184) 
-4.59414

>  <r_i_glide_ligand_efficiency>  (184) 
-0.191422

>  <r_i_glide_ligand_efficiency_sa>  (184) 
-0.552158

>  <r_i_glide_ligand_efficiency_ln>  (184) 
-1.09959

>  <r_i_glide_gscore>  (184) 
-4.59414

>  <r_i_glide_lipo>  (184) 
-0.736036

>  <r_i_glide_hbond>  (184) 
-0.0759172

>  <r_i_glide_metal>  (184) 
-0

>  <r_i_glide_rewards>  (184) 
-1.18357

>  <r_i_glide_evdw>  (184) 
-25.5516

>  <r_i_glide_ecoul>  (184) 
-10.4044

>  <r_i_glide_erotb>  (184) 
0.246436

>  <r_i_glide_esite>  (184) 
-0.0068036

>  <r_i_glide_emodel>  (184) 
-38.2633

>  <r_i_glide_energy>  (184) 
-35.956

>  <r_i_glide_einternal>  (184) 
12.5648

>  <r_i_glide_intrahb_reward>  (184) 
-0

>  <i_i_glide_confnum>  (184) 
3

>  <i_i_glide_posenum>  (184) 
25

>  <r_i_glide_eff_state_penalty>  (184) 
0

>  <ligand_id>  (184) 
58

>  <original_smiles>  (184) 
Oc1ccc2c3c1OC1C(O)C=CC4C(C2)N(CC2CC2)CCC341

>  <smiles>  (184) 
[H]Oc1c([H])c([H])c2c3c1OC1([H])C([H])(O[H])C([H])=C([H])C4([H])C31C([H])([H])C([H])([H])[N+]([H])(C([H])([H])C1([H])C([H])([H])C1([H])[H])C4([H])C2([H])[H]

$$$$
58:0:2
     RDKit          3D

 48 53  0  0  1  0  0  0  0  0999 V2000
    8.5404   -1.4735    0.2540 O   0  0  0  0  0  0  0  0  0  0  0  0
    7.5571   -2.4181    0.2623 C   0  0  0  0  0  0  0  0  0  0  0  0
    7.8413   -3.7154    0.7685 C   0  0  0  0  0  0  0  0  0  0  0  0
    6.8598   -4.7435    0.7862 C   0  0  0  0  0  0  0  0  0  0  0  0
    5.5577   -4.4510    0.3396 C   0  0  0  0  0  0  0  0  0  0  0  0
    5.3341   -3.1380   -0.0700 C   0  0  0  0  0  0  0  0  0  0  0  0
    6.2650   -2.1237   -0.2197 C   0  0  0  0  0  0  0  0  0  0  0  0
    5.7452   -1.0437   -0.9057 O   0  0  0  0  0  0  0  0  0  0  0  0
    4.6206   -1.6598   -1.5663 C   0  0  2  0  0  0  0  0  0  0  0  0
    3.5453   -1.0721   -2.4853 C   0  0  1  0  0  0  0  0  0  0  0  0
    4.1461   -0.3669   -3.5493 O   0  0  0  0  0  0  0  0  0  0  0  0
    2.8114   -2.2935   -3.0541 C   0  0  0  0  0  0  0  0  0  0  0  0
    2.5904   -3.4182   -2.3291 C   0  0  0  0  0  0  0  0  0  0  0  0
    2.8932   -3.4497   -0.8334 C   0  0  1  0  0  0  0  0  0  0  0  0
    2.9779   -4.6793    0.1050 C   0  0  1  0  0  0  0  0  0  0  0  0
    4.3691   -5.3729    0.0922 C   0  0  0  0  0  0  0  0  0  0  0  0
    2.6100   -4.1875    1.4928 N   0  0  1  0  0  0  0  0  0  0  0  0
    2.5915   -5.2585    2.5299 C   0  0  0  0  0  0  0  0  0  0  0  0
    1.7000   -4.9249    3.7193 C   0  0  0  0  0  0  0  0  0  0  0  0
    1.8085   -5.7422    4.9926 C   0  0  0  0  0  0  0  0  0  0  0  0
    0.5871   -5.8671    4.1282 C   0  0  0  0  0  0  0  0  0  0  0  0
    3.3073   -2.9314    1.9540 C   0  0  0  0  0  0  0  0  0  0  0  0
    3.4864   -1.8487    0.8509 C   0  0  0  0  0  0  0  0  0  0  0  0
    4.0300   -2.5224   -0.4379 C   0  0  1  0  0  0  0  0  0  0  0  0
    8.3014   -0.6689    0.6884 H   0  0  0  0  0  0  0  0  0  0  0  0
    8.8256   -3.9242    1.1437 H   0  0  0  0  0  0  0  0  0  0  0  0
    7.1129   -5.7374    1.1311 H   0  0  0  0  0  0  0  0  0  0  0  0
    5.1208   -2.3269   -2.2812 H   0  0  0  0  0  0  0  0  0  0  0  0
    2.8270   -0.4612   -1.9544 H   0  0  0  0  0  0  0  0  0  0  0  0
    3.5577    0.3296   -3.8033 H   0  0  0  0  0  0  0  0  0  0  0  0
    2.5097   -2.2386   -4.0919 H   0  0  0  0  0  0  0  0  0  0  0  0
    2.0701   -4.2530   -2.7727 H   0  0  0  0  0  0  0  0  0  0  0  0
    1.9365   -3.0055   -0.5581 H   0  0  0  0  0  0  0  0  0  0  0  0
    2.2244   -5.4068   -0.1971 H   0  0  0  0  0  0  0  0  0  0  0  0
    4.5379   -5.8241   -0.8814 H   0  0  0  0  0  0  0  0  0  0  0  0
    4.4067   -6.1996    0.8027 H   0  0  0  0  0  0  0  0  0  0  0  0
    2.2341   -6.1905    2.0898 H   0  0  0  0  0  0  0  0  0  0  0  0
    3.6028   -5.4543    2.8873 H   0  0  0  0  0  0  0  0  0  0  0  0
    1.5081   -3.8644    3.8945 H   0  0  0  0  0  0  0  0  0  0  0  0
    2.5019   -6.5818    5.0127 H   0  0  0  0  0  0  0  0  0  0  0  0
    1.6893   -5.2174    5.9396 H   0  0  0  0  0  0  0  0  0  0  0  0
   -0.3310   -5.4144    4.4986 H   0  0  0  0  0  0  0  0  0  0  0  0
    0.4609   -6.7885    3.5621 H   0  0  0  0  0  0  0  0  0  0  0  0
    2.7499   -2.4815    2.7731 H   0  0  0  0  0  0  0  0  0  0  0  0
    4.2789   -3.1911    2.3750 H   0  0  0  0  0  0  0  0  0  0  0  0
    2.5357   -1.3445    0.6631 H   0  0  0  0  0  0  0  0  0  0  0  0
    4.1519   -1.0699    1.2184 H   0  0  0  0  0  0  0  0  0  0  0  0
    1.6446   -3.8935    1.4003 H   0  0  0  0  0  0  0  0  0  0  0  0
  1  2  1  0
  1 25  1  0
  2  7  2  0
  2  3  1  0
  3  4  2  0
  3 26  1  0
  4  5  1  0
  4 27  1  0
  5 16  1  0
  5  6  2  0
  6 24  1  0
  6  7  1  0
  7  8  1  0
  8  9  1  0
  9 24  1  0
  9 10  1  0
  9 28  1  6
 10 11  1  0
 10 12  1  0
 10 29  1  1
 11 30  1  0
 12 13  2  0
 12 31  1  0
 13 14  1  0
 13 32  1  0
 14 24  1  0
 14 15  1  0
 14 33  1  1
 15 16  1  0
 15 17  1  0
 15 34  1  6
 16 35  1  0
 16 36  1  0
 17 18  1  0
 17 22  1  0
 17 48  1  6
 18 19  1  0
 18 37  1  0
 18 38  1  0
 19 21  1  0
 19 20  1  0
 19 39  1  0
 20 21  1  0
 20 40  1  0
 20 41  1  0
 21 42  1  0
 21 43  1  0
 22 23  1  0
 22 44  1  0
 22 45  1  0
 24 23  1  1
 23 46  1  0
 23 47  1  0
M  CHG  1  17   1
M  END
>  <i_m_ct_stereo_status>  (185) 
1

>  <s_m_source_file>  (185) 
/var/tmp/pbs.5076255.sched01/tmpcsrx8n8z/40wzjmt8mb.sdf

>  <i_m_source_file_index>  (185) 
39

>  <i_lp_mmshare_version>  (185) 
48012

>  <i_f3d_flags>  (185) 
0

>  <s_epik_input>  (185) 
W0NAXTEyM2M0YzVbY0hdW2NIXWMoW09IXSljNE9bQ0BASF0xW0NAQEhdKFtPSF0pW0NIXT1bQ0hdW0NASF0yW0NAQEhdKFtDSDJdNSlOKFtDSDJdW0NIMl0zKVtDSDJdW0NIXTZbQ0gyXVtDSDJdNg==

>  <s_epik_cmdline>  (185) 
J2VwaWtfcHl0aG9uJywgJy1waHQnLCAnMi4wJywgJy1waCcsICc3LjAnLCAnLXRuJywgJzgnLCAnLW1hJywgJzIwMCcsICctaW1hZScsICc8aW5maWxlLm1hZT4nLCAnLW9tYWUnLCAnPG91dGZpbGUubWFlPic=

>  <r_lp_tautomer_probability>  (185) 
1

>  <r_epik_Ionization_Penalty>  (185) 
0.041057

>  <r_epik_Ionization_Penalty_Charging>  (185) 
0.0303035

>  <r_epik_Ionization_Penalty_Neutral>  (185) 
0.0107535

>  <r_epik_State_Penalty>  (185) 
0.0328767

>  <r_epik_Charging_Adjusted_Penalty>  (185) 
0.0631802

>  <i_epik_Tot_Q>  (185) 
1

>  <i_epik_Tot_abs_Q>  (185) 
1

>  <s_lp_Force_Field>  (185) 
OPLS3e

>  <r_lp_Energy>  (185) 
96.6814

>  <b_lp_Chiralities_Consistent>  (185) 
1

>  <s_lp_Variant>  (185) 
58:0-1

>  <s_i_glide_gridfile>  (185) 
pfpi4k_grid

>  <i_i_glide_lignum>  (185) 
39

>  <i_i_glide_rotatable_bonds>  (185) 
4

>  <r_i_docking_score>  (185) 
-4.13919

>  <r_i_glide_ligand_efficiency>  (185) 
-0.172466

>  <r_i_glide_ligand_efficiency_sa>  (185) 
-0.497479

>  <r_i_glide_ligand_efficiency_ln>  (185) 
-0.990698

>  <r_i_glide_gscore>  (185) 
-4.13919

>  <r_i_glide_lipo>  (185) 
-0.658355

>  <r_i_glide_hbond>  (185) 
-0.0418098

>  <r_i_glide_metal>  (185) 
-0

>  <r_i_glide_rewards>  (185) 
-1.18357

>  <r_i_glide_evdw>  (185) 
-24.0677

>  <r_i_glide_ecoul>  (185) 
-9.26207

>  <r_i_glide_erotb>  (185) 
0.352052

>  <r_i_glide_esite>  (185) 
-0.0148104

>  <r_i_glide_emodel>  (185) 
-39.887

>  <r_i_glide_energy>  (185) 
-33.3298

>  <r_i_glide_einternal>  (185) 
3.77786

>  <r_i_glide_intrahb_reward>  (185) 
-0

>  <i_i_glide_confnum>  (185) 
3

>  <i_i_glide_posenum>  (185) 
22

>  <r_i_glide_eff_state_penalty>  (185) 
0

>  <ligand_id>  (185) 
58

>  <original_smiles>  (185) 
Oc1ccc2c3c1OC1C(O)C=CC4C(C2)N(CC2CC2)CCC341

>  <smiles>  (185) 
[H]Oc1c([H])c([H])c2c3c1OC1([H])C([H])(O[H])C([H])=C([H])C4([H])C31C([H])([H])C([H])([H])[N+]([H])(C([H])([H])C1([H])C([H])([H])C1([H])[H])C4([H])C2([H])[H]

$$$$
58:1:0
     RDKit          3D

 47 52  0  0  1  0  0  0  0  0999 V2000
   -4.3094  -14.1796   -7.8428 O   0  0  0  0  0  0  0  0  0  0  0  0
   -4.9084  -13.0381   -7.4012 C   0  0  0  0  0  0  0  0  0  0  0  0
   -4.4028  -12.3578   -6.2810 C   0  0  0  0  0  0  0  0  0  0  0  0
   -5.0251  -11.2246   -5.7236 C   0  0  0  0  0  0  0  0  0  0  0  0
   -6.1962  -10.7296   -6.3130 C   0  0  0  0  0  0  0  0  0  0  0  0
   -6.6124  -11.4111   -7.4588 C   0  0  0  0  0  0  0  0  0  0  0  0
   -6.0818  -12.5481   -8.0527 C   0  0  0  0  0  0  0  0  0  0  0  0
   -6.8313  -13.0135   -9.1082 O   0  0  0  0  0  0  0  0  0  0  0  0
   -8.1009  -12.4113   -8.7867 C   0  0  2  0  0  0  0  0  0  0  0  0
   -9.4214  -12.4418   -9.5495 C   0  0  1  0  0  0  0  0  0  0  0  0
   -9.7758  -13.7864   -9.8097 O   0  0  0  0  0  0  0  0  0  0  0  0
  -10.4429  -11.8575   -8.5613 C   0  0  0  0  0  0  0  0  0  0  0  0
  -10.1387  -10.8593   -7.6828 C   0  0  0  0  0  0  0  0  0  0  0  0
   -8.8293  -10.1205   -7.8344 C   0  0  1  0  0  0  0  0  0  0  0  0
   -8.2065   -9.1209   -6.8417 C   0  0  1  0  0  0  0  0  0  0  0  0
   -7.2677   -9.7586   -5.7978 C   0  0  0  0  0  0  0  0  0  0  0  0
   -7.3501   -8.1755   -7.5821 N   0  0  0  0  0  0  0  0  0  0  0  0
   -8.0826   -7.0172   -8.0659 C   0  0  0  0  0  0  0  0  0  0  0  0
   -8.0810   -5.9105   -7.0211 C   0  0  0  0  0  0  0  0  0  0  0  0
   -9.3380   -5.1222   -6.7009 C   0  0  0  0  0  0  0  0  0  0  0  0
   -8.2276   -4.4676   -7.4685 C   0  0  0  0  0  0  0  0  0  0  0  0
   -6.4480   -8.7927   -8.5731 C   0  0  0  0  0  0  0  0  0  0  0  0
   -7.0452  -10.0395   -9.3082 C   0  0  0  0  0  0  0  0  0  0  0  0
   -7.7172  -10.9944   -8.3415 C   0  0  1  0  0  0  0  0  0  0  0  0
   -4.7676  -14.5034   -8.5922 H   0  0  0  0  0  0  0  0  0  0  0  0
   -3.5521  -12.7546   -5.7536 H   0  0  0  0  0  0  0  0  0  0  0  0
   -4.6922  -10.8646   -4.7607 H   0  0  0  0  0  0  0  0  0  0  0  0
   -8.3764  -12.9444   -7.8655 H   0  0  0  0  0  0  0  0  0  0  0  0
   -9.3693  -11.8499  -10.4658 H   0  0  0  0  0  0  0  0  0  0  0  0
   -9.7108  -14.2712   -9.0001 H   0  0  0  0  0  0  0  0  0  0  0  0
  -11.4041  -12.3592   -8.5437 H   0  0  0  0  0  0  0  0  0  0  0  0
  -10.8504  -10.4842   -6.9646 H   0  0  0  0  0  0  0  0  0  0  0  0
   -9.2019   -9.5005   -8.6433 H   0  0  0  0  0  0  0  0  0  0  0  0
   -8.9726   -8.5723   -6.3339 H   0  0  0  0  0  0  0  0  0  0  0  0
   -7.9386  -10.2954   -5.1426 H   0  0  0  0  0  0  0  0  0  0  0  0
   -6.8192   -8.9738   -5.1857 H   0  0  0  0  0  0  0  0  0  0  0  0
   -7.5874   -6.6233   -8.9481 H   0  0  0  0  0  0  0  0  0  0  0  0
   -9.1120   -7.2819   -8.3100 H   0  0  0  0  0  0  0  0  0  0  0  0
   -7.3695   -6.0485   -6.2062 H   0  0  0  0  0  0  0  0  0  0  0  0
  -10.2488   -5.3922   -7.2333 H   0  0  0  0  0  0  0  0  0  0  0  0
   -9.4748   -4.8064   -5.6673 H   0  0  0  0  0  0  0  0  0  0  0  0
   -7.6481   -3.7156   -6.9373 H   0  0  0  0  0  0  0  0  0  0  0  0
   -8.3722   -4.2793   -8.5310 H   0  0  0  0  0  0  0  0  0  0  0  0
   -6.1378   -8.0556   -9.2976 H   0  0  0  0  0  0  0  0  0  0  0  0
   -5.5327   -9.0789   -8.0533 H   0  0  0  0  0  0  0  0  0  0  0  0
   -7.7276   -9.7235  -10.1008 H   0  0  0  0  0  0  0  0  0  0  0  0
   -6.2727  -10.6696   -9.7302 H   0  0  0  0  0  0  0  0  0  0  0  0
  1  2  1  0
  1 25  1  0
  2  7  2  0
  2  3  1  0
  3  4  2  0
  3 26  1  0
  4  5  1  0
  4 27  1  0
  5 16  1  0
  5  6  2  0
  6 24  1  0
  6  7  1  0
  7  8  1  0
  8  9  1  0
  9 24  1  0
  9 10  1  0
  9 28  1  1
 10 11  1  0
 10 12  1  0
 10 29  1  6
 11 30  1  0
 12 13  2  0
 12 31  1  0
 13 14  1  0
 13 32  1  0
 14 24  1  0
 14 15  1  0
 14 33  1  6
 15 16  1  0
 15 17  1  0
 15 34  1  1
 16 35  1  0
 16 36  1  0
 17 18  1  0
 17 22  1  0
 18 19  1  0
 18 37  1  0
 18 38  1  0
 19 21  1  0
 19 20  1  0
 19 39  1  0
 20 21  1  0
 20 40  1  0
 20 41  1  0
 21 42  1  0
 21 43  1  0
 22 23  1  0
 22 44  1  0
 22 45  1  0
 24 23  1  6
 23 46  1  0
 23 47  1  0
M  END
>  <i_m_ct_stereo_status>  (186) 
1

>  <s_m_source_file>  (186) 
/var/tmp/pbs.5076255.sched01/tmpcsrx8n8z/40wzjmt8mb.sdf

>  <i_m_source_file_index>  (186) 
40

>  <i_lp_mmshare_version>  (186) 
48012

>  <i_f3d_flags>  (186) 
0

>  <s_epik_input>  (186) 
W0NAXTEyM2M0YzVbY0hdW2NIXWMoW09IXSljNE9bQ0BASF0xW0NAQEhdKFtPSF0pW0NIXT1bQ0hdW0NASF0yW0NAQEhdKFtDSDJdNSlOKFtDSDJdW0NIMl0zKVtDSDJdW0NIXTZbQ0gyXVtDSDJdNg==

>  <s_epik_cmdline>  (186) 
J2VwaWtfcHl0aG9uJywgJy1waHQnLCAnMi4wJywgJy1waCcsICc3LjAnLCAnLXRuJywgJzgnLCAnLW1hJywgJzIwMCcsICctaW1hZScsICc8aW5maWxlLm1hZT4nLCAnLW9tYWUnLCAnPG91dGZpbGUubWFlPic=

>  <r_lp_tautomer_probability>  (186) 
1

>  <r_epik_Ionization_Penalty>  (186) 
1.77841

>  <r_epik_Ionization_Penalty_Charging>  (186) 
0

>  <r_epik_Ionization_Penalty_Neutral>  (186) 
1.77841

>  <r_epik_State_Penalty>  (186) 
1.8963

>  <r_epik_Charging_Adjusted_Penalty>  (186) 
1.8963

>  <i_epik_Tot_Q>  (186) 
0

>  <i_epik_Tot_abs_Q>  (186) 
0

>  <s_lp_Force_Field>  (186) 
OPLS3e

>  <r_lp_Energy>  (186) 
106.373

>  <b_lp_Chiralities_Consistent>  (186) 
1

>  <s_lp_Variant>  (186) 
58:0-2

>  <s_i_glide_gridfile>  (186) 
pfpi4k_grid

>  <i_i_glide_lignum>  (186) 
40

>  <i_i_glide_rotatable_bonds>  (186) 
4

>  <r_i_docking_score>  (186) 
-4.78885

>  <r_i_glide_ligand_efficiency>  (186) 
-0.199536

>  <r_i_glide_ligand_efficiency_sa>  (186) 
-0.57556

>  <r_i_glide_ligand_efficiency_ln>  (186) 
-1.14619

>  <r_i_glide_gscore>  (186) 
-4.78885

>  <r_i_glide_lipo>  (186) 
-1.53743

>  <r_i_glide_hbond>  (186) 
0

>  <r_i_glide_metal>  (186) 
-0

>  <r_i_glide_rewards>  (186) 
-1.42316

>  <r_i_glide_evdw>  (186) 
-14.7042

>  <r_i_glide_ecoul>  (186) 
-9.64686

>  <r_i_glide_erotb>  (186) 
0.353979

>  <r_i_glide_esite>  (186) 
0

>  <r_i_glide_emodel>  (186) 
-32.6111

>  <r_i_glide_energy>  (186) 
-24.3511

>  <r_i_glide_einternal>  (186) 
2.35025

>  <r_i_glide_intrahb_reward>  (186) 
-0

>  <i_i_glide_confnum>  (186) 
5

>  <i_i_glide_posenum>  (186) 
21

>  <r_i_glide_eff_state_penalty>  (186) 
0

>  <ligand_id>  (186) 
58

>  <original_smiles>  (186) 
Oc1ccc2c3c1OC1C(O)C=CC4C(C2)N(CC2CC2)CCC341

>  <smiles>  (186) 
[H]Oc1c([H])c([H])c2c3c1OC1([H])C([H])(O[H])C([H])=C([H])C4([H])C([H])(N(C([H])([H])C5([H])C([H])([H])C5([H])[H])C([H])([H])C([H])([H])C314)C2([H])[H]

$$$$
58:1:1
     RDKit          3D

 47 52  0  0  1  0  0  0  0  0999 V2000
    5.7003   -0.6578   -0.6262 O   0  0  0  0  0  0  0  0  0  0  0  0
    4.9768   -1.4101    0.2486 C   0  0  0  0  0  0  0  0  0  0  0  0
    3.9233   -0.8145    0.9999 C   0  0  0  0  0  0  0  0  0  0  0  0
    3.1974   -1.5520    1.9759 C   0  0  0  0  0  0  0  0  0  0  0  0
    3.4635   -2.9234    2.1570 C   0  0  0  0  0  0  0  0  0  0  0  0
    4.4514   -3.4517    1.3248 C   0  0  0  0  0  0  0  0  0  0  0  0
    5.2807   -2.7765    0.4376 C   0  0  0  0  0  0  0  0  0  0  0  0
    6.3291   -3.5698   -0.0130 O   0  0  0  0  0  0  0  0  0  0  0  0
    6.3580   -4.5703    1.0244 C   0  0  2  0  0  0  0  0  0  0  0  0
    7.2557   -5.8036    1.2071 C   0  0  1  0  0  0  0  0  0  0  0  0
    8.6218   -5.4339    1.1176 O   0  0  0  0  0  0  0  0  0  0  0  0
    6.9646   -6.2682    2.6518 C   0  0  0  0  0  0  0  0  0  0  0  0
    5.7405   -6.1638    3.2335 C   0  0  0  0  0  0  0  0  0  0  0  0
    4.5279   -5.8032    2.3881 C   0  0  1  0  0  0  0  0  0  0  0  0
    3.1179   -5.4191    2.8973 C   0  0  1  0  0  0  0  0  0  0  0  0
    2.9270   -3.9080    3.1967 C   0  0  0  0  0  0  0  0  0  0  0  0
    2.1494   -5.7950    1.8327 N   0  0  0  0  0  0  0  0  0  0  0  0
    1.6729   -7.1727    1.9392 C   0  0  0  0  0  0  0  0  0  0  0  0
    0.1822   -7.2460    1.6514 C   0  0  0  0  0  0  0  0  0  0  0  0
   -0.8241   -7.1587    2.7832 C   0  0  0  0  0  0  0  0  0  0  0  0
   -0.5948   -8.4717    2.0831 C   0  0  0  0  0  0  0  0  0  0  0  0
    2.5124   -5.4203    0.4381 C   0  0  0  0  0  0  0  0  0  0  0  0
    4.0321   -5.5129    0.0806 C   0  0  0  0  0  0  0  0  0  0  0  0
    4.8612   -4.8816    1.2270 C   0  0  1  0  0  0  0  0  0  0  0  0
    5.4163    0.2563   -0.6703 H   0  0  0  0  0  0  0  0  0  0  0  0
    3.6812    0.2255    0.8575 H   0  0  0  0  0  0  0  0  0  0  0  0
    2.4479   -1.0650    2.5796 H   0  0  0  0  0  0  0  0  0  0  0  0
    6.6980   -3.9765    1.8855 H   0  0  0  0  0  0  0  0  0  0  0  0
    7.0282   -6.5870    0.4853 H   0  0  0  0  0  0  0  0  0  0  0  0
    9.1533   -6.2081    1.2582 H   0  0  0  0  0  0  0  0  0  0  0  0
    7.8132   -6.6049    3.2314 H   0  0  0  0  0  0  0  0  0  0  0  0
    5.5806   -6.4597    4.2587 H   0  0  0  0  0  0  0  0  0  0  0  0
    4.4007   -6.8232    2.0186 H   0  0  0  0  0  0  0  0  0  0  0  0
    2.8770   -5.9612    3.8113 H   0  0  0  0  0  0  0  0  0  0  0  0
    3.4256   -3.6748    4.1378 H   0  0  0  0  0  0  0  0  0  0  0  0
    1.8709   -3.6884    3.3584 H   0  0  0  0  0  0  0  0  0  0  0  0
    2.2214   -7.8345    1.2688 H   0  0  0  0  0  0  0  0  0  0  0  0
    1.8176   -7.5515    2.9520 H   0  0  0  0  0  0  0  0  0  0  0  0
   -0.1223   -6.8210    0.6950 H   0  0  0  0  0  0  0  0  0  0  0  0
   -0.4362   -7.0500    3.7965 H   0  0  0  0  0  0  0  0  0  0  0  0
   -1.7769   -6.6706    2.5963 H   0  0  0  0  0  0  0  0  0  0  0  0
   -1.3856   -8.8294    1.4257 H   0  0  0  0  0  0  0  0  0  0  0  0
   -0.0475   -9.2473    2.6157 H   0  0  0  0  0  0  0  0  0  0  0  0
    1.9293   -5.9976   -0.2777 H   0  0  0  0  0  0  0  0  0  0  0  0
    2.2003   -4.3874    0.2811 H   0  0  0  0  0  0  0  0  0  0  0  0
    4.3193   -6.5523   -0.0979 H   0  0  0  0  0  0  0  0  0  0  0  0
    4.2175   -5.0044   -0.8654 H   0  0  0  0  0  0  0  0  0  0  0  0
  1  2  1  0
  1 25  1  0
  2  7  2  0
  2  3  1  0
  3  4  2  0
  3 26  1  0
  4  5  1  0
  4 27  1  0
  5 16  1  0
  5  6  2  0
  6 24  1  0
  6  7  1  0
  7  8  1  0
  8  9  1  0
  9 24  1  0
  9 10  1  0
  9 28  1  1
 10 11  1  0
 10 12  1  0
 10 29  1  6
 11 30  1  0
 12 13  2  0
 12 31  1  0
 13 14  1  0
 13 32  1  0
 14 24  1  0
 14 15  1  0
 14 33  1  6
 15 16  1  0
 15 17  1  0
 15 34  1  1
 16 35  1  0
 16 36  1  0
 17 18  1  0
 17 22  1  0
 18 19  1  0
 18 37  1  0
 18 38  1  0
 19 21  1  0
 19 20  1  0
 19 39  1  0
 20 21  1  0
 20 40  1  0
 20 41  1  0
 21 42  1  0
 21 43  1  0
 22 23  1  0
 22 44  1  0
 22 45  1  0
 24 23  1  6
 23 46  1  0
 23 47  1  0
M  END
>  <i_m_ct_stereo_status>  (187) 
1

>  <s_m_source_file>  (187) 
/var/tmp/pbs.5076255.sched01/tmpcsrx8n8z/40wzjmt8mb.sdf

>  <i_m_source_file_index>  (187) 
40

>  <i_lp_mmshare_version>  (187) 
48012

>  <i_f3d_flags>  (187) 
0

>  <s_epik_input>  (187) 
W0NAXTEyM2M0YzVbY0hdW2NIXWMoW09IXSljNE9bQ0BASF0xW0NAQEhdKFtPSF0pW0NIXT1bQ0hdW0NASF0yW0NAQEhdKFtDSDJdNSlOKFtDSDJdW0NIMl0zKVtDSDJdW0NIXTZbQ0gyXVtDSDJdNg==

>  <s_epik_cmdline>  (187) 
J2VwaWtfcHl0aG9uJywgJy1waHQnLCAnMi4wJywgJy1waCcsICc3LjAnLCAnLXRuJywgJzgnLCAnLW1hJywgJzIwMCcsICctaW1hZScsICc8aW5maWxlLm1hZT4nLCAnLW9tYWUnLCAnPG91dGZpbGUubWFlPic=

>  <r_lp_tautomer_probability>  (187) 
1

>  <r_epik_Ionization_Penalty>  (187) 
1.77841

>  <r_epik_Ionization_Penalty_Charging>  (187) 
0

>  <r_epik_Ionization_Penalty_Neutral>  (187) 
1.77841

>  <r_epik_State_Penalty>  (187) 
1.8963

>  <r_epik_Charging_Adjusted_Penalty>  (187) 
1.8963

>  <i_epik_Tot_Q>  (187) 
0

>  <i_epik_Tot_abs_Q>  (187) 
0

>  <s_lp_Force_Field>  (187) 
OPLS3e

>  <r_lp_Energy>  (187) 
106.373

>  <b_lp_Chiralities_Consistent>  (187) 
1

>  <s_lp_Variant>  (187) 
58:0-2

>  <s_i_glide_gridfile>  (187) 
pfpi4k_grid

>  <i_i_glide_lignum>  (187) 
40

>  <i_i_glide_rotatable_bonds>  (187) 
4

>  <r_i_docking_score>  (187) 
-3.13495

>  <r_i_glide_ligand_efficiency>  (187) 
-0.130623

>  <r_i_glide_ligand_efficiency_sa>  (187) 
-0.376782

>  <r_i_glide_ligand_efficiency_ln>  (187) 
-0.750338

>  <r_i_glide_gscore>  (187) 
-3.13495

>  <r_i_glide_lipo>  (187) 
-0.314087

>  <r_i_glide_hbond>  (187) 
0

>  <r_i_glide_metal>  (187) 
-0

>  <r_i_glide_rewards>  (187) 
-1.19044

>  <r_i_glide_evdw>  (187) 
-21.7888

>  <r_i_glide_ecoul>  (187) 
-5.96642

>  <r_i_glide_erotb>  (187) 
0.353979

>  <r_i_glide_esite>  (187) 
0

>  <r_i_glide_emodel>  (187) 
-33.5301

>  <r_i_glide_energy>  (187) 
-27.7552

>  <r_i_glide_einternal>  (187) 
1.32011

>  <r_i_glide_intrahb_reward>  (187) 
-0

>  <i_i_glide_confnum>  (187) 
1

>  <i_i_glide_posenum>  (187) 
2

>  <r_i_glide_eff_state_penalty>  (187) 
0

>  <ligand_id>  (187) 
58

>  <original_smiles>  (187) 
Oc1ccc2c3c1OC1C(O)C=CC4C(C2)N(CC2CC2)CCC341

>  <smiles>  (187) 
[H]Oc1c([H])c([H])c2c3c1OC1([H])C([H])(O[H])C([H])=C([H])C4([H])C([H])(N(C([H])([H])C5([H])C([H])([H])C5([H])[H])C([H])([H])C([H])([H])C314)C2([H])[H]

$$$$
58:1:2
     RDKit          3D

 47 52  0  0  1  0  0  0  0  0999 V2000
    5.5767   -0.6593   -0.6815 O   0  0  0  0  0  0  0  0  0  0  0  0
    4.8338   -1.3972    0.1884 C   0  0  0  0  0  0  0  0  0  0  0  0
    3.7426   -0.8045    0.8874 C   0  0  0  0  0  0  0  0  0  0  0  0
    2.9987   -1.5293    1.8599 C   0  0  0  0  0  0  0  0  0  0  0  0
    3.2880   -2.8894    2.0891 C   0  0  0  0  0  0  0  0  0  0  0  0
    4.3125   -3.4173    1.3055 C   0  0  0  0  0  0  0  0  0  0  0  0
    5.1584   -2.7499    0.4282 C   0  0  0  0  0  0  0  0  0  0  0  0
    6.2405   -3.5285    0.0388 O   0  0  0  0  0  0  0  0  0  0  0  0
    6.2532   -4.4962    1.1057 C   0  0  2  0  0  0  0  0  0  0  0  0
    7.1742   -5.6969    1.3518 C   0  0  1  0  0  0  0  0  0  0  0  0
    8.5298   -5.2840    1.2846 O   0  0  0  0  0  0  0  0  0  0  0  0
    6.8457   -6.1336    2.7975 C   0  0  0  0  0  0  0  0  0  0  0  0
    5.5991   -6.0419    3.3357 C   0  0  0  0  0  0  0  0  0  0  0  0
    4.4067   -5.7348    2.4399 C   0  0  1  0  0  0  0  0  0  0  0  0
    2.9734   -5.3692    2.8894 C   0  0  1  0  0  0  0  0  0  0  0  0
    2.7365   -3.8541    3.1386 C   0  0  0  0  0  0  0  0  0  0  0  0
    2.0508   -5.7972    1.8031 N   0  0  0  0  0  0  0  0  0  0  0  0
    1.6030   -7.1832    1.9338 C   0  0  0  0  0  0  0  0  0  0  0  0
    0.1230   -7.2966    1.6084 C   0  0  0  0  0  0  0  0  0  0  0  0
   -0.9169   -7.1678    2.7067 C   0  0  0  0  0  0  0  0  0  0  0  0
   -0.6447   -8.5115    2.0820 C   0  0  0  0  0  0  0  0  0  0  0  0
    2.4512   -5.4536    0.4114 C   0  0  0  0  0  0  0  0  0  0  0  0
    3.9843   -5.5212    0.1065 C   0  0  0  0  0  0  0  0  0  0  0  0
    4.7589   -4.8406    1.2633 C   0  0  1  0  0  0  0  0  0  0  0  0
    5.3176    0.2638   -0.7194 H   0  0  0  0  0  0  0  0  0  0  0  0
    3.4807    0.2244    0.7062 H   0  0  0  0  0  0  0  0  0  0  0  0
    2.2179   -1.0426    2.4214 H   0  0  0  0  0  0  0  0  0  0  0  0
    6.5470   -3.8714    1.9620 H   0  0  0  0  0  0  0  0  0  0  0  0
    6.9885   -6.5050    0.6441 H   0  0  0  0  0  0  0  0  0  0  0  0
    8.7367   -4.7620    2.0485 H   0  0  0  0  0  0  0  0  0  0  0  0
    7.6799   -6.4430    3.4137 H   0  0  0  0  0  0  0  0  0  0  0  0
    5.4100   -6.3138    4.3629 H   0  0  0  0  0  0  0  0  0  0  0  0
    4.3160   -6.7668    2.0953 H   0  0  0  0  0  0  0  0  0  0  0  0
    2.7124   -5.8908    3.8106 H   0  0  0  0  0  0  0  0  0  0  0  0
    3.1974   -3.5844    4.0889 H   0  0  0  0  0  0  0  0  0  0  0  0
    1.6715   -3.6552    3.2594 H   0  0  0  0  0  0  0  0  0  0  0  0
    2.1829   -7.8499    1.2946 H   0  0  0  0  0  0  0  0  0  0  0  0
    1.7267   -7.5317    2.9597 H   0  0  0  0  0  0  0  0  0  0  0  0
   -0.1606   -6.9304    0.6221 H   0  0  0  0  0  0  0  0  0  0  0  0
   -0.5619   -6.9978    3.7221 H   0  0  0  0  0  0  0  0  0  0  0  0
   -1.8731   -6.7077    2.4681 H   0  0  0  0  0  0  0  0  0  0  0  0
   -1.4052   -8.9209    1.4224 H   0  0  0  0  0  0  0  0  0  0  0  0
   -0.1006   -9.2468    2.6741 H   0  0  0  0  0  0  0  0  0  0  0  0
    1.9028   -6.0644   -0.3032 H   0  0  0  0  0  0  0  0  0  0  0  0
    2.1228   -4.4326    0.2135 H   0  0  0  0  0  0  0  0  0  0  0  0
    4.3015   -6.5583   -0.0332 H   0  0  0  0  0  0  0  0  0  0  0  0
    4.1971   -5.0346   -0.8476 H   0  0  0  0  0  0  0  0  0  0  0  0
  1  2  1  0
  1 25  1  0
  2  7  2  0
  2  3  1  0
  3  4  2  0
  3 26  1  0
  4  5  1  0
  4 27  1  0
  5 16  1  0
  5  6  2  0
  6 24  1  0
  6  7  1  0
  7  8  1  0
  8  9  1  0
  9 24  1  0
  9 10  1  0
  9 28  1  1
 10 11  1  0
 10 12  1  0
 10 29  1  6
 11 30  1  0
 12 13  2  0
 12 31  1  0
 13 14  1  0
 13 32  1  0
 14 24  1  0
 14 15  1  0
 14 33  1  6
 15 16  1  0
 15 17  1  0
 15 34  1  1
 16 35  1  0
 16 36  1  0
 17 18  1  0
 17 22  1  0
 18 19  1  0
 18 37  1  0
 18 38  1  0
 19 21  1  0
 19 20  1  0
 19 39  1  0
 20 21  1  0
 20 40  1  0
 20 41  1  0
 21 42  1  0
 21 43  1  0
 22 23  1  0
 22 44  1  0
 22 45  1  0
 24 23  1  6
 23 46  1  0
 23 47  1  0
M  END
>  <i_m_ct_stereo_status>  (188) 
1

>  <s_m_source_file>  (188) 
/var/tmp/pbs.5076255.sched01/tmpcsrx8n8z/40wzjmt8mb.sdf

>  <i_m_source_file_index>  (188) 
40

>  <i_lp_mmshare_version>  (188) 
48012

>  <i_f3d_flags>  (188) 
0

>  <s_epik_input>  (188) 
W0NAXTEyM2M0YzVbY0hdW2NIXWMoW09IXSljNE9bQ0BASF0xW0NAQEhdKFtPSF0pW0NIXT1bQ0hdW0NASF0yW0NAQEhdKFtDSDJdNSlOKFtDSDJdW0NIMl0zKVtDSDJdW0NIXTZbQ0gyXVtDSDJdNg==

>  <s_epik_cmdline>  (188) 
J2VwaWtfcHl0aG9uJywgJy1waHQnLCAnMi4wJywgJy1waCcsICc3LjAnLCAnLXRuJywgJzgnLCAnLW1hJywgJzIwMCcsICctaW1hZScsICc8aW5maWxlLm1hZT4nLCAnLW9tYWUnLCAnPG91dGZpbGUubWFlPic=

>  <r_lp_tautomer_probability>  (188) 
1

>  <r_epik_Ionization_Penalty>  (188) 
1.77841

>  <r_epik_Ionization_Penalty_Charging>  (188) 
0

>  <r_epik_Ionization_Penalty_Neutral>  (188) 
1.77841

>  <r_epik_State_Penalty>  (188) 
1.8963

>  <r_epik_Charging_Adjusted_Penalty>  (188) 
1.8963

>  <i_epik_Tot_Q>  (188) 
0

>  <i_epik_Tot_abs_Q>  (188) 
0

>  <s_lp_Force_Field>  (188) 
OPLS3e

>  <r_lp_Energy>  (188) 
106.373

>  <b_lp_Chiralities_Consistent>  (188) 
1

>  <s_lp_Variant>  (188) 
58:0-2

>  <s_i_glide_gridfile>  (188) 
pfpi4k_grid

>  <i_i_glide_lignum>  (188) 
40

>  <i_i_glide_rotatable_bonds>  (188) 
4

>  <r_i_docking_score>  (188) 
-3.05721

>  <r_i_glide_ligand_efficiency>  (188) 
-0.127384

>  <r_i_glide_ligand_efficiency_sa>  (188) 
-0.367438

>  <r_i_glide_ligand_efficiency_ln>  (188) 
-0.731731

>  <r_i_glide_gscore>  (188) 
-3.05721

>  <r_i_glide_lipo>  (188) 
-0.28314

>  <r_i_glide_hbond>  (188) 
0

>  <r_i_glide_metal>  (188) 
-0

>  <r_i_glide_rewards>  (188) 
-1.19044

>  <r_i_glide_evdw>  (188) 
-21.8791

>  <r_i_glide_ecoul>  (188) 
-5.62434

>  <r_i_glide_erotb>  (188) 
0.353979

>  <r_i_glide_esite>  (188) 
0

>  <r_i_glide_emodel>  (188) 
-33.0763

>  <r_i_glide_energy>  (188) 
-27.5034

>  <r_i_glide_einternal>  (188) 
1.3527

>  <r_i_glide_intrahb_reward>  (188) 
-0

>  <i_i_glide_confnum>  (188) 
6

>  <i_i_glide_posenum>  (188) 
11

>  <r_i_glide_eff_state_penalty>  (188) 
0

>  <ligand_id>  (188) 
58

>  <original_smiles>  (188) 
Oc1ccc2c3c1OC1C(O)C=CC4C(C2)N(CC2CC2)CCC341

>  <smiles>  (188) 
[H]Oc1c([H])c([H])c2c3c1OC1([H])C([H])(O[H])C([H])=C([H])C4([H])C([H])(N(C([H])([H])C5([H])C([H])([H])C5([H])[H])C([H])([H])C([H])([H])C314)C2([H])[H]

$$$$
58:2:0
     RDKit          3D

 47 52  0  0  1  0  0  0  0  0999 V2000
    8.5861   -1.8593   -0.2882 O   0  0  0  0  0  0  0  0  0  0  0  0
    7.5184   -2.6622   -0.0884 C   0  0  0  0  0  0  0  0  0  0  0  0
    7.7114   -3.9079    0.5625 C   0  0  0  0  0  0  0  0  0  0  0  0
    6.6597   -4.8355    0.7330 C   0  0  0  0  0  0  0  0  0  0  0  0
    5.3650   -4.4684    0.3035 C   0  0  0  0  0  0  0  0  0  0  0  0
    5.2409   -3.1861   -0.2337 C   0  0  0  0  0  0  0  0  0  0  0  0
    6.2409   -2.2825   -0.5362 C   0  0  0  0  0  0  0  0  0  0  0  0
    5.7781   -1.2309   -1.3100 O   0  0  0  0  0  0  0  0  0  0  0  0
    4.5692   -1.8021   -1.8440 C   0  0  2  0  0  0  0  0  0  0  0  0
    3.5033   -1.2053   -2.7705 C   0  0  1  0  0  0  0  0  0  0  0  0
    4.1002   -0.7007   -3.9466 O   0  0  0  0  0  0  0  0  0  0  0  0
    2.6344   -2.4070   -3.1581 C   0  0  0  0  0  0  0  0  0  0  0  0
    2.3730   -3.4326   -2.3120 C   0  0  0  0  0  0  0  0  0  0  0  0
    2.7549   -3.3484   -0.8382 C   0  0  1  0  0  0  0  0  0  0  0  0
    2.7825   -4.4808    0.2173 C   0  0  1  0  0  0  0  0  0  0  0  0
    4.1034   -5.2996    0.2139 C   0  0  0  0  0  0  0  0  0  0  0  0
    2.5465   -3.8148    1.5594 N   0  0  1  0  0  0  0  0  0  0  0  0
    2.4912   -4.7573    2.7097 C   0  0  0  0  0  0  0  0  0  0  0  0
    1.6997   -4.2082    3.8853 C   0  0  0  0  0  0  0  0  0  0  0  0
    2.4167   -3.6535    5.0939 C   0  0  0  0  0  0  0  0  0  0  0  0
    1.6757   -4.9617    5.1974 C   0  0  0  0  0  0  0  0  0  0  0  0
    3.3614   -2.5829    1.8491 C   0  0  0  0  0  0  0  0  0  0  0  0
    3.5632   -1.6408    0.6269 C   0  0  0  0  0  0  0  0  0  0  0  0
    3.9764   -2.4860   -0.6033 C   0  0  1  0  0  0  0  0  0  0  0  0
    8.6999   -4.1599    0.9075 H   0  0  0  0  0  0  0  0  0  0  0  0
    6.8453   -5.8140    1.1648 H   0  0  0  0  0  0  0  0  0  0  0  0
    4.9705   -2.5783   -2.5101 H   0  0  0  0  0  0  0  0  0  0  0  0
    2.8945   -0.4411   -2.2946 H   0  0  0  0  0  0  0  0  0  0  0  0
    3.5031   -0.0717   -4.3244 H   0  0  0  0  0  0  0  0  0  0  0  0
    2.2855   -2.4533   -4.1801 H   0  0  0  0  0  0  0  0  0  0  0  0
    1.7815   -4.2592   -2.6539 H   0  0  0  0  0  0  0  0  0  0  0  0
    1.8544   -2.8021   -0.5632 H   0  0  0  0  0  0  0  0  0  0  0  0
    1.9500   -5.1626    0.0393 H   0  0  0  0  0  0  0  0  0  0  0  0
    4.1662   -5.8651   -0.7166 H   0  0  0  0  0  0  0  0  0  0  0  0
    4.1116   -6.0455    1.0083 H   0  0  0  0  0  0  0  0  0  0  0  0
    2.0178   -5.6909    2.4028 H   0  0  0  0  0  0  0  0  0  0  0  0
    3.5002   -5.0148    3.0390 H   0  0  0  0  0  0  0  0  0  0  0  0
    0.7515   -3.7455    3.6147 H   0  0  0  0  0  0  0  0  0  0  0  0
    3.5053   -3.6860    5.0895 H   0  0  0  0  0  0  0  0  0  0  0  0
    1.9774   -2.7878    5.5848 H   0  0  0  0  0  0  0  0  0  0  0  0
    0.7589   -4.9543    5.7818 H   0  0  0  0  0  0  0  0  0  0  0  0
    2.2693   -5.8698    5.2876 H   0  0  0  0  0  0  0  0  0  0  0  0
    2.8876   -2.0253    2.6558 H   0  0  0  0  0  0  0  0  0  0  0  0
    4.3320   -2.8781    2.2475 H   0  0  0  0  0  0  0  0  0  0  0  0
    2.6481   -1.0768    0.4440 H   0  0  0  0  0  0  0  0  0  0  0  0
    4.3140   -0.8918    0.8721 H   0  0  0  0  0  0  0  0  0  0  0  0
    1.6064   -3.4502    1.4846 H   0  0  0  0  0  0  0  0  0  0  0  0
  1  2  1  0
  2  7  2  0
  2  3  1  0
  3  4  2  0
  3 25  1  0
  4  5  1  0
  4 26  1  0
  5 16  1  0
  5  6  2  0
  6 24  1  0
  6  7  1  0
  7  8  1  0
  8  9  1  0
  9 24  1  0
  9 10  1  0
  9 27  1  6
 10 11  1  0
 10 12  1  0
 10 28  1  1
 11 29  1  0
 12 13  2  0
 12 30  1  0
 13 14  1  0
 13 31  1  0
 14 24  1  0
 14 15  1  0
 14 32  1  1
 15 16  1  0
 15 17  1  0
 15 33  1  6
 16 34  1  0
 16 35  1  0
 17 18  1  0
 17 22  1  0
 17 47  1  6
 18 19  1  0
 18 36  1  0
 18 37  1  0
 19 21  1  0
 19 20  1  0
 19 38  1  0
 20 21  1  0
 20 39  1  0
 20 40  1  0
 21 41  1  0
 21 42  1  0
 22 23  1  0
 22 43  1  0
 22 44  1  0
 24 23  1  1
 23 45  1  0
 23 46  1  0
M  CHG  2   1  -1  17   1
M  END
>  <i_m_ct_stereo_status>  (189) 
1

>  <s_m_source_file>  (189) 
/var/tmp/pbs.5076255.sched01/tmpe6iyr0oq/80tt78e_gd.sdf

>  <i_m_source_file_index>  (189) 
1

>  <i_lp_mmshare_version>  (189) 
48012

>  <i_f3d_flags>  (189) 
0

>  <s_epik_input>  (189) 
W0NAXTEyM2M0YzVbY0hdW2NIXWMoW09IXSljNE9bQ0BASF0xW0NAQEhdKFtPSF0pW0NIXT1bQ0hdW0NASF0yW0NAQEhdKFtDSDJdNSlOKFtDSDJdW0NIMl0zKVtDSDJdW0NIXTZbQ0gyXVtDSDJdNg==

>  <s_epik_cmdline>  (189) 
J2VwaWtfcHl0aG9uJywgJy1waHQnLCAnMi4wJywgJy1waCcsICc3LjAnLCAnLXRuJywgJzgnLCAnLW1hJywgJzIwMCcsICctaW1hZScsICc8aW5maWxlLm1hZT4nLCAnLW9tYWUnLCAnPG91dGZpbGUubWFlPic=

>  <r_epik_Ionization_Penalty>  (189) 
2.40827

>  <r_epik_Ionization_Penalty_Charging>  (189) 
2.40826

>  <r_epik_Ionization_Penalty_Neutral>  (189) 
7.18687e-06

>  <r_epik_State_Penalty>  (189) 
2.56223

>  <r_epik_Charging_Adjusted_Penalty>  (189) 
4.97049

>  <i_epik_Tot_Q>  (189) 
0

>  <i_epik_Tot_abs_Q>  (189) 
2

>  <s_lp_Force_Field>  (189) 
OPLS3e

>  <r_lp_Energy>  (189) 
93.9301

>  <b_lp_Chiralities_Consistent>  (189) 
1

>  <s_lp_Variant>  (189) 
58:0-3

>  <s_i_glide_gridfile>  (189) 
pfpi4k_grid

>  <i_i_glide_lignum>  (189) 
1

>  <i_i_glide_rotatable_bonds>  (189) 
3

>  <r_i_docking_score>  (189) 
-4.21018

>  <r_i_glide_ligand_efficiency>  (189) 
-0.175424

>  <r_i_glide_ligand_efficiency_sa>  (189) 
-0.50601

>  <r_i_glide_ligand_efficiency_ln>  (189) 
-1.00769

>  <r_i_glide_gscore>  (189) 
-4.21018

>  <r_i_glide_lipo>  (189) 
-0.69278

>  <r_i_glide_hbond>  (189) 
-0.185216

>  <r_i_glide_metal>  (189) 
-0

>  <r_i_glide_rewards>  (189) 
-1.19044

>  <r_i_glide_evdw>  (189) 
-24.958

>  <r_i_glide_ecoul>  (189) 
-8.23355

>  <r_i_glide_erotb>  (189) 
0.353979

>  <r_i_glide_esite>  (189) 
-0.0127821

>  <r_i_glide_emodel>  (189) 
-46.5026

>  <r_i_glide_energy>  (189) 
-33.1916

>  <r_i_glide_einternal>  (189) 
0.400543

>  <r_i_glide_intrahb_reward>  (189) 
-0

>  <i_i_glide_confnum>  (189) 
4

>  <i_i_glide_posenum>  (189) 
2

>  <r_i_glide_eff_state_penalty>  (189) 
0

>  <ligand_id>  (189) 
58

>  <original_smiles>  (189) 
Oc1ccc2c3c1OC1C(O)C=CC4C(C2)N(CC2CC2)CCC341

>  <smiles>  (189) 
[H]OC1([H])C([H])=C([H])C2([H])C34c5c(c([O-])c([H])c([H])c5C([H])([H])C2([H])[N+]([H])(C([H])([H])C2([H])C([H])([H])C2([H])[H])C([H])([H])C3([H])[H])OC14[H]

$$$$
58:2:1
     RDKit          3D

 47 52  0  0  1  0  0  0  0  0999 V2000
    8.5535   -1.5317    0.0939 O   0  0  0  0  0  0  0  0  0  0  0  0
    7.5700   -2.4601    0.1534 C   0  0  0  0  0  0  0  0  0  0  0  0
    7.8370   -3.7538    0.6865 C   0  0  0  0  0  0  0  0  0  0  0  0
    6.8501   -4.7691    0.7381 C   0  0  0  0  0  0  0  0  0  0  0  0
    5.5462   -4.4567    0.3026 C   0  0  0  0  0  0  0  0  0  0  0  0
    5.3404   -3.1481   -0.1319 C   0  0  0  0  0  0  0  0  0  0  0  0
    6.2774   -2.1504   -0.3127 C   0  0  0  0  0  0  0  0  0  0  0  0
    5.7627   -1.0629   -1.0027 O   0  0  0  0  0  0  0  0  0  0  0  0
    4.6236   -1.6793   -1.6358 C   0  0  2  0  0  0  0  0  0  0  0  0
    3.5444   -1.0879   -2.5484 C   0  0  1  0  0  0  0  0  0  0  0  0
    4.1346   -0.4068   -3.6360 O   0  0  0  0  0  0  0  0  0  0  0  0
    2.7814   -2.3046   -3.0827 C   0  0  0  0  0  0  0  0  0  0  0  0
    2.5561   -3.4163   -2.3390 C   0  0  0  0  0  0  0  0  0  0  0  0
    2.8823   -3.4301   -0.8471 C   0  0  1  0  0  0  0  0  0  0  0  0
    2.9603   -4.6458    0.1101 C   0  0  1  0  0  0  0  0  0  0  0  0
    4.3434   -5.3641    0.0932 C   0  0  0  0  0  0  0  0  0  0  0  0
    2.6200   -4.1195    1.4924 N   0  0  1  0  0  0  0  0  0  0  0  0
    2.6057   -5.1716    2.5528 C   0  0  0  0  0  0  0  0  0  0  0  0
    1.7640   -4.7924    3.7677 C   0  0  0  0  0  0  0  0  0  0  0  0
    1.8693   -5.6102    5.0377 C   0  0  0  0  0  0  0  0  0  0  0  0
    0.6173   -5.6728    4.2065 C   0  0  0  0  0  0  0  0  0  0  0  0
    3.3539   -2.8716    1.9188 C   0  0  0  0  0  0  0  0  0  0  0  0
    3.5313   -1.8133    0.7933 C   0  0  0  0  0  0  0  0  0  0  0  0
    4.0401   -2.5146   -0.4895 C   0  0  1  0  0  0  0  0  0  0  0  0
    8.8235   -3.9710    1.0552 H   0  0  0  0  0  0  0  0  0  0  0  0
    7.0868   -5.7651    1.0901 H   0  0  0  0  0  0  0  0  0  0  0  0
    5.1053   -2.3600   -2.3495 H   0  0  0  0  0  0  0  0  0  0  0  0
    2.8551   -0.4445   -2.0150 H   0  0  0  0  0  0  0  0  0  0  0  0
    3.5501    0.2947   -3.8920 H   0  0  0  0  0  0  0  0  0  0  0  0
    2.4717   -2.2602   -4.1167 H   0  0  0  0  0  0  0  0  0  0  0  0
    2.0232   -4.2509   -2.7616 H   0  0  0  0  0  0  0  0  0  0  0  0
    1.9380   -2.9657   -0.5637 H   0  0  0  0  0  0  0  0  0  0  0  0
    2.1890   -5.3667   -0.1643 H   0  0  0  0  0  0  0  0  0  0  0  0
    4.4828   -5.8381   -0.8777 H   0  0  0  0  0  0  0  0  0  0  0  0
    4.3753   -6.1819    0.8126 H   0  0  0  0  0  0  0  0  0  0  0  0
    2.2085   -6.1013    2.1406 H   0  0  0  0  0  0  0  0  0  0  0  0
    3.6229   -5.3945    2.8799 H   0  0  0  0  0  0  0  0  0  0  0  0
    1.6357   -3.7279    3.9462 H   0  0  0  0  0  0  0  0  0  0  0  0
    2.5182   -6.4841    5.0433 H   0  0  0  0  0  0  0  0  0  0  0  0
    1.8024   -5.0782    5.9846 H   0  0  0  0  0  0  0  0  0  0  0  0
   -0.2623   -5.1683    4.5979 H   0  0  0  0  0  0  0  0  0  0  0  0
    0.4277   -6.5858    3.6450 H   0  0  0  0  0  0  0  0  0  0  0  0
    2.8295   -2.3944    2.7431 H   0  0  0  0  0  0  0  0  0  0  0  0
    4.3274   -3.1418    2.3287 H   0  0  0  0  0  0  0  0  0  0  0  0
    2.5911   -1.2933    0.6210 H   0  0  0  0  0  0  0  0  0  0  0  0
    4.2153   -1.0394    1.1419 H   0  0  0  0  0  0  0  0  0  0  0  0
    1.6630   -3.8134    1.4172 H   0  0  0  0  0  0  0  0  0  0  0  0
  1  2  1  0
  2  7  2  0
  2  3  1  0
  3  4  2  0
  3 25  1  0
  4  5  1  0
  4 26  1  0
  5 16  1  0
  5  6  2  0
  6 24  1  0
  6  7  1  0
  7  8  1  0
  8  9  1  0
  9 24  1  0
  9 10  1  0
  9 27  1  6
 10 11  1  0
 10 12  1  0
 10 28  1  1
 11 29  1  0
 12 13  2  0
 12 30  1  0
 13 14  1  0
 13 31  1  0
 14 24  1  0
 14 15  1  0
 14 32  1  1
 15 16  1  0
 15 17  1  0
 15 33  1  6
 16 34  1  0
 16 35  1  0
 17 18  1  0
 17 22  1  0
 17 47  1  6
 18 19  1  0
 18 36  1  0
 18 37  1  0
 19 21  1  0
 19 20  1  0
 19 38  1  0
 20 21  1  0
 20 39  1  0
 20 40  1  0
 21 41  1  0
 21 42  1  0
 22 23  1  0
 22 43  1  0
 22 44  1  0
 24 23  1  1
 23 45  1  0
 23 46  1  0
M  CHG  2   1  -1  17   1
M  END
>  <i_m_ct_stereo_status>  (190) 
1

>  <s_m_source_file>  (190) 
/var/tmp/pbs.5076255.sched01/tmpe6iyr0oq/80tt78e_gd.sdf

>  <i_m_source_file_index>  (190) 
1

>  <i_lp_mmshare_version>  (190) 
48012

>  <i_f3d_flags>  (190) 
0

>  <s_epik_input>  (190) 
W0NAXTEyM2M0YzVbY0hdW2NIXWMoW09IXSljNE9bQ0BASF0xW0NAQEhdKFtPSF0pW0NIXT1bQ0hdW0NASF0yW0NAQEhdKFtDSDJdNSlOKFtDSDJdW0NIMl0zKVtDSDJdW0NIXTZbQ0gyXVtDSDJdNg==

>  <s_epik_cmdline>  (190) 
J2VwaWtfcHl0aG9uJywgJy1waHQnLCAnMi4wJywgJy1waCcsICc3LjAnLCAnLXRuJywgJzgnLCAnLW1hJywgJzIwMCcsICctaW1hZScsICc8aW5maWxlLm1hZT4nLCAnLW9tYWUnLCAnPG91dGZpbGUubWFlPic=

>  <r_epik_Ionization_Penalty>  (190) 
2.40827

>  <r_epik_Ionization_Penalty_Charging>  (190) 
2.40826

>  <r_epik_Ionization_Penalty_Neutral>  (190) 
7.18687e-06

>  <r_epik_State_Penalty>  (190) 
2.56223

>  <r_epik_Charging_Adjusted_Penalty>  (190) 
4.97049

>  <i_epik_Tot_Q>  (190) 
0

>  <i_epik_Tot_abs_Q>  (190) 
2

>  <s_lp_Force_Field>  (190) 
OPLS3e

>  <r_lp_Energy>  (190) 
93.9301

>  <b_lp_Chiralities_Consistent>  (190) 
1

>  <s_lp_Variant>  (190) 
58:0-3

>  <s_i_glide_gridfile>  (190) 
pfpi4k_grid

>  <i_i_glide_lignum>  (190) 
1

>  <i_i_glide_rotatable_bonds>  (190) 
3

>  <r_i_docking_score>  (190) 
-3.95048

>  <r_i_glide_ligand_efficiency>  (190) 
-0.164603

>  <r_i_glide_ligand_efficiency_sa>  (190) 
-0.474798

>  <r_i_glide_ligand_efficiency_ln>  (190) 
-0.945532

>  <r_i_glide_gscore>  (190) 
-3.95048

>  <r_i_glide_lipo>  (190) 
-0.664098

>  <r_i_glide_hbond>  (190) 
-0.114153

>  <r_i_glide_metal>  (190) 
-0

>  <r_i_glide_rewards>  (190) 
-1.19044

>  <r_i_glide_evdw>  (190) 
-23.6101

>  <r_i_glide_ecoul>  (190) 
-7.60838

>  <r_i_glide_erotb>  (190) 
0.353979

>  <r_i_glide_esite>  (190) 
-0.0140016

>  <r_i_glide_emodel>  (190) 
-43.3032

>  <r_i_glide_energy>  (190) 
-31.2185

>  <r_i_glide_einternal>  (190) 
1.13718

>  <r_i_glide_intrahb_reward>  (190) 
-0

>  <i_i_glide_confnum>  (190) 
2

>  <i_i_glide_posenum>  (190) 
26

>  <r_i_glide_eff_state_penalty>  (190) 
0

>  <ligand_id>  (190) 
58

>  <original_smiles>  (190) 
Oc1ccc2c3c1OC1C(O)C=CC4C(C2)N(CC2CC2)CCC341

>  <smiles>  (190) 
[H]OC1([H])C([H])=C([H])C2([H])C34c5c(c([O-])c([H])c([H])c5C([H])([H])C2([H])[N+]([H])(C([H])([H])C2([H])C([H])([H])C2([H])[H])C([H])([H])C3([H])[H])OC14[H]

$$$$
58:2:2
     RDKit          3D

 47 52  0  0  1  0  0  0  0  0999 V2000
   -2.2501   -1.5109    5.6768 O   0  0  0  0  0  0  0  0  0  0  0  0
   -0.9893   -1.0509    5.4767 C   0  0  0  0  0  0  0  0  0  0  0  0
    0.1122   -1.7424    6.0457 C   0  0  0  0  0  0  0  0  0  0  0  0
    1.4447   -1.2561    5.9231 C   0  0  0  0  0  0  0  0  0  0  0  0
    1.6757   -0.1047    5.1511 C   0  0  0  0  0  0  0  0  0  0  0  0
    0.5540    0.4594    4.5466 C   0  0  0  0  0  0  0  0  0  0  0  0
   -0.7782    0.1219    4.7201 C   0  0  0  0  0  0  0  0  0  0  0  0
   -1.6340    1.0698    4.1886 O   0  0  0  0  0  0  0  0  0  0  0  0
   -0.7524    2.2040    4.1063 C   0  0  2  0  0  0  0  0  0  0  0  0
   -0.9973    3.6077    3.5647 C   0  0  1  0  0  0  0  0  0  0  0  0
   -2.1548    4.1436    4.1730 O   0  0  0  0  0  0  0  0  0  0  0  0
    0.2442    4.4025    4.0245 C   0  0  0  0  0  0  0  0  0  0  0  0
    1.4888    3.8563    4.0924 C   0  0  0  0  0  0  0  0  0  0  0  0
    1.7450    2.4844    3.4799 C   0  0  1  0  0  0  0  0  0  0  0  0
    2.9875    1.5773    3.6639 C   0  0  1  0  0  0  0  0  0  0  0  0
    2.9453    0.7188    4.9620 C   0  0  0  0  0  0  0  0  0  0  0  0
    3.0815    0.7199    2.4244 N   0  0  1  0  0  0  0  0  0  0  0  0
    4.2481   -0.2056    2.4058 C   0  0  0  0  0  0  0  0  0  0  0  0
    4.6268   -0.6477    1.0031 C   0  0  0  0  0  0  0  0  0  0  0  0
    4.2738   -2.0372    0.5175 C   0  0  0  0  0  0  0  0  0  0  0  0
    5.7119   -1.6881    0.8007 C   0  0  0  0  0  0  0  0  0  0  0  0
    1.8102    0.0465    1.9935 C   0  0  0  0  0  0  0  0  0  0  0  0
    0.5285    0.9167    2.1491 C   0  0  0  0  0  0  0  0  0  0  0  0
    0.5326    1.5741    3.5526 C   0  0  1  0  0  0  0  0  0  0  0  0
   -0.0622   -2.6355    6.6116 H   0  0  0  0  0  0  0  0  0  0  0  0
    2.2658   -1.7588    6.4232 H   0  0  0  0  0  0  0  0  0  0  0  0
   -0.5926    2.4353    5.1683 H   0  0  0  0  0  0  0  0  0  0  0  0
   -1.1113    3.6215    2.4800 H   0  0  0  0  0  0  0  0  0  0  0  0
   -2.8697    3.5402    3.9835 H   0  0  0  0  0  0  0  0  0  0  0  0
    0.0772    5.4166    4.3617 H   0  0  0  0  0  0  0  0  0  0  0  0
    2.3335    4.4347    4.4351 H   0  0  0  0  0  0  0  0  0  0  0  0
    1.8579    2.8691    2.4628 H   0  0  0  0  0  0  0  0  0  0  0  0
    3.8777    2.2060    3.6947 H   0  0  0  0  0  0  0  0  0  0  0  0
    3.0259    1.3884    5.8174 H   0  0  0  0  0  0  0  0  0  0  0  0
    3.8088    0.0590    5.0299 H   0  0  0  0  0  0  0  0  0  0  0  0
    5.1163    0.2915    2.8350 H   0  0  0  0  0  0  0  0  0  0  0  0
    4.0616   -1.0857    3.0244 H   0  0  0  0  0  0  0  0  0  0  0  0
    4.6242    0.1491    0.2596 H   0  0  0  0  0  0  0  0  0  0  0  0
    3.7596   -2.6935    1.2178 H   0  0  0  0  0  0  0  0  0  0  0  0
    3.9716   -2.1371   -0.5233 H   0  0  0  0  0  0  0  0  0  0  0  0
    6.3650   -1.5922   -0.0635 H   0  0  0  0  0  0  0  0  0  0  0  0
    6.1743   -2.1315    1.6814 H   0  0  0  0  0  0  0  0  0  0  0  0
    1.9111   -0.2548    0.9525 H   0  0  0  0  0  0  0  0  0  0  0  0
    1.6830   -0.8862    2.5462 H   0  0  0  0  0  0  0  0  0  0  0  0
    0.4840    1.6635    1.3530 H   0  0  0  0  0  0  0  0  0  0  0  0
   -0.3490    0.2916    1.9962 H   0  0  0  0  0  0  0  0  0  0  0  0
    3.2704    1.3937    1.6901 H   0  0  0  0  0  0  0  0  0  0  0  0
  1  2  1  0
  2  7  2  0
  2  3  1  0
  3  4  2  0
  3 25  1  0
  4  5  1  0
  4 26  1  0
  5 16  1  0
  5  6  2  0
  6 24  1  0
  6  7  1  0
  7  8  1  0
  8  9  1  0
  9 24  1  0
  9 10  1  0
  9 27  1  1
 10 11  1  0
 10 12  1  0
 10 28  1  6
 11 29  1  0
 12 13  2  0
 12 30  1  0
 13 14  1  0
 13 31  1  0
 14 24  1  0
 14 15  1  0
 14 32  1  6
 15 16  1  0
 15 17  1  0
 15 33  1  1
 16 34  1  0
 16 35  1  0
 17 18  1  0
 17 22  1  0
 17 47  1  6
 18 19  1  0
 18 36  1  0
 18 37  1  0
 19 21  1  0
 19 20  1  0
 19 38  1  0
 20 21  1  0
 20 39  1  0
 20 40  1  0
 21 41  1  0
 21 42  1  0
 22 23  1  0
 22 43  1  0
 22 44  1  0
 24 23  1  6
 23 45  1  0
 23 46  1  0
M  CHG  2   1  -1  17   1
M  END
>  <i_m_ct_stereo_status>  (191) 
1

>  <s_m_source_file>  (191) 
/var/tmp/pbs.5076255.sched01/tmpe6iyr0oq/80tt78e_gd.sdf

>  <i_m_source_file_index>  (191) 
1

>  <i_lp_mmshare_version>  (191) 
48012

>  <i_f3d_flags>  (191) 
0

>  <s_epik_input>  (191) 
W0NAXTEyM2M0YzVbY0hdW2NIXWMoW09IXSljNE9bQ0BASF0xW0NAQEhdKFtPSF0pW0NIXT1bQ0hdW0NASF0yW0NAQEhdKFtDSDJdNSlOKFtDSDJdW0NIMl0zKVtDSDJdW0NIXTZbQ0gyXVtDSDJdNg==

>  <s_epik_cmdline>  (191) 
J2VwaWtfcHl0aG9uJywgJy1waHQnLCAnMi4wJywgJy1waCcsICc3LjAnLCAnLXRuJywgJzgnLCAnLW1hJywgJzIwMCcsICctaW1hZScsICc8aW5maWxlLm1hZT4nLCAnLW9tYWUnLCAnPG91dGZpbGUubWFlPic=

>  <r_epik_Ionization_Penalty>  (191) 
2.40827

>  <r_epik_Ionization_Penalty_Charging>  (191) 
2.40826

>  <r_epik_Ionization_Penalty_Neutral>  (191) 
7.18687e-06

>  <r_epik_State_Penalty>  (191) 
2.56223

>  <r_epik_Charging_Adjusted_Penalty>  (191) 
4.97049

>  <i_epik_Tot_Q>  (191) 
0

>  <i_epik_Tot_abs_Q>  (191) 
2

>  <s_lp_Force_Field>  (191) 
OPLS3e

>  <r_lp_Energy>  (191) 
93.9301

>  <b_lp_Chiralities_Consistent>  (191) 
1

>  <s_lp_Variant>  (191) 
58:0-3

>  <s_i_glide_gridfile>  (191) 
pfpi4k_grid

>  <i_i_glide_lignum>  (191) 
1

>  <i_i_glide_rotatable_bonds>  (191) 
3

>  <r_i_docking_score>  (191) 
-3.22642

>  <r_i_glide_ligand_efficiency>  (191) 
-0.134434

>  <r_i_glide_ligand_efficiency_sa>  (191) 
-0.387775

>  <r_i_glide_ligand_efficiency_ln>  (191) 
-0.77223

>  <r_i_glide_gscore>  (191) 
-3.22642

>  <r_i_glide_lipo>  (191) 
-0.271639

>  <r_i_glide_hbond>  (191) 
-0.0154324

>  <r_i_glide_metal>  (191) 
-0

>  <r_i_glide_rewards>  (191) 
-1.19044

>  <r_i_glide_evdw>  (191) 
-22.4932

>  <r_i_glide_ecoul>  (191) 
-6.52148

>  <r_i_glide_erotb>  (191) 
0.353979

>  <r_i_glide_esite>  (191) 
0

>  <r_i_glide_emodel>  (191) 
-39.1728

>  <r_i_glide_energy>  (191) 
-29.0147

>  <r_i_glide_einternal>  (191) 
0.449181

>  <r_i_glide_intrahb_reward>  (191) 
-0

>  <i_i_glide_confnum>  (191) 
3

>  <i_i_glide_posenum>  (191) 
10

>  <r_i_glide_eff_state_penalty>  (191) 
0

>  <ligand_id>  (191) 
58

>  <original_smiles>  (191) 
Oc1ccc2c3c1OC1C(O)C=CC4C(C2)N(CC2CC2)CCC341

>  <smiles>  (191) 
[H]OC1([H])C([H])=C([H])C2([H])C34c5c(c([O-])c([H])c([H])c5C([H])([H])C2([H])[N+]([H])(C([H])([H])C2([H])C([H])([H])C2([H])[H])C([H])([H])C3([H])[H])OC14[H]

$$$$
59:0:0
     RDKit          3D

 83 89  0  0  1  0  0  0  0  0999 V2000
    5.4653  -10.0849    1.7594 C   0  0  0  0  0  0  0  0  0  0  0  0
    4.0401   -9.8553    2.3066 C   0  0  2  0  0  0  0  0  0  0  0  0
    3.1627   -8.9909    1.3593 C   0  0  0  0  0  0  0  0  0  0  0  0
    2.9114   -7.5019    1.6959 C   0  0  2  0  0  0  0  0  0  0  0  0
    4.2180   -6.6718    1.8755 C   0  0  1  0  0  0  0  0  0  0  0  0
    4.4099   -5.4906    0.8330 C   0  0  1  0  0  0  0  0  0  0  0  0
    3.1706   -4.6105    0.4888 C   0  0  0  0  0  0  0  0  0  0  0  0
    3.4429   -3.1446    0.0842 C   0  0  1  0  0  0  0  0  0  0  0  0
    3.6599   -2.2993    1.3471 C   0  0  0  0  0  0  0  0  0  0  0  0
    5.1715   -2.3555    1.5938 C   0  0  0  0  0  0  0  0  0  0  0  0
    5.7660   -3.2063    0.4347 C   0  0  1  0  0  0  0  0  0  0  0  0
    7.1867   -2.7010    0.0690 C   0  0  0  0  0  0  0  0  0  0  0  0
    5.7899   -4.7434    0.8166 C   0  0  1  0  0  0  0  0  0  0  0  0
    6.6420   -5.0852    2.0415 C   0  0  0  0  0  0  0  0  0  0  0  0
    7.8716   -5.0950    1.9762 O   0  0  0  0  0  0  0  0  0  0  0  0
    5.9235   -5.4757    3.3346 C   0  0  0  0  0  0  0  0  0  0  0  0
    6.1353   -4.8438    4.3668 O   0  0  0  0  0  0  0  0  0  0  0  0
    4.9610   -6.6794    3.2555 C   0  0  1  0  0  0  0  0  0  0  0  0
    4.1481   -7.0302    4.5671 C   0  0  1  0  0  0  0  0  0  0  0  0
    5.1433   -7.3013    5.7461 C   0  0  0  0  0  0  0  0  0  0  0  0
    3.2914   -5.8351    5.0298 C   0  0  0  0  0  0  0  0  0  0  0  0
    2.4219   -5.1787    3.9413 C   0  0  2  0  0  0  0  0  0  0  0  0
    1.4067   -4.1771    4.5100 C   0  0  0  0  0  0  0  0  0  0  0  0
    0.2631   -4.7652    5.3748 C   0  0  2  0  0  0  0  0  0  0  0  0
    0.6841   -4.7312    7.1102 Cl  0  0  0  0  0  0  0  0  0  0  0  0
   -0.3161   -6.1533    4.9806 C   0  0  0  0  0  0  0  0  0  0  0  0
    0.7117   -7.5988    5.4418 S   0  0  0  0  0  0  0  0  0  0  0  0
    1.7566   -8.1923    4.0166 C   0  0  2  0  0  0  0  0  0  0  0  0
    1.0870   -9.5832    3.7881 C   0  0  0  0  0  0  0  0  0  0  0  0
    3.2664   -8.3461    4.4434 C   0  0  1  0  0  0  0  0  0  0  0  0
    4.0610   -9.5572    3.8350 C   0  0  1  0  0  0  0  0  0  0  0  0
    3.7859  -10.7537    4.5438 O   0  0  0  0  0  0  0  0  0  0  0  0
    1.7257   -7.2947    2.7186 C   0  0  2  0  0  0  0  0  0  0  0  0
    0.5405   -7.5996    1.9993 O   0  0  0  0  0  0  0  0  0  0  0  0
    1.6140   -5.9427    3.0422 O   0  0  0  0  0  0  0  0  0  0  0  0
    4.7474   -2.9435   -0.7208 C   0  0  0  0  0  0  0  0  0  0  0  0
    4.9032   -3.8491   -1.9681 C   0  0  0  0  0  0  0  0  0  0  0  0
    4.7848   -1.4940   -1.2896 C   0  0  0  0  0  0  0  0  0  0  0  0
    6.1058   -9.2090    1.8089 H   0  0  0  0  0  0  0  0  0  0  0  0
    5.4339  -10.4046    0.7188 H   0  0  0  0  0  0  0  0  0  0  0  0
    5.9485  -10.8931    2.3107 H   0  0  0  0  0  0  0  0  0  0  0  0
    3.5807  -10.8342    2.1986 H   0  0  0  0  0  0  0  0  0  0  0  0
    3.6409   -9.0342    0.3795 H   0  0  0  0  0  0  0  0  0  0  0  0
    2.2146   -9.4846    1.1544 H   0  0  0  0  0  0  0  0  0  0  0  0
    2.4981   -7.0996    0.7742 H   0  0  0  0  0  0  0  0  0  0  0  0
    4.9184   -7.3464    1.3803 H   0  0  0  0  0  0  0  0  0  0  0  0
    4.4852   -6.0689   -0.0873 H   0  0  0  0  0  0  0  0  0  0  0  0
    2.6494   -5.0825   -0.3458 H   0  0  0  0  0  0  0  0  0  0  0  0
    2.4360   -4.6177    1.2853 H   0  0  0  0  0  0  0  0  0  0  0  0
    2.5791   -2.7719   -0.4691 H   0  0  0  0  0  0  0  0  0  0  0  0
    3.3427   -1.2702    1.1656 H   0  0  0  0  0  0  0  0  0  0  0  0
    3.0838   -2.6521    2.2008 H   0  0  0  0  0  0  0  0  0  0  0  0
    5.5678   -1.3387    1.5709 H   0  0  0  0  0  0  0  0  0  0  0  0
    5.3979   -2.7383    2.5868 H   0  0  0  0  0  0  0  0  0  0  0  0
    7.6198   -3.2783   -0.7490 H   0  0  0  0  0  0  0  0  0  0  0  0
    7.8718   -2.7628    0.9121 H   0  0  0  0  0  0  0  0  0  0  0  0
    7.1878   -1.6523   -0.2265 H   0  0  0  0  0  0  0  0  0  0  0  0
    6.3566   -5.2158    0.0171 H   0  0  0  0  0  0  0  0  0  0  0  0
    5.6779   -7.4951    3.1831 H   0  0  0  0  0  0  0  0  0  0  0  0
    4.6382   -7.6835    6.6334 H   0  0  0  0  0  0  0  0  0  0  0  0
    5.6558   -6.4126    6.1065 H   0  0  0  0  0  0  0  0  0  0  0  0
    5.9251   -8.0120    5.4830 H   0  0  0  0  0  0  0  0  0  0  0  0
    2.7437   -6.0984    5.9263 H   0  0  0  0  0  0  0  0  0  0  0  0
    3.9250   -5.0380    5.4175 H   0  0  0  0  0  0  0  0  0  0  0  0
    3.1178   -4.6072    3.3323 H   0  0  0  0  0  0  0  0  0  0  0  0
    1.9231   -3.3957    5.0672 H   0  0  0  0  0  0  0  0  0  0  0  0
    0.9526   -3.6646    3.6609 H   0  0  0  0  0  0  0  0  0  0  0  0
   -0.5575   -4.0497    5.2905 H   0  0  0  0  0  0  0  0  0  0  0  0
   -1.2429   -6.2650    5.5391 H   0  0  0  0  0  0  0  0  0  0  0  0
   -0.6245   -6.2011    3.9406 H   0  0  0  0  0  0  0  0  0  0  0  0
    1.4963  -10.1880    2.9934 H   0  0  0  0  0  0  0  0  0  0  0  0
    0.0195   -9.4901    3.5908 H   0  0  0  0  0  0  0  0  0  0  0  0
    1.1600  -10.1891    4.6935 H   0  0  0  0  0  0  0  0  0  0  0  0
    3.1426   -8.6605    5.4819 H   0  0  0  0  0  0  0  0  0  0  0  0
    5.1067   -9.4097    4.0872 H   0  0  0  0  0  0  0  0  0  0  0  0
    2.9034  -11.0327    4.3625 H   0  0  0  0  0  0  0  0  0  0  0  0
    0.6230   -8.4837    1.6713 H   0  0  0  0  0  0  0  0  0  0  0  0
    5.8425   -3.6524   -2.4843 H   0  0  0  0  0  0  0  0  0  0  0  0
    4.0987   -3.6604   -2.6799 H   0  0  0  0  0  0  0  0  0  0  0  0
    4.8876   -4.9131   -1.7689 H   0  0  0  0  0  0  0  0  0  0  0  0
    5.6568   -1.3356   -1.9235 H   0  0  0  0  0  0  0  0  0  0  0  0
    4.8000   -0.7176   -0.5268 H   0  0  0  0  0  0  0  0  0  0  0  0
    3.9079   -1.3047   -1.9117 H   0  0  0  0  0  0  0  0  0  0  0  0
  1  2  1  0
  1 39  1  0
  1 40  1  0
  1 41  1  0
  2 31  1  0
  2  3  1  0
  2 42  1  1
  3  4  1  0
  3 43  1  0
  3 44  1  0
  4 33  1  0
  4  5  1  0
  4 45  1  6
  5 18  1  0
  5  6  1  0
  5 46  1  6
  6 13  1  0
  6  7  1  0
  6 47  1  6
  7  8  1  0
  7 48  1  0
  7 49  1  0
  8 36  1  0
  8  9  1  0
  8 50  1  6
  9 10  1  0
  9 51  1  0
  9 52  1  0
 10 11  1  0
 10 53  1  0
 10 54  1  0
 11 12  1  6
 11 13  1  0
 11 36  1  0
 12 55  1  0
 12 56  1  0
 12 57  1  0
 13 14  1  0
 13 58  1  6
 14 15  2  0
 14 16  1  0
 16 17  2  0
 16 18  1  0
 18 19  1  0
 18 59  1  6
 19 30  1  0
 19 20  1  1
 19 21  1  0
 20 60  1  0
 20 61  1  0
 20 62  1  0
 21 22  1  0
 21 63  1  0
 21 64  1  0
 22 35  1  0
 22 23  1  0
 22 65  1  6
 23 24  1  0
 23 66  1  0
 23 67  1  0
 24 25  1  0
 24 26  1  0
 24 68  1  1
 26 27  1  0
 26 69  1  0
 26 70  1  0
 27 28  1  0
 28 29  1  6
 28 30  1  0
 28 33  1  0
 29 71  1  0
 29 72  1  0
 29 73  1  0
 30 31  1  0
 30 74  1  1
 31 32  1  0
 31 75  1  1
 32 76  1  0
 33 34  1  6
 33 35  1  0
 34 77  1  0
 36 37  1  0
 36 38  1  0
 37 78  1  0
 37 79  1  0
 37 80  1  0
 38 81  1  0
 38 82  1  0
 38 83  1  0
M  END
>  <i_m_ct_stereo_status>  (192) 
1

>  <s_m_source_file>  (192) 
/var/tmp/pbs.5076255.sched01/tmpe6iyr0oq/80tt78e_gd.sdf

>  <i_m_source_file_index>  (192) 
2

>  <i_lp_mmshare_version>  (192) 
48012

>  <i_f3d_flags>  (192) 
0

>  <s_epik_input>  (192) 
UzFbQ0gyXVtDQEBIXShDbClbQ0gyXVtDQEhdKE8yKVtDSDJdW0NAXShbQ0gzXSkoW0NAQEhdM0MoPU8pQzQ9TylbQ0BIXShbQ0BASF0oW09IXSlbQ0BIXShbQ0gzXSlbQ0gyXTUpW0NAXTEoW0NIM10pW0NAXTIoW09IXSlbQ0BIXTVbQ0BIXTNbQ0BIXShbQ0BIXTRbQ0BdNjdbQ0gzXSlbQ0gyXVtDQEBIXShbQ0gyXVtDSDJdNilDNyhbQ0gzXSlbQ0gzXQ==

>  <s_epik_cmdline>  (192) 
J2VwaWtfcHl0aG9uJywgJy1waHQnLCAnMi4wJywgJy1waCcsICc3LjAnLCAnLXRuJywgJzgnLCAnLW1hJywgJzIwMCcsICctaW1hZScsICc8aW5maWxlLm1hZT4nLCAnLW9tYWUnLCAnPG91dGZpbGUubWFlPic=

>  <r_lp_tautomer_probability>  (192) 
1

>  <r_epik_Ionization_Penalty>  (192) 
4.81832e-06

>  <r_epik_Ionization_Penalty_Charging>  (192) 
0

>  <r_epik_Ionization_Penalty_Neutral>  (192) 
4.81832e-06

>  <r_epik_State_Penalty>  (192) 
-0

>  <r_epik_Charging_Adjusted_Penalty>  (192) 
0

>  <i_epik_Tot_Q>  (192) 
0

>  <i_epik_Tot_abs_Q>  (192) 
0

>  <s_lp_Force_Field>  (192) 
OPLS3e

>  <r_lp_Energy>  (192) 
145.702

>  <b_lp_Chiralities_Consistent>  (192) 
1

>  <s_lp_Variant>  (192) 
59:0-1

>  <s_i_glide_gridfile>  (192) 
pfpi4k_grid

>  <i_i_glide_lignum>  (192) 
2

>  <i_i_glide_rotatable_bonds>  (192) 
2

>  <r_i_docking_score>  (192) 
-2.64919

>  <r_i_glide_ligand_efficiency>  (192) 
-0.0697155

>  <r_i_glide_ligand_efficiency_sa>  (192) 
-0.234382

>  <r_i_glide_ligand_efficiency_ln>  (192) 
-0.571243

>  <r_i_glide_gscore>  (192) 
-2.64919

>  <r_i_glide_lipo>  (192) 
-0.398064

>  <r_i_glide_hbond>  (192) 
0

>  <r_i_glide_metal>  (192) 
-0

>  <r_i_glide_rewards>  (192) 
-0.0766648

>  <r_i_glide_evdw>  (192) 
-34.6617

>  <r_i_glide_ecoul>  (192) 
-2.83742

>  <r_i_glide_erotb>  (192) 
0

>  <r_i_glide_esite>  (192) 
-0.015764

>  <r_i_glide_emodel>  (192) 
-42.5272

>  <r_i_glide_energy>  (192) 
-37.4991

>  <r_i_glide_einternal>  (192) 
1.60767

>  <r_i_glide_intrahb_reward>  (192) 
-0

>  <i_i_glide_confnum>  (192) 
1

>  <i_i_glide_posenum>  (192) 
13

>  <r_i_glide_eff_state_penalty>  (192) 
0

>  <ligand_id>  (192) 
59

>  <original_smiles>  (192) 
CC1CC2C3C4CC5CCC(C)(C4C(=O)C(=O)C3C3(C)CC4CC(Cl)CSC(C)(C3C1O)C2(O)O4)C5(C)C

>  <smiles>  (192) 
[H]OC1([H])C([H])(C([H])([H])[H])C([H])([H])C2([H])C3(O[H])OC4([H])C([H])([H])C([H])(Cl)C([H])([H])SC3(C([H])([H])[H])C1([H])C(C([H])([H])[H])(C4([H])[H])C1([H])C(=O)C(=O)C3([H])C([H])(C([H])([H])C4([H])C([H])([H])C([H])([H])C3(C([H])([H])[H])C4(C([H])([H])[H])C([H])([H])[H])C12[H]

$$$$
59:0:1
     RDKit          3D

 83 89  0  0  1  0  0  0  0  0999 V2000
    5.4651  -10.0835    1.7495 C   0  0  0  0  0  0  0  0  0  0  0  0
    4.0386   -9.8500    2.2933 C   0  0  2  0  0  0  0  0  0  0  0  0
    3.1654   -8.9852    1.3473 C   0  0  0  0  0  0  0  0  0  0  0  0
    2.9144   -7.4941    1.6858 C   0  0  2  0  0  0  0  0  0  0  0  0
    4.2212   -6.6671    1.8663 C   0  0  1  0  0  0  0  0  0  0  0  0
    4.4159   -5.4853    0.8265 C   0  0  1  0  0  0  0  0  0  0  0  0
    3.1775   -4.6039    0.4816 C   0  0  0  0  0  0  0  0  0  0  0  0
    3.4525   -3.1386    0.0779 C   0  0  1  0  0  0  0  0  0  0  0  0
    3.6683   -2.2936    1.3405 C   0  0  0  0  0  0  0  0  0  0  0  0
    5.1791   -2.3518    1.5898 C   0  0  0  0  0  0  0  0  0  0  0  0
    5.7752   -3.2024    0.4310 C   0  0  1  0  0  0  0  0  0  0  0  0
    7.1962   -2.6984    0.0680 C   0  0  0  0  0  0  0  0  0  0  0  0
    5.7964   -4.7392    0.8134 C   0  0  1  0  0  0  0  0  0  0  0  0
    6.6471   -5.0789    2.0380 C   0  0  0  0  0  0  0  0  0  0  0  0
    7.8742   -5.0893    1.9790 O   0  0  0  0  0  0  0  0  0  0  0  0
    5.9227   -5.4733    3.3327 C   0  0  0  0  0  0  0  0  0  0  0  0
    6.1362   -4.8445    4.3649 O   0  0  0  0  0  0  0  0  0  0  0  0
    4.9628   -6.6756    3.2481 C   0  0  1  0  0  0  0  0  0  0  0  0
    4.1465   -7.0269    4.5585 C   0  0  1  0  0  0  0  0  0  0  0  0
    5.1384   -7.3009    5.7396 C   0  0  0  0  0  0  0  0  0  0  0  0
    3.2898   -5.8323    5.0202 C   0  0  0  0  0  0  0  0  0  0  0  0
    2.4221   -5.1739    3.9307 C   0  0  2  0  0  0  0  0  0  0  0  0
    1.4075   -4.1714    4.4990 C   0  0  0  0  0  0  0  0  0  0  0  0
    0.2608   -4.7585    5.3618 C   0  0  2  0  0  0  0  0  0  0  0  0
    0.6815   -4.7271    7.0976 Cl  0  0  0  0  0  0  0  0  0  0  0  0
   -0.3174   -6.1461    4.9655 C   0  0  0  0  0  0  0  0  0  0  0  0
    0.7088   -7.5925    5.4266 S   0  0  0  0  0  0  0  0  0  0  0  0
    1.7559   -8.1857    4.0027 C   0  0  2  0  0  0  0  0  0  0  0  0
    1.0817   -9.5755    3.7715 C   0  0  0  0  0  0  0  0  0  0  0  0
    3.2647   -8.3423    4.4312 C   0  0  1  0  0  0  0  0  0  0  0  0
    4.0602   -9.5531    3.8200 C   0  0  1  0  0  0  0  0  0  0  0  0
    3.7417  -10.7462    4.5098 O   0  0  0  0  0  0  0  0  0  0  0  0
    1.7247   -7.2891    2.7034 C   0  0  2  0  0  0  0  0  0  0  0  0
    0.5447   -7.5889    1.9839 O   0  0  0  0  0  0  0  0  0  0  0  0
    1.6161   -5.9360    3.0308 O   0  0  0  0  0  0  0  0  0  0  0  0
    4.7586   -2.9385   -0.7260 C   0  0  0  0  0  0  0  0  0  0  0  0
    4.9158   -3.8445   -1.9733 C   0  0  0  0  0  0  0  0  0  0  0  0
    4.7988   -1.4891   -1.2936 C   0  0  0  0  0  0  0  0  0  0  0  0
    6.1051   -9.2064    1.8019 H   0  0  0  0  0  0  0  0  0  0  0  0
    5.4346  -10.3995    0.7086 H   0  0  0  0  0  0  0  0  0  0  0  0
    5.9482  -10.8910    2.2997 H   0  0  0  0  0  0  0  0  0  0  0  0
    3.5714  -10.8291    2.1803 H   0  0  0  0  0  0  0  0  0  0  0  0
    3.6442   -9.0282    0.3685 H   0  0  0  0  0  0  0  0  0  0  0  0
    2.2151   -9.4762    1.1419 H   0  0  0  0  0  0  0  0  0  0  0  0
    2.5032   -7.0905    0.7622 H   0  0  0  0  0  0  0  0  0  0  0  0
    4.9212   -7.3421    1.3733 H   0  0  0  0  0  0  0  0  0  0  0  0
    4.4913   -6.0635   -0.0944 H   0  0  0  0  0  0  0  0  0  0  0  0
    2.6562   -5.0753   -0.3516 H   0  0  0  0  0  0  0  0  0  0  0  0
    2.4416   -4.6100    1.2787 H   0  0  0  0  0  0  0  0  0  0  0  0
    2.5902   -2.7645   -0.4777 H   0  0  0  0  0  0  0  0  0  0  0  0
    3.3525   -1.2641    1.1593 H   0  0  0  0  0  0  0  0  0  0  0  0
    3.0903   -2.6466    2.1932 H   0  0  0  0  0  0  0  0  0  0  0  0
    5.5769   -1.3359    1.5685 H   0  0  0  0  0  0  0  0  0  0  0  0
    5.4031   -2.7354    2.5832 H   0  0  0  0  0  0  0  0  0  0  0  0
    7.6308   -3.2761   -0.7494 H   0  0  0  0  0  0  0  0  0  0  0  0
    7.8804   -2.7607    0.9119 H   0  0  0  0  0  0  0  0  0  0  0  0
    7.1992   -1.6496   -0.2263 H   0  0  0  0  0  0  0  0  0  0  0  0
    6.3645   -5.2133    0.0139 H   0  0  0  0  0  0  0  0  0  0  0  0
    5.6780   -7.4936    3.1764 H   0  0  0  0  0  0  0  0  0  0  0  0
    4.6303   -7.6830    6.6251 H   0  0  0  0  0  0  0  0  0  0  0  0
    5.6506   -6.4127    6.1018 H   0  0  0  0  0  0  0  0  0  0  0  0
    5.9200   -8.0123    5.4776 H   0  0  0  0  0  0  0  0  0  0  0  0
    2.7398   -6.0958    5.9159 H   0  0  0  0  0  0  0  0  0  0  0  0
    3.9228   -5.0363    5.4099 H   0  0  0  0  0  0  0  0  0  0  0  0
    3.1207   -4.6030    3.3236 H   0  0  0  0  0  0  0  0  0  0  0  0
    1.9245   -3.3908    5.0568 H   0  0  0  0  0  0  0  0  0  0  0  0
    0.9556   -3.6584    3.6490 H   0  0  0  0  0  0  0  0  0  0  0  0
   -0.5603   -4.0426    5.2797 H   0  0  0  0  0  0  0  0  0  0  0  0
   -1.2457   -6.2601    5.5212 H   0  0  0  0  0  0  0  0  0  0  0  0
   -0.6236   -6.1932    3.9243 H   0  0  0  0  0  0  0  0  0  0  0  0
    1.4951  -10.1817    2.9792 H   0  0  0  0  0  0  0  0  0  0  0  0
    0.0143   -9.4832    3.5738 H   0  0  0  0  0  0  0  0  0  0  0  0
    1.1595  -10.1837    4.6743 H   0  0  0  0  0  0  0  0  0  0  0  0
    3.1389   -8.6606    5.4677 H   0  0  0  0  0  0  0  0  0  0  0  0
    5.1070   -9.4198    4.0794 H   0  0  0  0  0  0  0  0  0  0  0  0
    4.1017  -11.4791    4.0342 H   0  0  0  0  0  0  0  0  0  0  0  0
    0.6329   -8.4711    1.6406 H   0  0  0  0  0  0  0  0  0  0  0  0
    5.8564   -3.6482   -2.4875 H   0  0  0  0  0  0  0  0  0  0  0  0
    4.1126   -3.6543   -2.6864 H   0  0  0  0  0  0  0  0  0  0  0  0
    4.8989   -4.9087   -1.7747 H   0  0  0  0  0  0  0  0  0  0  0  0
    5.6723   -1.3313   -1.9255 H   0  0  0  0  0  0  0  0  0  0  0  0
    4.8136   -0.7131   -0.5299 H   0  0  0  0  0  0  0  0  0  0  0  0
    3.9232   -1.2982   -1.9169 H   0  0  0  0  0  0  0  0  0  0  0  0
  1  2  1  0
  1 39  1  0
  1 40  1  0
  1 41  1  0
  2 31  1  0
  2  3  1  0
  2 42  1  1
  3  4  1  0
  3 43  1  0
  3 44  1  0
  4 33  1  0
  4  5  1  0
  4 45  1  6
  5 18  1  0
  5  6  1  0
  5 46  1  6
  6 13  1  0
  6  7  1  0
  6 47  1  6
  7  8  1  0
  7 48  1  0
  7 49  1  0
  8 36  1  0
  8  9  1  0
  8 50  1  6
  9 10  1  0
  9 51  1  0
  9 52  1  0
 10 11  1  0
 10 53  1  0
 10 54  1  0
 11 12  1  6
 11 13  1  0
 11 36  1  0
 12 55  1  0
 12 56  1  0
 12 57  1  0
 13 14  1  0
 13 58  1  6
 14 15  2  0
 14 16  1  0
 16 17  2  0
 16 18  1  0
 18 19  1  0
 18 59  1  6
 19 30  1  0
 19 20  1  1
 19 21  1  0
 20 60  1  0
 20 61  1  0
 20 62  1  0
 21 22  1  0
 21 63  1  0
 21 64  1  0
 22 35  1  0
 22 23  1  0
 22 65  1  6
 23 24  1  0
 23 66  1  0
 23 67  1  0
 24 25  1  0
 24 26  1  0
 24 68  1  1
 26 27  1  0
 26 69  1  0
 26 70  1  0
 27 28  1  0
 28 29  1  6
 28 30  1  0
 28 33  1  0
 29 71  1  0
 29 72  1  0
 29 73  1  0
 30 31  1  0
 30 74  1  1
 31 32  1  0
 31 75  1  1
 32 76  1  0
 33 34  1  6
 33 35  1  0
 34 77  1  0
 36 37  1  0
 36 38  1  0
 37 78  1  0
 37 79  1  0
 37 80  1  0
 38 81  1  0
 38 82  1  0
 38 83  1  0
M  END
>  <i_m_ct_stereo_status>  (193) 
1

>  <s_m_source_file>  (193) 
/var/tmp/pbs.5076255.sched01/tmpe6iyr0oq/80tt78e_gd.sdf

>  <i_m_source_file_index>  (193) 
2

>  <i_lp_mmshare_version>  (193) 
48012

>  <i_f3d_flags>  (193) 
0

>  <s_epik_input>  (193) 
UzFbQ0gyXVtDQEBIXShDbClbQ0gyXVtDQEhdKE8yKVtDSDJdW0NAXShbQ0gzXSkoW0NAQEhdM0MoPU8pQzQ9TylbQ0BIXShbQ0BASF0oW09IXSlbQ0BIXShbQ0gzXSlbQ0gyXTUpW0NAXTEoW0NIM10pW0NAXTIoW09IXSlbQ0BIXTVbQ0BIXTNbQ0BIXShbQ0BIXTRbQ0BdNjdbQ0gzXSlbQ0gyXVtDQEBIXShbQ0gyXVtDSDJdNilDNyhbQ0gzXSlbQ0gzXQ==

>  <s_epik_cmdline>  (193) 
J2VwaWtfcHl0aG9uJywgJy1waHQnLCAnMi4wJywgJy1waCcsICc3LjAnLCAnLXRuJywgJzgnLCAnLW1hJywgJzIwMCcsICctaW1hZScsICc8aW5maWxlLm1hZT4nLCAnLW9tYWUnLCAnPG91dGZpbGUubWFlPic=

>  <r_lp_tautomer_probability>  (193) 
1

>  <r_epik_Ionization_Penalty>  (193) 
4.81832e-06

>  <r_epik_Ionization_Penalty_Charging>  (193) 
0

>  <r_epik_Ionization_Penalty_Neutral>  (193) 
4.81832e-06

>  <r_epik_State_Penalty>  (193) 
-0

>  <r_epik_Charging_Adjusted_Penalty>  (193) 
0

>  <i_epik_Tot_Q>  (193) 
0

>  <i_epik_Tot_abs_Q>  (193) 
0

>  <s_lp_Force_Field>  (193) 
OPLS3e

>  <r_lp_Energy>  (193) 
145.702

>  <b_lp_Chiralities_Consistent>  (193) 
1

>  <s_lp_Variant>  (193) 
59:0-1

>  <s_i_glide_gridfile>  (193) 
pfpi4k_grid

>  <i_i_glide_lignum>  (193) 
2

>  <i_i_glide_rotatable_bonds>  (193) 
2

>  <r_i_docking_score>  (193) 
-2.61435

>  <r_i_glide_ligand_efficiency>  (193) 
-0.0687986

>  <r_i_glide_ligand_efficiency_sa>  (193) 
-0.231299

>  <r_i_glide_ligand_efficiency_ln>  (193) 
-0.56373

>  <r_i_glide_gscore>  (193) 
-2.61435

>  <r_i_glide_lipo>  (193) 
-0.401214

>  <r_i_glide_hbond>  (193) 
0

>  <r_i_glide_metal>  (193) 
-0

>  <r_i_glide_rewards>  (193) 
-0.0769713

>  <r_i_glide_evdw>  (193) 
-34.6527

>  <r_i_glide_ecoul>  (193) 
-2.58374

>  <r_i_glide_erotb>  (193) 
0

>  <r_i_glide_esite>  (193) 
-0.0159653

>  <r_i_glide_emodel>  (193) 
-41.7867

>  <r_i_glide_energy>  (193) 
-37.2364

>  <r_i_glide_einternal>  (193) 
2.31981

>  <r_i_glide_intrahb_reward>  (193) 
-0

>  <i_i_glide_confnum>  (193) 
1

>  <i_i_glide_posenum>  (193) 
31

>  <r_i_glide_eff_state_penalty>  (193) 
0

>  <ligand_id>  (193) 
59

>  <original_smiles>  (193) 
CC1CC2C3C4CC5CCC(C)(C4C(=O)C(=O)C3C3(C)CC4CC(Cl)CSC(C)(C3C1O)C2(O)O4)C5(C)C

>  <smiles>  (193) 
[H]OC1([H])C([H])(C([H])([H])[H])C([H])([H])C2([H])C3(O[H])OC4([H])C([H])([H])C([H])(Cl)C([H])([H])SC3(C([H])([H])[H])C1([H])C(C([H])([H])[H])(C4([H])[H])C1([H])C(=O)C(=O)C3([H])C([H])(C([H])([H])C4([H])C([H])([H])C([H])([H])C3(C([H])([H])[H])C4(C([H])([H])[H])C([H])([H])[H])C12[H]

$$$$
59:0:2
     RDKit          3D

 83 89  0  0  1  0  0  0  0  0999 V2000
    1.9245   -1.1621    2.1262 C   0  0  0  0  0  0  0  0  0  0  0  0
    3.1754   -1.7077    1.4108 C   0  0  2  0  0  0  0  0  0  0  0  0
    2.8826   -2.9513    0.5311 C   0  0  0  0  0  0  0  0  0  0  0  0
    3.2486   -4.3660    1.0348 C   0  0  2  0  0  0  0  0  0  0  0  0
    2.6483   -4.7419    2.4270 C   0  0  1  0  0  0  0  0  0  0  0  0
    1.6619   -5.9763    2.4247 C   0  0  1  0  0  0  0  0  0  0  0  0
    2.0666   -7.2160    1.5827 C   0  0  0  0  0  0  0  0  0  0  0  0
    1.5564   -8.5829    2.0742 C   0  0  1  0  0  0  0  0  0  0  0  0
    2.4510   -9.1042    3.1989 C   0  0  0  0  0  0  0  0  0  0  0  0
    1.7997   -8.5720    4.4750 C   0  0  0  0  0  0  0  0  0  0  0  0
    0.5281   -7.8020    4.0174 C   0  0  1  0  0  0  0  0  0  0  0  0
   -0.5769   -7.9364    5.0810 C   0  0  0  0  0  0  0  0  0  0  0  0
    0.8511   -6.2807    3.7340 C   0  0  1  0  0  0  0  0  0  0  0  0
    1.3769   -5.5153    4.9437 C   0  0  0  0  0  0  0  0  0  0  0  0
    0.6304   -5.1616    5.8537 O   0  0  0  0  0  0  0  0  0  0  0  0
    2.8561   -5.1406    4.9507 C   0  0  0  0  0  0  0  0  0  0  0  0
    3.5552   -5.5058    5.8850 O   0  0  0  0  0  0  0  0  0  0  0  0
    3.3555   -4.3015    3.7476 C   0  0  1  0  0  0  0  0  0  0  0  0
    4.8926   -3.9737    3.7030 C   0  0  1  0  0  0  0  0  0  0  0  0
    5.2481   -3.2327    5.0310 C   0  0  0  0  0  0  0  0  0  0  0  0
    5.7370   -5.2648    3.6805 C   0  0  0  0  0  0  0  0  0  0  0  0
    5.3203   -6.3218    2.6409 C   0  0  2  0  0  0  0  0  0  0  0  0
    6.3506   -7.4535    2.5116 C   0  0  0  0  0  0  0  0  0  0  0  0
    7.7344   -7.0605    1.9354 C   0  0  2  0  0  0  0  0  0  0  0  0
    8.8567   -6.6165    3.2569 Cl  0  0  0  0  0  0  0  0  0  0  0  0
    7.7734   -6.0177    0.7878 C   0  0  0  0  0  0  0  0  0  0  0  0
    7.5803   -4.2661    1.2802 S   0  0  0  0  0  0  0  0  0  0  0  0
    5.8229   -3.6564    1.1615 C   0  0  2  0  0  0  0  0  0  0  0  0
    6.0499   -2.5776    0.0531 C   0  0  0  0  0  0  0  0  0  0  0  0
    5.3049   -3.0090    2.5064 C   0  0  1  0  0  0  0  0  0  0  0  0
    4.4012   -1.7292    2.3738 C   0  0  1  0  0  0  0  0  0  0  0  0
    5.1922   -0.5742    2.1370 O   0  0  0  0  0  0  0  0  0  0  0  0
    4.7580   -4.7315    0.7275 C   0  0  2  0  0  0  0  0  0  0  0  0
    4.8509   -4.8752   -0.6728 O   0  0  0  0  0  0  0  0  0  0  0  0
    5.0660   -5.9883    1.2688 O   0  0  0  0  0  0  0  0  0  0  0  0
    0.1496   -8.5265    2.6946 C   0  0  0  0  0  0  0  0  0  0  0  0
   -0.9553   -7.8385    1.8600 C   0  0  0  0  0  0  0  0  0  0  0  0
   -0.3676   -9.9683    2.8815 C   0  0  0  0  0  0  0  0  0  0  0  0
    1.5809   -1.8042    2.9352 H   0  0  0  0  0  0  0  0  0  0  0  0
    1.0997   -1.0311    1.4292 H   0  0  0  0  0  0  0  0  0  0  0  0
    2.1269   -0.1768    2.5494 H   0  0  0  0  0  0  0  0  0  0  0  0
    3.3763   -0.9293    0.6730 H   0  0  0  0  0  0  0  0  0  0  0  0
    1.8140   -2.9470    0.3362 H   0  0  0  0  0  0  0  0  0  0  0  0
    3.2848   -2.8161   -0.4678 H   0  0  0  0  0  0  0  0  0  0  0  0
    2.6953   -5.0044    0.3456 H   0  0  0  0  0  0  0  0  0  0  0  0
    1.8660   -3.9872    2.4722 H   0  0  0  0  0  0  0  0  0  0  0  0
    0.8786   -5.5699    1.7899 H   0  0  0  0  0  0  0  0  0  0  0  0
    1.6455   -7.0579    0.5900 H   0  0  0  0  0  0  0  0  0  0  0  0
    3.1370   -7.2792    1.4109 H   0  0  0  0  0  0  0  0  0  0  0  0
    1.5917   -9.2914    1.2533 H   0  0  0  0  0  0  0  0  0  0  0  0
    2.4430  -10.1964    3.1955 H   0  0  0  0  0  0  0  0  0  0  0  0
    3.4893   -8.7959    3.0879 H   0  0  0  0  0  0  0  0  0  0  0  0
    1.5216   -9.4210    5.1020 H   0  0  0  0  0  0  0  0  0  0  0  0
    2.5000   -7.9779    5.0570 H   0  0  0  0  0  0  0  0  0  0  0  0
   -1.4820   -7.3982    4.7819 H   0  0  0  0  0  0  0  0  0  0  0  0
   -0.2426   -7.5475    6.0420 H   0  0  0  0  0  0  0  0  0  0  0  0
   -0.8509   -8.9785    5.2635 H   0  0  0  0  0  0  0  0  0  0  0  0
   -0.1228   -5.8160    3.5821 H   0  0  0  0  0  0  0  0  0  0  0  0
    2.9141   -3.3345    3.9773 H   0  0  0  0  0  0  0  0  0  0  0  0
    6.2528   -2.8606    5.0196 H   0  0  0  0  0  0  0  0  0  0  0  0
    5.2392   -3.8626    5.9163 H   0  0  0  0  0  0  0  0  0  0  0  0
    4.6114   -2.3740    5.2368 H   0  0  0  0  0  0  0  0  0  0  0  0
    6.7919   -5.0444    3.6291 H   0  0  0  0  0  0  0  0  0  0  0  0
    5.6824   -5.7629    4.6475 H   0  0  0  0  0  0  0  0  0  0  0  0
    4.4126   -6.7636    3.0494 H   0  0  0  0  0  0  0  0  0  0  0  0
    6.4963   -7.9394    3.4770 H   0  0  0  0  0  0  0  0  0  0  0  0
    5.9094   -8.2167    1.8680 H   0  0  0  0  0  0  0  0  0  0  0  0
    8.1516   -7.9786    1.5175 H   0  0  0  0  0  0  0  0  0  0  0  0
    8.7503   -6.1015    0.3138 H   0  0  0  0  0  0  0  0  0  0  0  0
    7.0642   -6.2480    0.0067 H   0  0  0  0  0  0  0  0  0  0  0  0
    5.1843   -2.0245   -0.2722 H   0  0  0  0  0  0  0  0  0  0  0  0
    6.4841   -3.0125   -0.8450 H   0  0  0  0  0  0  0  0  0  0  0  0
    6.7711   -1.8382    0.3942 H   0  0  0  0  0  0  0  0  0  0  0  0
    6.2166   -2.5534    2.8836 H   0  0  0  0  0  0  0  0  0  0  0  0
    4.0145   -1.5147    3.3663 H   0  0  0  0  0  0  0  0  0  0  0  0
    5.5527   -0.6260    1.2622 H   0  0  0  0  0  0  0  0  0  0  0  0
    4.1422   -5.4382   -0.9598 H   0  0  0  0  0  0  0  0  0  0  0  0
   -1.9103   -7.8479    2.3857 H   0  0  0  0  0  0  0  0  0  0  0  0
   -1.1096   -8.3617    0.9194 H   0  0  0  0  0  0  0  0  0  0  0  0
   -0.7603   -6.8137    1.5805 H   0  0  0  0  0  0  0  0  0  0  0  0
   -1.3905   -9.9547    3.2564 H   0  0  0  0  0  0  0  0  0  0  0  0
    0.2135  -10.5639    3.5847 H   0  0  0  0  0  0  0  0  0  0  0  0
   -0.3810  -10.5143    1.9369 H   0  0  0  0  0  0  0  0  0  0  0  0
  1  2  1  0
  1 39  1  0
  1 40  1  0
  1 41  1  0
  2 31  1  0
  2  3  1  0
  2 42  1  6
  3  4  1  0
  3 43  1  0
  3 44  1  0
  4 33  1  0
  4  5  1  0
  4 45  1  6
  5 18  1  0
  5  6  1  0
  5 46  1  1
  6 13  1  0
  6  7  1  0
  6 47  1  6
  7  8  1  0
  7 48  1  0
  7 49  1  0
  8 36  1  0
  8  9  1  0
  8 50  1  6
  9 10  1  0
  9 51  1  0
  9 52  1  0
 10 11  1  0
 10 53  1  0
 10 54  1  0
 11 12  1  1
 11 13  1  0
 11 36  1  0
 12 55  1  0
 12 56  1  0
 12 57  1  0
 13 14  1  0
 13 58  1  6
 14 15  2  0
 14 16  1  0
 16 17  2  0
 16 18  1  0
 18 19  1  0
 18 59  1  1
 19 30  1  0
 19 20  1  1
 19 21  1  0
 20 60  1  0
 20 61  1  0
 20 62  1  0
 21 22  1  0
 21 63  1  0
 21 64  1  0
 22 35  1  0
 22 23  1  0
 22 65  1  1
 23 24  1  0
 23 66  1  0
 23 67  1  0
 24 25  1  0
 24 26  1  0
 24 68  1  6
 26 27  1  0
 26 69  1  0
 26 70  1  0
 27 28  1  0
 28 29  1  6
 28 30  1  0
 28 33  1  0
 29 71  1  0
 29 72  1  0
 29 73  1  0
 30 31  1  0
 30 74  1  1
 31 32  1  0
 31 75  1  1
 32 76  1  0
 33 34  1  6
 33 35  1  0
 34 77  1  0
 36 37  1  0
 36 38  1  0
 37 78  1  0
 37 79  1  0
 37 80  1  0
 38 81  1  0
 38 82  1  0
 38 83  1  0
M  END
>  <i_m_ct_stereo_status>  (194) 
1

>  <s_m_source_file>  (194) 
/var/tmp/pbs.5076255.sched01/tmpe6iyr0oq/80tt78e_gd.sdf

>  <i_m_source_file_index>  (194) 
2

>  <i_lp_mmshare_version>  (194) 
48012

>  <i_f3d_flags>  (194) 
0

>  <s_epik_input>  (194) 
UzFbQ0gyXVtDQEBIXShDbClbQ0gyXVtDQEhdKE8yKVtDSDJdW0NAXShbQ0gzXSkoW0NAQEhdM0MoPU8pQzQ9TylbQ0BIXShbQ0BASF0oW09IXSlbQ0BIXShbQ0gzXSlbQ0gyXTUpW0NAXTEoW0NIM10pW0NAXTIoW09IXSlbQ0BIXTVbQ0BIXTNbQ0BIXShbQ0BIXTRbQ0BdNjdbQ0gzXSlbQ0gyXVtDQEBIXShbQ0gyXVtDSDJdNilDNyhbQ0gzXSlbQ0gzXQ==

>  <s_epik_cmdline>  (194) 
J2VwaWtfcHl0aG9uJywgJy1waHQnLCAnMi4wJywgJy1waCcsICc3LjAnLCAnLXRuJywgJzgnLCAnLW1hJywgJzIwMCcsICctaW1hZScsICc8aW5maWxlLm1hZT4nLCAnLW9tYWUnLCAnPG91dGZpbGUubWFlPic=

>  <r_lp_tautomer_probability>  (194) 
1

>  <r_epik_Ionization_Penalty>  (194) 
4.81832e-06

>  <r_epik_Ionization_Penalty_Charging>  (194) 
0

>  <r_epik_Ionization_Penalty_Neutral>  (194) 
4.81832e-06

>  <r_epik_State_Penalty>  (194) 
-0

>  <r_epik_Charging_Adjusted_Penalty>  (194) 
0

>  <i_epik_Tot_Q>  (194) 
0

>  <i_epik_Tot_abs_Q>  (194) 
0

>  <s_lp_Force_Field>  (194) 
OPLS3e

>  <r_lp_Energy>  (194) 
145.702

>  <b_lp_Chiralities_Consistent>  (194) 
1

>  <s_lp_Variant>  (194) 
59:0-1

>  <s_i_glide_gridfile>  (194) 
pfpi4k_grid

>  <i_i_glide_lignum>  (194) 
2

>  <i_i_glide_rotatable_bonds>  (194) 
2

>  <r_i_docking_score>  (194) 
-2.49253

>  <r_i_glide_ligand_efficiency>  (194) 
-0.0655928

>  <r_i_glide_ligand_efficiency_sa>  (194) 
-0.220521

>  <r_i_glide_ligand_efficiency_ln>  (194) 
-0.537462

>  <r_i_glide_gscore>  (194) 
-2.49253

>  <r_i_glide_lipo>  (194) 
-0.357577

>  <r_i_glide_hbond>  (194) 
0

>  <r_i_glide_metal>  (194) 
-0

>  <r_i_glide_rewards>  (194) 
-0.0660584

>  <r_i_glide_evdw>  (194) 
-32.058

>  <r_i_glide_ecoul>  (194) 
-3.09498

>  <r_i_glide_erotb>  (194) 
0

>  <r_i_glide_esite>  (194) 
-0.00174517

>  <r_i_glide_emodel>  (194) 
-40.4647

>  <r_i_glide_energy>  (194) 
-35.1529

>  <r_i_glide_einternal>  (194) 
0.105535

>  <r_i_glide_intrahb_reward>  (194) 
-0

>  <i_i_glide_confnum>  (194) 
1

>  <i_i_glide_posenum>  (194) 
3

>  <r_i_glide_eff_state_penalty>  (194) 
0

>  <ligand_id>  (194) 
59

>  <original_smiles>  (194) 
CC1CC2C3C4CC5CCC(C)(C4C(=O)C(=O)C3C3(C)CC4CC(Cl)CSC(C)(C3C1O)C2(O)O4)C5(C)C

>  <smiles>  (194) 
[H]OC1([H])C([H])(C([H])([H])[H])C([H])([H])C2([H])C3(O[H])OC4([H])C([H])([H])C([H])(Cl)C([H])([H])SC3(C([H])([H])[H])C1([H])C(C([H])([H])[H])(C4([H])[H])C1([H])C(=O)C(=O)C3([H])C([H])(C([H])([H])C4([H])C([H])([H])C([H])([H])C3(C([H])([H])[H])C4(C([H])([H])[H])C([H])([H])[H])C12[H]

$$$$
60:0:0
     RDKit          3D

 40 43  0  0  1  0  0  0  0  0999 V2000
   -0.4396   -3.3531    6.5881 C   0  0  0  0  0  0  0  0  0  0  0  0
   -0.6232   -2.2415    5.6795 N   0  0  0  0  0  0  0  0  0  0  0  0
    0.2588   -1.7417    4.7483 C   0  0  0  0  0  0  0  0  0  0  0  0
   -0.3696   -0.7046    4.1127 C   0  0  0  0  0  0  0  0  0  0  0  0
    0.1445    0.1669    3.0097 C   0  0  0  0  0  0  0  0  0  0  0  0
    0.5024    1.4820    3.5603 N   0  0  2  0  0  0  0  0  0  0  0  0
    0.6054    2.5471    2.5562 C   0  0  0  0  0  0  0  0  0  0  0  0
    1.3618    3.6894    3.2572 C   0  0  1  0  0  0  0  0  0  0  0  0
    0.4941    4.7697    3.9322 C   0  0  1  0  0  0  0  0  0  0  0  0
   -0.7595    4.9541    3.2982 O   0  0  0  0  0  0  0  0  0  0  0  0
    0.3779    4.3552    5.4067 C   0  0  0  0  0  0  0  0  0  0  0  0
    1.6789    3.6368    5.7104 C   0  0  0  0  0  0  0  0  0  0  0  0
    1.9570    2.9784    7.0450 C   0  0  0  0  0  0  0  0  0  0  0  0
    2.7004    4.2319    6.6617 C   0  0  0  0  0  0  0  0  0  0  0  0
    2.1365    3.0044    4.4024 C   0  0  1  0  0  0  0  0  0  0  0  0
    1.7729    1.5146    4.2973 C   0  0  0  0  0  0  0  0  0  0  0  0
   -1.6411   -0.6477    4.7426 C   0  0  0  0  0  0  0  0  0  0  0  0
   -1.7897   -1.5691    5.6774 N   0  0  0  0  0  0  0  0  0  0  0  0
    0.6005   -3.6761    6.5758 H   0  0  0  0  0  0  0  0  0  0  0  0
   -1.0713   -4.1899    6.2862 H   0  0  0  0  0  0  0  0  0  0  0  0
   -0.7021   -3.0540    7.6028 H   0  0  0  0  0  0  0  0  0  0  0  0
    1.2444   -2.1582    4.6138 H   0  0  0  0  0  0  0  0  0  0  0  0
    1.0105   -0.2664    2.5035 H   0  0  0  0  0  0  0  0  0  0  0  0
   -0.6161    0.2991    2.2382 H   0  0  0  0  0  0  0  0  0  0  0  0
    1.2093    2.1836    1.7200 H   0  0  0  0  0  0  0  0  0  0  0  0
   -0.3879    2.7854    2.1677 H   0  0  0  0  0  0  0  0  0  0  0  0
    2.0276    4.1715    2.5449 H   0  0  0  0  0  0  0  0  0  0  0  0
    1.0202    5.7291    3.8832 H   0  0  0  0  0  0  0  0  0  0  0  0
   -0.6064    4.9292    2.3449 H   0  0  0  0  0  0  0  0  0  0  0  0
    0.2446    5.2219    6.0691 H   0  0  0  0  0  0  0  0  0  0  0  0
   -0.4475    3.6522    5.5559 H   0  0  0  0  0  0  0  0  0  0  0  0
    1.1849    3.0492    7.8056 H   0  0  0  0  0  0  0  0  0  0  0  0
    2.5239    2.0471    7.0547 H   0  0  0  0  0  0  0  0  0  0  0  0
    3.7563    4.1301    6.4042 H   0  0  0  0  0  0  0  0  0  0  0  0
    2.4412    5.1418    7.1977 H   0  0  0  0  0  0  0  0  0  0  0  0
    3.2154    3.1432    4.2912 H   0  0  0  0  0  0  0  0  0  0  0  0
    1.6953    0.9972    5.2522 H   0  0  0  0  0  0  0  0  0  0  0  0
    2.5434    1.0179    3.7061 H   0  0  0  0  0  0  0  0  0  0  0  0
   -2.4599    0.0311    4.5414 H   0  0  0  0  0  0  0  0  0  0  0  0
   -0.2272    1.7827    4.1940 H   0  0  0  0  0  0  0  0  0  0  0  0
  1  2  1  0
  1 19  1  0
  1 20  1  0
  1 21  1  0
  2 18  1  0
  2  3  1  0
  3  4  2  0
  3 22  1  0
  4  5  1  0
  4 17  1  0
  5  6  1  0
  5 23  1  0
  5 24  1  0
  6 16  1  0
  6  7  1  0
  6 40  1  1
  7  8  1  0
  7 25  1  0
  7 26  1  0
  8 15  1  0
  8  9  1  0
  8 27  1  6
  9 10  1  0
  9 11  1  0
  9 28  1  1
 10 29  1  0
 11 12  1  0
 11 30  1  0
 11 31  1  0
 12 14  1  0
 12 13  1  0
 12 15  1  0
 13 14  1  0
 13 32  1  0
 13 33  1  0
 14 34  1  0
 14 35  1  0
 15 16  1  0
 15 36  1  6
 16 37  1  0
 16 38  1  0
 17 18  2  0
 17 39  1  0
M  CHG  1   6   1
M  END
>  <i_m_ct_stereo_status>  (195) 
1

>  <s_m_source_file>  (195) 
/var/tmp/pbs.5076255.sched01/tmpe6iyr0oq/80tt78e_gd.sdf

>  <i_m_source_file_index>  (195) 
3

>  <i_lp_mmshare_version>  (195) 
48012

>  <i_f3d_flags>  (195) 
0

>  <s_epik_input>  (195) 
W0NIM11uMVtjSF1jKFtjSF1uMSlbQ0gyXU4oW0NIMl0yKVtDSDJdW0NAQEhdKFtDQEBIXShbT0hdKVtDSDJdMylbQ0BIXTJDMzRbQ0gyXVtDSDJdNA==

>  <s_epik_cmdline>  (195) 
J2VwaWtfcHl0aG9uJywgJy1waHQnLCAnMi4wJywgJy1waCcsICc3LjAnLCAnLXRuJywgJzgnLCAnLW1hJywgJzIwMCcsICctaW1hZScsICc8aW5maWxlLm1hZT4nLCAnLW9tYWUnLCAnPG91dGZpbGUubWFlPic=

>  <r_lp_tautomer_probability>  (195) 
1

>  <r_epik_Ionization_Penalty>  (195) 
0.0113051

>  <r_epik_Ionization_Penalty_Charging>  (195) 
0.0112218

>  <r_epik_Ionization_Penalty_Neutral>  (195) 
8.33473e-05

>  <r_epik_State_Penalty>  (195) 
0.00862461

>  <r_epik_Charging_Adjusted_Penalty>  (195) 
0.0198464

>  <i_epik_Tot_Q>  (195) 
1

>  <i_epik_Tot_abs_Q>  (195) 
1

>  <s_lp_Force_Field>  (195) 
OPLS3e

>  <r_lp_Energy>  (195) 
7.22847

>  <b_lp_Chiralities_Consistent>  (195) 
1

>  <s_lp_Variant>  (195) 
60:0-1

>  <s_i_glide_gridfile>  (195) 
pfpi4k_grid

>  <i_i_glide_lignum>  (195) 
3

>  <i_i_glide_rotatable_bonds>  (195) 
3

>  <r_i_docking_score>  (195) 
-3.75482

>  <r_i_glide_ligand_efficiency>  (195) 
-0.208601

>  <r_i_glide_ligand_efficiency_sa>  (195) 
-0.54669

>  <r_i_glide_ligand_efficiency_ln>  (195) 
-0.965157

>  <r_i_glide_gscore>  (195) 
-3.75482

>  <r_i_glide_lipo>  (195) 
0

>  <r_i_glide_hbond>  (195) 
-0.230316

>  <r_i_glide_metal>  (195) 
-0

>  <r_i_glide_rewards>  (195) 
-1.71584

>  <r_i_glide_evdw>  (195) 
-13.2306

>  <r_i_glide_ecoul>  (195) 
-11.0431

>  <r_i_glide_erotb>  (195) 
0.566414

>  <r_i_glide_esite>  (195) 
-0.0570804

>  <r_i_glide_emodel>  (195) 
-31.1214

>  <r_i_glide_energy>  (195) 
-24.2738

>  <r_i_glide_einternal>  (195) 
1.38835

>  <r_i_glide_intrahb_reward>  (195) 
-0

>  <i_i_glide_confnum>  (195) 
5

>  <i_i_glide_posenum>  (195) 
8

>  <r_i_glide_eff_state_penalty>  (195) 
0

>  <ligand_id>  (195) 
60

>  <original_smiles>  (195) 
Cn1cc(CN2CC3C(O)CC4(CC4)C3C2)cn1

>  <smiles>  (195) 
[H]OC1([H])C([H])([H])C2(C([H])([H])C2([H])[H])C2([H])C1([H])C([H])([H])[N+]([H])(C([H])([H])c1c([H])nn(C([H])([H])[H])c1[H])C2([H])[H]

$$$$
60:0:1
     RDKit          3D

 40 43  0  0  1  0  0  0  0  0999 V2000
   -1.0200    1.2130    3.1483 C   0  0  0  0  0  0  0  0  0  0  0  0
    0.2779    0.6248    2.9134 N   0  0  0  0  0  0  0  0  0  0  0  0
    1.2299    0.9829    1.9824 C   0  0  0  0  0  0  0  0  0  0  0  0
    2.3000    0.1623    2.1575 C   0  0  0  0  0  0  0  0  0  0  0  0
    3.5895    0.1210    1.3969 C   0  0  0  0  0  0  0  0  0  0  0  0
    3.6125   -1.0570    0.5023 N   0  0  2  0  0  0  0  0  0  0  0  0
    3.9595   -2.3252    1.1700 C   0  0  0  0  0  0  0  0  0  0  0  0
    4.3420   -3.2974    0.0402 C   0  0  1  0  0  0  0  0  0  0  0  0
    3.2131   -4.1901   -0.4747 C   0  0  1  0  0  0  0  0  0  0  0  0
    2.2310   -4.5231    0.4856 O   0  0  0  0  0  0  0  0  0  0  0  0
    2.6397   -3.4469   -1.6843 C   0  0  0  0  0  0  0  0  0  0  0  0
    3.8012   -2.6978   -2.2964 C   0  0  0  0  0  0  0  0  0  0  0  0
    3.6615   -1.7887   -3.5041 C   0  0  0  0  0  0  0  0  0  0  0  0
    4.3664   -3.1080   -3.6443 C   0  0  0  0  0  0  0  0  0  0  0  0
    4.7383   -2.3847   -1.1413 C   0  0  1  0  0  0  0  0  0  0  0  0
    4.5571   -0.9545   -0.6178 C   0  0  0  0  0  0  0  0  0  0  0  0
    1.9014   -0.6765    3.2437 C   0  0  0  0  0  0  0  0  0  0  0  0
    0.6851   -0.4052    3.6796 N   0  0  0  0  0  0  0  0  0  0  0  0
   -1.2626    1.9121    2.3494 H   0  0  0  0  0  0  0  0  0  0  0  0
   -1.0084    1.7453    4.0988 H   0  0  0  0  0  0  0  0  0  0  0  0
   -1.7806    0.4339    3.1866 H   0  0  0  0  0  0  0  0  0  0  0  0
    1.0517    1.7909    1.2819 H   0  0  0  0  0  0  0  0  0  0  0  0
    3.7061    1.0200    0.8016 H   0  0  0  0  0  0  0  0  0  0  0  0
    4.4449    0.1269    2.0709 H   0  0  0  0  0  0  0  0  0  0  0  0
    4.8546   -2.1718    1.7755 H   0  0  0  0  0  0  0  0  0  0  0  0
    3.1822   -2.6845    1.8481 H   0  0  0  0  0  0  0  0  0  0  0  0
    5.1722   -3.9278    0.3617 H   0  0  0  0  0  0  0  0  0  0  0  0
    3.6469   -5.1408   -0.7595 H   0  0  0  0  0  0  0  0  0  0  0  0
    2.6613   -4.8895    1.2296 H   0  0  0  0  0  0  0  0  0  0  0  0
    2.1918   -4.1319   -2.3854 H   0  0  0  0  0  0  0  0  0  0  0  0
    1.8882   -2.7165   -1.3895 H   0  0  0  0  0  0  0  0  0  0  0  0
    2.6619   -1.6791   -3.9233 H   0  0  0  0  0  0  0  0  0  0  0  0
    4.2673   -0.8829   -3.5359 H   0  0  0  0  0  0  0  0  0  0  0  0
    5.4517   -3.0978   -3.7548 H   0  0  0  0  0  0  0  0  0  0  0  0
    3.8546   -3.8837   -4.2147 H   0  0  0  0  0  0  0  0  0  0  0  0
    5.7666   -2.5625   -1.4560 H   0  0  0  0  0  0  0  0  0  0  0  0
    4.2087   -0.2497   -1.3710 H   0  0  0  0  0  0  0  0  0  0  0  0
    5.5139   -0.5923   -0.2428 H   0  0  0  0  0  0  0  0  0  0  0  0
    2.4464   -1.4859    3.7101 H   0  0  0  0  0  0  0  0  0  0  0  0
    2.6954   -1.1800    0.0759 H   0  0  0  0  0  0  0  0  0  0  0  0
  1  2  1  0
  1 19  1  0
  1 20  1  0
  1 21  1  0
  2 18  1  0
  2  3  1  0
  3  4  2  0
  3 22  1  0
  4  5  1  0
  4 17  1  0
  5  6  1  0
  5 23  1  0
  5 24  1  0
  6 16  1  0
  6  7  1  0
  6 40  1  6
  7  8  1  0
  7 25  1  0
  7 26  1  0
  8 15  1  0
  8  9  1  0
  8 27  1  1
  9 10  1  0
  9 11  1  0
  9 28  1  6
 10 29  1  0
 11 12  1  0
 11 30  1  0
 11 31  1  0
 12 14  1  0
 12 13  1  0
 12 15  1  0
 13 14  1  0
 13 32  1  0
 13 33  1  0
 14 34  1  0
 14 35  1  0
 15 16  1  0
 15 36  1  6
 16 37  1  0
 16 38  1  0
 17 18  2  0
 17 39  1  0
M  CHG  1   6   1
M  END
>  <i_m_ct_stereo_status>  (196) 
1

>  <s_m_source_file>  (196) 
/var/tmp/pbs.5076255.sched01/tmpe6iyr0oq/80tt78e_gd.sdf

>  <i_m_source_file_index>  (196) 
3

>  <i_lp_mmshare_version>  (196) 
48012

>  <i_f3d_flags>  (196) 
0

>  <s_epik_input>  (196) 
W0NIM11uMVtjSF1jKFtjSF1uMSlbQ0gyXU4oW0NIMl0yKVtDSDJdW0NAQEhdKFtDQEBIXShbT0hdKVtDSDJdMylbQ0BIXTJDMzRbQ0gyXVtDSDJdNA==

>  <s_epik_cmdline>  (196) 
J2VwaWtfcHl0aG9uJywgJy1waHQnLCAnMi4wJywgJy1waCcsICc3LjAnLCAnLXRuJywgJzgnLCAnLW1hJywgJzIwMCcsICctaW1hZScsICc8aW5maWxlLm1hZT4nLCAnLW9tYWUnLCAnPG91dGZpbGUubWFlPic=

>  <r_lp_tautomer_probability>  (196) 
1

>  <r_epik_Ionization_Penalty>  (196) 
0.0113051

>  <r_epik_Ionization_Penalty_Charging>  (196) 
0.0112218

>  <r_epik_Ionization_Penalty_Neutral>  (196) 
8.33473e-05

>  <r_epik_State_Penalty>  (196) 
0.00862461

>  <r_epik_Charging_Adjusted_Penalty>  (196) 
0.0198464

>  <i_epik_Tot_Q>  (196) 
1

>  <i_epik_Tot_abs_Q>  (196) 
1

>  <s_lp_Force_Field>  (196) 
OPLS3e

>  <r_lp_Energy>  (196) 
7.22847

>  <b_lp_Chiralities_Consistent>  (196) 
1

>  <s_lp_Variant>  (196) 
60:0-1

>  <s_i_glide_gridfile>  (196) 
pfpi4k_grid

>  <i_i_glide_lignum>  (196) 
3

>  <i_i_glide_rotatable_bonds>  (196) 
3

>  <r_i_docking_score>  (196) 
-3.55183

>  <r_i_glide_ligand_efficiency>  (196) 
-0.197324

>  <r_i_glide_ligand_efficiency_sa>  (196) 
-0.517136

>  <r_i_glide_ligand_efficiency_ln>  (196) 
-0.912981

>  <r_i_glide_gscore>  (196) 
-3.55183

>  <r_i_glide_lipo>  (196) 
-0.588065

>  <r_i_glide_hbond>  (196) 
-0.142502

>  <r_i_glide_metal>  (196) 
-0

>  <r_i_glide_rewards>  (196) 
-1.71584

>  <r_i_glide_evdw>  (196) 
-18.2736

>  <r_i_glide_ecoul>  (196) 
-4.51347

>  <r_i_glide_erotb>  (196) 
0.566414

>  <r_i_glide_esite>  (196) 
-0.0811437

>  <r_i_glide_emodel>  (196) 
-29.3071

>  <r_i_glide_energy>  (196) 
-22.7871

>  <r_i_glide_einternal>  (196) 
1.13998

>  <r_i_glide_intrahb_reward>  (196) 
-0

>  <i_i_glide_confnum>  (196) 
2

>  <i_i_glide_posenum>  (196) 
16

>  <r_i_glide_eff_state_penalty>  (196) 
0

>  <ligand_id>  (196) 
60

>  <original_smiles>  (196) 
Cn1cc(CN2CC3C(O)CC4(CC4)C3C2)cn1

>  <smiles>  (196) 
[H]OC1([H])C([H])([H])C2(C([H])([H])C2([H])[H])C2([H])C1([H])C([H])([H])[N+]([H])(C([H])([H])c1c([H])nn(C([H])([H])[H])c1[H])C2([H])[H]

$$$$
60:0:2
     RDKit          3D

 40 43  0  0  1  0  0  0  0  0999 V2000
    0.7984   -0.5095    5.2332 C   0  0  0  0  0  0  0  0  0  0  0  0
    1.3493   -0.1808    3.9382 N   0  0  0  0  0  0  0  0  0  0  0  0
    2.6395   -0.3511    3.4779 C   0  0  0  0  0  0  0  0  0  0  0  0
    2.6821    0.1073    2.2053 C   0  0  0  0  0  0  0  0  0  0  0  0
    3.8357    0.1200    1.2461 C   0  0  0  0  0  0  0  0  0  0  0  0
    3.7814   -1.0750    0.3845 N   0  0  2  0  0  0  0  0  0  0  0  0
    4.1784   -2.3206    1.0611 C   0  0  0  0  0  0  0  0  0  0  0  0
    4.4486   -3.3319   -0.0680 C   0  0  1  0  0  0  0  0  0  0  0  0
    3.2711   -4.2218   -0.4578 C   0  0  1  0  0  0  0  0  0  0  0  0
    2.3547   -4.4999    0.5713 O   0  0  0  0  0  0  0  0  0  0  0  0
    2.6181   -3.5118   -1.6494 C   0  0  0  0  0  0  0  0  0  0  0  0
    3.7345   -2.7894   -2.3720 C   0  0  0  0  0  0  0  0  0  0  0  0
    3.5080   -1.9237   -3.5977 C   0  0  0  0  0  0  0  0  0  0  0  0
    4.1980   -3.2490   -3.7445 C   0  0  0  0  0  0  0  0  0  0  0  0
    4.7574   -2.4518   -1.3055 C   0  0  1  0  0  0  0  0  0  0  0  0
    4.6256   -1.0001   -0.8139 C   0  0  0  0  0  0  0  0  0  0  0  0
    1.3481    0.5535    1.9553 C   0  0  0  0  0  0  0  0  0  0  0  0
    0.5562    0.3644    2.9968 N   0  0  0  0  0  0  0  0  0  0  0  0
    1.5951   -0.7977    5.9168 H   0  0  0  0  0  0  0  0  0  0  0  0
    0.0944   -1.3356    5.1350 H   0  0  0  0  0  0  0  0  0  0  0  0
    0.2798    0.3583    5.6416 H   0  0  0  0  0  0  0  0  0  0  0  0
    3.4088   -0.8005    4.0974 H   0  0  0  0  0  0  0  0  0  0  0  0
    3.7954    0.9855    0.6045 H   0  0  0  0  0  0  0  0  0  0  0  0
    4.7941    0.1782    1.7633 H   0  0  0  0  0  0  0  0  0  0  0  0
    5.1178   -2.1472    1.5885 H   0  0  0  0  0  0  0  0  0  0  0  0
    3.4576   -2.6383    1.8202 H   0  0  0  0  0  0  0  0  0  0  0  0
    5.3081   -3.9530    0.2031 H   0  0  0  0  0  0  0  0  0  0  0  0
    3.6727   -5.1884   -0.7345 H   0  0  0  0  0  0  0  0  0  0  0  0
    2.1467   -3.6957    1.0247 H   0  0  0  0  0  0  0  0  0  0  0  0
    2.1178   -4.2172   -2.2844 H   0  0  0  0  0  0  0  0  0  0  0  0
    1.8936   -2.7762   -1.3321 H   0  0  0  0  0  0  0  0  0  0  0  0
    2.4820   -1.8240   -3.9408 H   0  0  0  0  0  0  0  0  0  0  0  0
    4.1117   -1.0210   -3.6958 H   0  0  0  0  0  0  0  0  0  0  0  0
    5.2764   -3.2574   -3.9226 H   0  0  0  0  0  0  0  0  0  0  0  0
    3.6464   -4.0370   -4.2529 H   0  0  0  0  0  0  0  0  0  0  0  0
    5.7612   -2.6392   -1.6939 H   0  0  0  0  0  0  0  0  0  0  0  0
    4.2197   -0.2982   -1.5461 H   0  0  0  0  0  0  0  0  0  0  0  0
    5.6121   -0.6376   -0.5255 H   0  0  0  0  0  0  0  0  0  0  0  0
    0.9252    0.9713    1.0518 H   0  0  0  0  0  0  0  0  0  0  0  0
    2.8328   -1.1935    0.0390 H   0  0  0  0  0  0  0  0  0  0  0  0
  1  2  1  0
  1 19  1  0
  1 20  1  0
  1 21  1  0
  2 18  1  0
  2  3  1  0
  3  4  2  0
  3 22  1  0
  4  5  1  0
  4 17  1  0
  5  6  1  0
  5 23  1  0
  5 24  1  0
  6 16  1  0
  6  7  1  0
  6 40  1  6
  7  8  1  0
  7 25  1  0
  7 26  1  0
  8 15  1  0
  8  9  1  0
  8 27  1  1
  9 10  1  0
  9 11  1  0
  9 28  1  6
 10 29  1  0
 11 12  1  0
 11 30  1  0
 11 31  1  0
 12 14  1  0
 12 13  1  0
 12 15  1  0
 13 14  1  0
 13 32  1  0
 13 33  1  0
 14 34  1  0
 14 35  1  0
 15 16  1  0
 15 36  1  6
 16 37  1  0
 16 38  1  0
 17 18  2  0
 17 39  1  0
M  CHG  1   6   1
M  END
>  <i_m_ct_stereo_status>  (197) 
1

>  <s_m_source_file>  (197) 
/var/tmp/pbs.5076255.sched01/tmpe6iyr0oq/80tt78e_gd.sdf

>  <i_m_source_file_index>  (197) 
3

>  <i_lp_mmshare_version>  (197) 
48012

>  <i_f3d_flags>  (197) 
0

>  <s_epik_input>  (197) 
W0NIM11uMVtjSF1jKFtjSF1uMSlbQ0gyXU4oW0NIMl0yKVtDSDJdW0NAQEhdKFtDQEBIXShbT0hdKVtDSDJdMylbQ0BIXTJDMzRbQ0gyXVtDSDJdNA==

>  <s_epik_cmdline>  (197) 
J2VwaWtfcHl0aG9uJywgJy1waHQnLCAnMi4wJywgJy1waCcsICc3LjAnLCAnLXRuJywgJzgnLCAnLW1hJywgJzIwMCcsICctaW1hZScsICc8aW5maWxlLm1hZT4nLCAnLW9tYWUnLCAnPG91dGZpbGUubWFlPic=

>  <r_lp_tautomer_probability>  (197) 
1

>  <r_epik_Ionization_Penalty>  (197) 
0.0113051

>  <r_epik_Ionization_Penalty_Charging>  (197) 
0.0112218

>  <r_epik_Ionization_Penalty_Neutral>  (197) 
8.33473e-05

>  <r_epik_State_Penalty>  (197) 
0.00862461

>  <r_epik_Charging_Adjusted_Penalty>  (197) 
0.0198464

>  <i_epik_Tot_Q>  (197) 
1

>  <i_epik_Tot_abs_Q>  (197) 
1

>  <s_lp_Force_Field>  (197) 
OPLS3e

>  <r_lp_Energy>  (197) 
7.22847

>  <b_lp_Chiralities_Consistent>  (197) 
1

>  <s_lp_Variant>  (197) 
60:0-1

>  <s_i_glide_gridfile>  (197) 
pfpi4k_grid

>  <i_i_glide_lignum>  (197) 
3

>  <i_i_glide_rotatable_bonds>  (197) 
3

>  <r_i_docking_score>  (197) 
-3.36812

>  <r_i_glide_ligand_efficiency>  (197) 
-0.187118

>  <r_i_glide_ligand_efficiency_sa>  (197) 
-0.490388

>  <r_i_glide_ligand_efficiency_ln>  (197) 
-0.865759

>  <r_i_glide_gscore>  (197) 
-3.36812

>  <r_i_glide_lipo>  (197) 
-0.568199

>  <r_i_glide_hbond>  (197) 
-0.0785331

>  <r_i_glide_metal>  (197) 
-0

>  <r_i_glide_rewards>  (197) 
-1.71584

>  <r_i_glide_evdw>  (197) 
-17.1091

>  <r_i_glide_ecoul>  (197) 
-4.50648

>  <r_i_glide_erotb>  (197) 
0.566414

>  <r_i_glide_esite>  (197) 
-0.0405452

>  <r_i_glide_emodel>  (197) 
-28.1279

>  <r_i_glide_energy>  (197) 
-21.6155

>  <r_i_glide_einternal>  (197) 
0.323778

>  <r_i_glide_intrahb_reward>  (197) 
-0

>  <i_i_glide_confnum>  (197) 
2

>  <i_i_glide_posenum>  (197) 
2

>  <r_i_glide_eff_state_penalty>  (197) 
0

>  <ligand_id>  (197) 
60

>  <original_smiles>  (197) 
Cn1cc(CN2CC3C(O)CC4(CC4)C3C2)cn1

>  <smiles>  (197) 
[H]OC1([H])C([H])([H])C2(C([H])([H])C2([H])[H])C2([H])C1([H])C([H])([H])[N+]([H])(C([H])([H])c1c([H])nn(C([H])([H])[H])c1[H])C2([H])[H]

$$$$
60:1:0
     RDKit          3D

 39 42  0  0  1  0  0  0  0  0999 V2000
   -6.3387   -4.2169   -4.3548 C   0  0  0  0  0  0  0  0  0  0  0  0
   -6.3723   -5.4932   -4.9667 N   0  0  0  0  0  0  0  0  0  0  0  0
   -5.5244   -6.5806   -4.9165 C   0  0  0  0  0  0  0  0  0  0  0  0
   -6.0485   -7.5612   -5.7148 C   0  0  0  0  0  0  0  0  0  0  0  0
   -5.4701   -8.9628   -5.9685 C   0  0  0  0  0  0  0  0  0  0  0  0
   -5.9204   -9.5849   -7.2218 N   0  0  0  0  0  0  0  0  0  0  0  0
   -5.3913  -10.9374   -7.3954 C   0  0  0  0  0  0  0  0  0  0  0  0
   -6.2558  -11.5234   -8.5270 C   0  0  1  0  0  0  0  0  0  0  0  0
   -6.6928  -12.9873   -8.4041 C   0  0  1  0  0  0  0  0  0  0  0  0
   -5.7520  -13.7861   -7.7032 O   0  0  0  0  0  0  0  0  0  0  0  0
   -8.0693  -12.9444   -7.7463 C   0  0  0  0  0  0  0  0  0  0  0  0
   -8.7240  -11.6783   -8.2259 C   0  0  0  0  0  0  0  0  0  0  0  0
   -9.9034  -11.6708   -9.1591 C   0  0  0  0  0  0  0  0  0  0  0  0
  -10.0679  -11.1867   -7.7508 C   0  0  0  0  0  0  0  0  0  0  0  0
   -7.5531  -10.7437   -8.4371 C   0  0  1  0  0  0  0  0  0  0  0  0
   -7.3516   -9.8453   -7.2603 C   0  0  0  0  0  0  0  0  0  0  0  0
   -7.2497   -6.9284   -6.1901 C   0  0  0  0  0  0  0  0  0  0  0  0
   -7.4353   -5.7274   -5.7582 N   0  0  0  0  0  0  0  0  0  0  0  0
   -5.3675   -4.0652   -3.9208 H   0  0  0  0  0  0  0  0  0  0  0  0
   -7.1382   -4.1716   -3.6119 H   0  0  0  0  0  0  0  0  0  0  0  0
   -6.5104   -3.4591   -5.1141 H   0  0  0  0  0  0  0  0  0  0  0  0
   -4.6156   -6.5424   -4.3093 H   0  0  0  0  0  0  0  0  0  0  0  0
   -4.3685   -8.9333   -5.9811 H   0  0  0  0  0  0  0  0  0  0  0  0
   -5.6904   -9.6403   -5.1328 H   0  0  0  0  0  0  0  0  0  0  0  0
   -4.3268  -10.9418   -7.6372 H   0  0  0  0  0  0  0  0  0  0  0  0
   -5.5490  -11.4900   -6.4707 H   0  0  0  0  0  0  0  0  0  0  0  0
   -5.7918  -11.3260   -9.4888 H   0  0  0  0  0  0  0  0  0  0  0  0
   -6.8064  -13.3792   -9.4145 H   0  0  0  0  0  0  0  0  0  0  0  0
   -5.5816  -13.3847   -6.8793 H   0  0  0  0  0  0  0  0  0  0  0  0
   -8.6804  -13.8075   -8.0115 H   0  0  0  0  0  0  0  0  0  0  0  0
   -8.0130  -12.9120   -6.6596 H   0  0  0  0  0  0  0  0  0  0  0  0
   -9.9374  -10.9194   -9.9444 H   0  0  0  0  0  0  0  0  0  0  0  0
  -10.3690  -12.6263   -9.4139 H   0  0  0  0  0  0  0  0  0  0  0  0
  -10.5860  -11.8295   -7.0367 H   0  0  0  0  0  0  0  0  0  0  0  0
  -10.1807  -10.1157   -7.5698 H   0  0  0  0  0  0  0  0  0  0  0  0
   -7.7221  -10.1412   -9.3285 H   0  0  0  0  0  0  0  0  0  0  0  0
   -7.6999  -10.2679   -6.3153 H   0  0  0  0  0  0  0  0  0  0  0  0
   -7.9741   -9.0192   -7.5706 H   0  0  0  0  0  0  0  0  0  0  0  0
   -8.0625   -7.2506   -6.8401 H   0  0  0  0  0  0  0  0  0  0  0  0
  1  2  1  0
  1 19  1  0
  1 20  1  0
  1 21  1  0
  2 18  1  0
  2  3  1  0
  3  4  2  0
  3 22  1  0
  4  5  1  0
  4 17  1  0
  5  6  1  0
  5 23  1  0
  5 24  1  0
  6 16  1  0
  6  7  1  0
  7  8  1  0
  7 25  1  0
  7 26  1  0
  8 15  1  0
  8  9  1  0
  8 27  1  6
  9 10  1  0
  9 11  1  0
  9 28  1  6
 10 29  1  0
 11 12  1  0
 11 30  1  0
 11 31  1  0
 12 14  1  0
 12 13  1  0
 12 15  1  0
 13 14  1  0
 13 32  1  0
 13 33  1  0
 14 34  1  0
 14 35  1  0
 15 16  1  0
 15 36  1  6
 16 37  1  0
 16 38  1  0
 17 18  2  0
 17 39  1  0
M  END
>  <i_m_ct_stereo_status>  (198) 
1

>  <s_m_source_file>  (198) 
/var/tmp/pbs.5076255.sched01/tmpe6iyr0oq/80tt78e_gd.sdf

>  <i_m_source_file_index>  (198) 
4

>  <i_lp_mmshare_version>  (198) 
48012

>  <i_f3d_flags>  (198) 
0

>  <s_epik_input>  (198) 
W0NIM11uMVtjSF1jKFtjSF1uMSlbQ0gyXU4oW0NIMl0yKVtDSDJdW0NAQEhdKFtDQEBIXShbT0hdKVtDSDJdMylbQ0BIXTJDMzRbQ0gyXVtDSDJdNA==

>  <s_epik_cmdline>  (198) 
J2VwaWtfcHl0aG9uJywgJy1waHQnLCAnMi4wJywgJy1waCcsICc3LjAnLCAnLXRuJywgJzgnLCAnLW1hJywgJzIwMCcsICctaW1hZScsICc8aW5maWxlLm1hZT4nLCAnLW9tYWUnLCAnPG91dGZpbGUubWFlPic=

>  <r_lp_tautomer_probability>  (198) 
1

>  <r_epik_Ionization_Penalty>  (198) 
2.35596

>  <r_epik_Ionization_Penalty_Charging>  (198) 
0

>  <r_epik_Ionization_Penalty_Neutral>  (198) 
2.35596

>  <r_epik_State_Penalty>  (198) 
2.51035

>  <r_epik_Charging_Adjusted_Penalty>  (198) 
2.51035

>  <i_epik_Tot_Q>  (198) 
0

>  <i_epik_Tot_abs_Q>  (198) 
0

>  <s_lp_Force_Field>  (198) 
OPLS3e

>  <r_lp_Energy>  (198) 
4.93552

>  <b_lp_Chiralities_Consistent>  (198) 
1

>  <s_lp_Variant>  (198) 
60:0-2

>  <s_i_glide_gridfile>  (198) 
pfpi4k_grid

>  <i_i_glide_lignum>  (198) 
4

>  <i_i_glide_rotatable_bonds>  (198) 
3

>  <r_i_docking_score>  (198) 
-4.8255

>  <r_i_glide_ligand_efficiency>  (198) 
-0.268083

>  <r_i_glide_ligand_efficiency_sa>  (198) 
-0.702578

>  <r_i_glide_ligand_efficiency_ln>  (198) 
-1.24037

>  <r_i_glide_gscore>  (198) 
-4.8255

>  <r_i_glide_lipo>  (198) 
-1.75595

>  <r_i_glide_hbond>  (198) 
0

>  <r_i_glide_metal>  (198) 
-0

>  <r_i_glide_rewards>  (198) 
-2.41438

>  <r_i_glide_evdw>  (198) 
-23.7279

>  <r_i_glide_ecoul>  (198) 
-0.261039

>  <r_i_glide_erotb>  (198) 
0.570373

>  <r_i_glide_esite>  (198) 
0

>  <r_i_glide_emodel>  (198) 
-29.4297

>  <r_i_glide_energy>  (198) 
-23.9889

>  <r_i_glide_einternal>  (198) 
0.625246

>  <r_i_glide_intrahb_reward>  (198) 
-0

>  <i_i_glide_confnum>  (198) 
1

>  <i_i_glide_posenum>  (198) 
7

>  <r_i_glide_eff_state_penalty>  (198) 
0

>  <ligand_id>  (198) 
60

>  <original_smiles>  (198) 
Cn1cc(CN2CC3C(O)CC4(CC4)C3C2)cn1

>  <smiles>  (198) 
[H]OC1([H])C([H])([H])C2(C([H])([H])C2([H])[H])C2([H])C([H])([H])N(C([H])([H])c3c([H])nn(C([H])([H])[H])c3[H])C([H])([H])C12[H]

$$$$
60:1:1
     RDKit          3D

 39 42  0  0  1  0  0  0  0  0999 V2000
    3.2910    0.0296   -4.5661 C   0  0  0  0  0  0  0  0  0  0  0  0
    3.8071   -1.0718   -3.7861 N   0  0  0  0  0  0  0  0  0  0  0  0
    4.3211   -1.0575   -2.5070 C   0  0  0  0  0  0  0  0  0  0  0  0
    4.6813   -2.3445   -2.2016 C   0  0  0  0  0  0  0  0  0  0  0  0
    5.2793   -2.8859   -0.9282 C   0  0  0  0  0  0  0  0  0  0  0  0
    4.2684   -3.3218    0.0274 N   0  0  0  0  0  0  0  0  0  0  0  0
    4.8610   -3.9464    1.2032 C   0  0  0  0  0  0  0  0  0  0  0  0
    3.7140   -3.9811    2.2148 C   0  0  1  0  0  0  0  0  0  0  0  0
    4.0777   -3.7259    3.6846 C   0  0  1  0  0  0  0  0  0  0  0  0
    5.3855   -4.1457    4.0278 O   0  0  0  0  0  0  0  0  0  0  0  0
    3.8601   -2.2395    3.8708 C   0  0  0  0  0  0  0  0  0  0  0  0
    2.7170   -1.8520    2.9693 C   0  0  0  0  0  0  0  0  0  0  0  0
    1.3645   -1.4762    3.5351 C   0  0  0  0  0  0  0  0  0  0  0  0
    2.1950   -0.4423    2.8135 C   0  0  0  0  0  0  0  0  0  0  0  0
    2.8212   -2.8101    1.8001 C   0  0  1  0  0  0  0  0  0  0  0  0
    3.5258   -2.2026    0.5852 C   0  0  0  0  0  0  0  0  0  0  0  0
    4.3272   -3.0775   -3.3652 C   0  0  0  0  0  0  0  0  0  0  0  0
    3.8169   -2.3094   -4.3148 N   0  0  0  0  0  0  0  0  0  0  0  0
    3.5127    0.9707   -4.0620 H   0  0  0  0  0  0  0  0  0  0  0  0
    2.2113   -0.0660   -4.6777 H   0  0  0  0  0  0  0  0  0  0  0  0
    3.7515    0.0427   -5.5547 H   0  0  0  0  0  0  0  0  0  0  0  0
    4.3887   -0.1496   -1.9230 H   0  0  0  0  0  0  0  0  0  0  0  0
    5.9128   -3.7427   -1.1581 H   0  0  0  0  0  0  0  0  0  0  0  0
    5.9397   -2.1545   -0.4517 H   0  0  0  0  0  0  0  0  0  0  0  0
    5.2348   -4.9448    0.9718 H   0  0  0  0  0  0  0  0  0  0  0  0
    5.6969   -3.3360    1.5636 H   0  0  0  0  0  0  0  0  0  0  0  0
    3.1745   -4.9115    2.1294 H   0  0  0  0  0  0  0  0  0  0  0  0
    3.3777   -4.2530    4.3495 H   0  0  0  0  0  0  0  0  0  0  0  0
    5.4476   -5.0640    3.8317 H   0  0  0  0  0  0  0  0  0  0  0  0
    3.6272   -2.0333    4.9196 H   0  0  0  0  0  0  0  0  0  0  0  0
    4.7398   -1.6672    3.5865 H   0  0  0  0  0  0  0  0  0  0  0  0
    0.4761   -1.8412    3.0235 H   0  0  0  0  0  0  0  0  0  0  0  0
    1.2568   -1.3496    4.6095 H   0  0  0  0  0  0  0  0  0  0  0  0
    2.6847    0.3337    3.3978 H   0  0  0  0  0  0  0  0  0  0  0  0
    1.8927   -0.1476    1.8088 H   0  0  0  0  0  0  0  0  0  0  0  0
    1.8308   -3.1694    1.5350 H   0  0  0  0  0  0  0  0  0  0  0  0
    4.2148   -1.4179    0.9045 H   0  0  0  0  0  0  0  0  0  0  0  0
    2.8175   -1.7822   -0.1219 H   0  0  0  0  0  0  0  0  0  0  0  0
    4.4303   -4.1317   -3.5526 H   0  0  0  0  0  0  0  0  0  0  0  0
  1  2  1  0
  1 19  1  0
  1 20  1  0
  1 21  1  0
  2 18  1  0
  2  3  1  0
  3  4  2  0
  3 22  1  0
  4  5  1  0
  4 17  1  0
  5  6  1  0
  5 23  1  0
  5 24  1  0
  6 16  1  0
  6  7  1  0
  7  8  1  0
  7 25  1  0
  7 26  1  0
  8 15  1  0
  8  9  1  0
  8 27  1  1
  9 10  1  0
  9 11  1  0
  9 28  1  1
 10 29  1  0
 11 12  1  0
 11 30  1  0
 11 31  1  0
 12 14  1  0
 12 13  1  0
 12 15  1  0
 13 14  1  0
 13 32  1  0
 13 33  1  0
 14 34  1  0
 14 35  1  0
 15 16  1  0
 15 36  1  6
 16 37  1  0
 16 38  1  0
 17 18  2  0
 17 39  1  0
M  END
>  <i_m_ct_stereo_status>  (199) 
1

>  <s_m_source_file>  (199) 
/var/tmp/pbs.5076255.sched01/tmpe6iyr0oq/80tt78e_gd.sdf

>  <i_m_source_file_index>  (199) 
4

>  <i_lp_mmshare_version>  (199) 
48012

>  <i_f3d_flags>  (199) 
0

>  <s_epik_input>  (199) 
W0NIM11uMVtjSF1jKFtjSF1uMSlbQ0gyXU4oW0NIMl0yKVtDSDJdW0NAQEhdKFtDQEBIXShbT0hdKVtDSDJdMylbQ0BIXTJDMzRbQ0gyXVtDSDJdNA==

>  <s_epik_cmdline>  (199) 
J2VwaWtfcHl0aG9uJywgJy1waHQnLCAnMi4wJywgJy1waCcsICc3LjAnLCAnLXRuJywgJzgnLCAnLW1hJywgJzIwMCcsICctaW1hZScsICc8aW5maWxlLm1hZT4nLCAnLW9tYWUnLCAnPG91dGZpbGUubWFlPic=

>  <r_lp_tautomer_probability>  (199) 
1

>  <r_epik_Ionization_Penalty>  (199) 
2.35596

>  <r_epik_Ionization_Penalty_Charging>  (199) 
0

>  <r_epik_Ionization_Penalty_Neutral>  (199) 
2.35596

>  <r_epik_State_Penalty>  (199) 
2.51035

>  <r_epik_Charging_Adjusted_Penalty>  (199) 
2.51035

>  <i_epik_Tot_Q>  (199) 
0

>  <i_epik_Tot_abs_Q>  (199) 
0

>  <s_lp_Force_Field>  (199) 
OPLS3e

>  <r_lp_Energy>  (199) 
4.93552

>  <b_lp_Chiralities_Consistent>  (199) 
1

>  <s_lp_Variant>  (199) 
60:0-2

>  <s_i_glide_gridfile>  (199) 
pfpi4k_grid

>  <i_i_glide_lignum>  (199) 
4

>  <i_i_glide_rotatable_bonds>  (199) 
3

>  <r_i_docking_score>  (199) 
-3.77083

>  <r_i_glide_ligand_efficiency>  (199) 
-0.20949

>  <r_i_glide_ligand_efficiency_sa>  (199) 
-0.54902

>  <r_i_glide_ligand_efficiency_ln>  (199) 
-0.969272

>  <r_i_glide_gscore>  (199) 
-3.77083

>  <r_i_glide_lipo>  (199) 
-0.427886

>  <r_i_glide_hbond>  (199) 
-0.32

>  <r_i_glide_metal>  (199) 
-0

>  <r_i_glide_rewards>  (199) 
-1.98165

>  <r_i_glide_evdw>  (199) 
-20.6469

>  <r_i_glide_ecoul>  (199) 
-3.86216

>  <r_i_glide_erotb>  (199) 
0.570373

>  <r_i_glide_esite>  (199) 
0

>  <r_i_glide_emodel>  (199) 
-29.973

>  <r_i_glide_energy>  (199) 
-24.509

>  <r_i_glide_einternal>  (199) 
0.557815

>  <r_i_glide_intrahb_reward>  (199) 
-0

>  <i_i_glide_confnum>  (199) 
1

>  <i_i_glide_posenum>  (199) 
2

>  <r_i_glide_eff_state_penalty>  (199) 
0

>  <ligand_id>  (199) 
60

>  <original_smiles>  (199) 
Cn1cc(CN2CC3C(O)CC4(CC4)C3C2)cn1

>  <smiles>  (199) 
[H]OC1([H])C([H])([H])C2(C([H])([H])C2([H])[H])C2([H])C([H])([H])N(C([H])([H])c3c([H])nn(C([H])([H])[H])c3[H])C([H])([H])C12[H]

$$$$
60:1:2
     RDKit          3D

 39 42  0  0  1  0  0  0  0  0999 V2000
   -1.8938   -4.5636    8.0406 C   0  0  0  0  0  0  0  0  0  0  0  0
   -1.0137   -4.2191    6.9513 N   0  0  0  0  0  0  0  0  0  0  0  0
   -0.1235   -5.0381    6.3026 C   0  0  0  0  0  0  0  0  0  0  0  0
    0.4504   -4.3256    5.2911 C   0  0  0  0  0  0  0  0  0  0  0  0
    1.4564   -4.7609    4.2457 C   0  0  0  0  0  0  0  0  0  0  0  0
    0.9935   -5.8691    3.4091 N   0  0  0  0  0  0  0  0  0  0  0  0
    2.0074   -6.2744    2.4367 C   0  0  0  0  0  0  0  0  0  0  0  0
    1.5293   -7.6611    1.9510 C   0  0  1  0  0  0  0  0  0  0  0  0
    2.6028   -8.7256    1.6895 C   0  0  1  0  0  0  0  0  0  0  0  0
    3.8388   -8.1809    1.2819 O   0  0  0  0  0  0  0  0  0  0  0  0
    2.7143   -9.5061    2.9872 C   0  0  0  0  0  0  0  0  0  0  0  0
    1.3328   -9.4903    3.5991 C   0  0  0  0  0  0  0  0  0  0  0  0
    0.4905  -10.7468    3.6784 C   0  0  0  0  0  0  0  0  0  0  0  0
    0.9965  -10.1069    4.9397 C   0  0  0  0  0  0  0  0  0  0  0  0
    0.7154   -8.1924    3.1239 C   0  0  1  0  0  0  0  0  0  0  0  0
    0.8062   -7.0968    4.1707 C   0  0  0  0  0  0  0  0  0  0  0  0
   -0.1076   -3.0233    5.4651 C   0  0  0  0  0  0  0  0  0  0  0  0
   -0.9916   -2.9667    6.4556 N   0  0  0  0  0  0  0  0  0  0  0  0
   -1.6462   -5.5598    8.3936 H   0  0  0  0  0  0  0  0  0  0  0  0
   -2.9311   -4.5600    7.7042 H   0  0  0  0  0  0  0  0  0  0  0  0
   -1.7576   -3.8649    8.8628 H   0  0  0  0  0  0  0  0  0  0  0  0
   -0.0100   -6.0691    6.6096 H   0  0  0  0  0  0  0  0  0  0  0  0
    1.6873   -3.9283    3.5795 H   0  0  0  0  0  0  0  0  0  0  0  0
    2.4078   -5.0239    4.7118 H   0  0  0  0  0  0  0  0  0  0  0  0
    2.0966   -5.5602    1.6163 H   0  0  0  0  0  0  0  0  0  0  0  0
    2.9841   -6.3527    2.9273 H   0  0  0  0  0  0  0  0  0  0  0  0
    0.8809   -7.5390    1.0803 H   0  0  0  0  0  0  0  0  0  0  0  0
    2.2456   -9.4103    0.9171 H   0  0  0  0  0  0  0  0  0  0  0  0
    4.4194   -8.8911    1.0600 H   0  0  0  0  0  0  0  0  0  0  0  0
    3.0419  -10.5237    2.7990 H   0  0  0  0  0  0  0  0  0  0  0  0
    3.3911   -9.0215    3.6901 H   0  0  0  0  0  0  0  0  0  0  0  0
   -0.5769  -10.6557    3.4623 H   0  0  0  0  0  0  0  0  0  0  0  0
    0.9378  -11.6970    3.3894 H   0  0  0  0  0  0  0  0  0  0  0  0
    1.7974  -10.6017    5.4833 H   0  0  0  0  0  0  0  0  0  0  0  0
    0.2751   -9.5810    5.5689 H   0  0  0  0  0  0  0  0  0  0  0  0
   -0.3277   -8.3479    2.8413 H   0  0  0  0  0  0  0  0  0  0  0  0
    1.6541   -7.2580    4.8428 H   0  0  0  0  0  0  0  0  0  0  0  0
   -0.1239   -7.1100    4.7296 H   0  0  0  0  0  0  0  0  0  0  0  0
    0.0838   -2.1273    4.8925 H   0  0  0  0  0  0  0  0  0  0  0  0
  1  2  1  0
  1 19  1  0
  1 20  1  0
  1 21  1  0
  2 18  1  0
  2  3  1  0
  3  4  2  0
  3 22  1  0
  4  5  1  0
  4 17  1  0
  5  6  1  0
  5 23  1  0
  5 24  1  0
  6 16  1  0
  6  7  1  0
  7  8  1  0
  7 25  1  0
  7 26  1  0
  8 15  1  0
  8  9  1  0
  8 27  1  6
  9 10  1  0
  9 11  1  0
  9 28  1  6
 10 29  1  0
 11 12  1  0
 11 30  1  0
 11 31  1  0
 12 14  1  0
 12 13  1  0
 12 15  1  0
 13 14  1  0
 13 32  1  0
 13 33  1  0
 14 34  1  0
 14 35  1  0
 15 16  1  0
 15 36  1  6
 16 37  1  0
 16 38  1  0
 17 18  2  0
 17 39  1  0
M  END
>  <i_m_ct_stereo_status>  (200) 
1

>  <s_m_source_file>  (200) 
/var/tmp/pbs.5076255.sched01/tmpe6iyr0oq/80tt78e_gd.sdf

>  <i_m_source_file_index>  (200) 
4

>  <i_lp_mmshare_version>  (200) 
48012

>  <i_f3d_flags>  (200) 
0

>  <s_epik_input>  (200) 
W0NIM11uMVtjSF1jKFtjSF1uMSlbQ0gyXU4oW0NIMl0yKVtDSDJdW0NAQEhdKFtDQEBIXShbT0hdKVtDSDJdMylbQ0BIXTJDMzRbQ0gyXVtDSDJdNA==

>  <s_epik_cmdline>  (200) 
J2VwaWtfcHl0aG9uJywgJy1waHQnLCAnMi4wJywgJy1waCcsICc3LjAnLCAnLXRuJywgJzgnLCAnLW1hJywgJzIwMCcsICctaW1hZScsICc8aW5maWxlLm1hZT4nLCAnLW9tYWUnLCAnPG91dGZpbGUubWFlPic=

>  <r_lp_tautomer_probability>  (200) 
1

>  <r_epik_Ionization_Penalty>  (200) 
2.35596

>  <r_epik_Ionization_Penalty_Charging>  (200) 
0

>  <r_epik_Ionization_Penalty_Neutral>  (200) 
2.35596

>  <r_epik_State_Penalty>  (200) 
2.51035

>  <r_epik_Charging_Adjusted_Penalty>  (200) 
2.51035

>  <i_epik_Tot_Q>  (200) 
0

>  <i_epik_Tot_abs_Q>  (200) 
0

>  <s_lp_Force_Field>  (200) 
OPLS3e

>  <r_lp_Energy>  (200) 
4.93552

>  <b_lp_Chiralities_Consistent>  (200) 
1

>  <s_lp_Variant>  (200) 
60:0-2

>  <s_i_glide_gridfile>  (200) 
pfpi4k_grid

>  <i_i_glide_lignum>  (200) 
4

>  <i_i_glide_rotatable_bonds>  (200) 
3

>  <r_i_docking_score>  (200) 
-2.44595

>  <r_i_glide_ligand_efficiency>  (200) 
-0.135886

>  <r_i_glide_ligand_efficiency_sa>  (200) 
-0.356122

>  <r_i_glide_ligand_efficiency_ln>  (200) 
-0.628718

>  <r_i_glide_gscore>  (200) 
-2.44595

>  <r_i_glide_lipo>  (200) 
-0.00468944

>  <r_i_glide_hbond>  (200) 
0

>  <r_i_glide_metal>  (200) 
-0

>  <r_i_glide_rewards>  (200) 
-1.72271

>  <r_i_glide_evdw>  (200) 
-17.7173

>  <r_i_glide_ecoul>  (200) 
-2.57239

>  <r_i_glide_erotb>  (200) 
0.570373

>  <r_i_glide_esite>  (200) 
-0.0171953

>  <r_i_glide_emodel>  (200) 
-23.4656

>  <r_i_glide_energy>  (200) 
-20.2897

>  <r_i_glide_einternal>  (200) 
0.471203

>  <r_i_glide_intrahb_reward>  (200) 
-0

>  <i_i_glide_confnum>  (200) 
2

>  <i_i_glide_posenum>  (200) 
19

>  <r_i_glide_eff_state_penalty>  (200) 
0

>  <ligand_id>  (200) 
60

>  <original_smiles>  (200) 
Cn1cc(CN2CC3C(O)CC4(CC4)C3C2)cn1

>  <smiles>  (200) 
[H]OC1([H])C([H])([H])C2(C([H])([H])C2([H])[H])C2([H])C([H])([H])N(C([H])([H])c3c([H])nn(C([H])([H])[H])c3[H])C([H])([H])C12[H]

$$$$
61:0:0
     RDKit          3D

 89 94  0  0  1  0  0  0  0  0999 V2000
   -0.6126   -8.0910    4.6288 C   0  0  0  0  0  0  0  0  0  0  0  0
   -0.1844   -8.6872    3.2673 C   0  0  0  0  0  0  0  0  0  0  0  0
   -1.3966   -8.5843    2.3262 C   0  0  0  0  0  0  0  0  0  0  0  0
    0.9911   -7.8929    2.6900 C   0  0  0  0  0  0  0  0  0  0  0  0
    2.2789   -8.0697    3.4835 C   0  0  0  0  0  0  0  0  0  0  0  0
    2.9831   -7.0756    4.0783 C   0  0  0  0  0  0  0  0  0  0  0  0
    2.4304   -5.7718    4.4787 C   0  0  0  0  0  0  0  0  0  0  0  0
    1.6370   -5.0754    3.8696 O   0  0  0  0  0  0  0  0  0  0  0  0
    3.0091   -5.3546    5.8508 C   0  0  2  0  0  0  0  0  0  0  0  0
    2.0802   -6.0474    6.8873 C   0  0  0  0  0  0  0  0  0  0  0  0
    3.0277   -3.7938    6.1683 C   0  0  2  0  0  0  0  0  0  0  0  0
    1.6093   -3.2049    6.3759 C   0  0  0  0  0  0  0  0  0  0  0  0
    1.5760   -1.6865    6.3577 C   0  0  0  0  0  0  0  0  0  0  0  0
    1.0256   -1.0785    7.2637 O   0  0  0  0  0  0  0  0  0  0  0  0
    2.1507   -0.9705    5.1097 C   0  0  2  0  0  0  0  0  0  0  0  0
    2.8506    0.3529    5.5749 C   0  0  0  0  0  0  0  0  0  0  0  0
    0.9400   -0.5955    4.2220 C   0  0  0  0  0  0  0  0  0  0  0  0
    1.3442   -0.0021    2.8660 C   0  0  0  0  0  0  0  0  0  0  0  0
    2.2800   -0.9394    2.1023 C   0  0  1  0  0  0  0  0  0  0  0  0
    2.6145   -0.3029    0.8784 O   0  0  0  0  0  0  0  0  0  0  0  0
    3.5486   -1.4267    2.8902 C   0  0  0  0  0  0  0  0  0  0  0  0
    4.1422   -2.5266    1.9694 C   0  0  0  0  0  0  0  0  0  0  0  0
    4.6141   -0.3082    2.9942 C   0  0  0  0  0  0  0  0  0  0  0  0
    3.0708   -1.9839    4.3100 C   0  0  1  0  0  0  0  0  0  0  0  0
    3.9802   -2.8936    5.2747 C   0  0  1  0  0  0  0  0  0  0  0  0
    4.8590   -2.0441    6.2456 C   0  0  0  0  0  0  0  0  0  0  0  0
    4.9681   -3.8151    4.5337 C   0  0  0  0  0  0  0  0  0  0  0  0
    5.4775   -4.9778    5.3851 C   0  0  0  0  0  0  0  0  0  0  0  0
    6.6630   -5.0578    5.6656 O   0  0  0  0  0  0  0  0  0  0  0  0
    4.4351   -6.0390    5.8230 C   0  0  1  0  0  0  0  0  0  0  0  0
    4.9137   -6.4998    7.2331 C   0  0  0  0  0  0  0  0  0  0  0  0
    4.3185   -7.2448    4.7659 C   0  0  2  0  0  0  0  0  0  0  0  0
    5.3819   -7.1985    3.6222 C   0  0  0  0  0  0  0  0  0  0  0  0
    4.3560   -8.6641    5.3896 C   0  0  0  0  0  0  0  0  0  0  0  0
    4.0286   -9.7796    4.3723 C   0  0  0  0  0  0  0  0  0  0  0  0
    2.7192   -9.5346    3.5779 C   0  0  1  0  0  0  0  0  0  0  0  0
    1.5727  -10.4328    4.1157 C   0  0  1  0  0  0  0  0  0  0  0  0
    1.4018  -10.2437    5.5095 O   0  0  0  0  0  0  0  0  0  0  0  0
    0.2418  -10.1722    3.3719 C   0  0  0  0  0  0  0  0  0  0  0  0
   -1.0230   -7.0822    4.5217 H   0  0  0  0  0  0  0  0  0  0  0  0
    0.2288   -8.0109    5.3182 H   0  0  0  0  0  0  0  0  0  0  0  0
   -1.3712   -8.7110    5.1180 H   0  0  0  0  0  0  0  0  0  0  0  0
   -1.1596   -8.9630    1.3380 H   0  0  0  0  0  0  0  0  0  0  0  0
   -1.7169   -7.5505    2.1906 H   0  0  0  0  0  0  0  0  0  0  0  0
   -2.2470   -9.1636    2.6903 H   0  0  0  0  0  0  0  0  0  0  0  0
    1.1912   -8.2780    1.6882 H   0  0  0  0  0  0  0  0  0  0  0  0
    0.7147   -6.8543    2.5394 H   0  0  0  0  0  0  0  0  0  0  0  0
    2.3577   -5.8055    7.9149 H   0  0  0  0  0  0  0  0  0  0  0  0
    2.0966   -7.1385    6.7865 H   0  0  0  0  0  0  0  0  0  0  0  0
    1.0348   -5.7636    6.7583 H   0  0  0  0  0  0  0  0  0  0  0  0
    3.4601   -3.7666    7.1717 H   0  0  0  0  0  0  0  0  0  0  0  0
    0.9183   -3.5388    5.6045 H   0  0  0  0  0  0  0  0  0  0  0  0
    1.1984   -3.5434    7.3270 H   0  0  0  0  0  0  0  0  0  0  0  0
    2.6477    1.1989    4.9161 H   0  0  0  0  0  0  0  0  0  0  0  0
    3.9318    0.2783    5.6198 H   0  0  0  0  0  0  0  0  0  0  0  0
    2.5295    0.7025    6.5566 H   0  0  0  0  0  0  0  0  0  0  0  0
    0.3355   -1.4867    4.0446 H   0  0  0  0  0  0  0  0  0  0  0  0
    0.2788    0.0926    4.7515 H   0  0  0  0  0  0  0  0  0  0  0  0
    0.4436    0.1679    2.2741 H   0  0  0  0  0  0  0  0  0  0  0  0
    1.7968    0.9817    2.9807 H   0  0  0  0  0  0  0  0  0  0  0  0
    1.7015   -1.8169    1.8298 H   0  0  0  0  0  0  0  0  0  0  0  0
    1.9188   -0.4542    0.2562 H   0  0  0  0  0  0  0  0  0  0  0  0
    5.1746   -2.7812    2.2118 H   0  0  0  0  0  0  0  0  0  0  0  0
    4.1791   -2.2179    0.9233 H   0  0  0  0  0  0  0  0  0  0  0  0
    3.5317   -3.4312    1.9921 H   0  0  0  0  0  0  0  0  0  0  0  0
    5.4285   -0.5752    3.6665 H   0  0  0  0  0  0  0  0  0  0  0  0
    4.1879    0.6333    3.3304 H   0  0  0  0  0  0  0  0  0  0  0  0
    5.0617   -0.0947    2.0205 H   0  0  0  0  0  0  0  0  0  0  0  0
    2.3715   -2.7278    3.9458 H   0  0  0  0  0  0  0  0  0  0  0  0
    5.5210   -1.3560    5.7181 H   0  0  0  0  0  0  0  0  0  0  0  0
    5.5119   -2.6652    6.8613 H   0  0  0  0  0  0  0  0  0  0  0  0
    4.2749   -1.4658    6.9587 H   0  0  0  0  0  0  0  0  0  0  0  0
    4.5059   -4.2727    3.6689 H   0  0  0  0  0  0  0  0  0  0  0  0
    5.8106   -3.2257    4.1840 H   0  0  0  0  0  0  0  0  0  0  0  0
    4.2526   -7.2130    7.7132 H   0  0  0  0  0  0  0  0  0  0  0  0
    5.0058   -5.6467    7.9044 H   0  0  0  0  0  0  0  0  0  0  0  0
    5.8964   -6.9667    7.1865 H   0  0  0  0  0  0  0  0  0  0  0  0
    6.3922   -7.3731    3.9930 H   0  0  0  0  0  0  0  0  0  0  0  0
    5.3667   -6.2576    3.0675 H   0  0  0  0  0  0  0  0  0  0  0  0
    5.1802   -7.9428    2.8513 H   0  0  0  0  0  0  0  0  0  0  0  0
    5.3349   -8.8611    5.8307 H   0  0  0  0  0  0  0  0  0  0  0  0
    3.6333   -8.7393    6.1995 H   0  0  0  0  0  0  0  0  0  0  0  0
    4.8552   -9.8943    3.6724 H   0  0  0  0  0  0  0  0  0  0  0  0
    3.9881  -10.7410    4.8900 H   0  0  0  0  0  0  0  0  0  0  0  0
    2.8990   -9.8658    2.5554 H   0  0  0  0  0  0  0  0  0  0  0  0
    1.8437  -11.4818    3.9709 H   0  0  0  0  0  0  0  0  0  0  0  0
    1.2181  -11.0793    5.9397 H   0  0  0  0  0  0  0  0  0  0  0  0
   -0.5654  -10.7485    3.8113 H   0  0  0  0  0  0  0  0  0  0  0  0
    0.3511  -10.5634    2.3628 H   0  0  0  0  0  0  0  0  0  0  0  0
  1  2  1  0
  1 40  1  0
  1 41  1  0
  1 42  1  0
  2 39  1  0
  2  3  1  0
  2  4  1  0
  3 43  1  0
  3 44  1  0
  3 45  1  0
  4  5  1  0
  4 46  1  0
  4 47  1  0
  5 36  1  0
  5  6  2  0
  6 32  1  0
  6  7  1  0
  7  8  2  0
  7  9  1  0
  9 30  1  0
  9 10  1  1
  9 11  1  0
 10 48  1  0
 10 49  1  0
 10 50  1  0
 11 25  1  0
 11 12  1  0
 11 51  1  1
 12 13  1  0
 12 52  1  0
 12 53  1  0
 13 14  2  0
 13 15  1  0
 15 24  1  0
 15 16  1  1
 15 17  1  0
 16 54  1  0
 16 55  1  0
 16 56  1  0
 17 18  1  0
 17 57  1  0
 17 58  1  0
 18 19  1  0
 18 59  1  0
 18 60  1  0
 19 20  1  0
 19 21  1  0
 19 61  1  6
 20 62  1  0
 21 22  1  0
 21 23  1  0
 21 24  1  0
 22 63  1  0
 22 64  1  0
 22 65  1  0
 23 66  1  0
 23 67  1  0
 23 68  1  0
 24 25  1  0
 24 69  1  6
 25 26  1  1
 25 27  1  0
 26 70  1  0
 26 71  1  0
 26 72  1  0
 27 73  1  0
 27 74  1  0
 27 28  1  0
 28 30  1  0
 28 29  2  0
 30 31  1  1
 30 32  1  0
 31 75  1  0
 31 76  1  0
 31 77  1  0
 32 33  1  6
 32 34  1  0
 33 78  1  0
 33 79  1  0
 33 80  1  0
 34 35  1  0
 34 81  1  0
 34 82  1  0
 35 36  1  0
 35 83  1  0
 35 84  1  0
 36 37  1  0
 36 85  1  6
 37 38  1  0
 37 39  1  0
 37 86  1  1
 38 87  1  0
 39 88  1  0
 39 89  1  0
M  END
>  <i_m_ct_stereo_status>  (201) 
1

>  <s_m_source_file>  (201) 
/var/tmp/pbs.5076255.sched01/tmpe6iyr0oq/80tt78e_gd.sdf

>  <i_m_source_file_index>  (201) 
5

>  <i_lp_mmshare_version>  (201) 
48012

>  <i_f3d_flags>  (201) 
0

>  <s_epik_input>  (201) 
W0NIM11DKFtDSDNdKShbQ0gyXTEpW0NIMl1bQ0BIXShbT0hdKVtDQEhdKFtDSDJdW0NIMl0yKUMxPUMoQzM9TylbQ0BAXTIoW0NIM10pW0NAQF00KFtDSDNdKUMoW09IXSk9W0NIXVtDQF0oW0NIM10pKFtDQEBIXTVbQ0BAXTM0W0NIM10pW0NASF02W0NAXShbQ0gzXSkoQyg9TylbQ0gyXTUpW0NIMl1bQ0gyXVtDQEBIXShbT0hdKUM2KFtDSDNdKVtDSDNd

>  <s_epik_cmdline>  (201) 
J2VwaWtfcHl0aG9uJywgJy1waHQnLCAnMi4wJywgJy1waCcsICc3LjAnLCAnLXRuJywgJzgnLCAnLW1hJywgJzIwMCcsICctaW1hZScsICc8aW5maWxlLm1hZT4nLCAnLW9tYWUnLCAnPG91dGZpbGUubWFlPic=

>  <r_lp_tautomer_probability>  (201) 
1

>  <r_epik_Ionization_Penalty>  (201) 
1.44141e-06

>  <r_epik_Ionization_Penalty_Charging>  (201) 
0

>  <r_epik_Ionization_Penalty_Neutral>  (201) 
1.44141e-06

>  <r_epik_State_Penalty>  (201) 
-0

>  <r_epik_Charging_Adjusted_Penalty>  (201) 
0

>  <i_epik_Tot_Q>  (201) 
0

>  <i_epik_Tot_abs_Q>  (201) 
0

>  <s_lp_Force_Field>  (201) 
OPLS3e

>  <r_lp_Energy>  (201) 
88.3614

>  <b_lp_Chiralities_Consistent>  (201) 
1

>  <s_lp_Variant>  (201) 
61:0-1

>  <s_i_glide_gridfile>  (201) 
pfpi4k_grid

>  <i_i_glide_lignum>  (201) 
5

>  <i_i_glide_rotatable_bonds>  (201) 
2

>  <r_i_docking_score>  (201) 
-2.92192

>  <r_i_glide_ligand_efficiency>  (201) 
-0.074921

>  <r_i_glide_ligand_efficiency_sa>  (201) 
-0.254073

>  <r_i_glide_ligand_efficiency_ln>  (201) 
-0.626542

>  <r_i_glide_gscore>  (201) 
-2.92192

>  <r_i_glide_lipo>  (201) 
-0.198766

>  <r_i_glide_hbond>  (201) 
-0.27604

>  <r_i_glide_metal>  (201) 
-0

>  <r_i_glide_rewards>  (201) 
-0.0017049

>  <r_i_glide_evdw>  (201) 
-27.665

>  <r_i_glide_ecoul>  (201) 
-7.07651

>  <r_i_glide_erotb>  (201) 
0

>  <r_i_glide_esite>  (201) 
-0.000682778

>  <r_i_glide_emodel>  (201) 
-40.6075

>  <r_i_glide_energy>  (201) 
-34.7415

>  <r_i_glide_einternal>  (201) 
1.98379

>  <r_i_glide_intrahb_reward>  (201) 
-0

>  <i_i_glide_confnum>  (201) 
2

>  <i_i_glide_posenum>  (201) 
28

>  <r_i_glide_eff_state_penalty>  (201) 
0

>  <ligand_id>  (201) 
61

>  <original_smiles>  (201) 
CC1(C)CC2=C3C(=O)C4(C)C5CC(=O)C6(C)CCC(O)C(C)(C)C6C5(C)C=C(O)C4(C)C3(C)CCC2C(O)C1

>  <smiles>  (201) 
[H]OC1([H])C([H])([H])C(C([H])([H])[H])(C([H])([H])[H])C([H])([H])C2=C3C(=O)C4(C([H])([H])[H])C5([H])C([H])([H])C(=O)C6(C([H])([H])[H])C([H])([H])C([H])([H])C([H])(O[H])C(C([H])([H])[H])(C([H])([H])[H])C6([H])C5(C([H])([H])[H])C([H])([H])C(=O)C4(C([H])([H])[H])C3(C([H])([H])[H])C([H])([H])C([H])([H])C21[H]

$$$$
61:0:1
     RDKit          3D

 89 94  0  0  1  0  0  0  0  0999 V2000
   -0.8927   -7.9625    4.6843 C   0  0  0  0  0  0  0  0  0  0  0  0
   -0.2892   -8.4970    3.3667 C   0  0  0  0  0  0  0  0  0  0  0  0
   -1.4063   -8.4997    2.3100 C   0  0  0  0  0  0  0  0  0  0  0  0
    0.8490   -7.5818    2.8974 C   0  0  0  0  0  0  0  0  0  0  0  0
    2.0727   -7.6372    3.8104 C   0  0  0  0  0  0  0  0  0  0  0  0
    2.6077   -6.5888    4.4883 C   0  0  0  0  0  0  0  0  0  0  0  0
    1.9040   -5.3448    4.8250 C   0  0  0  0  0  0  0  0  0  0  0  0
    1.0838   -4.7427    4.1395 O   0  0  0  0  0  0  0  0  0  0  0  0
    2.3116   -4.9019    6.2430 C   0  0  2  0  0  0  0  0  0  0  0  0
    1.3658   -5.7020    7.1862 C   0  0  0  0  0  0  0  0  0  0  0  0
    2.1486   -3.3561    6.5705 C   0  0  2  0  0  0  0  0  0  0  0  0
    0.6607   -2.9070    6.6517 C   0  0  0  0  0  0  0  0  0  0  0  0
    0.4801   -1.3995    6.6370 C   0  0  0  0  0  0  0  0  0  0  0  0
   -0.1869   -0.8562    7.5123 O   0  0  0  0  0  0  0  0  0  0  0  0
    1.0919   -0.6131    5.4555 C   0  0  2  0  0  0  0  0  0  0  0  0
    1.6112    0.7683    5.9875 C   0  0  0  0  0  0  0  0  0  0  0  0
   -0.0679   -0.3503    4.4624 C   0  0  0  0  0  0  0  0  0  0  0  0
    0.3980    0.3043    3.1529 C   0  0  0  0  0  0  0  0  0  0  0  0
    1.4970   -0.5185    2.4675 C   0  0  1  0  0  0  0  0  0  0  0  0
    1.8883    0.1644    1.2856 O   0  0  0  0  0  0  0  0  0  0  0  0
    2.7275   -0.9006    3.3685 C   0  0  0  0  0  0  0  0  0  0  0  0
    3.5031   -1.9267    2.4980 C   0  0  0  0  0  0  0  0  0  0  0  0
    3.6534    0.3192    3.5804 C   0  0  0  0  0  0  0  0  0  0  0  0
    2.1792   -1.5218    4.7343 C   0  0  1  0  0  0  0  0  0  0  0  0
    3.0840   -2.3459    5.7746 C   0  0  1  0  0  0  0  0  0  0  0  0
    3.7793   -1.4288    6.8278 C   0  0  0  0  0  0  0  0  0  0  0  0
    4.2316   -3.1518    5.1224 C   0  0  0  0  0  0  0  0  0  0  0  0
    4.7702   -4.2727    6.0048 C   0  0  0  0  0  0  0  0  0  0  0  0
    5.9381   -4.2397    6.3969 O   0  0  0  0  0  0  0  0  0  0  0  0
    3.8028   -5.4401    6.3400 C   0  0  1  0  0  0  0  0  0  0  0  0
    4.1896   -5.8686    7.7867 C   0  0  0  0  0  0  0  0  0  0  0  0
    3.8997   -6.6377    5.2784 C   0  0  2  0  0  0  0  0  0  0  0  0
    5.0472   -6.4711    4.2300 C   0  0  0  0  0  0  0  0  0  0  0  0
    4.0189   -8.0583    5.8943 C   0  0  0  0  0  0  0  0  0  0  0  0
    3.8964   -9.1831    4.8422 C   0  0  0  0  0  0  0  0  0  0  0  0
    2.6444   -9.0605    3.9340 C   0  0  1  0  0  0  0  0  0  0  0  0
    1.5449  -10.0728    4.3623 C   0  0  1  0  0  0  0  0  0  0  0  0
    1.2300   -9.9363    5.7400 O   0  0  0  0  0  0  0  0  0  0  0  0
    0.2666   -9.9396    3.5029 C   0  0  0  0  0  0  0  0  0  0  0  0
   -1.3904   -7.0013    4.5425 H   0  0  0  0  0  0  0  0  0  0  0  0
   -0.1295   -7.8109    5.4462 H   0  0  0  0  0  0  0  0  0  0  0  0
   -1.6259   -8.6591    5.0953 H   0  0  0  0  0  0  0  0  0  0  0  0
   -1.0310   -8.8314    1.3442 H   0  0  0  0  0  0  0  0  0  0  0  0
   -1.8148   -7.5010    2.1555 H   0  0  0  0  0  0  0  0  0  0  0  0
   -2.2268   -9.1649    2.5859 H   0  0  0  0  0  0  0  0  0  0  0  0
    1.1822   -7.9309    1.9180 H   0  0  0  0  0  0  0  0  0  0  0  0
    0.4862   -6.5736    2.7269 H   0  0  0  0  0  0  0  0  0  0  0  0
    1.5232   -5.4485    8.2370 H   0  0  0  0  0  0  0  0  0  0  0  0
    1.4986   -6.7818    7.0845 H   0  0  0  0  0  0  0  0  0  0  0  0
    0.3120   -5.5165    6.9671 H   0  0  0  0  0  0  0  0  0  0  0  0
    2.4788   -3.2996    7.6106 H   0  0  0  0  0  0  0  0  0  0  0  0
    0.0799   -3.2976    5.8187 H   0  0  0  0  0  0  0  0  0  0  0  0
    0.2045   -3.2994    7.5582 H   0  0  0  0  0  0  0  0  0  0  0  0
    1.3865    1.5970    5.3184 H   0  0  0  0  0  0  0  0  0  0  0  0
    2.6864    0.7995    6.1325 H   0  0  0  0  0  0  0  0  0  0  0  0
    1.1703    1.0715    6.9380 H   0  0  0  0  0  0  0  0  0  0  0  0
   -0.5610   -1.2944    4.2199 H   0  0  0  0  0  0  0  0  0  0  0  0
   -0.8384    0.2682    4.9305 H   0  0  0  0  0  0  0  0  0  0  0  0
   -0.4582    0.3945    2.4841 H   0  0  0  0  0  0  0  0  0  0  0  0
    0.7350    1.3263    3.3151 H   0  0  0  0  0  0  0  0  0  0  0  0
    1.0254   -1.4455    2.1368 H   0  0  0  0  0  0  0  0  0  0  0  0
    1.4014   -0.1955    0.5400 H   0  0  0  0  0  0  0  0  0  0  0  0
    4.5278   -2.0778    2.8316 H   0  0  0  0  0  0  0  0  0  0  0  0
    3.6041   -1.5987    1.4626 H   0  0  0  0  0  0  0  0  0  0  0  0
    2.9849   -2.8868    2.4605 H   0  0  0  0  0  0  0  0  0  0  0  0
    4.4261    0.1251    4.3215 H   0  0  0  0  0  0  0  0  0  0  0  0
    3.1059    1.2112    3.8782 H   0  0  0  0  0  0  0  0  0  0  0  0
    4.1646    0.5847    2.6534 H   0  0  0  0  0  0  0  0  0  0  0  0
    1.5873   -2.3258    4.3045 H   0  0  0  0  0  0  0  0  0  0  0  0
    4.4117   -0.6723    6.3674 H   0  0  0  0  0  0  0  0  0  0  0  0
    4.4297   -1.9918    7.4983 H   0  0  0  0  0  0  0  0  0  0  0  0
    3.0764   -0.9237    7.4875 H   0  0  0  0  0  0  0  0  0  0  0  0
    3.8941   -3.6424    4.2172 H   0  0  0  0  0  0  0  0  0  0  0  0
    5.0536   -2.4879    4.8567 H   0  0  0  0  0  0  0  0  0  0  0  0
    3.5618   -6.6523    8.2027 H   0  0  0  0  0  0  0  0  0  0  0  0
    4.1337   -5.0231    8.4747 H   0  0  0  0  0  0  0  0  0  0  0  0
    5.2147   -6.2405    7.8330 H   0  0  0  0  0  0  0  0  0  0  0  0
    6.0323   -6.5498    4.6908 H   0  0  0  0  0  0  0  0  0  0  0  0
    4.9872   -5.5275    3.6851 H   0  0  0  0  0  0  0  0  0  0  0  0
    4.9910   -7.2212    3.4409 H   0  0  0  0  0  0  0  0  0  0  0  0
    4.9669   -8.1637    6.4216 H   0  0  0  0  0  0  0  0  0  0  0  0
    3.2351   -8.2160    6.6339 H   0  0  0  0  0  0  0  0  0  0  0  0
    4.7898   -9.2044    4.2225 H   0  0  0  0  0  0  0  0  0  0  0  0
    3.9064  -10.1486    5.3488 H   0  0  0  0  0  0  0  0  0  0  0  0
    2.9493   -9.3516    2.9285 H   0  0  0  0  0  0  0  0  0  0  0  0
    1.9341  -11.0846    4.2353 H   0  0  0  0  0  0  0  0  0  0  0  0
    1.0286  -10.7920    6.1110 H   0  0  0  0  0  0  0  0  0  0  0  0
   -0.5092  -10.6134    3.8621 H   0  0  0  0  0  0  0  0  0  0  0  0
    0.5110  -10.3023    2.5034 H   0  0  0  0  0  0  0  0  0  0  0  0
  1  2  1  0
  1 40  1  0
  1 41  1  0
  1 42  1  0
  2 39  1  0
  2  3  1  0
  2  4  1  0
  3 43  1  0
  3 44  1  0
  3 45  1  0
  4  5  1  0
  4 46  1  0
  4 47  1  0
  5 36  1  0
  5  6  2  0
  6 32  1  0
  6  7  1  0
  7  8  2  0
  7  9  1  0
  9 30  1  0
  9 10  1  1
  9 11  1  0
 10 48  1  0
 10 49  1  0
 10 50  1  0
 11 25  1  0
 11 12  1  0
 11 51  1  1
 12 13  1  0
 12 52  1  0
 12 53  1  0
 13 14  2  0
 13 15  1  0
 15 24  1  0
 15 16  1  1
 15 17  1  0
 16 54  1  0
 16 55  1  0
 16 56  1  0
 17 18  1  0
 17 57  1  0
 17 58  1  0
 18 19  1  0
 18 59  1  0
 18 60  1  0
 19 20  1  0
 19 21  1  0
 19 61  1  6
 20 62  1  0
 21 22  1  0
 21 23  1  0
 21 24  1  0
 22 63  1  0
 22 64  1  0
 22 65  1  0
 23 66  1  0
 23 67  1  0
 23 68  1  0
 24 25  1  0
 24 69  1  6
 25 26  1  1
 25 27  1  0
 26 70  1  0
 26 71  1  0
 26 72  1  0
 27 73  1  0
 27 74  1  0
 27 28  1  0
 28 30  1  0
 28 29  2  0
 30 31  1  1
 30 32  1  0
 31 75  1  0
 31 76  1  0
 31 77  1  0
 32 33  1  6
 32 34  1  0
 33 78  1  0
 33 79  1  0
 33 80  1  0
 34 35  1  0
 34 81  1  0
 34 82  1  0
 35 36  1  0
 35 83  1  0
 35 84  1  0
 36 37  1  0
 36 85  1  6
 37 38  1  0
 37 39  1  0
 37 86  1  1
 38 87  1  0
 39 88  1  0
 39 89  1  0
M  END
>  <i_m_ct_stereo_status>  (202) 
1

>  <s_m_source_file>  (202) 
/var/tmp/pbs.5076255.sched01/tmpe6iyr0oq/80tt78e_gd.sdf

>  <i_m_source_file_index>  (202) 
5

>  <i_lp_mmshare_version>  (202) 
48012

>  <i_f3d_flags>  (202) 
0

>  <s_epik_input>  (202) 
W0NIM11DKFtDSDNdKShbQ0gyXTEpW0NIMl1bQ0BIXShbT0hdKVtDQEhdKFtDSDJdW0NIMl0yKUMxPUMoQzM9TylbQ0BAXTIoW0NIM10pW0NAQF00KFtDSDNdKUMoW09IXSk9W0NIXVtDQF0oW0NIM10pKFtDQEBIXTVbQ0BAXTM0W0NIM10pW0NASF02W0NAXShbQ0gzXSkoQyg9TylbQ0gyXTUpW0NIMl1bQ0gyXVtDQEBIXShbT0hdKUM2KFtDSDNdKVtDSDNd

>  <s_epik_cmdline>  (202) 
J2VwaWtfcHl0aG9uJywgJy1waHQnLCAnMi4wJywgJy1waCcsICc3LjAnLCAnLXRuJywgJzgnLCAnLW1hJywgJzIwMCcsICctaW1hZScsICc8aW5maWxlLm1hZT4nLCAnLW9tYWUnLCAnPG91dGZpbGUubWFlPic=

>  <r_lp_tautomer_probability>  (202) 
1

>  <r_epik_Ionization_Penalty>  (202) 
1.44141e-06

>  <r_epik_Ionization_Penalty_Charging>  (202) 
0

>  <r_epik_Ionization_Penalty_Neutral>  (202) 
1.44141e-06

>  <r_epik_State_Penalty>  (202) 
-0

>  <r_epik_Charging_Adjusted_Penalty>  (202) 
0

>  <i_epik_Tot_Q>  (202) 
0

>  <i_epik_Tot_abs_Q>  (202) 
0

>  <s_lp_Force_Field>  (202) 
OPLS3e

>  <r_lp_Energy>  (202) 
88.3614

>  <b_lp_Chiralities_Consistent>  (202) 
1

>  <s_lp_Variant>  (202) 
61:0-1

>  <s_i_glide_gridfile>  (202) 
pfpi4k_grid

>  <i_i_glide_lignum>  (202) 
5

>  <i_i_glide_rotatable_bonds>  (202) 
2

>  <r_i_docking_score>  (202) 
-2.84382

>  <r_i_glide_ligand_efficiency>  (202) 
-0.0729183

>  <r_i_glide_ligand_efficiency_sa>  (202) 
-0.247281

>  <r_i_glide_ligand_efficiency_ln>  (202) 
-0.609795

>  <r_i_glide_gscore>  (202) 
-2.84382

>  <r_i_glide_lipo>  (202) 
-0.0669775

>  <r_i_glide_hbond>  (202) 
-0.255284

>  <r_i_glide_metal>  (202) 
-0

>  <r_i_glide_rewards>  (202) 
-0.000417589

>  <r_i_glide_evdw>  (202) 
-26.9493

>  <r_i_glide_ecoul>  (202) 
-7.66737

>  <r_i_glide_erotb>  (202) 
0

>  <r_i_glide_esite>  (202) 
-0.0235657

>  <r_i_glide_emodel>  (202) 
-40.2346

>  <r_i_glide_energy>  (202) 
-34.6167

>  <r_i_glide_einternal>  (202) 
2.21289

>  <r_i_glide_intrahb_reward>  (202) 
-0

>  <i_i_glide_confnum>  (202) 
2

>  <i_i_glide_posenum>  (202) 
25

>  <r_i_glide_eff_state_penalty>  (202) 
0

>  <ligand_id>  (202) 
61

>  <original_smiles>  (202) 
CC1(C)CC2=C3C(=O)C4(C)C5CC(=O)C6(C)CCC(O)C(C)(C)C6C5(C)C=C(O)C4(C)C3(C)CCC2C(O)C1

>  <smiles>  (202) 
[H]OC1([H])C([H])([H])C(C([H])([H])[H])(C([H])([H])[H])C([H])([H])C2=C3C(=O)C4(C([H])([H])[H])C5([H])C([H])([H])C(=O)C6(C([H])([H])[H])C([H])([H])C([H])([H])C([H])(O[H])C(C([H])([H])[H])(C([H])([H])[H])C6([H])C5(C([H])([H])[H])C([H])([H])C(=O)C4(C([H])([H])[H])C3(C([H])([H])[H])C([H])([H])C([H])([H])C21[H]

$$$$
61:0:2
     RDKit          3D

 89 94  0  0  1  0  0  0  0  0999 V2000
   -1.2403   -7.2960    4.4216 C   0  0  0  0  0  0  0  0  0  0  0  0
   -0.1873   -7.9404    3.4980 C   0  0  0  0  0  0  0  0  0  0  0  0
   -0.8356   -8.1080    2.1180 C   0  0  0  0  0  0  0  0  0  0  0  0
    1.0391   -7.0311    3.3722 C   0  0  0  0  0  0  0  0  0  0  0  0
    1.8394   -6.9346    4.6601 C   0  0  0  0  0  0  0  0  0  0  0  0
    2.1048   -5.7918    5.3438 C   0  0  0  0  0  0  0  0  0  0  0  0
    1.3096   -4.5559    5.2552 C   0  0  0  0  0  0  0  0  0  0  0  0
    0.8166   -4.0544    4.2715 O   0  0  0  0  0  0  0  0  0  0  0  0
    1.1632   -3.9290    6.6610 C   0  0  2  0  0  0  0  0  0  0  0  0
   -0.0610   -4.6574    7.2825 C   0  0  0  0  0  0  0  0  0  0  0  0
    0.8898   -2.3616    6.7066 C   0  0  2  0  0  0  0  0  0  0  0  0
   -0.5159   -1.9766    6.1693 C   0  0  0  0  0  0  0  0  0  0  0  0
   -0.6770   -0.4802    5.9281 C   0  0  0  0  0  0  0  0  0  0  0  0
   -1.6096    0.1288    6.4414 O   0  0  0  0  0  0  0  0  0  0  0  0
    0.3270    0.1920    4.9636 C   0  0  2  0  0  0  0  0  0  0  0  0
    0.6102    1.6430    5.4796 C   0  0  0  0  0  0  0  0  0  0  0  0
   -0.3848    0.3027    3.5983 C   0  0  0  0  0  0  0  0  0  0  0  0
    0.5265    0.8077    2.4748 C   0  0  0  0  0  0  0  0  0  0  0  0
    1.7849   -0.0523    2.3501 C   0  0  1  0  0  0  0  0  0  0  0  0
    2.5657    0.4960    1.3122 O   0  0  0  0  0  0  0  0  0  0  0  0
    2.6059   -0.2622    3.6715 C   0  0  0  0  0  0  0  0  0  0  0  0
    3.6549   -1.3401    3.2772 C   0  0  0  0  0  0  0  0  0  0  0  0
    3.3930    1.0104    4.0543 C   0  0  0  0  0  0  0  0  0  0  0  0
    1.5952   -0.7478    4.8073 C   0  0  1  0  0  0  0  0  0  0  0  0
    2.0576   -1.4115    6.1958 C   0  0  1  0  0  0  0  0  0  0  0  0
    2.3171   -0.3524    7.3090 C   0  0  0  0  0  0  0  0  0  0  0  0
    3.3597   -2.2369    6.1097 C   0  0  0  0  0  0  0  0  0  0  0  0
    3.5350   -3.2243    7.2633 C   0  0  0  0  0  0  0  0  0  0  0  0
    4.4696   -3.0968    8.0398 O   0  0  0  0  0  0  0  0  0  0  0  0
    2.5069   -4.3854    7.3601 C   0  0  1  0  0  0  0  0  0  0  0  0
    2.3423   -4.6348    8.8889 C   0  0  0  0  0  0  0  0  0  0  0  0
    2.9960   -5.6884    6.5564 C   0  0  2  0  0  0  0  0  0  0  0  0
    4.4506   -5.5891    5.9948 C   0  0  0  0  0  0  0  0  0  0  0  0
    2.8857   -7.0227    7.3442 C   0  0  0  0  0  0  0  0  0  0  0  0
    3.1559   -8.2655    6.4669 C   0  0  0  0  0  0  0  0  0  0  0  0
    2.3268   -8.2979    5.1582 C   0  0  1  0  0  0  0  0  0  0  0  0
    1.1493   -9.3064    5.2709 C   0  0  1  0  0  0  0  0  0  0  0  0
    0.3242   -9.0407    6.3885 O   0  0  0  0  0  0  0  0  0  0  0  0
    0.2774   -9.3297    3.9991 C   0  0  0  0  0  0  0  0  0  0  0  0
   -1.6502   -6.3800    3.9965 H   0  0  0  0  0  0  0  0  0  0  0  0
   -0.8070   -7.0173    5.3825 H   0  0  0  0  0  0  0  0  0  0  0  0
   -2.0681   -7.9852    4.6145 H   0  0  0  0  0  0  0  0  0  0  0  0
   -0.1068   -8.5242    1.4289 H   0  0  0  0  0  0  0  0  0  0  0  0
   -1.1506   -7.1540    1.7029 H   0  0  0  0  0  0  0  0  0  0  0  0
   -1.6976   -8.7811    2.1381 H   0  0  0  0  0  0  0  0  0  0  0  0
    1.7041   -7.4715    2.6294 H   0  0  0  0  0  0  0  0  0  0  0  0
    0.7634   -6.0670    2.9597 H   0  0  0  0  0  0  0  0  0  0  0  0
   -0.3040   -4.2824    8.2794 H   0  0  0  0  0  0  0  0  0  0  0  0
    0.1005   -5.7355    7.3684 H   0  0  0  0  0  0  0  0  0  0  0  0
   -0.9571   -4.5491    6.6698 H   0  0  0  0  0  0  0  0  0  0  0  0
    0.8177   -2.1727    7.7812 H   0  0  0  0  0  0  0  0  0  0  0  0
   -0.7402   -2.4804    5.2314 H   0  0  0  0  0  0  0  0  0  0  0  0
   -1.2826   -2.3033    6.8706 H   0  0  0  0  0  0  0  0  0  0  0  0
    0.6439    2.3772    4.6772 H   0  0  0  0  0  0  0  0  0  0  0  0
    1.5587    1.7381    6.0006 H   0  0  0  0  0  0  0  0  0  0  0  0
   -0.1504    2.0275    6.1577 H   0  0  0  0  0  0  0  0  0  0  0  0
   -0.7430   -0.6836    3.3166 H   0  0  0  0  0  0  0  0  0  0  0  0
   -1.2823    0.9195    3.6736 H   0  0  0  0  0  0  0  0  0  0  0  0
   -0.0264    0.7738    1.5356 H   0  0  0  0  0  0  0  0  0  0  0  0
    0.7845    1.8563    2.6111 H   0  0  0  0  0  0  0  0  0  0  0  0
    1.4728   -1.0318    1.9865 H   0  0  0  0  0  0  0  0  0  0  0  0
    2.0840    0.3626    0.5034 H   0  0  0  0  0  0  0  0  0  0  0  0
    4.4846   -1.4076    3.9795 H   0  0  0  0  0  0  0  0  0  0  0  0
    4.1306   -1.1264    2.3180 H   0  0  0  0  0  0  0  0  0  0  0  0
    3.1890   -2.3227    3.1681 H   0  0  0  0  0  0  0  0  0  0  0  0
    3.8362    0.9377    5.0455 H   0  0  0  0  0  0  0  0  0  0  0  0
    2.7738    1.9042    4.0200 H   0  0  0  0  0  0  0  0  0  0  0  0
    4.2101    1.1931    3.3561 H   0  0  0  0  0  0  0  0  0  0  0  0
    1.2081   -1.6202    4.2883 H   0  0  0  0  0  0  0  0  0  0  0  0
    3.0740    0.3737    7.0223 H   0  0  0  0  0  0  0  0  0  0  0  0
    2.6749   -0.8065    8.2332 H   0  0  0  0  0  0  0  0  0  0  0  0
    1.4218    0.1934    7.6017 H   0  0  0  0  0  0  0  0  0  0  0  0
    3.3809   -2.8376    5.2097 H   0  0  0  0  0  0  0  0  0  0  0  0
    4.2231   -1.5712    6.0870 H   0  0  0  0  0  0  0  0  0  0  0  0
    1.6066   -5.3950    9.1383 H   0  0  0  0  0  0  0  0  0  0  0  0
    2.0381   -3.7196    9.3970 H   0  0  0  0  0  0  0  0  0  0  0  0
    3.2807   -4.9480    9.3477 H   0  0  0  0  0  0  0  0  0  0  0  0
    5.1980   -5.5709    6.7905 H   0  0  0  0  0  0  0  0  0  0  0  0
    4.5977   -4.7183    5.3533 H   0  0  0  0  0  0  0  0  0  0  0  0
    4.6933   -6.4265    5.3383 H   0  0  0  0  0  0  0  0  0  0  0  0
    3.5739   -7.0262    8.1912 H   0  0  0  0  0  0  0  0  0  0  0  0
    1.8846   -7.1343    7.7579 H   0  0  0  0  0  0  0  0  0  0  0  0
    4.2157   -8.3163    6.2215 H   0  0  0  0  0  0  0  0  0  0  0  0
    2.9789   -9.1683    7.0542 H   0  0  0  0  0  0  0  0  0  0  0  0
    2.9781   -8.6924    4.3791 H   0  0  0  0  0  0  0  0  0  0  0  0
    1.5517  -10.3079    5.4260 H   0  0  0  0  0  0  0  0  0  0  0  0
   -0.2989   -9.7571    6.4548 H   0  0  0  0  0  0  0  0  0  0  0  0
   -0.5802   -9.9936    4.1253 H   0  0  0  0  0  0  0  0  0  0  0  0
    0.8696   -9.7937    3.2122 H   0  0  0  0  0  0  0  0  0  0  0  0
  1  2  1  0
  1 40  1  0
  1 41  1  0
  1 42  1  0
  2 39  1  0
  2  3  1  0
  2  4  1  0
  3 43  1  0
  3 44  1  0
  3 45  1  0
  4  5  1  0
  4 46  1  0
  4 47  1  0
  5 36  1  0
  5  6  2  0
  6 32  1  0
  6  7  1  0
  7  8  2  0
  7  9  1  0
  9 30  1  0
  9 10  1  1
  9 11  1  0
 10 48  1  0
 10 49  1  0
 10 50  1  0
 11 25  1  0
 11 12  1  0
 11 51  1  1
 12 13  1  0
 12 52  1  0
 12 53  1  0
 13 14  2  0
 13 15  1  0
 15 24  1  0
 15 16  1  1
 15 17  1  0
 16 54  1  0
 16 55  1  0
 16 56  1  0
 17 18  1  0
 17 57  1  0
 17 58  1  0
 18 19  1  0
 18 59  1  0
 18 60  1  0
 19 20  1  0
 19 21  1  0
 19 61  1  6
 20 62  1  0
 21 22  1  0
 21 23  1  0
 21 24  1  0
 22 63  1  0
 22 64  1  0
 22 65  1  0
 23 66  1  0
 23 67  1  0
 23 68  1  0
 24 25  1  0
 24 69  1  6
 25 26  1  1
 25 27  1  0
 26 70  1  0
 26 71  1  0
 26 72  1  0
 27 73  1  0
 27 74  1  0
 27 28  1  0
 28 30  1  0
 28 29  2  0
 30 31  1  1
 30 32  1  0
 31 75  1  0
 31 76  1  0
 31 77  1  0
 32 33  1  6
 32 34  1  0
 33 78  1  0
 33 79  1  0
 33 80  1  0
 34 35  1  0
 34 81  1  0
 34 82  1  0
 35 36  1  0
 35 83  1  0
 35 84  1  0
 36 37  1  0
 36 85  1  6
 37 38  1  0
 37 39  1  0
 37 86  1  1
 38 87  1  0
 39 88  1  0
 39 89  1  0
M  END
>  <i_m_ct_stereo_status>  (203) 
1

>  <s_m_source_file>  (203) 
/var/tmp/pbs.5076255.sched01/tmpe6iyr0oq/80tt78e_gd.sdf

>  <i_m_source_file_index>  (203) 
5

>  <i_lp_mmshare_version>  (203) 
48012

>  <i_f3d_flags>  (203) 
0

>  <s_epik_input>  (203) 
W0NIM11DKFtDSDNdKShbQ0gyXTEpW0NIMl1bQ0BIXShbT0hdKVtDQEhdKFtDSDJdW0NIMl0yKUMxPUMoQzM9TylbQ0BAXTIoW0NIM10pW0NAQF00KFtDSDNdKUMoW09IXSk9W0NIXVtDQF0oW0NIM10pKFtDQEBIXTVbQ0BAXTM0W0NIM10pW0NASF02W0NAXShbQ0gzXSkoQyg9TylbQ0gyXTUpW0NIMl1bQ0gyXVtDQEBIXShbT0hdKUM2KFtDSDNdKVtDSDNd

>  <s_epik_cmdline>  (203) 
J2VwaWtfcHl0aG9uJywgJy1waHQnLCAnMi4wJywgJy1waCcsICc3LjAnLCAnLXRuJywgJzgnLCAnLW1hJywgJzIwMCcsICctaW1hZScsICc8aW5maWxlLm1hZT4nLCAnLW9tYWUnLCAnPG91dGZpbGUubWFlPic=

>  <r_lp_tautomer_probability>  (203) 
1

>  <r_epik_Ionization_Penalty>  (203) 
1.44141e-06

>  <r_epik_Ionization_Penalty_Charging>  (203) 
0

>  <r_epik_Ionization_Penalty_Neutral>  (203) 
1.44141e-06

>  <r_epik_State_Penalty>  (203) 
-0

>  <r_epik_Charging_Adjusted_Penalty>  (203) 
0

>  <i_epik_Tot_Q>  (203) 
0

>  <i_epik_Tot_abs_Q>  (203) 
0

>  <s_lp_Force_Field>  (203) 
OPLS3e

>  <r_lp_Energy>  (203) 
88.3614

>  <b_lp_Chiralities_Consistent>  (203) 
1

>  <s_lp_Variant>  (203) 
61:0-1

>  <s_i_glide_gridfile>  (203) 
pfpi4k_grid

>  <i_i_glide_lignum>  (203) 
5

>  <i_i_glide_rotatable_bonds>  (203) 
2

>  <r_i_docking_score>  (203) 
-2.36306

>  <r_i_glide_ligand_efficiency>  (203) 
-0.0605912

>  <r_i_glide_ligand_efficiency_sa>  (203) 
-0.205478

>  <r_i_glide_ligand_efficiency_ln>  (203) 
-0.506707

>  <r_i_glide_gscore>  (203) 
-2.36306

>  <r_i_glide_lipo>  (203) 
-0.00018925

>  <r_i_glide_hbond>  (203) 
-0.21437

>  <r_i_glide_metal>  (203) 
-0

>  <r_i_glide_rewards>  (203) 
-0.00019944

>  <r_i_glide_evdw>  (203) 
-28.7889

>  <r_i_glide_ecoul>  (203) 
-4.41332

>  <r_i_glide_erotb>  (203) 
0

>  <r_i_glide_esite>  (203) 
-0.0468562

>  <r_i_glide_emodel>  (203) 
-38.5825

>  <r_i_glide_energy>  (203) 
-33.2022

>  <r_i_glide_einternal>  (203) 
0.797758

>  <r_i_glide_intrahb_reward>  (203) 
-0

>  <i_i_glide_confnum>  (203) 
1

>  <i_i_glide_posenum>  (203) 
39

>  <r_i_glide_eff_state_penalty>  (203) 
0

>  <ligand_id>  (203) 
61

>  <original_smiles>  (203) 
CC1(C)CC2=C3C(=O)C4(C)C5CC(=O)C6(C)CCC(O)C(C)(C)C6C5(C)C=C(O)C4(C)C3(C)CCC2C(O)C1

>  <smiles>  (203) 
[H]OC1([H])C([H])([H])C(C([H])([H])[H])(C([H])([H])[H])C([H])([H])C2=C3C(=O)C4(C([H])([H])[H])C5([H])C([H])([H])C(=O)C6(C([H])([H])[H])C([H])([H])C([H])([H])C([H])(O[H])C(C([H])([H])[H])(C([H])([H])[H])C6([H])C5(C([H])([H])[H])C([H])([H])C(=O)C4(C([H])([H])[H])C3(C([H])([H])[H])C([H])([H])C([H])([H])C21[H]

$$$$
63:0:0
     RDKit          3D

 61 65  0  0  1  0  0  0  0  0999 V2000
    4.3398   -0.0512    3.6196 C   0  0  0  0  0  0  0  0  0  0  0  0
    3.5613   -0.6169    2.4053 C   0  0  0  0  0  0  0  0  0  0  0  0
    2.3220    0.2615    2.1462 C   0  0  0  0  0  0  0  0  0  0  0  0
    4.4803   -0.5793    1.1503 C   0  0  0  0  0  0  0  0  0  0  0  0
    4.9424   -1.9528    0.6432 C   0  0  0  0  0  0  0  0  0  0  0  0
    5.0895   -2.1361   -0.5648 O   0  0  0  0  0  0  0  0  0  0  0  0
    5.2465   -3.0544    1.6832 C   0  0  1  0  0  0  0  0  0  0  0  0
    4.2179   -3.0422    2.8378 C   0  0  0  0  0  0  0  0  0  0  0  0
    4.2998   -3.7433    3.8962 N   0  0  0  0  0  0  0  0  0  0  0  0
    5.3498   -4.6166    4.1824 C   0  0  0  0  0  0  0  0  0  0  0  0
    5.7745   -5.5576    3.3015 C   0  0  0  0  0  0  0  0  0  0  0  0
    6.8471   -6.5058    3.7159 C   0  0  0  0  0  0  0  0  0  0  0  0
    7.3360   -7.3477    2.9675 O   0  0  0  0  0  0  0  0  0  0  0  0
    7.4016   -6.4224    5.1436 C   0  0  0  0  0  0  0  0  0  0  0  0
    6.3909   -5.8513    6.1592 C   0  0  0  0  0  0  0  0  0  0  0  0
    5.2004   -6.8154    6.4065 C   0  0  0  0  0  0  0  0  0  0  0  0
    7.1243   -5.6039    7.4887 C   0  0  0  0  0  0  0  0  0  0  0  0
    5.8806   -4.5081    5.6079 C   0  0  0  0  0  0  0  0  0  0  0  0
    5.1898   -5.7255    1.8890 C   0  0  1  0  0  0  0  0  0  0  0  0
    3.7298   -6.2324    1.8977 C   0  0  0  0  0  0  0  0  0  0  0  0
    2.6978   -5.5675    1.1959 C   0  0  0  0  0  0  0  0  0  0  0  0
    1.4151   -5.9732    1.1749 N   0  0  0  0  0  0  0  0  0  0  0  0
    1.0756   -7.0905    1.8475 C   0  0  0  0  0  0  0  0  0  0  0  0
   -0.2641   -7.5077    1.8199 C   0  0  0  0  0  0  0  0  0  0  0  0
   -0.6756   -8.6661    2.5003 C   0  0  0  0  0  0  0  0  0  0  0  0
    0.2638   -9.4144    3.2370 C   0  0  0  0  0  0  0  0  0  0  0  0
    1.6134   -9.0048    3.2819 C   0  0  0  0  0  0  0  0  0  0  0  0
    2.0243   -7.8421    2.5902 C   0  0  0  0  0  0  0  0  0  0  0  0
    3.3682   -7.4066    2.6080 C   0  0  0  0  0  0  0  0  0  0  0  0
    5.4767   -4.4579    1.0197 C   0  0  2  0  0  0  0  0  0  0  0  0
    7.1926   -4.5147    0.5107 Cl  0  0  0  0  0  0  0  0  0  0  0  0
    3.0679   -2.0522    2.7088 C   0  0  0  0  0  0  0  0  0  0  0  0
    4.5995    0.9951    3.4694 H   0  0  0  0  0  0  0  0  0  0  0  0
    5.2769   -0.5865    3.7891 H   0  0  0  0  0  0  0  0  0  0  0  0
    3.7534   -0.1099    4.5383 H   0  0  0  0  0  0  0  0  0  0  0  0
    1.7530   -0.1173    1.2939 H   0  0  0  0  0  0  0  0  0  0  0  0
    2.5923    1.2937    1.9244 H   0  0  0  0  0  0  0  0  0  0  0  0
    1.6512    0.2677    3.0070 H   0  0  0  0  0  0  0  0  0  0  0  0
    3.9682   -0.0659    0.3345 H   0  0  0  0  0  0  0  0  0  0  0  0
    5.3701    0.0126    1.3524 H   0  0  0  0  0  0  0  0  0  0  0  0
    6.1941   -2.7563    2.1331 H   0  0  0  0  0  0  0  0  0  0  0  0
    7.7260   -7.4125    5.4557 H   0  0  0  0  0  0  0  0  0  0  0  0
    8.2921   -5.7940    5.1120 H   0  0  0  0  0  0  0  0  0  0  0  0
    4.5021   -6.4055    7.1404 H   0  0  0  0  0  0  0  0  0  0  0  0
    5.5317   -7.7878    6.7772 H   0  0  0  0  0  0  0  0  0  0  0  0
    4.6193   -6.9993    5.4997 H   0  0  0  0  0  0  0  0  0  0  0  0
    6.4687   -5.1455    8.2286 H   0  0  0  0  0  0  0  0  0  0  0  0
    7.9671   -4.9311    7.3408 H   0  0  0  0  0  0  0  0  0  0  0  0
    7.5157   -6.5273    7.9115 H   0  0  0  0  0  0  0  0  0  0  0  0
    6.6958   -3.7835    5.6072 H   0  0  0  0  0  0  0  0  0  0  0  0
    5.1075   -4.1045    6.2625 H   0  0  0  0  0  0  0  0  0  0  0  0
    5.7078   -6.5442    1.3889 H   0  0  0  0  0  0  0  0  0  0  0  0
    2.8694   -4.6576    0.6427 H   0  0  0  0  0  0  0  0  0  0  0  0
   -0.9770   -6.9572    1.2353 H   0  0  0  0  0  0  0  0  0  0  0  0
   -1.7054   -8.9913    2.4418 H   0  0  0  0  0  0  0  0  0  0  0  0
   -0.0584  -10.3091    3.7571 H   0  0  0  0  0  0  0  0  0  0  0  0
    2.3204   -9.5914    3.8467 H   0  0  0  0  0  0  0  0  0  0  0  0
    4.1067   -7.9667    3.1677 H   0  0  0  0  0  0  0  0  0  0  0  0
    4.9340   -4.5553    0.0800 H   0  0  0  0  0  0  0  0  0  0  0  0
    2.4970   -2.0509    3.6377 H   0  0  0  0  0  0  0  0  0  0  0  0
    2.3881   -2.4058    1.9278 H   0  0  0  0  0  0  0  0  0  0  0  0
  1  2  1  0
  1 33  1  0
  1 34  1  0
  1 35  1  0
  2 32  1  0
  2  3  1  0
  2  4  1  0
  3 36  1  0
  3 37  1  0
  3 38  1  0
  4  5  1  0
  4 39  1  0
  4 40  1  0
  5  6  2  0
  5  7  1  0
  7 30  1  0
  7  8  1  0
  7 41  1  1
  8  9  2  0
  8 32  1  0
  9 10  1  0
 10 18  1  0
 10 11  2  0
 11 12  1  0
 11 19  1  0
 12 13  2  0
 12 14  1  0
 14 15  1  0
 14 42  1  0
 14 43  1  0
 15 16  1  0
 15 17  1  0
 15 18  1  0
 16 44  1  0
 16 45  1  0
 16 46  1  0
 17 47  1  0
 17 48  1  0
 17 49  1  0
 18 50  1  0
 18 51  1  0
 19 20  1  0
 19 30  1  0
 19 52  1  6
 20 29  1  0
 20 21  2  0
 21 22  1  0
 21 53  1  0
 22 23  2  0
 23 28  1  0
 23 24  1  0
 24 25  2  0
 24 54  1  0
 25 26  1  0
 25 55  1  0
 26 27  2  0
 26 56  1  0
 27 28  1  0
 27 57  1  0
 28 29  2  0
 29 58  1  0
 30 31  1  0
 30 59  1  6
 32 60  1  0
 32 61  1  0
M  END
>  <i_m_ct_stereo_status>  (204) 
1

>  <s_m_source_file>  (204) 
/var/tmp/pbs.5076255.sched01/tmpe6iyr0oq/80tt78e_gd.sdf

>  <i_m_source_file_index>  (204) 
7

>  <i_lp_mmshare_version>  (204) 
48012

>  <i_f3d_flags>  (204) 
0

>  <s_epik_input>  (204) 
Tz1DMVtDSDJdQyhbQ0gzXSkoW0NIM10pW0NIMl1DKFtDQEhdMTIpPU5DMz1DKEMoPU8pW0NIMl1DKFtDSDNdKShbQ0gzXSlbQ0gyXTMpW0NASF0oW0NAQEhdMkNsKWMoW2NIXW40KVtjSF1jKGM0NSlbY0hdW2NIXVtjSF1bY0hdNQ==

>  <s_epik_cmdline>  (204) 
J2VwaWtfcHl0aG9uJywgJy1waHQnLCAnMi4wJywgJy1waCcsICc3LjAnLCAnLXRuJywgJzgnLCAnLW1hJywgJzIwMCcsICctaW1hZScsICc8aW5maWxlLm1hZT4nLCAnLW9tYWUnLCAnPG91dGZpbGUubWFlPic=

>  <r_lp_tautomer_probability>  (204) 
0.499981

>  <r_epik_Ionization_Penalty>  (204) 
0.00146138

>  <r_epik_Ionization_Penalty_Charging>  (204) 
0

>  <r_epik_Ionization_Penalty_Neutral>  (204) 
0.00146138

>  <r_epik_State_Penalty>  (204) 
0.772126

>  <r_epik_Charging_Adjusted_Penalty>  (204) 
0.772126

>  <i_epik_Tot_Q>  (204) 
0

>  <i_epik_Tot_abs_Q>  (204) 
0

>  <s_epik_Chemistry_Notes>  (204) 
This compound has an imine and may undergo hydrolysis.

>  <s_lp_Force_Field>  (204) 
OPLS3e

>  <r_lp_Energy>  (204) 
51.0669

>  <b_lp_Chiralities_Consistent>  (204) 
1

>  <s_lp_Variant>  (204) 
63:0-1

>  <s_i_glide_gridfile>  (204) 
pfpi4k_grid

>  <i_i_glide_lignum>  (204) 
7

>  <i_i_glide_rotatable_bonds>  (204) 
1

>  <r_i_docking_score>  (204) 
-2.89659

>  <r_i_glide_ligand_efficiency>  (204) 
-0.0905183

>  <r_i_glide_ligand_efficiency_sa>  (204) 
-0.287378

>  <r_i_glide_ligand_efficiency_ln>  (204) 
-0.648625

>  <r_i_glide_gscore>  (204) 
-2.89659

>  <r_i_glide_lipo>  (204) 
-0.468586

>  <r_i_glide_hbond>  (204) 
-0.150449

>  <r_i_glide_metal>  (204) 
-0

>  <r_i_glide_rewards>  (204) 
-0.400647

>  <r_i_glide_evdw>  (204) 
-31.0408

>  <r_i_glide_ecoul>  (204) 
-2.82843

>  <r_i_glide_erotb>  (204) 
0.0993975

>  <r_i_glide_esite>  (204) 
0

>  <r_i_glide_emodel>  (204) 
-39.7387

>  <r_i_glide_energy>  (204) 
-33.8692

>  <r_i_glide_einternal>  (204) 
0.899265

>  <r_i_glide_intrahb_reward>  (204) 
-0

>  <i_i_glide_confnum>  (204) 
5

>  <i_i_glide_posenum>  (204) 
10

>  <r_i_glide_eff_state_penalty>  (204) 
0

>  <ligand_id>  (204) 
63

>  <original_smiles>  (204) 
CC1(C)CC(=O)C2C(=NC3=C(C(=O)CC(C)(C)C3)C(c3cnc4ccccc4c3)C2Cl)C1

>  <smiles>  (204) 
[H]c1nc2c([H])c([H])c([H])c([H])c2c([H])c1C1([H])C2=C(N=C3C([H])([H])C(C([H])([H])[H])(C([H])([H])[H])C([H])([H])C(=O)C3([H])C1([H])Cl)C([H])([H])C(C([H])([H])[H])(C([H])([H])[H])C([H])([H])C2=O

$$$$
63:0:1
     RDKit          3D

 61 65  0  0  1  0  0  0  0  0999 V2000
    3.4957    0.0101    3.7566 C   0  0  0  0  0  0  0  0  0  0  0  0
    2.6068   -0.5827    2.6321 C   0  0  0  0  0  0  0  0  0  0  0  0
    1.2815    0.1999    2.5748 C   0  0  0  0  0  0  0  0  0  0  0  0
    3.3483   -0.4216    1.2757 C   0  0  0  0  0  0  0  0  0  0  0  0
    3.8431   -1.7330    0.6517 C   0  0  0  0  0  0  0  0  0  0  0  0
    3.8450   -1.8657   -0.5725 O   0  0  0  0  0  0  0  0  0  0  0  0
    4.3654   -2.8410    1.5948 C   0  0  1  0  0  0  0  0  0  0  0  0
    3.4942   -2.9628    2.8647 C   0  0  0  0  0  0  0  0  0  0  0  0
    3.7723   -3.6909    3.8714 N   0  0  0  0  0  0  0  0  0  0  0  0
    4.9224   -4.4815    3.9797 C   0  0  0  0  0  0  0  0  0  0  0  0
    5.2932   -5.3496    3.0048 C   0  0  0  0  0  0  0  0  0  0  0  0
    6.4737   -6.2301    3.2370 C   0  0  0  0  0  0  0  0  0  0  0  0
    6.9243   -6.9964    2.3885 O   0  0  0  0  0  0  0  0  0  0  0  0
    7.2042   -6.1620    4.5885 C   0  0  0  0  0  0  0  0  0  0  0  0
    6.3053   -5.7037    5.7584 C   0  0  0  0  0  0  0  0  0  0  0  0
    5.2573   -6.7724    6.1565 C   0  0  0  0  0  0  0  0  0  0  0  0
    7.1908   -5.4367    6.9840 C   0  0  0  0  0  0  0  0  0  0  0  0
    5.6223   -4.3882    5.3337 C   0  0  0  0  0  0  0  0  0  0  0  0
    4.5271   -5.5140    1.6737 C   0  0  1  0  0  0  0  0  0  0  0  0
    3.1120   -6.1328    1.8265 C   0  0  0  0  0  0  0  0  0  0  0  0
    2.1267   -6.0130    0.8164 C   0  0  0  0  0  0  0  0  0  0  0  0
    0.8895   -6.5391    0.9109 N   0  0  0  0  0  0  0  0  0  0  0  0
    0.5708   -7.2769    1.9989 C   0  0  0  0  0  0  0  0  0  0  0  0
   -0.7057   -7.8552    2.0975 C   0  0  0  0  0  0  0  0  0  0  0  0
   -1.0873   -8.6099    3.2231 C   0  0  0  0  0  0  0  0  0  0  0  0
   -0.1796   -8.7919    4.2851 C   0  0  0  0  0  0  0  0  0  0  0  0
    1.1088   -8.2273    4.2015 C   0  0  0  0  0  0  0  0  0  0  0  0
    1.4832   -7.4697    3.0668 C   0  0  0  0  0  0  0  0  0  0  0  0
    2.7661   -6.9112    2.9606 C   0  0  0  0  0  0  0  0  0  0  0  0
    4.6063   -4.1906    0.8389 C   0  0  2  0  0  0  0  0  0  0  0  0
    6.2425   -4.0996    0.1123 Cl  0  0  0  0  0  0  0  0  0  0  0  0
    2.2668   -2.0639    2.9300 C   0  0  0  0  0  0  0  0  0  0  0  0
    3.6570    1.0810    3.6146 H   0  0  0  0  0  0  0  0  0  0  0  0
    4.4819   -0.4588    3.7822 H   0  0  0  0  0  0  0  0  0  0  0  0
    3.0429   -0.1281    4.7397 H   0  0  0  0  0  0  0  0  0  0  0  0
    0.6385   -0.1928    1.7842 H   0  0  0  0  0  0  0  0  0  0  0  0
    1.4421    1.2575    2.3669 H   0  0  0  0  0  0  0  0  0  0  0  0
    0.7316    0.1207    3.5139 H   0  0  0  0  0  0  0  0  0  0  0  0
    2.6924    0.0677    0.5557 H   0  0  0  0  0  0  0  0  0  0  0  0
    4.2096    0.2344    1.3866 H   0  0  0  0  0  0  0  0  0  0  0  0
    5.3359   -2.4852    1.9359 H   0  0  0  0  0  0  0  0  0  0  0  0
    7.6388   -7.1375    4.8058 H   0  0  0  0  0  0  0  0  0  0  0  0
    8.0385   -5.4668    4.4673 H   0  0  0  0  0  0  0  0  0  0  0  0
    4.6299   -6.4376    6.9875 H   0  0  0  0  0  0  0  0  0  0  0  0
    5.7175   -7.7222    6.4412 H   0  0  0  0  0  0  0  0  0  0  0  0
    4.5941   -6.9836    5.3403 H   0  0  0  0  0  0  0  0  0  0  0  0
    6.5982   -5.0655    7.8211 H   0  0  0  0  0  0  0  0  0  0  0  0
    7.9552   -4.6909    6.7589 H   0  0  0  0  0  0  0  0  0  0  0  0
    7.6968   -6.3464    7.3093 H   0  0  0  0  0  0  0  0  0  0  0  0
    6.3646   -3.5885    5.2756 H   0  0  0  0  0  0  0  0  0  0  0  0
    4.9032   -4.0744    6.0953 H   0  0  0  0  0  0  0  0  0  0  0  0
    5.0356   -6.2698    1.0774 H   0  0  0  0  0  0  0  0  0  0  0  0
    2.3216   -5.5119   -0.1204 H   0  0  0  0  0  0  0  0  0  0  0  0
   -1.3928   -7.7643    1.2779 H   0  0  0  0  0  0  0  0  0  0  0  0
   -2.0706   -9.0662    3.2660 H   0  0  0  0  0  0  0  0  0  0  0  0
   -0.4771   -9.3894    5.1397 H   0  0  0  0  0  0  0  0  0  0  0  0
    1.7978   -8.3819    5.0181 H   0  0  0  0  0  0  0  0  0  0  0  0
    3.4676   -7.1041    3.7439 H   0  0  0  0  0  0  0  0  0  0  0  0
    3.9526   -4.2650   -0.0268 H   0  0  0  0  0  0  0  0  0  0  0  0
    1.8229   -2.1442    3.9246 H   0  0  0  0  0  0  0  0  0  0  0  0
    1.5182   -2.4420    2.2255 H   0  0  0  0  0  0  0  0  0  0  0  0
  1  2  1  0
  1 33  1  0
  1 34  1  0
  1 35  1  0
  2 32  1  0
  2  3  1  0
  2  4  1  0
  3 36  1  0
  3 37  1  0
  3 38  1  0
  4  5  1  0
  4 39  1  0
  4 40  1  0
  5  6  2  0
  5  7  1  0
  7 30  1  0
  7  8  1  0
  7 41  1  1
  8  9  2  0
  8 32  1  0
  9 10  1  0
 10 18  1  0
 10 11  2  0
 11 12  1  0
 11 19  1  0
 12 13  2  0
 12 14  1  0
 14 15  1  0
 14 42  1  0
 14 43  1  0
 15 16  1  0
 15 17  1  0
 15 18  1  0
 16 44  1  0
 16 45  1  0
 16 46  1  0
 17 47  1  0
 17 48  1  0
 17 49  1  0
 18 50  1  0
 18 51  1  0
 19 20  1  0
 19 30  1  0
 19 52  1  6
 20 29  1  0
 20 21  2  0
 21 22  1  0
 21 53  1  0
 22 23  2  0
 23 28  1  0
 23 24  1  0
 24 25  2  0
 24 54  1  0
 25 26  1  0
 25 55  1  0
 26 27  2  0
 26 56  1  0
 27 28  1  0
 27 57  1  0
 28 29  2  0
 29 58  1  0
 30 31  1  0
 30 59  1  6
 32 60  1  0
 32 61  1  0
M  END
>  <i_m_ct_stereo_status>  (205) 
1

>  <s_m_source_file>  (205) 
/var/tmp/pbs.5076255.sched01/tmpe6iyr0oq/80tt78e_gd.sdf

>  <i_m_source_file_index>  (205) 
7

>  <i_lp_mmshare_version>  (205) 
48012

>  <i_f3d_flags>  (205) 
0

>  <s_epik_input>  (205) 
Tz1DMVtDSDJdQyhbQ0gzXSkoW0NIM10pW0NIMl1DKFtDQEhdMTIpPU5DMz1DKEMoPU8pW0NIMl1DKFtDSDNdKShbQ0gzXSlbQ0gyXTMpW0NASF0oW0NAQEhdMkNsKWMoW2NIXW40KVtjSF1jKGM0NSlbY0hdW2NIXVtjSF1bY0hdNQ==

>  <s_epik_cmdline>  (205) 
J2VwaWtfcHl0aG9uJywgJy1waHQnLCAnMi4wJywgJy1waCcsICc3LjAnLCAnLXRuJywgJzgnLCAnLW1hJywgJzIwMCcsICctaW1hZScsICc8aW5maWxlLm1hZT4nLCAnLW9tYWUnLCAnPG91dGZpbGUubWFlPic=

>  <r_lp_tautomer_probability>  (205) 
0.499981

>  <r_epik_Ionization_Penalty>  (205) 
0.00146138

>  <r_epik_Ionization_Penalty_Charging>  (205) 
0

>  <r_epik_Ionization_Penalty_Neutral>  (205) 
0.00146138

>  <r_epik_State_Penalty>  (205) 
0.772126

>  <r_epik_Charging_Adjusted_Penalty>  (205) 
0.772126

>  <i_epik_Tot_Q>  (205) 
0

>  <i_epik_Tot_abs_Q>  (205) 
0

>  <s_epik_Chemistry_Notes>  (205) 
This compound has an imine and may undergo hydrolysis.

>  <s_lp_Force_Field>  (205) 
OPLS3e

>  <r_lp_Energy>  (205) 
51.0669

>  <b_lp_Chiralities_Consistent>  (205) 
1

>  <s_lp_Variant>  (205) 
63:0-1

>  <s_i_glide_gridfile>  (205) 
pfpi4k_grid

>  <i_i_glide_lignum>  (205) 
7

>  <i_i_glide_rotatable_bonds>  (205) 
1

>  <r_i_docking_score>  (205) 
-2.77867

>  <r_i_glide_ligand_efficiency>  (205) 
-0.0868336

>  <r_i_glide_ligand_efficiency_sa>  (205) 
-0.275679

>  <r_i_glide_ligand_efficiency_ln>  (205) 
-0.622221

>  <r_i_glide_gscore>  (205) 
-2.77867

>  <r_i_glide_lipo>  (205) 
-0.19456

>  <r_i_glide_hbond>  (205) 
-0.121069

>  <r_i_glide_metal>  (205) 
-0

>  <r_i_glide_rewards>  (205) 
-0.354337

>  <r_i_glide_evdw>  (205) 
-31.3539

>  <r_i_glide_ecoul>  (205) 
-4.07585

>  <r_i_glide_erotb>  (205) 
0.0993975

>  <r_i_glide_esite>  (205) 
-0.0290321

>  <r_i_glide_emodel>  (205) 
-40.4865

>  <r_i_glide_energy>  (205) 
-35.4298

>  <r_i_glide_einternal>  (205) 
1.63273

>  <r_i_glide_intrahb_reward>  (205) 
-0

>  <i_i_glide_confnum>  (205) 
5

>  <i_i_glide_posenum>  (205) 
20

>  <r_i_glide_eff_state_penalty>  (205) 
0

>  <ligand_id>  (205) 
63

>  <original_smiles>  (205) 
CC1(C)CC(=O)C2C(=NC3=C(C(=O)CC(C)(C)C3)C(c3cnc4ccccc4c3)C2Cl)C1

>  <smiles>  (205) 
[H]c1nc2c([H])c([H])c([H])c([H])c2c([H])c1C1([H])C2=C(N=C3C([H])([H])C(C([H])([H])[H])(C([H])([H])[H])C([H])([H])C(=O)C3([H])C1([H])Cl)C([H])([H])C(C([H])([H])[H])(C([H])([H])[H])C([H])([H])C2=O

$$$$
63:0:2
     RDKit          3D

 61 65  0  0  1  0  0  0  0  0999 V2000
    4.5729   -1.0467   -0.5515 C   0  0  0  0  0  0  0  0  0  0  0  0
    4.6843   -2.5843   -0.5650 C   0  0  0  0  0  0  0  0  0  0  0  0
    4.7427   -3.0934   -2.0203 C   0  0  0  0  0  0  0  0  0  0  0  0
    5.9783   -3.0217    0.1846 C   0  0  0  0  0  0  0  0  0  0  0  0
    5.7476   -3.7189    1.5317 C   0  0  0  0  0  0  0  0  0  0  0  0
    6.4769   -4.6517    1.8654 O   0  0  0  0  0  0  0  0  0  0  0  0
    4.5860   -3.2386    2.4335 C   0  0  1  0  0  0  0  0  0  0  0  0
    3.3497   -2.8704    1.5882 C   0  0  0  0  0  0  0  0  0  0  0  0
    2.2863   -2.3519    2.0331 N   0  0  0  0  0  0  0  0  0  0  0  0
    2.0801   -2.0022    3.3643 C   0  0  0  0  0  0  0  0  0  0  0  0
    2.3024   -2.8458    4.3988 C   0  0  0  0  0  0  0  0  0  0  0  0
    2.0035   -2.3717    5.7876 C   0  0  0  0  0  0  0  0  0  0  0  0
    2.2761   -3.0184    6.7982 O   0  0  0  0  0  0  0  0  0  0  0  0
    1.3743   -0.9884    5.9778 C   0  0  0  0  0  0  0  0  0  0  0  0
    0.5340   -0.5360    4.7684 C   0  0  0  0  0  0  0  0  0  0  0  0
   -0.7443   -1.3924    4.6034 C   0  0  0  0  0  0  0  0  0  0  0  0
    0.1354    0.9351    4.9677 C   0  0  0  0  0  0  0  0  0  0  0  0
    1.4316   -0.6395    3.5175 C   0  0  0  0  0  0  0  0  0  0  0  0
    2.8664   -4.2677    4.2522 C   0  0  1  0  0  0  0  0  0  0  0  0
    1.8792   -5.2714    3.6298 C   0  0  0  0  0  0  0  0  0  0  0  0
    1.8764   -5.5405    2.2394 C   0  0  0  0  0  0  0  0  0  0  0  0
    0.9746   -6.3123    1.6159 N   0  0  0  0  0  0  0  0  0  0  0  0
    0.0965   -6.9964    2.3643 C   0  0  0  0  0  0  0  0  0  0  0  0
   -0.7875   -7.8506    1.6977 C   0  0  0  0  0  0  0  0  0  0  0  0
   -1.7212   -8.6062    2.4120 C   0  0  0  0  0  0  0  0  0  0  0  0
   -1.7885   -8.4602    3.8091 C   0  0  0  0  0  0  0  0  0  0  0  0
   -0.9181   -7.5923    4.4956 C   0  0  0  0  0  0  0  0  0  0  0  0
    0.0337   -6.8551    3.7809 C   0  0  0  0  0  0  0  0  0  0  0  0
    0.9267   -5.9650    4.4254 C   0  0  0  0  0  0  0  0  0  0  0  0
    4.2939   -4.2309    3.6180 C   0  0  2  0  0  0  0  0  0  0  0  0
    5.4041   -3.7696    4.9466 Cl  0  0  0  0  0  0  0  0  0  0  0  0
    3.4251   -3.1856    0.0916 C   0  0  0  0  0  0  0  0  0  0  0  0
    5.3919   -0.5830   -1.0965 H   0  0  0  0  0  0  0  0  0  0  0  0
    4.5915   -0.6571    0.4675 H   0  0  0  0  0  0  0  0  0  0  0  0
    3.6302   -0.7264   -0.9980 H   0  0  0  0  0  0  0  0  0  0  0  0
    4.8148   -4.1836   -2.0493 H   0  0  0  0  0  0  0  0  0  0  0  0
    5.6047   -2.6914   -2.5516 H   0  0  0  0  0  0  0  0  0  0  0  0
    3.8406   -2.8200   -2.5712 H   0  0  0  0  0  0  0  0  0  0  0  0
    6.5668   -3.6898   -0.4502 H   0  0  0  0  0  0  0  0  0  0  0  0
    6.6065   -2.1564    0.3738 H   0  0  0  0  0  0  0  0  0  0  0  0
    4.9469   -2.2979    2.8701 H   0  0  0  0  0  0  0  0  0  0  0  0
    0.7649   -0.9987    6.8776 H   0  0  0  0  0  0  0  0  0  0  0  0
    2.1857   -0.2772    6.1507 H   0  0  0  0  0  0  0  0  0  0  0  0
   -1.3291   -1.0292    3.7596 H   0  0  0  0  0  0  0  0  0  0  0  0
   -1.3851   -1.3536    5.4848 H   0  0  0  0  0  0  0  0  0  0  0  0
   -0.5214   -2.4411    4.4070 H   0  0  0  0  0  0  0  0  0  0  0  0
   -0.4120    1.3195    4.1051 H   0  0  0  0  0  0  0  0  0  0  0  0
    1.0218    1.5564    5.0869 H   0  0  0  0  0  0  0  0  0  0  0  0
   -0.4841    1.0718    5.8524 H   0  0  0  0  0  0  0  0  0  0  0  0
    2.2401    0.0909    3.5776 H   0  0  0  0  0  0  0  0  0  0  0  0
    0.8474   -0.4033    2.6313 H   0  0  0  0  0  0  0  0  0  0  0  0
    3.0283   -4.6855    5.2437 H   0  0  0  0  0  0  0  0  0  0  0  0
    2.6135   -5.1742    1.5659 H   0  0  0  0  0  0  0  0  0  0  0  0
   -0.7174   -7.9091    0.6227 H   0  0  0  0  0  0  0  0  0  0  0  0
   -2.3772   -9.2831    1.8922 H   0  0  0  0  0  0  0  0  0  0  0  0
   -2.5048   -9.0473    4.3695 H   0  0  0  0  0  0  0  0  0  0  0  0
   -0.9559   -7.5047    5.5641 H   0  0  0  0  0  0  0  0  0  0  0  0
    0.8872   -5.8294    5.4966 H   0  0  0  0  0  0  0  0  0  0  0  0
    4.5682   -5.2552    3.3602 H   0  0  0  0  0  0  0  0  0  0  0  0
    2.5276   -2.8222   -0.4063 H   0  0  0  0  0  0  0  0  0  0  0  0
    3.4489   -4.2604   -0.0580 H   0  0  0  0  0  0  0  0  0  0  0  0
  1  2  1  0
  1 33  1  0
  1 34  1  0
  1 35  1  0
  2 32  1  0
  2  3  1  0
  2  4  1  0
  3 36  1  0
  3 37  1  0
  3 38  1  0
  4  5  1  0
  4 39  1  0
  4 40  1  0
  5  6  2  0
  5  7  1  0
  7 30  1  0
  7  8  1  0
  7 41  1  1
  8  9  2  0
  8 32  1  0
  9 10  1  0
 10 18  1  0
 10 11  2  0
 11 12  1  0
 11 19  1  0
 12 13  2  0
 12 14  1  0
 14 15  1  0
 14 42  1  0
 14 43  1  0
 15 16  1  0
 15 17  1  0
 15 18  1  0
 16 44  1  0
 16 45  1  0
 16 46  1  0
 17 47  1  0
 17 48  1  0
 17 49  1  0
 18 50  1  0
 18 51  1  0
 19 20  1  0
 19 30  1  0
 19 52  1  1
 20 29  1  0
 20 21  2  0
 21 22  1  0
 21 53  1  0
 22 23  2  0
 23 28  1  0
 23 24  1  0
 24 25  2  0
 24 54  1  0
 25 26  1  0
 25 55  1  0
 26 27  2  0
 26 56  1  0
 27 28  1  0
 27 57  1  0
 28 29  2  0
 29 58  1  0
 30 31  1  0
 30 59  1  6
 32 60  1  0
 32 61  1  0
M  END
>  <i_m_ct_stereo_status>  (206) 
1

>  <s_m_source_file>  (206) 
/var/tmp/pbs.5076255.sched01/tmpe6iyr0oq/80tt78e_gd.sdf

>  <i_m_source_file_index>  (206) 
7

>  <i_lp_mmshare_version>  (206) 
48012

>  <i_f3d_flags>  (206) 
0

>  <s_epik_input>  (206) 
Tz1DMVtDSDJdQyhbQ0gzXSkoW0NIM10pW0NIMl1DKFtDQEhdMTIpPU5DMz1DKEMoPU8pW0NIMl1DKFtDSDNdKShbQ0gzXSlbQ0gyXTMpW0NASF0oW0NAQEhdMkNsKWMoW2NIXW40KVtjSF1jKGM0NSlbY0hdW2NIXVtjSF1bY0hdNQ==

>  <s_epik_cmdline>  (206) 
J2VwaWtfcHl0aG9uJywgJy1waHQnLCAnMi4wJywgJy1waCcsICc3LjAnLCAnLXRuJywgJzgnLCAnLW1hJywgJzIwMCcsICctaW1hZScsICc8aW5maWxlLm1hZT4nLCAnLW9tYWUnLCAnPG91dGZpbGUubWFlPic=

>  <r_lp_tautomer_probability>  (206) 
0.499981

>  <r_epik_Ionization_Penalty>  (206) 
0.00146138

>  <r_epik_Ionization_Penalty_Charging>  (206) 
0

>  <r_epik_Ionization_Penalty_Neutral>  (206) 
0.00146138

>  <r_epik_State_Penalty>  (206) 
0.772126

>  <r_epik_Charging_Adjusted_Penalty>  (206) 
0.772126

>  <i_epik_Tot_Q>  (206) 
0

>  <i_epik_Tot_abs_Q>  (206) 
0

>  <s_epik_Chemistry_Notes>  (206) 
This compound has an imine and may undergo hydrolysis.

>  <s_lp_Force_Field>  (206) 
OPLS3e

>  <r_lp_Energy>  (206) 
51.0669

>  <b_lp_Chiralities_Consistent>  (206) 
1

>  <s_lp_Variant>  (206) 
63:0-1

>  <s_i_glide_gridfile>  (206) 
pfpi4k_grid

>  <i_i_glide_lignum>  (206) 
7

>  <i_i_glide_rotatable_bonds>  (206) 
1

>  <r_i_docking_score>  (206) 
-2.47352

>  <r_i_glide_ligand_efficiency>  (206) 
-0.0772976

>  <r_i_glide_ligand_efficiency_sa>  (206) 
-0.245405

>  <r_i_glide_ligand_efficiency_ln>  (206) 
-0.553889

>  <r_i_glide_gscore>  (206) 
-2.47352

>  <r_i_glide_lipo>  (206) 
-0.333859

>  <r_i_glide_hbond>  (206) 
-0.110118

>  <r_i_glide_metal>  (206) 
-0

>  <r_i_glide_rewards>  (206) 
-0.432334

>  <r_i_glide_evdw>  (206) 
-30.2428

>  <r_i_glide_ecoul>  (206) 
-1.20299

>  <r_i_glide_erotb>  (206) 
0.0993975

>  <r_i_glide_esite>  (206) 
-0.00402109

>  <r_i_glide_emodel>  (206) 
-35.0794

>  <r_i_glide_energy>  (206) 
-31.4458

>  <r_i_glide_einternal>  (206) 
1.50212

>  <r_i_glide_intrahb_reward>  (206) 
-0

>  <i_i_glide_confnum>  (206) 
5

>  <i_i_glide_posenum>  (206) 
9

>  <r_i_glide_eff_state_penalty>  (206) 
0

>  <ligand_id>  (206) 
63

>  <original_smiles>  (206) 
CC1(C)CC(=O)C2C(=NC3=C(C(=O)CC(C)(C)C3)C(c3cnc4ccccc4c3)C2Cl)C1

>  <smiles>  (206) 
[H]c1nc2c([H])c([H])c([H])c([H])c2c([H])c1C1([H])C2=C(N=C3C([H])([H])C(C([H])([H])[H])(C([H])([H])[H])C([H])([H])C(=O)C3([H])C1([H])Cl)C([H])([H])C(C([H])([H])[H])(C([H])([H])[H])C([H])([H])C2=O

$$$$
63:1:0
     RDKit          3D

 61 65  0  0  1  0  0  0  0  0999 V2000
    4.9794   -4.3176    0.1422 C   0  0  0  0  0  0  0  0  0  0  0  0
    3.9481   -3.7665    1.1476 C   0  0  0  0  0  0  0  0  0  0  0  0
    3.0484   -2.7171    0.4624 C   0  0  0  0  0  0  0  0  0  0  0  0
    3.1275   -4.9513    1.6930 C   0  0  0  0  0  0  0  0  0  0  0  0
    2.2372   -4.5812    2.8819 C   0  0  0  0  0  0  0  0  0  0  0  0
    1.1053   -5.0561    2.9408 O   0  0  0  0  0  0  0  0  0  0  0  0
    2.7942   -3.6327    3.9777 C   0  0  1  0  0  0  0  0  0  0  0  0
    4.1706   -3.0811    3.5664 C   0  0  0  0  0  0  0  0  0  0  0  0
    5.0109   -2.6186    4.5651 N   0  0  0  0  0  0  0  0  0  0  0  0
    4.7346   -1.5523    5.1917 C   0  0  0  0  0  0  0  0  0  0  0  0
    3.5325   -0.6634    4.8302 C   0  0  2  0  0  0  0  0  0  0  0  0
    3.7500    0.8069    5.2571 C   0  0  0  0  0  0  0  0  0  0  0  0
    3.2296    1.7195    4.6210 O   0  0  0  0  0  0  0  0  0  0  0  0
    4.6212    1.1266    6.4756 C   0  0  0  0  0  0  0  0  0  0  0  0
    5.9328    0.3183    6.4854 C   0  0  0  0  0  0  0  0  0  0  0  0
    6.8643    0.7179    5.3128 C   0  0  0  0  0  0  0  0  0  0  0  0
    6.6624    0.5857    7.8141 C   0  0  0  0  0  0  0  0  0  0  0  0
    5.5670   -1.1727    6.4106 C   0  0  0  0  0  0  0  0  0  0  0  0
    2.2162   -1.3489    5.3191 C   0  0  1  0  0  0  0  0  0  0  0  0
    1.0561   -0.3685    5.5659 C   0  0  0  0  0  0  0  0  0  0  0  0
    0.3020    0.1577    4.4935 C   0  0  0  0  0  0  0  0  0  0  0  0
   -0.7448    0.9873    4.6544 N   0  0  0  0  0  0  0  0  0  0  0  0
   -1.0909    1.3759    5.8985 C   0  0  0  0  0  0  0  0  0  0  0  0
   -2.1782    2.2528    6.0778 C   0  0  0  0  0  0  0  0  0  0  0  0
   -2.5726    2.6698    7.3618 C   0  0  0  0  0  0  0  0  0  0  0  0
   -1.8740    2.2116    8.4939 C   0  0  0  0  0  0  0  0  0  0  0  0
   -0.7813    1.3372    8.3361 C   0  0  0  0  0  0  0  0  0  0  0  0
   -0.3923    0.9133    7.0466 C   0  0  0  0  0  0  0  0  0  0  0  0
    0.6943    0.0301    6.8740 C   0  0  0  0  0  0  0  0  0  0  0  0
    1.7539   -2.5295    4.3903 C   0  0  2  0  0  0  0  0  0  0  0  0
    0.3708   -3.3011    5.2321 Cl  0  0  0  0  0  0  0  0  0  0  0  0
    4.6614   -3.1091    2.3093 C   0  0  0  0  0  0  0  0  0  0  0  0
    4.4922   -4.8236   -0.6898 H   0  0  0  0  0  0  0  0  0  0  0  0
    5.6436   -5.0416    0.6157 H   0  0  0  0  0  0  0  0  0  0  0  0
    5.6038   -3.5262   -0.2725 H   0  0  0  0  0  0  0  0  0  0  0  0
    2.4735   -3.1510   -0.3558 H   0  0  0  0  0  0  0  0  0  0  0  0
    3.6390   -1.8919    0.0597 H   0  0  0  0  0  0  0  0  0  0  0  0
    2.3384   -2.2791    1.1665 H   0  0  0  0  0  0  0  0  0  0  0  0
    2.5232   -5.3828    0.8997 H   0  0  0  0  0  0  0  0  0  0  0  0
    3.7949   -5.7431    2.0280 H   0  0  0  0  0  0  0  0  0  0  0  0
    2.9787   -4.2579    4.8505 H   0  0  0  0  0  0  0  0  0  0  0  0
    4.8442    2.1919    6.4868 H   0  0  0  0  0  0  0  0  0  0  0  0
    4.0402    0.9262    7.3769 H   0  0  0  0  0  0  0  0  0  0  0  0
    7.7935    0.1457    5.3242 H   0  0  0  0  0  0  0  0  0  0  0  0
    7.1401    1.7690    5.3636 H   0  0  0  0  0  0  0  0  0  0  0  0
    6.4028    0.5511    4.3373 H   0  0  0  0  0  0  0  0  0  0  0  0
    7.5781   -0.0023    7.8904 H   0  0  0  0  0  0  0  0  0  0  0  0
    6.0311    0.3178    8.6622 H   0  0  0  0  0  0  0  0  0  0  0  0
    6.9274    1.6374    7.9225 H   0  0  0  0  0  0  0  0  0  0  0  0
    6.4760   -1.7734    6.4281 H   0  0  0  0  0  0  0  0  0  0  0  0
    4.9987   -1.4568    7.2989 H   0  0  0  0  0  0  0  0  0  0  0  0
    2.4316   -1.7905    6.2951 H   0  0  0  0  0  0  0  0  0  0  0  0
    0.5314   -0.0947    3.4669 H   0  0  0  0  0  0  0  0  0  0  0  0
   -2.7091    2.6039    5.2074 H   0  0  0  0  0  0  0  0  0  0  0  0
   -3.4089    3.3425    7.4811 H   0  0  0  0  0  0  0  0  0  0  0  0
   -2.1733    2.5339    9.4842 H   0  0  0  0  0  0  0  0  0  0  0  0
   -0.2478    0.9936    9.2087 H   0  0  0  0  0  0  0  0  0  0  0  0
    1.2400   -0.3329    7.7325 H   0  0  0  0  0  0  0  0  0  0  0  0
    1.3657   -2.1189    3.4594 H   0  0  0  0  0  0  0  0  0  0  0  0
    5.6575   -2.7306    2.1151 H   0  0  0  0  0  0  0  0  0  0  0  0
    3.4749   -0.5959    3.7415 H   0  0  0  0  0  0  0  0  0  0  0  0
  1  2  1  0
  1 33  1  0
  1 34  1  0
  1 35  1  0
  2  3  1  0
  2  4  1  0
  2 32  1  0
  3 36  1  0
  3 37  1  0
  3 38  1  0
  4  5  1  0
  4 39  1  0
  4 40  1  0
  5  6  2  0
  5  7  1  0
  7 30  1  0
  7 41  1  1
  7  8  1  0
  8  9  1  0
  8 32  2  0
  9 10  2  0
 10 11  1  0
 10 18  1  0
 11 12  1  0
 11 19  1  0
 11 61  1  6
 12 13  2  0
 12 14  1  0
 14 15  1  0
 14 42  1  0
 14 43  1  0
 15 16  1  0
 15 17  1  0
 15 18  1  0
 16 44  1  0
 16 45  1  0
 16 46  1  0
 17 47  1  0
 17 48  1  0
 17 49  1  0
 18 50  1  0
 18 51  1  0
 19 20  1  0
 19 30  1  0
 19 52  1  1
 20 29  1  0
 20 21  2  0
 21 22  1  0
 21 53  1  0
 22 23  2  0
 23 28  1  0
 23 24  1  0
 24 25  2  0
 24 54  1  0
 25 26  1  0
 25 55  1  0
 26 27  2  0
 26 56  1  0
 27 28  1  0
 27 57  1  0
 28 29  2  0
 29 58  1  0
 30 31  1  0
 30 59  1  6
 32 60  1  0
M  END
>  <i_m_ct_stereo_status>  (207) 
1

>  <s_m_source_file>  (207) 
/var/tmp/pbs.5076255.sched01/tmpe6iyr0oq/80tt78e_gd.sdf

>  <i_m_source_file_index>  (207) 
8

>  <i_lp_mmshare_version>  (207) 
48012

>  <i_f3d_flags>  (207) 
0

>  <s_epik_input>  (207) 
Tz1DMVtDSDJdQyhbQ0gzXSkoW0NIM10pW0NIMl1DKFtDQEhdMTIpPU5DMz1DKEMoPU8pW0NIMl1DKFtDSDNdKShbQ0gzXSlbQ0gyXTMpW0NASF0oW0NAQEhdMkNsKWMoW2NIXW40KVtjSF1jKGM0NSlbY0hdW2NIXVtjSF1bY0hdNQ==

>  <s_epik_cmdline>  (207) 
J2VwaWtfcHl0aG9uJywgJy1waHQnLCAnMi4wJywgJy1waCcsICc3LjAnLCAnLXRuJywgJzgnLCAnLW1hJywgJzIwMCcsICctaW1hZScsICc8aW5maWxlLm1hZT4nLCAnLW9tYWUnLCAnPG91dGZpbGUubWFlPic=

>  <r_lp_tautomer_probability>  (207) 
0.499981

>  <r_epik_Ionization_Penalty>  (207) 
0.00183805

>  <r_epik_Ionization_Penalty_Charging>  (207) 
0

>  <r_epik_Ionization_Penalty_Neutral>  (207) 
0.00183805

>  <r_epik_State_Penalty>  (207) 
0.772126

>  <r_epik_Charging_Adjusted_Penalty>  (207) 
0.772126

>  <i_epik_Tot_Q>  (207) 
0

>  <i_epik_Tot_abs_Q>  (207) 
0

>  <s_epik_Chemistry_Notes>  (207) 
This compound has an imine and may undergo hydrolysis.

>  <s_lp_Force_Field>  (207) 
OPLS3e

>  <r_lp_Energy>  (207) 
47.0868

>  <b_lp_Chiralities_Consistent>  (207) 
1

>  <s_lp_Variant>  (207) 
63:0-2

>  <s_i_glide_gridfile>  (207) 
pfpi4k_grid

>  <i_i_glide_lignum>  (207) 
8

>  <i_i_glide_rotatable_bonds>  (207) 
1

>  <r_i_docking_score>  (207) 
-2.24415

>  <r_i_glide_ligand_efficiency>  (207) 
-0.0701297

>  <r_i_glide_ligand_efficiency_sa>  (207) 
-0.222648

>  <r_i_glide_ligand_efficiency_ln>  (207) 
-0.502526

>  <r_i_glide_gscore>  (207) 
-2.24415

>  <r_i_glide_lipo>  (207) 
-0.604493

>  <r_i_glide_hbond>  (207) 
0

>  <r_i_glide_metal>  (207) 
-0

>  <r_i_glide_rewards>  (207) 
-0.377866

>  <r_i_glide_evdw>  (207) 
-25.8681

>  <r_i_glide_ecoul>  (207) 
-0.415061

>  <r_i_glide_erotb>  (207) 
0.0993975

>  <r_i_glide_esite>  (207) 
-0.00552435

>  <r_i_glide_emodel>  (207) 
-30.2138

>  <r_i_glide_energy>  (207) 
-26.2831

>  <r_i_glide_einternal>  (207) 
0.191788

>  <r_i_glide_intrahb_reward>  (207) 
-0

>  <i_i_glide_confnum>  (207) 
2

>  <i_i_glide_posenum>  (207) 
22

>  <r_i_glide_eff_state_penalty>  (207) 
0

>  <ligand_id>  (207) 
63

>  <original_smiles>  (207) 
CC1(C)CC(=O)C2C(=NC3=C(C(=O)CC(C)(C)C3)C(c3cnc4ccccc4c3)C2Cl)C1

>  <smiles>  (207) 
[H]C1=C2N=C3C([H])([H])C(C([H])([H])[H])(C([H])([H])[H])C([H])([H])C(=O)C3([H])C([H])(c3c([H])nc4c([H])c([H])c([H])c([H])c4c3[H])C([H])(Cl)C2([H])C(=O)C([H])([H])C1(C([H])([H])[H])C([H])([H])[H]

$$$$
63:1:1
     RDKit          3D

 61 65  0  0  1  0  0  0  0  0999 V2000
    1.9164    2.1885    3.1061 C   0  0  0  0  0  0  0  0  0  0  0  0
    2.0833    0.6582    3.0238 C   0  0  0  0  0  0  0  0  0  0  0  0
    0.8709    0.0335    2.3085 C   0  0  0  0  0  0  0  0  0  0  0  0
    3.3968    0.3560    2.2815 C   0  0  0  0  0  0  0  0  0  0  0  0
    3.8154   -1.1128    2.3466 C   0  0  0  0  0  0  0  0  0  0  0  0
    4.3018   -1.6354    1.3484 O   0  0  0  0  0  0  0  0  0  0  0  0
    3.6466   -1.8870    3.6828 C   0  0  1  0  0  0  0  0  0  0  0  0
    2.9000   -1.0258    4.7180 C   0  0  0  0  0  0  0  0  0  0  0  0
    3.0527   -1.3359    6.0603 N   0  0  0  0  0  0  0  0  0  0  0  0
    2.5547   -2.4019    6.5309 C   0  0  0  0  0  0  0  0  0  0  0  0
    1.6777   -3.3504    5.6955 C   0  0  2  0  0  0  0  0  0  0  0  0
    0.7059   -4.1695    6.5782 C   0  0  0  0  0  0  0  0  0  0  0  0
   -0.3923   -4.5087    6.1415 O   0  0  0  0  0  0  0  0  0  0  0  0
    1.1033   -4.5350    8.0119 C   0  0  0  0  0  0  0  0  0  0  0  0
    1.7097   -3.3386    8.7693 C   0  0  0  0  0  0  0  0  0  0  0  0
    0.6663   -2.2143    9.0002 C   0  0  0  0  0  0  0  0  0  0  0  0
    2.2209   -3.8325   10.1345 C   0  0  0  0  0  0  0  0  0  0  0  0
    2.9040   -2.8187    7.9531 C   0  0  0  0  0  0  0  0  0  0  0  0
    2.5819   -4.1574    4.7099 C   0  0  1  0  0  0  0  0  0  0  0  0
    1.9770   -5.5007    4.2684 C   0  0  0  0  0  0  0  0  0  0  0  0
    0.9790   -5.5483    3.2792 C   0  0  0  0  0  0  0  0  0  0  0  0
    0.4042   -6.6801    2.8278 N   0  0  0  0  0  0  0  0  0  0  0  0
    0.8165   -7.8635    3.3419 C   0  0  0  0  0  0  0  0  0  0  0  0
    0.2512   -9.0685    2.8788 C   0  0  0  0  0  0  0  0  0  0  0  0
    0.6603  -10.3097    3.3990 C   0  0  0  0  0  0  0  0  0  0  0  0
    1.6460  -10.3627    4.4007 C   0  0  0  0  0  0  0  0  0  0  0  0
    2.2281   -9.1701    4.8744 C   0  0  0  0  0  0  0  0  0  0  0  0
    1.8183   -7.9268    4.3485 C   0  0  0  0  0  0  0  0  0  0  0  0
    2.4047   -6.7299    4.8166 C   0  0  0  0  0  0  0  0  0  0  0  0
    3.0295   -3.3134    3.4610 C   0  0  2  0  0  0  0  0  0  0  0  0
    4.2058   -4.3358    2.5758 Cl  0  0  0  0  0  0  0  0  0  0  0  0
    2.1807    0.0743    4.4172 C   0  0  0  0  0  0  0  0  0  0  0  0
    1.8728    2.6389    2.1157 H   0  0  0  0  0  0  0  0  0  0  0  0
    2.7530    2.6492    3.6332 H   0  0  0  0  0  0  0  0  0  0  0  0
    1.0038    2.4690    3.6325 H   0  0  0  0  0  0  0  0  0  0  0  0
    0.7886    0.3864    1.2806 H   0  0  0  0  0  0  0  0  0  0  0  0
   -0.0605    0.2684    2.8281 H   0  0  0  0  0  0  0  0  0  0  0  0
    0.9536   -1.0547    2.2745 H   0  0  0  0  0  0  0  0  0  0  0  0
    3.3262    0.6758    1.2454 H   0  0  0  0  0  0  0  0  0  0  0  0
    4.2048    0.9336    2.7255 H   0  0  0  0  0  0  0  0  0  0  0  0
    4.6520   -2.0203    4.0800 H   0  0  0  0  0  0  0  0  0  0  0  0
    0.2285   -4.9024    8.5454 H   0  0  0  0  0  0  0  0  0  0  0  0
    1.8109   -5.3647    7.9760 H   0  0  0  0  0  0  0  0  0  0  0  0
    1.1093   -1.3692    9.5310 H   0  0  0  0  0  0  0  0  0  0  0  0
   -0.1790   -2.5712    9.5899 H   0  0  0  0  0  0  0  0  0  0  0  0
    0.2683   -1.8197    8.0634 H   0  0  0  0  0  0  0  0  0  0  0  0
    2.7066   -3.0305   10.6925 H   0  0  0  0  0  0  0  0  0  0  0  0
    2.9548   -4.6295   10.0074 H   0  0  0  0  0  0  0  0  0  0  0  0
    1.4123   -4.2278   10.7495 H   0  0  0  0  0  0  0  0  0  0  0  0
    3.3646   -1.9774    8.4692 H   0  0  0  0  0  0  0  0  0  0  0  0
    3.6713   -3.5935    7.8904 H   0  0  0  0  0  0  0  0  0  0  0  0
    3.4929   -4.4211    5.2509 H   0  0  0  0  0  0  0  0  0  0  0  0
    0.6131   -4.6356    2.8337 H   0  0  0  0  0  0  0  0  0  0  0  0
   -0.5037   -9.0472    2.1072 H   0  0  0  0  0  0  0  0  0  0  0  0
    0.2157  -11.2253    3.0352 H   0  0  0  0  0  0  0  0  0  0  0  0
    1.9551  -11.3170    4.8097 H   0  0  0  0  0  0  0  0  0  0  0  0
    2.9845   -9.2196    5.6402 H   0  0  0  0  0  0  0  0  0  0  0  0
    3.1671   -6.7583    5.5802 H   0  0  0  0  0  0  0  0  0  0  0  0
    2.1794   -3.1671    2.7961 H   0  0  0  0  0  0  0  0  0  0  0  0
    1.7172    0.6441    5.2129 H   0  0  0  0  0  0  0  0  0  0  0  0
    1.0013   -2.7422    5.0905 H   0  0  0  0  0  0  0  0  0  0  0  0
  1  2  1  0
  1 33  1  0
  1 34  1  0
  1 35  1  0
  2  3  1  0
  2  4  1  0
  2 32  1  0
  3 36  1  0
  3 37  1  0
  3 38  1  0
  4  5  1  0
  4 39  1  0
  4 40  1  0
  5  6  2  0
  5  7  1  0
  7 30  1  0
  7 41  1  1
  7  8  1  0
  8  9  1  0
  8 32  2  0
  9 10  2  0
 10 11  1  0
 10 18  1  0
 11 12  1  0
 11 19  1  0
 11 61  1  6
 12 13  2  0
 12 14  1  0
 14 15  1  0
 14 42  1  0
 14 43  1  0
 15 16  1  0
 15 17  1  0
 15 18  1  0
 16 44  1  0
 16 45  1  0
 16 46  1  0
 17 47  1  0
 17 48  1  0
 17 49  1  0
 18 50  1  0
 18 51  1  0
 19 20  1  0
 19 30  1  0
 19 52  1  1
 20 29  1  0
 20 21  2  0
 21 22  1  0
 21 53  1  0
 22 23  2  0
 23 28  1  0
 23 24  1  0
 24 25  2  0
 24 54  1  0
 25 26  1  0
 25 55  1  0
 26 27  2  0
 26 56  1  0
 27 28  1  0
 27 57  1  0
 28 29  2  0
 29 58  1  0
 30 31  1  0
 30 59  1  6
 32 60  1  0
M  END
>  <i_m_ct_stereo_status>  (208) 
1

>  <s_m_source_file>  (208) 
/var/tmp/pbs.5076255.sched01/tmpe6iyr0oq/80tt78e_gd.sdf

>  <i_m_source_file_index>  (208) 
8

>  <i_lp_mmshare_version>  (208) 
48012

>  <i_f3d_flags>  (208) 
0

>  <s_epik_input>  (208) 
Tz1DMVtDSDJdQyhbQ0gzXSkoW0NIM10pW0NIMl1DKFtDQEhdMTIpPU5DMz1DKEMoPU8pW0NIMl1DKFtDSDNdKShbQ0gzXSlbQ0gyXTMpW0NASF0oW0NAQEhdMkNsKWMoW2NIXW40KVtjSF1jKGM0NSlbY0hdW2NIXVtjSF1bY0hdNQ==

>  <s_epik_cmdline>  (208) 
J2VwaWtfcHl0aG9uJywgJy1waHQnLCAnMi4wJywgJy1waCcsICc3LjAnLCAnLXRuJywgJzgnLCAnLW1hJywgJzIwMCcsICctaW1hZScsICc8aW5maWxlLm1hZT4nLCAnLW9tYWUnLCAnPG91dGZpbGUubWFlPic=

>  <r_lp_tautomer_probability>  (208) 
0.499981

>  <r_epik_Ionization_Penalty>  (208) 
0.00183805

>  <r_epik_Ionization_Penalty_Charging>  (208) 
0

>  <r_epik_Ionization_Penalty_Neutral>  (208) 
0.00183805

>  <r_epik_State_Penalty>  (208) 
0.772126

>  <r_epik_Charging_Adjusted_Penalty>  (208) 
0.772126

>  <i_epik_Tot_Q>  (208) 
0

>  <i_epik_Tot_abs_Q>  (208) 
0

>  <s_epik_Chemistry_Notes>  (208) 
This compound has an imine and may undergo hydrolysis.

>  <s_lp_Force_Field>  (208) 
OPLS3e

>  <r_lp_Energy>  (208) 
47.0868

>  <b_lp_Chiralities_Consistent>  (208) 
1

>  <s_lp_Variant>  (208) 
63:0-2

>  <s_i_glide_gridfile>  (208) 
pfpi4k_grid

>  <i_i_glide_lignum>  (208) 
8

>  <i_i_glide_rotatable_bonds>  (208) 
1

>  <r_i_docking_score>  (208) 
-2.01998

>  <r_i_glide_ligand_efficiency>  (208) 
-0.0631245

>  <r_i_glide_ligand_efficiency_sa>  (208) 
-0.200408

>  <r_i_glide_ligand_efficiency_ln>  (208) 
-0.45233

>  <r_i_glide_gscore>  (208) 
-2.01998

>  <r_i_glide_lipo>  (208) 
-0.054642

>  <r_i_glide_hbond>  (208) 
-0.00207769

>  <r_i_glide_metal>  (208) 
-0

>  <r_i_glide_rewards>  (208) 
-0.355718

>  <r_i_glide_evdw>  (208) 
-25.2063

>  <r_i_glide_ecoul>  (208) 
-2.95811

>  <r_i_glide_erotb>  (208) 
0.0993975

>  <r_i_glide_esite>  (208) 
-0.00291323

>  <r_i_glide_emodel>  (208) 
-31.6541

>  <r_i_glide_energy>  (208) 
-28.1644

>  <r_i_glide_einternal>  (208) 
0.203244

>  <r_i_glide_intrahb_reward>  (208) 
-0

>  <i_i_glide_confnum>  (208) 
2

>  <i_i_glide_posenum>  (208) 
2

>  <r_i_glide_eff_state_penalty>  (208) 
0

>  <ligand_id>  (208) 
63

>  <original_smiles>  (208) 
CC1(C)CC(=O)C2C(=NC3=C(C(=O)CC(C)(C)C3)C(c3cnc4ccccc4c3)C2Cl)C1

>  <smiles>  (208) 
[H]C1=C2N=C3C([H])([H])C(C([H])([H])[H])(C([H])([H])[H])C([H])([H])C(=O)C3([H])C([H])(c3c([H])nc4c([H])c([H])c([H])c([H])c4c3[H])C([H])(Cl)C2([H])C(=O)C([H])([H])C1(C([H])([H])[H])C([H])([H])[H]

$$$$
63:1:2
     RDKit          3D

 61 65  0  0  1  0  0  0  0  0999 V2000
   -2.3611    2.7943    4.1504 C   0  0  0  0  0  0  0  0  0  0  0  0
   -1.0539    1.9915    4.0037 C   0  0  0  0  0  0  0  0  0  0  0  0
   -0.9419    1.4020    2.5841 C   0  0  0  0  0  0  0  0  0  0  0  0
    0.1221    2.9357    4.3141 C   0  0  0  0  0  0  0  0  0  0  0  0
    1.4622    2.2130    4.4492 C   0  0  0  0  0  0  0  0  0  0  0  0
    2.4691    2.7386    3.9834 O   0  0  0  0  0  0  0  0  0  0  0  0
    1.5161    0.8529    5.1953 C   0  0  1  0  0  0  0  0  0  0  0  0
    0.0952    0.3743    5.5600 C   0  0  0  0  0  0  0  0  0  0  0  0
   -0.0550   -0.5397    6.5934 N   0  0  0  0  0  0  0  0  0  0  0  0
    0.3711   -1.7271    6.4606 C   0  0  0  0  0  0  0  0  0  0  0  0
    0.9405   -2.2633    5.1353 C   0  0  2  0  0  0  0  0  0  0  0  0
    0.7813   -3.7995    5.0188 C   0  0  0  0  0  0  0  0  0  0  0  0
    0.6424   -4.3321    3.9218 O   0  0  0  0  0  0  0  0  0  0  0  0
    0.7774   -4.6665    6.2799 C   0  0  0  0  0  0  0  0  0  0  0  0
   -0.1018   -4.0734    7.3947 C   0  0  0  0  0  0  0  0  0  0  0  0
   -1.5991   -4.0689    7.0023 C   0  0  0  0  0  0  0  0  0  0  0  0
    0.0774   -4.9251    8.6621 C   0  0  0  0  0  0  0  0  0  0  0  0
    0.3961   -2.6468    7.6754 C   0  0  0  0  0  0  0  0  0  0  0  0
    2.3762   -1.6943    4.9110 C   0  0  1  0  0  0  0  0  0  0  0  0
    3.2561   -2.5678    4.0043 C   0  0  0  0  0  0  0  0  0  0  0  0
    4.3216   -3.3195    4.5434 C   0  0  0  0  0  0  0  0  0  0  0  0
    5.1275   -4.1037    3.8032 N   0  0  0  0  0  0  0  0  0  0  0  0
    4.9273   -4.1785    2.4688 C   0  0  0  0  0  0  0  0  0  0  0  0
    5.7663   -4.9904    1.6794 C   0  0  0  0  0  0  0  0  0  0  0  0
    5.5727   -5.0922    0.2904 C   0  0  0  0  0  0  0  0  0  0  0  0
    4.5377   -4.3715   -0.3354 C   0  0  0  0  0  0  0  0  0  0  0  0
    3.6934   -3.5504    0.4352 C   0  0  0  0  0  0  0  0  0  0  0  0
    3.8854   -3.4575    1.8294 C   0  0  0  0  0  0  0  0  0  0  0  0
    3.0410   -2.6431    2.6092 C   0  0  0  0  0  0  0  0  0  0  0  0
    2.3865   -0.2051    4.4223 C   0  0  2  0  0  0  0  0  0  0  0  0
    4.1058    0.3081    4.4540 Cl  0  0  0  0  0  0  0  0  0  0  0  0
   -1.0344    0.8556    5.0019 C   0  0  0  0  0  0  0  0  0  0  0  0
   -2.3913    3.6361    3.4625 H   0  0  0  0  0  0  0  0  0  0  0  0
   -2.4761    3.1876    5.1620 H   0  0  0  0  0  0  0  0  0  0  0  0
   -3.2299    2.1734    3.9396 H   0  0  0  0  0  0  0  0  0  0  0  0
   -0.9013    2.1815    1.8264 H   0  0  0  0  0  0  0  0  0  0  0  0
   -1.7842    0.7535    2.3546 H   0  0  0  0  0  0  0  0  0  0  0  0
   -0.0469    0.7897    2.4695 H   0  0  0  0  0  0  0  0  0  0  0  0
    0.1948    3.7069    3.5509 H   0  0  0  0  0  0  0  0  0  0  0  0
   -0.0556    3.4537    5.2535 H   0  0  0  0  0  0  0  0  0  0  0  0
    2.0113    1.0575    6.1439 H   0  0  0  0  0  0  0  0  0  0  0  0
    0.4233   -5.6643    6.0224 H   0  0  0  0  0  0  0  0  0  0  0  0
    1.8077   -4.7850    6.6201 H   0  0  0  0  0  0  0  0  0  0  0  0
   -2.2195   -3.6669    7.8017 H   0  0  0  0  0  0  0  0  0  0  0  0
   -1.9674   -5.0735    6.7899 H   0  0  0  0  0  0  0  0  0  0  0  0
   -1.7838   -3.4567    6.1177 H   0  0  0  0  0  0  0  0  0  0  0  0
   -0.4881   -4.5164    9.5007 H   0  0  0  0  0  0  0  0  0  0  0  0
    1.1257   -4.9555    8.9595 H   0  0  0  0  0  0  0  0  0  0  0  0
   -0.2461   -5.9537    8.5025 H   0  0  0  0  0  0  0  0  0  0  0  0
   -0.1898   -2.2015    8.4755 H   0  0  0  0  0  0  0  0  0  0  0  0
    1.4245   -2.6847    8.0420 H   0  0  0  0  0  0  0  0  0  0  0  0
    2.8754   -1.7014    5.8825 H   0  0  0  0  0  0  0  0  0  0  0  0
    4.5353   -3.3025    5.6048 H   0  0  0  0  0  0  0  0  0  0  0  0
    6.5598   -5.5466    2.1503 H   0  0  0  0  0  0  0  0  0  0  0  0
    6.2127   -5.7310   -0.3006 H   0  0  0  0  0  0  0  0  0  0  0  0
    4.3867   -4.4596   -1.4048 H   0  0  0  0  0  0  0  0  0  0  0  0
    2.9015   -2.9990   -0.0482 H   0  0  0  0  0  0  0  0  0  0  0  0
    2.2393   -2.0951    2.1381 H   0  0  0  0  0  0  0  0  0  0  0  0
    2.0730   -0.1770    3.3796 H   0  0  0  0  0  0  0  0  0  0  0  0
   -1.9965    0.4867    5.3335 H   0  0  0  0  0  0  0  0  0  0  0  0
    0.3190   -1.8869    4.3192 H   0  0  0  0  0  0  0  0  0  0  0  0
  1  2  1  0
  1 33  1  0
  1 34  1  0
  1 35  1  0
  2  3  1  0
  2  4  1  0
  2 32  1  0
  3 36  1  0
  3 37  1  0
  3 38  1  0
  4  5  1  0
  4 39  1  0
  4 40  1  0
  5  6  2  0
  5  7  1  0
  7 30  1  0
  7 41  1  1
  7  8  1  0
  8  9  1  0
  8 32  2  0
  9 10  2  0
 10 11  1  0
 10 18  1  0
 11 12  1  0
 11 19  1  0
 11 61  1  6
 12 13  2  0
 12 14  1  0
 14 15  1  0
 14 42  1  0
 14 43  1  0
 15 16  1  0
 15 17  1  0
 15 18  1  0
 16 44  1  0
 16 45  1  0
 16 46  1  0
 17 47  1  0
 17 48  1  0
 17 49  1  0
 18 50  1  0
 18 51  1  0
 19 20  1  0
 19 30  1  0
 19 52  1  1
 20 29  1  0
 20 21  2  0
 21 22  1  0
 21 53  1  0
 22 23  2  0
 23 28  1  0
 23 24  1  0
 24 25  2  0
 24 54  1  0
 25 26  1  0
 25 55  1  0
 26 27  2  0
 26 56  1  0
 27 28  1  0
 27 57  1  0
 28 29  2  0
 29 58  1  0
 30 31  1  0
 30 59  1  6
 32 60  1  0
M  END
>  <i_m_ct_stereo_status>  (209) 
1

>  <s_m_source_file>  (209) 
/var/tmp/pbs.5076255.sched01/tmpe6iyr0oq/80tt78e_gd.sdf

>  <i_m_source_file_index>  (209) 
8

>  <i_lp_mmshare_version>  (209) 
48012

>  <i_f3d_flags>  (209) 
0

>  <s_epik_input>  (209) 
Tz1DMVtDSDJdQyhbQ0gzXSkoW0NIM10pW0NIMl1DKFtDQEhdMTIpPU5DMz1DKEMoPU8pW0NIMl1DKFtDSDNdKShbQ0gzXSlbQ0gyXTMpW0NASF0oW0NAQEhdMkNsKWMoW2NIXW40KVtjSF1jKGM0NSlbY0hdW2NIXVtjSF1bY0hdNQ==

>  <s_epik_cmdline>  (209) 
J2VwaWtfcHl0aG9uJywgJy1waHQnLCAnMi4wJywgJy1waCcsICc3LjAnLCAnLXRuJywgJzgnLCAnLW1hJywgJzIwMCcsICctaW1hZScsICc8aW5maWxlLm1hZT4nLCAnLW9tYWUnLCAnPG91dGZpbGUubWFlPic=

>  <r_lp_tautomer_probability>  (209) 
0.499981

>  <r_epik_Ionization_Penalty>  (209) 
0.00183805

>  <r_epik_Ionization_Penalty_Charging>  (209) 
0

>  <r_epik_Ionization_Penalty_Neutral>  (209) 
0.00183805

>  <r_epik_State_Penalty>  (209) 
0.772126

>  <r_epik_Charging_Adjusted_Penalty>  (209) 
0.772126

>  <i_epik_Tot_Q>  (209) 
0

>  <i_epik_Tot_abs_Q>  (209) 
0

>  <s_epik_Chemistry_Notes>  (209) 
This compound has an imine and may undergo hydrolysis.

>  <s_lp_Force_Field>  (209) 
OPLS3e

>  <r_lp_Energy>  (209) 
47.0868

>  <b_lp_Chiralities_Consistent>  (209) 
1

>  <s_lp_Variant>  (209) 
63:0-2

>  <s_i_glide_gridfile>  (209) 
pfpi4k_grid

>  <i_i_glide_lignum>  (209) 
8

>  <i_i_glide_rotatable_bonds>  (209) 
1

>  <r_i_docking_score>  (209) 
-1.80914

>  <r_i_glide_ligand_efficiency>  (209) 
-0.0565356

>  <r_i_glide_ligand_efficiency_sa>  (209) 
-0.179489

>  <r_i_glide_ligand_efficiency_ln>  (209) 
-0.405115

>  <r_i_glide_gscore>  (209) 
-1.80914

>  <r_i_glide_lipo>  (209) 
-0.190087

>  <r_i_glide_hbond>  (209) 
0

>  <r_i_glide_metal>  (209) 
-0

>  <r_i_glide_rewards>  (209) 
-0.348016

>  <r_i_glide_evdw>  (209) 
-27.2016

>  <r_i_glide_ecoul>  (209) 
0.128318

>  <r_i_glide_erotb>  (209) 
0.0993975

>  <r_i_glide_esite>  (209) 
-0.0295988

>  <r_i_glide_emodel>  (209) 
-30.2938

>  <r_i_glide_energy>  (209) 
-27.0733

>  <r_i_glide_einternal>  (209) 
0.011226

>  <r_i_glide_intrahb_reward>  (209) 
-0

>  <i_i_glide_confnum>  (209) 
4

>  <i_i_glide_posenum>  (209) 
15

>  <r_i_glide_eff_state_penalty>  (209) 
0

>  <ligand_id>  (209) 
63

>  <original_smiles>  (209) 
CC1(C)CC(=O)C2C(=NC3=C(C(=O)CC(C)(C)C3)C(c3cnc4ccccc4c3)C2Cl)C1

>  <smiles>  (209) 
[H]C1=C2N=C3C([H])([H])C(C([H])([H])[H])(C([H])([H])[H])C([H])([H])C(=O)C3([H])C([H])(c3c([H])nc4c([H])c([H])c([H])c([H])c4c3[H])C([H])(Cl)C2([H])C(=O)C([H])([H])C1(C([H])([H])[H])C([H])([H])[H]

$$$$
63:2:0
     RDKit          3D

 61 65  0  0  1  0  0  0  0  0999 V2000
    1.0156   -4.3160    9.0721 C   0  0  0  0  0  0  0  0  0  0  0  0
    0.8497   -4.1778    7.5415 C   0  0  0  0  0  0  0  0  0  0  0  0
   -0.6274   -3.9188    7.2041 C   0  0  0  0  0  0  0  0  0  0  0  0
    1.6940   -2.9942    7.0165 C   0  0  0  0  0  0  0  0  0  0  0  0
    3.1542   -3.3944    6.8272 C   0  0  0  0  0  0  0  0  0  0  0  0
    4.0644   -2.8344    7.4324 O   0  0  0  0  0  0  0  0  0  0  0  0
    3.4047   -4.5531    5.8487 C   0  0  1  0  0  0  0  0  0  0  0  0
    2.4014   -5.6681    6.1459 C   0  0  0  0  0  0  0  0  0  0  0  0
    2.6762   -6.9799    5.7893 N   0  0  0  0  0  0  0  0  0  0  0  0
    2.9959   -7.3743    4.6225 C   0  0  0  0  0  0  0  0  0  0  0  0
    3.2552   -6.5786    3.3415 C   0  0  1  0  0  0  0  0  0  0  0  0
    1.9940   -6.7370    2.4768 C   0  0  0  0  0  0  0  0  0  0  0  0
    1.2808   -5.8029    2.1102 O   0  0  0  0  0  0  0  0  0  0  0  0
    1.6661   -8.1914    2.1191 C   0  0  0  0  0  0  0  0  0  0  0  0
    1.6664   -9.1191    3.3722 C   0  0  0  0  0  0  0  0  0  0  0  0
    0.3442   -8.9180    4.1539 C   0  0  0  0  0  0  0  0  0  0  0  0
    1.7408  -10.5723    2.8898 C   0  0  0  0  0  0  0  0  0  0  0  0
    2.8904   -8.8512    4.2979 C   0  0  0  0  0  0  0  0  0  0  0  0
    3.9953   -5.2110    3.4459 C   0  0  1  0  0  0  0  0  0  0  0  0
    4.4514   -4.7179    2.0615 C   0  0  0  0  0  0  0  0  0  0  0  0
    5.7601   -4.9754    1.5998 C   0  0  0  0  0  0  0  0  0  0  0  0
    6.2226   -4.5747    0.3976 N   0  0  0  0  0  0  0  0  0  0  0  0
    5.3991   -3.8908   -0.4311 C   0  0  0  0  0  0  0  0  0  0  0  0
    5.8619   -3.4506   -1.6888 C   0  0  0  0  0  0  0  0  0  0  0  0
    5.0158   -2.7605   -2.5774 C   0  0  0  0  0  0  0  0  0  0  0  0
    3.6886   -2.4793   -2.2085 C   0  0  0  0  0  0  0  0  0  0  0  0
    3.2193   -2.8934   -0.9487 C   0  0  0  0  0  0  0  0  0  0  0  0
    4.0649   -3.5903   -0.0621 C   0  0  0  0  0  0  0  0  0  0  0  0
    3.5943   -3.9917    1.2023 C   0  0  0  0  0  0  0  0  0  0  0  0
    3.3681   -4.1219    4.3548 C   0  0  2  0  0  0  0  0  0  0  0  0
    4.3207   -2.6169    4.1549 Cl  0  0  0  0  0  0  0  0  0  0  0  0
    1.2846   -5.4878    6.8927 C   0  0  0  0  0  0  0  0  0  0  0  0
    0.7397   -3.4001    9.5925 H   0  0  0  0  0  0  0  0  0  0  0  0
    2.0514   -4.5383    9.3355 H   0  0  0  0  0  0  0  0  0  0  0  0
    0.4028   -5.1248    9.4758 H   0  0  0  0  0  0  0  0  0  0  0  0
   -0.9624   -2.9848    7.6452 H   0  0  0  0  0  0  0  0  0  0  0  0
   -1.2754   -4.7186    7.5690 H   0  0  0  0  0  0  0  0  0  0  0  0
   -0.7678   -3.8475    6.1246 H   0  0  0  0  0  0  0  0  0  0  0  0
    1.3183   -2.6704    6.0469 H   0  0  0  0  0  0  0  0  0  0  0  0
    1.6194   -2.1432    7.6882 H   0  0  0  0  0  0  0  0  0  0  0  0
    4.3984   -4.9399    6.0885 H   0  0  0  0  0  0  0  0  0  0  0  0
    0.7000   -8.2292    1.6176 H   0  0  0  0  0  0  0  0  0  0  0  0
    2.4048   -8.5321    1.3920 H   0  0  0  0  0  0  0  0  0  0  0  0
    0.3245   -9.5278    5.0596 H   0  0  0  0  0  0  0  0  0  0  0  0
   -0.5240   -9.1914    3.5496 H   0  0  0  0  0  0  0  0  0  0  0  0
    0.2078   -7.8786    4.4596 H   0  0  0  0  0  0  0  0  0  0  0  0
    1.7438  -11.2710    3.7307 H   0  0  0  0  0  0  0  0  0  0  0  0
    2.6575  -10.7419    2.3203 H   0  0  0  0  0  0  0  0  0  0  0  0
    0.8889  -10.8073    2.2512 H   0  0  0  0  0  0  0  0  0  0  0  0
    2.7975   -9.4277    5.2193 H   0  0  0  0  0  0  0  0  0  0  0  0
    3.8169   -9.1671    3.8149 H   0  0  0  0  0  0  0  0  0  0  0  0
    4.9391   -5.4531    3.9424 H   0  0  0  0  0  0  0  0  0  0  0  0
    6.4682   -5.5232    2.2121 H   0  0  0  0  0  0  0  0  0  0  0  0
    6.8707   -3.6717   -1.9911 H   0  0  0  0  0  0  0  0  0  0  0  0
    5.3893   -2.4574   -3.5433 H   0  0  0  0  0  0  0  0  0  0  0  0
    3.0258   -1.9413   -2.8759 H   0  0  0  0  0  0  0  0  0  0  0  0
    2.2097   -2.6569   -0.6634 H   0  0  0  0  0  0  0  0  0  0  0  0
    2.5884   -3.7394    1.4975 H   0  0  0  0  0  0  0  0  0  0  0  0
    2.3488   -3.9006    4.0361 H   0  0  0  0  0  0  0  0  0  0  0  0
    0.6540   -6.3423    7.1021 H   0  0  0  0  0  0  0  0  0  0  0  0
    3.9889   -7.1775    2.8021 H   0  0  0  0  0  0  0  0  0  0  0  0
  1  2  1  0
  1 33  1  0
  1 34  1  0
  1 35  1  0
  2  3  1  0
  2  4  1  0
  2 32  1  0
  3 36  1  0
  3 37  1  0
  3 38  1  0
  4  5  1  0
  4 39  1  0
  4 40  1  0
  5  6  2  0
  5  7  1  0
  7 30  1  0
  7 41  1  1
  7  8  1  0
  8  9  1  0
  8 32  2  0
  9 10  2  0
 10 11  1  0
 10 18  1  0
 11 12  1  0
 11 19  1  0
 11 61  1  6
 12 13  2  0
 12 14  1  0
 14 15  1  0
 14 42  1  0
 14 43  1  0
 15 16  1  0
 15 17  1  0
 15 18  1  0
 16 44  1  0
 16 45  1  0
 16 46  1  0
 17 47  1  0
 17 48  1  0
 17 49  1  0
 18 50  1  0
 18 51  1  0
 19 20  1  0
 19 30  1  0
 19 52  1  1
 20 29  1  0
 20 21  2  0
 21 22  1  0
 21 53  1  0
 22 23  2  0
 23 28  1  0
 23 24  1  0
 24 25  2  0
 24 54  1  0
 25 26  1  0
 25 55  1  0
 26 27  2  0
 26 56  1  0
 27 28  1  0
 27 57  1  0
 28 29  2  0
 29 58  1  0
 30 31  1  0
 30 59  1  6
 32 60  1  0
M  END
>  <i_m_ct_stereo_status>  (210) 
1

>  <s_m_source_file>  (210) 
/var/tmp/pbs.5076255.sched01/tmpe6iyr0oq/80tt78e_gd.sdf

>  <i_m_source_file_index>  (210) 
9

>  <i_lp_mmshare_version>  (210) 
48012

>  <i_f3d_flags>  (210) 
0

>  <s_epik_input>  (210) 
Tz1DMVtDSDJdQyhbQ0gzXSkoW0NIM10pW0NIMl1DKFtDQEhdMTIpPU5DMz1DKEMoPU8pW0NIMl1DKFtDSDNdKShbQ0gzXSlbQ0gyXTMpW0NASF0oW0NAQEhdMkNsKWMoW2NIXW40KVtjSF1jKGM0NSlbY0hdW2NIXVtjSF1bY0hdNQ==

>  <s_epik_cmdline>  (210) 
J2VwaWtfcHl0aG9uJywgJy1waHQnLCAnMi4wJywgJy1waCcsICc3LjAnLCAnLXRuJywgJzgnLCAnLW1hJywgJzIwMCcsICctaW1hZScsICc8aW5maWxlLm1hZT4nLCAnLW9tYWUnLCAnPG91dGZpbGUubWFlPic=

>  <r_lp_tautomer_probability>  (210) 
0.499981

>  <r_epik_Ionization_Penalty>  (210) 
0.00183805

>  <r_epik_Ionization_Penalty_Charging>  (210) 
0

>  <r_epik_Ionization_Penalty_Neutral>  (210) 
0.00183805

>  <r_epik_State_Penalty>  (210) 
0.772126

>  <r_epik_Charging_Adjusted_Penalty>  (210) 
0.772126

>  <i_epik_Tot_Q>  (210) 
0

>  <i_epik_Tot_abs_Q>  (210) 
0

>  <s_epik_Chemistry_Notes>  (210) 
This compound has an imine and may undergo hydrolysis.

>  <s_lp_Force_Field>  (210) 
OPLS3e

>  <r_lp_Energy>  (210) 
47.1115

>  <b_lp_Chiralities_Consistent>  (210) 
1

>  <s_lp_Variant>  (210) 
63:0-3

>  <s_i_glide_gridfile>  (210) 
pfpi4k_grid

>  <i_i_glide_lignum>  (210) 
9

>  <i_i_glide_rotatable_bonds>  (210) 
1

>  <r_i_docking_score>  (210) 
-2.51919

>  <r_i_glide_ligand_efficiency>  (210) 
-0.0787245

>  <r_i_glide_ligand_efficiency_sa>  (210) 
-0.249935

>  <r_i_glide_ligand_efficiency_ln>  (210) 
-0.564114

>  <r_i_glide_gscore>  (210) 
-2.51919

>  <r_i_glide_lipo>  (210) 
-0.573789

>  <r_i_glide_hbond>  (210) 
-0.0480771

>  <r_i_glide_metal>  (210) 
-0

>  <r_i_glide_rewards>  (210) 
-0.347836

>  <r_i_glide_evdw>  (210) 
-27.8209

>  <r_i_glide_ecoul>  (210) 
-1.62553

>  <r_i_glide_erotb>  (210) 
0.0993975

>  <r_i_glide_esite>  (210) 
-0.014008

>  <r_i_glide_emodel>  (210) 
-34.1354

>  <r_i_glide_energy>  (210) 
-29.4464

>  <r_i_glide_einternal>  (210) 
0.142196

>  <r_i_glide_intrahb_reward>  (210) 
-0

>  <i_i_glide_confnum>  (210) 
1

>  <i_i_glide_posenum>  (210) 
14

>  <r_i_glide_eff_state_penalty>  (210) 
0

>  <ligand_id>  (210) 
63

>  <original_smiles>  (210) 
CC1(C)CC(=O)C2C(=NC3=C(C(=O)CC(C)(C)C3)C(c3cnc4ccccc4c3)C2Cl)C1

>  <smiles>  (210) 
[H]C1=C2N=C3C([H])([H])C(C([H])([H])[H])(C([H])([H])[H])C([H])([H])C(=O)C3([H])C([H])(c3c([H])nc4c([H])c([H])c([H])c([H])c4c3[H])C([H])(Cl)C2([H])C(=O)C([H])([H])C1(C([H])([H])[H])C([H])([H])[H]

$$$$
63:2:1
     RDKit          3D

 61 65  0  0  1  0  0  0  0  0999 V2000
    0.2317    0.7748    6.7958 C   0  0  0  0  0  0  0  0  0  0  0  0
    0.2213   -0.1633    5.5672 C   0  0  0  0  0  0  0  0  0  0  0  0
   -1.1563   -0.8334    5.4304 C   0  0  0  0  0  0  0  0  0  0  0  0
    0.5120    0.6384    4.2787 C   0  0  0  0  0  0  0  0  0  0  0  0
    2.0080    0.8786    4.1029 C   0  0  0  0  0  0  0  0  0  0  0  0
    2.4834    2.0099    4.0612 O   0  0  0  0  0  0  0  0  0  0  0  0
    2.8799   -0.3856    4.0129 C   0  0  1  0  0  0  0  0  0  0  0  0
    2.4489   -1.3544    5.1132 C   0  0  0  0  0  0  0  0  0  0  0  0
    3.3270   -2.3209    5.5888 N   0  0  0  0  0  0  0  0  0  0  0  0
    3.9468   -3.1678    4.8672 C   0  0  0  0  0  0  0  0  0  0  0  0
    4.0001   -3.3346    3.3502 C   0  0  1  0  0  0  0  0  0  0  0  0
    3.0749   -4.5064    3.0046 C   0  0  0  0  0  0  0  0  0  0  0  0
    2.1274   -4.4170    2.2269 O   0  0  0  0  0  0  0  0  0  0  0  0
    3.4586   -5.8262    3.6936 C   0  0  0  0  0  0  0  0  0  0  0  0
    3.7169   -5.6591    5.2237 C   0  0  0  0  0  0  0  0  0  0  0  0
    2.3554   -5.5964    5.9597 C   0  0  0  0  0  0  0  0  0  0  0  0
    4.5051   -6.8813    5.7258 C   0  0  0  0  0  0  0  0  0  0  0  0
    4.5563   -4.3827    5.5374 C   0  0  0  0  0  0  0  0  0  0  0  0
    4.0269   -2.0667    2.4524 C   0  0  1  0  0  0  0  0  0  0  0  0
    4.3828   -2.4379    1.0033 C   0  0  0  0  0  0  0  0  0  0  0  0
    5.7290   -2.6522    0.6351 C   0  0  0  0  0  0  0  0  0  0  0  0
    6.1170   -2.9717   -0.6186 N   0  0  0  0  0  0  0  0  0  0  0  0
    5.1797   -3.1048   -1.5803 C   0  0  0  0  0  0  0  0  0  0  0  0
    5.5627   -3.4428   -2.8903 C   0  0  0  0  0  0  0  0  0  0  0  0
    4.6101   -3.5866   -3.9148 C   0  0  0  0  0  0  0  0  0  0  0  0
    3.2469   -3.3478   -3.6517 C   0  0  0  0  0  0  0  0  0  0  0  0
    2.8439   -3.0168   -2.3449 C   0  0  0  0  0  0  0  0  0  0  0  0
    3.7993   -2.9027   -1.3164 C   0  0  0  0  0  0  0  0  0  0  0  0
    3.4032   -2.5770   -0.0042 C   0  0  0  0  0  0  0  0  0  0  0  0
    2.8584   -1.0536    2.6126 C   0  0  2  0  0  0  0  0  0  0  0  0
    3.0621    0.2258    1.3802 Cl  0  0  0  0  0  0  0  0  0  0  0  0
    1.2808   -1.2428    5.7876 C   0  0  0  0  0  0  0  0  0  0  0  0
   -0.4891    1.5846    6.6908 H   0  0  0  0  0  0  0  0  0  0  0  0
    1.2125    1.2342    6.9317 H   0  0  0  0  0  0  0  0  0  0  0  0
    0.0030    0.2430    7.7219 H   0  0  0  0  0  0  0  0  0  0  0  0
   -1.9440   -0.0993    5.2659 H   0  0  0  0  0  0  0  0  0  0  0  0
   -1.4074   -1.4129    6.3189 H   0  0  0  0  0  0  0  0  0  0  0  0
   -1.1649   -1.5218    4.5850 H   0  0  0  0  0  0  0  0  0  0  0  0
    0.1687    0.0807    3.4076 H   0  0  0  0  0  0  0  0  0  0  0  0
   -0.0266    1.5836    4.2815 H   0  0  0  0  0  0  0  0  0  0  0  0
    3.8983   -0.0625    4.2406 H   0  0  0  0  0  0  0  0  0  0  0  0
    2.6878   -6.5756    3.5162 H   0  0  0  0  0  0  0  0  0  0  0  0
    4.3600   -6.1971    3.2046 H   0  0  0  0  0  0  0  0  0  0  0  0
    2.4884   -5.4303    7.0305 H   0  0  0  0  0  0  0  0  0  0  0  0
    1.7880   -6.5204    5.8299 H   0  0  0  0  0  0  0  0  0  0  0  0
    1.7298   -4.7850    5.5840 H   0  0  0  0  0  0  0  0  0  0  0  0
    4.7073   -6.8111    6.7966 H   0  0  0  0  0  0  0  0  0  0  0  0
    5.4693   -6.9532    5.2189 H   0  0  0  0  0  0  0  0  0  0  0  0
    3.9686   -7.8142    5.5433 H   0  0  0  0  0  0  0  0  0  0  0  0
    4.6104   -4.2199    6.6131 H   0  0  0  0  0  0  0  0  0  0  0  0
    5.5824   -4.4956    5.1840 H   0  0  0  0  0  0  0  0  0  0  0  0
    4.9105   -1.5126    2.7798 H   0  0  0  0  0  0  0  0  0  0  0  0
    6.5217   -2.5766    1.3651 H   0  0  0  0  0  0  0  0  0  0  0  0
    6.6071   -3.6049   -3.1088 H   0  0  0  0  0  0  0  0  0  0  0  0
    4.9314   -3.8885   -4.8990 H   0  0  0  0  0  0  0  0  0  0  0  0
    2.5031   -3.4477   -4.4324 H   0  0  0  0  0  0  0  0  0  0  0  0
    1.7963   -2.8529   -2.1373 H   0  0  0  0  0  0  0  0  0  0  0  0
    2.3571   -2.4135    0.2055 H   0  0  0  0  0  0  0  0  0  0  0  0
    1.8986   -1.5381    2.4226 H   0  0  0  0  0  0  0  0  0  0  0  0
    1.0778   -1.9359    6.5922 H   0  0  0  0  0  0  0  0  0  0  0  0
    4.9828   -3.7650    3.1605 H   0  0  0  0  0  0  0  0  0  0  0  0
  1  2  1  0
  1 33  1  0
  1 34  1  0
  1 35  1  0
  2  3  1  0
  2  4  1  0
  2 32  1  0
  3 36  1  0
  3 37  1  0
  3 38  1  0
  4  5  1  0
  4 39  1  0
  4 40  1  0
  5  6  2  0
  5  7  1  0
  7 30  1  0
  7 41  1  1
  7  8  1  0
  8  9  1  0
  8 32  2  0
  9 10  2  0
 10 11  1  0
 10 18  1  0
 11 12  1  0
 11 19  1  0
 11 61  1  1
 12 13  2  0
 12 14  1  0
 14 15  1  0
 14 42  1  0
 14 43  1  0
 15 16  1  0
 15 17  1  0
 15 18  1  0
 16 44  1  0
 16 45  1  0
 16 46  1  0
 17 47  1  0
 17 48  1  0
 17 49  1  0
 18 50  1  0
 18 51  1  0
 19 20  1  0
 19 30  1  0
 19 52  1  1
 20 29  1  0
 20 21  2  0
 21 22  1  0
 21 53  1  0
 22 23  2  0
 23 28  1  0
 23 24  1  0
 24 25  2  0
 24 54  1  0
 25 26  1  0
 25 55  1  0
 26 27  2  0
 26 56  1  0
 27 28  1  0
 27 57  1  0
 28 29  2  0
 29 58  1  0
 30 31  1  0
 30 59  1  6
 32 60  1  0
M  END
>  <i_m_ct_stereo_status>  (211) 
1

>  <s_m_source_file>  (211) 
/var/tmp/pbs.5076255.sched01/tmpe6iyr0oq/80tt78e_gd.sdf

>  <i_m_source_file_index>  (211) 
9

>  <i_lp_mmshare_version>  (211) 
48012

>  <i_f3d_flags>  (211) 
0

>  <s_epik_input>  (211) 
Tz1DMVtDSDJdQyhbQ0gzXSkoW0NIM10pW0NIMl1DKFtDQEhdMTIpPU5DMz1DKEMoPU8pW0NIMl1DKFtDSDNdKShbQ0gzXSlbQ0gyXTMpW0NASF0oW0NAQEhdMkNsKWMoW2NIXW40KVtjSF1jKGM0NSlbY0hdW2NIXVtjSF1bY0hdNQ==

>  <s_epik_cmdline>  (211) 
J2VwaWtfcHl0aG9uJywgJy1waHQnLCAnMi4wJywgJy1waCcsICc3LjAnLCAnLXRuJywgJzgnLCAnLW1hJywgJzIwMCcsICctaW1hZScsICc8aW5maWxlLm1hZT4nLCAnLW9tYWUnLCAnPG91dGZpbGUubWFlPic=

>  <r_lp_tautomer_probability>  (211) 
0.499981

>  <r_epik_Ionization_Penalty>  (211) 
0.00183805

>  <r_epik_Ionization_Penalty_Charging>  (211) 
0

>  <r_epik_Ionization_Penalty_Neutral>  (211) 
0.00183805

>  <r_epik_State_Penalty>  (211) 
0.772126

>  <r_epik_Charging_Adjusted_Penalty>  (211) 
0.772126

>  <i_epik_Tot_Q>  (211) 
0

>  <i_epik_Tot_abs_Q>  (211) 
0

>  <s_epik_Chemistry_Notes>  (211) 
This compound has an imine and may undergo hydrolysis.

>  <s_lp_Force_Field>  (211) 
OPLS3e

>  <r_lp_Energy>  (211) 
47.1115

>  <b_lp_Chiralities_Consistent>  (211) 
1

>  <s_lp_Variant>  (211) 
63:0-3

>  <s_i_glide_gridfile>  (211) 
pfpi4k_grid

>  <i_i_glide_lignum>  (211) 
9

>  <i_i_glide_rotatable_bonds>  (211) 
1

>  <r_i_docking_score>  (211) 
-2.36978

>  <r_i_glide_ligand_efficiency>  (211) 
-0.0740557

>  <r_i_glide_ligand_efficiency_sa>  (211) 
-0.235112

>  <r_i_glide_ligand_efficiency_ln>  (211) 
-0.530659

>  <r_i_glide_gscore>  (211) 
-2.36978

>  <r_i_glide_lipo>  (211) 
-0.65691

>  <r_i_glide_hbond>  (211) 
0

>  <r_i_glide_metal>  (211) 
-0

>  <r_i_glide_rewards>  (211) 
-0.347836

>  <r_i_glide_evdw>  (211) 
-29.837

>  <r_i_glide_ecoul>  (211) 
0.199524

>  <r_i_glide_erotb>  (211) 
0.0993975

>  <r_i_glide_esite>  (211) 
-0.00251485

>  <r_i_glide_emodel>  (211) 
-34.0204

>  <r_i_glide_energy>  (211) 
-29.6374

>  <r_i_glide_einternal>  (211) 
0.224171

>  <r_i_glide_intrahb_reward>  (211) 
-0

>  <i_i_glide_confnum>  (211) 
1

>  <i_i_glide_posenum>  (211) 
40

>  <r_i_glide_eff_state_penalty>  (211) 
0

>  <ligand_id>  (211) 
63

>  <original_smiles>  (211) 
CC1(C)CC(=O)C2C(=NC3=C(C(=O)CC(C)(C)C3)C(c3cnc4ccccc4c3)C2Cl)C1

>  <smiles>  (211) 
[H]C1=C2N=C3C([H])([H])C(C([H])([H])[H])(C([H])([H])[H])C([H])([H])C(=O)C3([H])C([H])(c3c([H])nc4c([H])c([H])c([H])c([H])c4c3[H])C([H])(Cl)C2([H])C(=O)C([H])([H])C1(C([H])([H])[H])C([H])([H])[H]

$$$$
63:2:2
     RDKit          3D

 61 65  0  0  1  0  0  0  0  0999 V2000
    0.2239   -9.0382    5.2739 C   0  0  0  0  0  0  0  0  0  0  0  0
    0.2233   -7.8793    4.2553 C   0  0  0  0  0  0  0  0  0  0  0  0
   -0.4134   -8.3393    2.9300 C   0  0  0  0  0  0  0  0  0  0  0  0
   -0.5831   -6.6843    4.8047 C   0  0  0  0  0  0  0  0  0  0  0  0
    0.2355   -5.8521    5.7870 C   0  0  0  0  0  0  0  0  0  0  0  0
   -0.1208   -5.6765    6.9418 O   0  0  0  0  0  0  0  0  0  0  0  0
    1.5312   -5.2486    5.2127 C   0  0  1  0  0  0  0  0  0  0  0  0
    2.2676   -6.3273    4.4096 C   0  0  0  0  0  0  0  0  0  0  0  0
    3.6301   -6.2486    4.2027 N   0  0  0  0  0  0  0  0  0  0  0  0
    4.2462   -5.2555    3.6967 C   0  0  0  0  0  0  0  0  0  0  0  0
    3.7325   -3.8752    3.2765 C   0  0  1  0  0  0  0  0  0  0  0  0
    3.6230   -3.9410    1.7487 C   0  0  0  0  0  0  0  0  0  0  0  0
    2.5680   -3.8773    1.1238 O   0  0  0  0  0  0  0  0  0  0  0  0
    4.9585   -4.1961    1.0366 C   0  0  0  0  0  0  0  0  0  0  0  0
    5.6785   -5.4447    1.6226 C   0  0  0  0  0  0  0  0  0  0  0  0
    4.9961   -6.7273    1.0771 C   0  0  0  0  0  0  0  0  0  0  0  0
    7.1458   -5.4077    1.1658 C   0  0  0  0  0  0  0  0  0  0  0  0
    5.6582   -5.4561    3.1819 C   0  0  0  0  0  0  0  0  0  0  0  0
    2.6332   -3.1836    4.1502 C   0  0  1  0  0  0  0  0  0  0  0  0
    2.4504   -1.6987    3.7593 C   0  0  0  0  0  0  0  0  0  0  0  0
    1.7283   -1.3307    2.6145 C   0  0  0  0  0  0  0  0  0  0  0  0
    1.5697   -0.0560    2.2048 N   0  0  0  0  0  0  0  0  0  0  0  0
    2.0858    0.9381    2.9488 C   0  0  0  0  0  0  0  0  0  0  0  0
    1.8898    2.2739    2.5326 C   0  0  0  0  0  0  0  0  0  0  0  0
    2.3721    3.3392    3.3023 C   0  0  0  0  0  0  0  0  0  0  0  0
    3.0592    3.0850    4.5031 C   0  0  0  0  0  0  0  0  0  0  0  0
    3.2729    1.7589    4.9292 C   0  0  0  0  0  0  0  0  0  0  0  0
    2.7886    0.6827    4.1558 C   0  0  0  0  0  0  0  0  0  0  0  0
    2.9783   -0.6576    4.5588 C   0  0  0  0  0  0  0  0  0  0  0  0
    1.3094   -3.9565    4.3727 C   0  0  2  0  0  0  0  0  0  0  0  0
    0.1748   -2.8792    5.2451 Cl  0  0  0  0  0  0  0  0  0  0  0  0
    1.6743   -7.4799    3.9964 C   0  0  0  0  0  0  0  0  0  0  0  0
   -0.7888   -9.3527    5.5226 H   0  0  0  0  0  0  0  0  0  0  0  0
    0.7059   -8.7534    6.2118 H   0  0  0  0  0  0  0  0  0  0  0  0
    0.7535   -9.9164    4.8952 H   0  0  0  0  0  0  0  0  0  0  0  0
   -1.4545   -8.6303    3.0702 H   0  0  0  0  0  0  0  0  0  0  0  0
    0.1125   -9.1971    2.5054 H   0  0  0  0  0  0  0  0  0  0  0  0
   -0.3857   -7.5433    2.1858 H   0  0  0  0  0  0  0  0  0  0  0  0
   -0.8718   -6.0250    3.9912 H   0  0  0  0  0  0  0  0  0  0  0  0
   -1.5010   -7.0296    5.2734 H   0  0  0  0  0  0  0  0  0  0  0  0
    2.1600   -5.0107    6.0751 H   0  0  0  0  0  0  0  0  0  0  0  0
    4.7792   -4.3352   -0.0310 H   0  0  0  0  0  0  0  0  0  0  0  0
    5.5858   -3.3080    1.1364 H   0  0  0  0  0  0  0  0  0  0  0  0
    5.4502   -7.6321    1.4950 H   0  0  0  0  0  0  0  0  0  0  0  0
    5.0542   -6.7844   -0.0120 H   0  0  0  0  0  0  0  0  0  0  0  0
    3.9329   -6.7596    1.3280 H   0  0  0  0  0  0  0  0  0  0  0  0
    7.7075   -6.2689    1.5423 H   0  0  0  0  0  0  0  0  0  0  0  0
    7.6367   -4.5030    1.5243 H   0  0  0  0  0  0  0  0  0  0  0  0
    7.2196   -5.4056    0.0790 H   0  0  0  0  0  0  0  0  0  0  0  0
    6.0645   -6.3923    3.5685 H   0  0  0  0  0  0  0  0  0  0  0  0
    6.2704   -4.6522    3.5795 H   0  0  0  0  0  0  0  0  0  0  0  0
    3.0817   -3.1316    5.1453 H   0  0  0  0  0  0  0  0  0  0  0  0
    1.2365   -2.0557    1.9766 H   0  0  0  0  0  0  0  0  0  0  0  0
    1.3488    2.4727    1.6230 H   0  0  0  0  0  0  0  0  0  0  0  0
    2.2042    4.3593    2.9567 H   0  0  0  0  0  0  0  0  0  0  0  0
    3.4331    3.9129    5.0981 H   0  0  0  0  0  0  0  0  0  0  0  0
    3.7991    1.5656    5.8530 H   0  0  0  0  0  0  0  0  0  0  0  0
    3.5109   -0.8690    5.4801 H   0  0  0  0  0  0  0  0  0  0  0  0
    0.8478   -4.1907    3.4143 H   0  0  0  0  0  0  0  0  0  0  0  0
    2.2751   -8.2225    3.4849 H   0  0  0  0  0  0  0  0  0  0  0  0
    4.5798   -3.2117    3.4299 H   0  0  0  0  0  0  0  0  0  0  0  0
  1  2  1  0
  1 33  1  0
  1 34  1  0
  1 35  1  0
  2  3  1  0
  2  4  1  0
  2 32  1  0
  3 36  1  0
  3 37  1  0
  3 38  1  0
  4  5  1  0
  4 39  1  0
  4 40  1  0
  5  6  2  0
  5  7  1  0
  7 30  1  0
  7 41  1  1
  7  8  1  0
  8  9  1  0
  8 32  2  0
  9 10  2  0
 10 11  1  0
 10 18  1  0
 11 12  1  0
 11 19  1  0
 11 61  1  6
 12 13  2  0
 12 14  1  0
 14 15  1  0
 14 42  1  0
 14 43  1  0
 15 16  1  0
 15 17  1  0
 15 18  1  0
 16 44  1  0
 16 45  1  0
 16 46  1  0
 17 47  1  0
 17 48  1  0
 17 49  1  0
 18 50  1  0
 18 51  1  0
 19 20  1  0
 19 30  1  0
 19 52  1  1
 20 29  1  0
 20 21  2  0
 21 22  1  0
 21 53  1  0
 22 23  2  0
 23 28  1  0
 23 24  1  0
 24 25  2  0
 24 54  1  0
 25 26  1  0
 25 55  1  0
 26 27  2  0
 26 56  1  0
 27 28  1  0
 27 57  1  0
 28 29  2  0
 29 58  1  0
 30 31  1  0
 30 59  1  6
 32 60  1  0
M  END
>  <i_m_ct_stereo_status>  (212) 
1

>  <s_m_source_file>  (212) 
/var/tmp/pbs.5076255.sched01/tmpe6iyr0oq/80tt78e_gd.sdf

>  <i_m_source_file_index>  (212) 
9

>  <i_lp_mmshare_version>  (212) 
48012

>  <i_f3d_flags>  (212) 
0

>  <s_epik_input>  (212) 
Tz1DMVtDSDJdQyhbQ0gzXSkoW0NIM10pW0NIMl1DKFtDQEhdMTIpPU5DMz1DKEMoPU8pW0NIMl1DKFtDSDNdKShbQ0gzXSlbQ0gyXTMpW0NASF0oW0NAQEhdMkNsKWMoW2NIXW40KVtjSF1jKGM0NSlbY0hdW2NIXVtjSF1bY0hdNQ==

>  <s_epik_cmdline>  (212) 
J2VwaWtfcHl0aG9uJywgJy1waHQnLCAnMi4wJywgJy1waCcsICc3LjAnLCAnLXRuJywgJzgnLCAnLW1hJywgJzIwMCcsICctaW1hZScsICc8aW5maWxlLm1hZT4nLCAnLW9tYWUnLCAnPG91dGZpbGUubWFlPic=

>  <r_lp_tautomer_probability>  (212) 
0.499981

>  <r_epik_Ionization_Penalty>  (212) 
0.00183805

>  <r_epik_Ionization_Penalty_Charging>  (212) 
0

>  <r_epik_Ionization_Penalty_Neutral>  (212) 
0.00183805

>  <r_epik_State_Penalty>  (212) 
0.772126

>  <r_epik_Charging_Adjusted_Penalty>  (212) 
0.772126

>  <i_epik_Tot_Q>  (212) 
0

>  <i_epik_Tot_abs_Q>  (212) 
0

>  <s_epik_Chemistry_Notes>  (212) 
This compound has an imine and may undergo hydrolysis.

>  <s_lp_Force_Field>  (212) 
OPLS3e

>  <r_lp_Energy>  (212) 
47.1115

>  <b_lp_Chiralities_Consistent>  (212) 
1

>  <s_lp_Variant>  (212) 
63:0-3

>  <s_i_glide_gridfile>  (212) 
pfpi4k_grid

>  <i_i_glide_lignum>  (212) 
9

>  <i_i_glide_rotatable_bonds>  (212) 
1

>  <r_i_docking_score>  (212) 
-2.09103

>  <r_i_glide_ligand_efficiency>  (212) 
-0.0653448

>  <r_i_glide_ligand_efficiency_sa>  (212) 
-0.207457

>  <r_i_glide_ligand_efficiency_ln>  (212) 
-0.468239

>  <r_i_glide_gscore>  (212) 
-2.09103

>  <r_i_glide_lipo>  (212) 
-0.302448

>  <r_i_glide_hbond>  (212) 
0

>  <r_i_glide_metal>  (212) 
-0

>  <r_i_glide_rewards>  (212) 
-0.354594

>  <r_i_glide_evdw>  (212) 
-29.6283

>  <r_i_glide_ecoul>  (212) 
-0.30335

>  <r_i_glide_erotb>  (212) 
0.0993975

>  <r_i_glide_esite>  (212) 
-0.00647107

>  <r_i_glide_emodel>  (212) 
-33.566

>  <r_i_glide_energy>  (212) 
-29.9316

>  <r_i_glide_einternal>  (212) 
0.318563

>  <r_i_glide_intrahb_reward>  (212) 
-0

>  <i_i_glide_confnum>  (212) 
4

>  <i_i_glide_posenum>  (212) 
1

>  <r_i_glide_eff_state_penalty>  (212) 
0

>  <ligand_id>  (212) 
63

>  <original_smiles>  (212) 
CC1(C)CC(=O)C2C(=NC3=C(C(=O)CC(C)(C)C3)C(c3cnc4ccccc4c3)C2Cl)C1

>  <smiles>  (212) 
[H]C1=C2N=C3C([H])([H])C(C([H])([H])[H])(C([H])([H])[H])C([H])([H])C(=O)C3([H])C([H])(c3c([H])nc4c([H])c([H])c([H])c([H])c4c3[H])C([H])(Cl)C2([H])C(=O)C([H])([H])C1(C([H])([H])[H])C([H])([H])[H]

$$$$
63:3:0
     RDKit          3D

 61 65  0  0  1  0  0  0  0  0999 V2000
    5.2753   -3.0736    0.6236 C   0  0  0  0  0  0  0  0  0  0  0  0
    3.9372   -2.3874    0.2539 C   0  0  0  0  0  0  0  0  0  0  0  0
    3.7620   -2.4152   -1.2757 C   0  0  0  0  0  0  0  0  0  0  0  0
    2.7377   -3.1058    0.8917 C   0  0  0  0  0  0  0  0  0  0  0  0
    2.7315   -3.0041    2.4186 C   0  0  0  0  0  0  0  0  0  0  0  0
    2.4856   -4.0017    3.0952 O   0  0  0  0  0  0  0  0  0  0  0  0
    3.0516   -1.6569    3.1008 C   0  0  1  0  0  0  0  0  0  0  0  0
    3.9684   -0.7707    2.2485 C   0  0  0  0  0  0  0  0  0  0  0  0
    4.7190    0.1136    2.7506 N   0  0  0  0  0  0  0  0  0  0  0  0
    4.6441    0.4338    4.0942 C   0  0  0  0  0  0  0  0  0  0  0  0
    3.3722    1.1185    4.6112 C   0  0  2  0  0  0  0  0  0  0  0  0
    3.7002    2.0040    5.8490 C   0  0  0  0  0  0  0  0  0  0  0  0
    2.8594    2.7382    6.3612 O   0  0  0  0  0  0  0  0  0  0  0  0
    5.1238    2.0239    6.4175 C   0  0  0  0  0  0  0  0  0  0  0  0
    5.8994    0.7026    6.2627 C   0  0  0  0  0  0  0  0  0  0  0  0
    7.3857    0.9827    6.5674 C   0  0  0  0  0  0  0  0  0  0  0  0
    5.3639   -0.3851    7.2146 C   0  0  0  0  0  0  0  0  0  0  0  0
    5.7456    0.2198    4.8371 C   0  0  0  0  0  0  0  0  0  0  0  0
    2.1772    0.1146    4.8162 C   0  0  1  0  0  0  0  0  0  0  0  0
    0.9049    0.8287    5.2862 C   0  0  0  0  0  0  0  0  0  0  0  0
    0.0718    1.5302    4.3877 C   0  0  0  0  0  0  0  0  0  0  0  0
   -1.0555    2.1649    4.7621 N   0  0  0  0  0  0  0  0  0  0  0  0
   -1.4088    2.1570    6.0643 C   0  0  0  0  0  0  0  0  0  0  0  0
   -2.5826    2.8205    6.4713 C   0  0  0  0  0  0  0  0  0  0  0  0
   -2.9714    2.8406    7.8226 C   0  0  0  0  0  0  0  0  0  0  0  0
   -2.1803    2.1990    8.7936 C   0  0  0  0  0  0  0  0  0  0  0  0
   -1.0064    1.5238    8.4072 C   0  0  0  0  0  0  0  0  0  0  0  0
   -0.6293    1.4927    7.0481 C   0  0  0  0  0  0  0  0  0  0  0  0
    0.5380    0.8151    6.6498 C   0  0  0  0  0  0  0  0  0  0  0  0
    1.8384   -0.8225    3.6008 C   0  0  2  0  0  0  0  0  0  0  0  0
    0.4837   -1.8819    4.1150 Cl  0  0  0  0  0  0  0  0  0  0  0  0
    3.9107   -0.9274    0.7336 C   0  0  0  0  0  0  0  0  0  0  0  0
    5.4500   -3.0857    1.7014 H   0  0  0  0  0  0  0  0  0  0  0  0
    6.1202   -2.5525    0.1714 H   0  0  0  0  0  0  0  0  0  0  0  0
    5.2947   -4.1109    0.2857 H   0  0  0  0  0  0  0  0  0  0  0  0
    2.8237   -1.9398   -1.5667 H   0  0  0  0  0  0  0  0  0  0  0  0
    3.7402   -3.4353   -1.6598 H   0  0  0  0  0  0  0  0  0  0  0  0
    4.5664   -1.8779   -1.7780 H   0  0  0  0  0  0  0  0  0  0  0  0
    1.8151   -2.6674    0.5143 H   0  0  0  0  0  0  0  0  0  0  0  0
    2.7314   -4.1556    0.6024 H   0  0  0  0  0  0  0  0  0  0  0  0
    3.6125   -1.9532    3.9880 H   0  0  0  0  0  0  0  0  0  0  0  0
    5.6507    2.8218    5.8984 H   0  0  0  0  0  0  0  0  0  0  0  0
    5.0950    2.3190    7.4626 H   0  0  0  0  0  0  0  0  0  0  0  0
    7.5160    1.3617    7.5793 H   0  0  0  0  0  0  0  0  0  0  0  0
    7.7994    1.7295    5.8875 H   0  0  0  0  0  0  0  0  0  0  0  0
    7.9945    0.0840    6.4757 H   0  0  0  0  0  0  0  0  0  0  0  0
    5.4355   -0.0761    8.2574 H   0  0  0  0  0  0  0  0  0  0  0  0
    5.9174   -1.3188    7.0938 H   0  0  0  0  0  0  0  0  0  0  0  0
    4.3160   -0.6067    7.0082 H   0  0  0  0  0  0  0  0  0  0  0  0
    6.6111   -0.2249    4.3686 H   0  0  0  0  0  0  0  0  0  0  0  0
    4.7321   -0.3728    0.2818 H   0  0  0  0  0  0  0  0  0  0  0  0
    2.4723   -0.5554    5.6248 H   0  0  0  0  0  0  0  0  0  0  0  0
    0.3085    1.5886    3.3327 H   0  0  0  0  0  0  0  0  0  0  0  0
   -3.1852    3.3123    5.7257 H   0  0  0  0  0  0  0  0  0  0  0  0
   -3.8795    3.3433    8.1195 H   0  0  0  0  0  0  0  0  0  0  0  0
   -2.4770    2.2163    9.8347 H   0  0  0  0  0  0  0  0  0  0  0  0
   -0.3993    1.0370    9.1556 H   0  0  0  0  0  0  0  0  0  0  0  0
    1.1613    0.3215    7.3808 H   0  0  0  0  0  0  0  0  0  0  0  0
    1.4617   -0.2361    2.7607 H   0  0  0  0  0  0  0  0  0  0  0  0
    2.9928   -0.4440    0.3893 H   0  0  0  0  0  0  0  0  0  0  0  0
    3.0774    1.8255    3.8348 H   0  0  0  0  0  0  0  0  0  0  0  0
  1  2  1  0
  1 33  1  0
  1 34  1  0
  1 35  1  0
  2  3  1  0
  2  4  1  0
  2 32  1  0
  3 36  1  0
  3 37  1  0
  3 38  1  0
  4  5  1  0
  4 39  1  0
  4 40  1  0
  5  6  2  0
  5  7  1  0
  7 30  1  0
  7 41  1  1
  7  8  1  0
  8 32  1  0
  8  9  2  0
  9 10  1  0
 10 11  1  0
 10 18  2  0
 11 12  1  0
 11 19  1  0
 11 61  1  6
 12 13  2  0
 12 14  1  0
 14 15  1  0
 14 42  1  0
 14 43  1  0
 15 16  1  0
 15 17  1  0
 15 18  1  0
 16 44  1  0
 16 45  1  0
 16 46  1  0
 17 47  1  0
 17 48  1  0
 17 49  1  0
 18 50  1  0
 19 20  1  0
 19 30  1  0
 19 52  1  1
 20 29  1  0
 20 21  2  0
 21 22  1  0
 21 53  1  0
 22 23  2  0
 23 28  1  0
 23 24  1  0
 24 25  2  0
 24 54  1  0
 25 26  1  0
 25 55  1  0
 26 27  2  0
 26 56  1  0
 27 28  1  0
 27 57  1  0
 28 29  2  0
 29 58  1  0
 30 31  1  0
 30 59  1  6
 32 60  1  0
 32 51  1  0
M  END
>  <i_m_ct_stereo_status>  (213) 
1

>  <s_m_source_file>  (213) 
/var/tmp/pbs.5076255.sched01/tmpe6iyr0oq/80tt78e_gd.sdf

>  <i_m_source_file_index>  (213) 
10

>  <i_lp_mmshare_version>  (213) 
48012

>  <i_f3d_flags>  (213) 
0

>  <s_epik_input>  (213) 
Tz1DMVtDSDJdQyhbQ0gzXSkoW0NIM10pW0NIMl1DKFtDQEhdMTIpPU5DMz1DKEMoPU8pW0NIMl1DKFtDSDNdKShbQ0gzXSlbQ0gyXTMpW0NASF0oW0NAQEhdMkNsKWMoW2NIXW40KVtjSF1jKGM0NSlbY0hdW2NIXVtjSF1bY0hdNQ==

>  <s_epik_cmdline>  (213) 
J2VwaWtfcHl0aG9uJywgJy1waHQnLCAnMi4wJywgJy1waCcsICc3LjAnLCAnLXRuJywgJzgnLCAnLW1hJywgJzIwMCcsICctaW1hZScsICc8aW5maWxlLm1hZT4nLCAnLW9tYWUnLCAnPG91dGZpbGUubWFlPic=

>  <r_epik_Ionization_Penalty>  (213) 
0.00216244

>  <r_epik_Ionization_Penalty_Charging>  (213) 
0

>  <r_epik_Ionization_Penalty_Neutral>  (213) 
0.00216244

>  <r_epik_State_Penalty>  (213) 
0.875058

>  <r_epik_Charging_Adjusted_Penalty>  (213) 
0.875058

>  <i_epik_Tot_Q>  (213) 
0

>  <i_epik_Tot_abs_Q>  (213) 
0

>  <s_epik_Chemistry_Notes>  (213) 
This compound has an imine and may undergo hydrolysis.

>  <s_lp_Force_Field>  (213) 
OPLS3e

>  <r_lp_Energy>  (213) 
48.291

>  <b_lp_Chiralities_Consistent>  (213) 
1

>  <s_lp_Variant>  (213) 
63:0-4

>  <s_i_glide_gridfile>  (213) 
pfpi4k_grid

>  <i_i_glide_lignum>  (213) 
10

>  <i_i_glide_rotatable_bonds>  (213) 
1

>  <r_i_docking_score>  (213) 
-2.64662

>  <r_i_glide_ligand_efficiency>  (213) 
-0.0827068

>  <r_i_glide_ligand_efficiency_sa>  (213) 
-0.262578

>  <r_i_glide_ligand_efficiency_ln>  (213) 
-0.59265

>  <r_i_glide_gscore>  (213) 
-2.64662

>  <r_i_glide_lipo>  (213) 
-0.682327

>  <r_i_glide_hbond>  (213) 
-0.0487831

>  <r_i_glide_metal>  (213) 
-0

>  <r_i_glide_rewards>  (213) 
-0.38605

>  <r_i_glide_evdw>  (213) 
-27.4931

>  <r_i_glide_ecoul>  (213) 
-1.67763

>  <r_i_glide_erotb>  (213) 
0.0993975

>  <r_i_glide_esite>  (213) 
-0.00255642

>  <r_i_glide_emodel>  (213) 
-33.6182

>  <r_i_glide_energy>  (213) 
-29.1707

>  <r_i_glide_einternal>  (213) 
0.78859

>  <r_i_glide_intrahb_reward>  (213) 
-0

>  <i_i_glide_confnum>  (213) 
1

>  <i_i_glide_posenum>  (213) 
20

>  <r_i_glide_eff_state_penalty>  (213) 
0

>  <ligand_id>  (213) 
63

>  <original_smiles>  (213) 
CC1(C)CC(=O)C2C(=NC3=C(C(=O)CC(C)(C)C3)C(c3cnc4ccccc4c3)C2Cl)C1

>  <smiles>  (213) 
[H]C1=C2N=C3C([H])([H])C(C([H])([H])[H])(C([H])([H])[H])C([H])([H])C(=O)C3([H])C([H])(Cl)C([H])(c3c([H])nc4c([H])c([H])c([H])c([H])c4c3[H])C2([H])C(=O)C([H])([H])C1(C([H])([H])[H])C([H])([H])[H]

$$$$
63:3:1
     RDKit          3D

 61 65  0  0  1  0  0  0  0  0999 V2000
    0.0080    2.5739    4.7559 C   0  0  0  0  0  0  0  0  0  0  0  0
   -0.5360    1.6150    3.6656 C   0  0  0  0  0  0  0  0  0  0  0  0
   -1.6893    2.3105    2.9246 C   0  0  0  0  0  0  0  0  0  0  0  0
    0.5469    1.2362    2.6384 C   0  0  0  0  0  0  0  0  0  0  0  0
    1.6687    0.4096    3.2712 C   0  0  0  0  0  0  0  0  0  0  0  0
    2.8428    0.6838    3.0308 O   0  0  0  0  0  0  0  0  0  0  0  0
    1.3224   -0.7495    4.2387 C   0  0  1  0  0  0  0  0  0  0  0  0
   -0.0030   -0.5286    4.9882 C   0  0  0  0  0  0  0  0  0  0  0  0
   -0.2690   -1.0617    6.1097 N   0  0  0  0  0  0  0  0  0  0  0  0
    0.6090   -1.9754    6.6721 C   0  0  0  0  0  0  0  0  0  0  0  0
    0.7733   -3.3367    5.9834 C   0  0  2  0  0  0  0  0  0  0  0  0
    1.1619   -4.4309    7.0174 C   0  0  0  0  0  0  0  0  0  0  0  0
    1.2252   -5.6175    6.7112 O   0  0  0  0  0  0  0  0  0  0  0  0
    1.4026   -4.0419    8.4764 C   0  0  0  0  0  0  0  0  0  0  0  0
    1.9949   -2.6355    8.6712 C   0  0  0  0  0  0  0  0  0  0  0  0
    1.8811   -2.2762   10.1649 C   0  0  0  0  0  0  0  0  0  0  0  0
    3.4707   -2.5805    8.2288 C   0  0  0  0  0  0  0  0  0  0  0  0
    1.1915   -1.6540    7.8431 C   0  0  0  0  0  0  0  0  0  0  0  0
    1.6983   -3.2955    4.7050 C   0  0  1  0  0  0  0  0  0  0  0  0
    1.7763   -4.6578    4.0046 C   0  0  0  0  0  0  0  0  0  0  0  0
    0.6243   -5.4282    3.7585 C   0  0  0  0  0  0  0  0  0  0  0  0
    0.6287   -6.6151    3.1250 N   0  0  0  0  0  0  0  0  0  0  0  0
    1.8152   -7.1386    2.7407 C   0  0  0  0  0  0  0  0  0  0  0  0
    1.8523   -8.3939    2.1055 C   0  0  0  0  0  0  0  0  0  0  0  0
    3.0723   -8.9527    1.6783 C   0  0  0  0  0  0  0  0  0  0  0  0
    4.2756   -8.2530    1.8774 C   0  0  0  0  0  0  0  0  0  0  0  0
    4.2605   -6.9981    2.5161 C   0  0  0  0  0  0  0  0  0  0  0  0
    3.0375   -6.4453    2.9499 C   0  0  0  0  0  0  0  0  0  0  0  0
    3.0157   -5.1917    3.5933 C   0  0  0  0  0  0  0  0  0  0  0  0
    1.3585   -2.1878    3.6428 C   0  0  2  0  0  0  0  0  0  0  0  0
    2.5510   -2.2933    2.3031 Cl  0  0  0  0  0  0  0  0  0  0  0  0
   -1.0651    0.3198    4.3011 C   0  0  0  0  0  0  0  0  0  0  0  0
    0.8319    2.1367    5.3237 H   0  0  0  0  0  0  0  0  0  0  0  0
   -0.7686    2.8313    5.4797 H   0  0  0  0  0  0  0  0  0  0  0  0
    0.3800    3.5020    4.3175 H   0  0  0  0  0  0  0  0  0  0  0  0
   -2.0906    1.6678    2.1396 H   0  0  0  0  0  0  0  0  0  0  0  0
   -1.3587    3.2331    2.4490 H   0  0  0  0  0  0  0  0  0  0  0  0
   -2.5121    2.5519    3.5984 H   0  0  0  0  0  0  0  0  0  0  0  0
    0.1186    0.6685    1.8096 H   0  0  0  0  0  0  0  0  0  0  0  0
    0.9692    2.1397    2.1985 H   0  0  0  0  0  0  0  0  0  0  0  0
    2.1307   -0.6996    4.9716 H   0  0  0  0  0  0  0  0  0  0  0  0
    0.4398   -4.1109    8.9774 H   0  0  0  0  0  0  0  0  0  0  0  0
    2.0386   -4.7870    8.9472 H   0  0  0  0  0  0  0  0  0  0  0  0
    2.4226   -2.9896   10.7835 H   0  0  0  0  0  0  0  0  0  0  0  0
    0.8428   -2.2854   10.4985 H   0  0  0  0  0  0  0  0  0  0  0  0
    2.2838   -1.2849   10.3758 H   0  0  0  0  0  0  0  0  0  0  0  0
    4.0841   -3.2877    8.7879 H   0  0  0  0  0  0  0  0  0  0  0  0
    3.8868   -1.5800    8.3690 H   0  0  0  0  0  0  0  0  0  0  0  0
    3.5778   -2.8235    7.1710 H   0  0  0  0  0  0  0  0  0  0  0  0
    1.0105   -0.6833    8.2853 H   0  0  0  0  0  0  0  0  0  0  0  0
   -1.8573    0.5493    5.0115 H   0  0  0  0  0  0  0  0  0  0  0  0
    2.7047   -3.0743    5.0613 H   0  0  0  0  0  0  0  0  0  0  0  0
   -0.3458   -5.0829    4.0845 H   0  0  0  0  0  0  0  0  0  0  0  0
    0.9336   -8.9365    1.9476 H   0  0  0  0  0  0  0  0  0  0  0  0
    3.0832   -9.9195    1.1965 H   0  0  0  0  0  0  0  0  0  0  0  0
    5.2113   -8.6804    1.5450 H   0  0  0  0  0  0  0  0  0  0  0  0
    5.1827   -6.4602    2.6687 H   0  0  0  0  0  0  0  0  0  0  0  0
    3.9307   -4.6403    3.7549 H   0  0  0  0  0  0  0  0  0  0  0  0
    0.3927   -2.4118    3.1871 H   0  0  0  0  0  0  0  0  0  0  0  0
   -1.5222   -0.2928    3.5253 H   0  0  0  0  0  0  0  0  0  0  0  0
   -0.2316   -3.6024    5.6604 H   0  0  0  0  0  0  0  0  0  0  0  0
  1  2  1  0
  1 33  1  0
  1 34  1  0
  1 35  1  0
  2  3  1  0
  2  4  1  0
  2 32  1  0
  3 36  1  0
  3 37  1  0
  3 38  1  0
  4  5  1  0
  4 39  1  0
  4 40  1  0
  5  6  2  0
  5  7  1  0
  7 30  1  0
  7 41  1  1
  7  8  1  0
  8 32  1  0
  8  9  2  0
  9 10  1  0
 10 11  1  0
 10 18  2  0
 11 12  1  0
 11 19  1  0
 11 61  1  6
 12 13  2  0
 12 14  1  0
 14 15  1  0
 14 42  1  0
 14 43  1  0
 15 16  1  0
 15 17  1  0
 15 18  1  0
 16 44  1  0
 16 45  1  0
 16 46  1  0
 17 47  1  0
 17 48  1  0
 17 49  1  0
 18 50  1  0
 19 20  1  0
 19 30  1  0
 19 52  1  1
 20 29  1  0
 20 21  2  0
 21 22  1  0
 21 53  1  0
 22 23  2  0
 23 28  1  0
 23 24  1  0
 24 25  2  0
 24 54  1  0
 25 26  1  0
 25 55  1  0
 26 27  2  0
 26 56  1  0
 27 28  1  0
 27 57  1  0
 28 29  2  0
 29 58  1  0
 30 31  1  0
 30 59  1  6
 32 60  1  0
 32 51  1  0
M  END
>  <i_m_ct_stereo_status>  (214) 
1

>  <s_m_source_file>  (214) 
/var/tmp/pbs.5076255.sched01/tmpe6iyr0oq/80tt78e_gd.sdf

>  <i_m_source_file_index>  (214) 
10

>  <i_lp_mmshare_version>  (214) 
48012

>  <i_f3d_flags>  (214) 
0

>  <s_epik_input>  (214) 
Tz1DMVtDSDJdQyhbQ0gzXSkoW0NIM10pW0NIMl1DKFtDQEhdMTIpPU5DMz1DKEMoPU8pW0NIMl1DKFtDSDNdKShbQ0gzXSlbQ0gyXTMpW0NASF0oW0NAQEhdMkNsKWMoW2NIXW40KVtjSF1jKGM0NSlbY0hdW2NIXVtjSF1bY0hdNQ==

>  <s_epik_cmdline>  (214) 
J2VwaWtfcHl0aG9uJywgJy1waHQnLCAnMi4wJywgJy1waCcsICc3LjAnLCAnLXRuJywgJzgnLCAnLW1hJywgJzIwMCcsICctaW1hZScsICc8aW5maWxlLm1hZT4nLCAnLW9tYWUnLCAnPG91dGZpbGUubWFlPic=

>  <r_epik_Ionization_Penalty>  (214) 
0.00216244

>  <r_epik_Ionization_Penalty_Charging>  (214) 
0

>  <r_epik_Ionization_Penalty_Neutral>  (214) 
0.00216244

>  <r_epik_State_Penalty>  (214) 
0.875058

>  <r_epik_Charging_Adjusted_Penalty>  (214) 
0.875058

>  <i_epik_Tot_Q>  (214) 
0

>  <i_epik_Tot_abs_Q>  (214) 
0

>  <s_epik_Chemistry_Notes>  (214) 
This compound has an imine and may undergo hydrolysis.

>  <s_lp_Force_Field>  (214) 
OPLS3e

>  <r_lp_Energy>  (214) 
48.291

>  <b_lp_Chiralities_Consistent>  (214) 
1

>  <s_lp_Variant>  (214) 
63:0-4

>  <s_i_glide_gridfile>  (214) 
pfpi4k_grid

>  <i_i_glide_lignum>  (214) 
10

>  <i_i_glide_rotatable_bonds>  (214) 
1

>  <r_i_docking_score>  (214) 
-2.23911

>  <r_i_glide_ligand_efficiency>  (214) 
-0.0699723

>  <r_i_glide_ligand_efficiency_sa>  (214) 
-0.222148

>  <r_i_glide_ligand_efficiency_ln>  (214) 
-0.501399

>  <r_i_glide_gscore>  (214) 
-2.23911

>  <r_i_glide_lipo>  (214) 
-0.0385194

>  <r_i_glide_hbond>  (214) 
0

>  <r_i_glide_metal>  (214) 
-0

>  <r_i_glide_rewards>  (214) 
-0.347836

>  <r_i_glide_evdw>  (214) 
-27.0807

>  <r_i_glide_ecoul>  (214) 
-3.8298

>  <r_i_glide_erotb>  (214) 
0.0993975

>  <r_i_glide_esite>  (214) 
-0.0236525

>  <r_i_glide_emodel>  (214) 
-34.5632

>  <r_i_glide_energy>  (214) 
-30.9105

>  <r_i_glide_einternal>  (214) 
0.887691

>  <r_i_glide_intrahb_reward>  (214) 
-0

>  <i_i_glide_confnum>  (214) 
3

>  <i_i_glide_posenum>  (214) 
22

>  <r_i_glide_eff_state_penalty>  (214) 
0

>  <ligand_id>  (214) 
63

>  <original_smiles>  (214) 
CC1(C)CC(=O)C2C(=NC3=C(C(=O)CC(C)(C)C3)C(c3cnc4ccccc4c3)C2Cl)C1

>  <smiles>  (214) 
[H]C1=C2N=C3C([H])([H])C(C([H])([H])[H])(C([H])([H])[H])C([H])([H])C(=O)C3([H])C([H])(Cl)C([H])(c3c([H])nc4c([H])c([H])c([H])c([H])c4c3[H])C2([H])C(=O)C([H])([H])C1(C([H])([H])[H])C([H])([H])[H]

$$$$
63:3:2
     RDKit          3D

 61 65  0  0  1  0  0  0  0  0999 V2000
    0.7265    2.6928    4.0976 C   0  0  0  0  0  0  0  0  0  0  0  0
   -0.0792    1.6382    3.2943 C   0  0  0  0  0  0  0  0  0  0  0  0
   -1.4317    2.2471    2.8905 C   0  0  0  0  0  0  0  0  0  0  0  0
    0.6633    1.2032    2.0189 C   0  0  0  0  0  0  0  0  0  0  0  0
    1.9565    0.4469    2.3304 C   0  0  0  0  0  0  0  0  0  0  0  0
    2.9893    0.7184    1.7204 O   0  0  0  0  0  0  0  0  0  0  0  0
    1.9676   -0.6352    3.4377 C   0  0  1  0  0  0  0  0  0  0  0  0
    0.9192   -0.3804    4.5339 C   0  0  0  0  0  0  0  0  0  0  0  0
    1.0258   -0.8256    5.7175 N   0  0  0  0  0  0  0  0  0  0  0  0
    2.0653   -1.6788    6.0537 C   0  0  0  0  0  0  0  0  0  0  0  0
    2.0664   -3.0870    5.4446 C   0  0  2  0  0  0  0  0  0  0  0  0
    2.7953   -4.0886    6.3819 C   0  0  0  0  0  0  0  0  0  0  0  0
    2.8148   -5.2933    6.1453 O   0  0  0  0  0  0  0  0  0  0  0  0
    3.4502   -3.5810    7.6701 C   0  0  0  0  0  0  0  0  0  0  0  0
    4.0161   -2.1519    7.5799 C   0  0  0  0  0  0  0  0  0  0  0  0
    4.3419   -1.6757    9.0099 C   0  0  0  0  0  0  0  0  0  0  0  0
    5.2880   -2.1025    6.7097 C   0  0  0  0  0  0  0  0  0  0  0  0
    2.9604   -1.2548    6.9667 C   0  0  0  0  0  0  0  0  0  0  0  0
    2.5668   -3.1232    3.9529 C   0  0  1  0  0  0  0  0  0  0  0  0
    2.4893   -4.5321    3.3592 C   0  0  0  0  0  0  0  0  0  0  0  0
    1.2667   -5.2225    3.2756 C   0  0  0  0  0  0  0  0  0  0  0  0
    1.1356   -6.4501    2.7359 N   0  0  0  0  0  0  0  0  0  0  0  0
    2.2459   -7.0882    2.2948 C   0  0  0  0  0  0  0  0  0  0  0  0
    2.1441   -8.3852    1.7577 C   0  0  0  0  0  0  0  0  0  0  0  0
    3.2818   -9.0658    1.2839 C   0  0  0  0  0  0  0  0  0  0  0  0
    4.5451   -8.4524    1.3309 C   0  0  0  0  0  0  0  0  0  0  0  0
    4.6714   -7.1570    1.8674 C   0  0  0  0  0  0  0  0  0  0  0  0
    3.5292   -6.4796    2.3475 C   0  0  0  0  0  0  0  0  0  0  0  0
    3.6487   -5.1829    2.8855 C   0  0  0  0  0  0  0  0  0  0  0  0
    1.8810   -2.1156    2.9665 C   0  0  2  0  0  0  0  0  0  0  0  0
    2.6469   -2.3348    1.3585 Cl  0  0  0  0  0  0  0  0  0  0  0  0
   -0.3387    0.3843    4.1443 C   0  0  0  0  0  0  0  0  0  0  0  0
    1.7014    2.3194    4.4170 H   0  0  0  0  0  0  0  0  0  0  0  0
    0.1953    2.9944    5.0029 H   0  0  0  0  0  0  0  0  0  0  0  0
    0.9098    3.5893    3.5015 H   0  0  0  0  0  0  0  0  0  0  0  0
   -2.0194    1.5352    2.3100 H   0  0  0  0  0  0  0  0  0  0  0  0
   -1.3045    3.1334    2.2709 H   0  0  0  0  0  0  0  0  0  0  0  0
   -2.0226    2.5303    3.7625 H   0  0  0  0  0  0  0  0  0  0  0  0
    0.0310    0.5644    1.3992 H   0  0  0  0  0  0  0  0  0  0  0  0
    0.8930    2.0790    1.4122 H   0  0  0  0  0  0  0  0  0  0  0  0
    2.9543   -0.5088    3.8874 H   0  0  0  0  0  0  0  0  0  0  0  0
    2.6868   -3.6245    8.4441 H   0  0  0  0  0  0  0  0  0  0  0  0
    4.2277   -4.2743    7.9801 H   0  0  0  0  0  0  0  0  0  0  0  0
    5.0729   -2.3261    9.4866 H   0  0  0  0  0  0  0  0  0  0  0  0
    3.4524   -1.6769    9.6412 H   0  0  0  0  0  0  0  0  0  0  0  0
    4.7465   -0.6629    9.0199 H   0  0  0  0  0  0  0  0  0  0  0  0
    6.0707   -2.7506    7.1044 H   0  0  0  0  0  0  0  0  0  0  0  0
    5.6839   -1.0862    6.6467 H   0  0  0  0  0  0  0  0  0  0  0  0
    5.0817   -2.4263    5.6893 H   0  0  0  0  0  0  0  0  0  0  0  0
    2.8779   -0.2562    7.3744 H   0  0  0  0  0  0  0  0  0  0  0  0
   -0.8863    0.6556    5.0453 H   0  0  0  0  0  0  0  0  0  0  0  0
    3.6218   -2.8498    3.9719 H   0  0  0  0  0  0  0  0  0  0  0  0
    0.3541   -4.7689    3.6414 H   0  0  0  0  0  0  0  0  0  0  0  0
    1.1819   -8.8707    1.7109 H   0  0  0  0  0  0  0  0  0  0  0  0
    3.1802  -10.0642    0.8857 H   0  0  0  0  0  0  0  0  0  0  0  0
    5.4148   -8.9802    0.9635 H   0  0  0  0  0  0  0  0  0  0  0  0
    5.6418   -6.6877    1.9078 H   0  0  0  0  0  0  0  0  0  0  0  0
    4.6121   -4.6970    2.9328 H   0  0  0  0  0  0  0  0  0  0  0  0
    0.8310   -2.3843    2.8349 H   0  0  0  0  0  0  0  0  0  0  0  0
   -0.9814   -0.3026    3.5915 H   0  0  0  0  0  0  0  0  0  0  0  0
    1.0252   -3.4067    5.4521 H   0  0  0  0  0  0  0  0  0  0  0  0
  1  2  1  0
  1 33  1  0
  1 34  1  0
  1 35  1  0
  2  3  1  0
  2  4  1  0
  2 32  1  0
  3 36  1  0
  3 37  1  0
  3 38  1  0
  4  5  1  0
  4 39  1  0
  4 40  1  0
  5  6  2  0
  5  7  1  0
  7 30  1  0
  7 41  1  1
  7  8  1  0
  8 32  1  0
  8  9  2  0
  9 10  1  0
 10 11  1  0
 10 18  2  0
 11 12  1  0
 11 19  1  0
 11 61  1  6
 12 13  2  0
 12 14  1  0
 14 15  1  0
 14 42  1  0
 14 43  1  0
 15 16  1  0
 15 17  1  0
 15 18  1  0
 16 44  1  0
 16 45  1  0
 16 46  1  0
 17 47  1  0
 17 48  1  0
 17 49  1  0
 18 50  1  0
 19 20  1  0
 19 30  1  0
 19 52  1  1
 20 29  1  0
 20 21  2  0
 21 22  1  0
 21 53  1  0
 22 23  2  0
 23 28  1  0
 23 24  1  0
 24 25  2  0
 24 54  1  0
 25 26  1  0
 25 55  1  0
 26 27  2  0
 26 56  1  0
 27 28  1  0
 27 57  1  0
 28 29  2  0
 29 58  1  0
 30 31  1  0
 30 59  1  6
 32 60  1  0
 32 51  1  0
M  END
>  <i_m_ct_stereo_status>  (215) 
1

>  <s_m_source_file>  (215) 
/var/tmp/pbs.5076255.sched01/tmpe6iyr0oq/80tt78e_gd.sdf

>  <i_m_source_file_index>  (215) 
10

>  <i_lp_mmshare_version>  (215) 
48012

>  <i_f3d_flags>  (215) 
0

>  <s_epik_input>  (215) 
Tz1DMVtDSDJdQyhbQ0gzXSkoW0NIM10pW0NIMl1DKFtDQEhdMTIpPU5DMz1DKEMoPU8pW0NIMl1DKFtDSDNdKShbQ0gzXSlbQ0gyXTMpW0NASF0oW0NAQEhdMkNsKWMoW2NIXW40KVtjSF1jKGM0NSlbY0hdW2NIXVtjSF1bY0hdNQ==

>  <s_epik_cmdline>  (215) 
J2VwaWtfcHl0aG9uJywgJy1waHQnLCAnMi4wJywgJy1waCcsICc3LjAnLCAnLXRuJywgJzgnLCAnLW1hJywgJzIwMCcsICctaW1hZScsICc8aW5maWxlLm1hZT4nLCAnLW9tYWUnLCAnPG91dGZpbGUubWFlPic=

>  <r_epik_Ionization_Penalty>  (215) 
0.00216244

>  <r_epik_Ionization_Penalty_Charging>  (215) 
0

>  <r_epik_Ionization_Penalty_Neutral>  (215) 
0.00216244

>  <r_epik_State_Penalty>  (215) 
0.875058

>  <r_epik_Charging_Adjusted_Penalty>  (215) 
0.875058

>  <i_epik_Tot_Q>  (215) 
0

>  <i_epik_Tot_abs_Q>  (215) 
0

>  <s_epik_Chemistry_Notes>  (215) 
This compound has an imine and may undergo hydrolysis.

>  <s_lp_Force_Field>  (215) 
OPLS3e

>  <r_lp_Energy>  (215) 
48.291

>  <b_lp_Chiralities_Consistent>  (215) 
1

>  <s_lp_Variant>  (215) 
63:0-4

>  <s_i_glide_gridfile>  (215) 
pfpi4k_grid

>  <i_i_glide_lignum>  (215) 
10

>  <i_i_glide_rotatable_bonds>  (215) 
1

>  <r_i_docking_score>  (215) 
-2.23626

>  <r_i_glide_ligand_efficiency>  (215) 
-0.0698831

>  <r_i_glide_ligand_efficiency_sa>  (215) 
-0.221865

>  <r_i_glide_ligand_efficiency_ln>  (215) 
-0.50076

>  <r_i_glide_gscore>  (215) 
-2.23626

>  <r_i_glide_lipo>  (215) 
-0.0526681

>  <r_i_glide_hbond>  (215) 
0

>  <r_i_glide_metal>  (215) 
-0

>  <r_i_glide_rewards>  (215) 
-0.347836

>  <r_i_glide_evdw>  (215) 
-27.5707

>  <r_i_glide_ecoul>  (215) 
-3.53261

>  <r_i_glide_erotb>  (215) 
0.0993975

>  <r_i_glide_esite>  (215) 
-0.0267292

>  <r_i_glide_emodel>  (215) 
-35.294

>  <r_i_glide_energy>  (215) 
-31.1033

>  <r_i_glide_einternal>  (215) 
0.0255651

>  <r_i_glide_intrahb_reward>  (215) 
-0

>  <i_i_glide_confnum>  (215) 
3

>  <i_i_glide_posenum>  (215) 
9

>  <r_i_glide_eff_state_penalty>  (215) 
0

>  <ligand_id>  (215) 
63

>  <original_smiles>  (215) 
CC1(C)CC(=O)C2C(=NC3=C(C(=O)CC(C)(C)C3)C(c3cnc4ccccc4c3)C2Cl)C1

>  <smiles>  (215) 
[H]C1=C2N=C3C([H])([H])C(C([H])([H])[H])(C([H])([H])[H])C([H])([H])C(=O)C3([H])C([H])(Cl)C([H])(c3c([H])nc4c([H])c([H])c([H])c([H])c4c3[H])C2([H])C(=O)C([H])([H])C1(C([H])([H])[H])C([H])([H])[H]

$$$$
63:4:0
     RDKit          3D

 61 65  0  0  1  0  0  0  0  0999 V2000
    5.4245   -1.5769   -0.4736 C   0  0  0  0  0  0  0  0  0  0  0  0
    4.8450   -1.7668    0.9386 C   0  0  0  0  0  0  0  0  0  0  0  0
    5.2806   -3.1469    1.4895 C   0  0  0  0  0  0  0  0  0  0  0  0
    5.3929   -0.6443    1.8577 C   0  0  0  0  0  0  0  0  0  0  0  0
    4.6161   -0.5158    3.1773 C   0  0  0  0  0  0  0  0  0  0  0  0
    5.1971   -0.4443    4.2597 O   0  0  0  0  0  0  0  0  0  0  0  0
    3.0848   -0.4531    3.0487 C   0  0  1  0  0  0  0  0  0  0  0  0
    2.6648   -1.6841    2.2261 C   0  0  0  0  0  0  0  0  0  0  0  0
    1.9583   -2.6790    2.5836 N   0  0  0  0  0  0  0  0  0  0  0  0
    1.4829   -2.8186    3.8727 C   0  0  0  0  0  0  0  0  0  0  0  0
    0.3601   -1.8948    4.3524 C   0  0  1  0  0  0  0  0  0  0  0  0
   -0.1697   -2.3964    5.7102 C   0  0  0  0  0  0  0  0  0  0  0  0
   -1.3604   -2.3266    6.0191 O   0  0  0  0  0  0  0  0  0  0  0  0
    0.8693   -2.9510    6.6786 C   0  0  0  0  0  0  0  0  0  0  0  0
    1.6744   -4.1111    6.0574 C   0  0  0  0  0  0  0  0  0  0  0  0
    2.9704   -4.2921    6.8697 C   0  0  0  0  0  0  0  0  0  0  0  0
    0.8476   -5.4146    6.0724 C   0  0  0  0  0  0  0  0  0  0  0  0
    2.0404   -3.7968    4.6169 C   0  0  0  0  0  0  0  0  0  0  0  0
    0.7724   -0.3875    4.2764 C   0  0  1  0  0  0  0  0  0  0  0  0
   -0.0903    0.5406    5.1482 C   0  0  0  0  0  0  0  0  0  0  0  0
   -1.0443    1.3918    4.5477 C   0  0  0  0  0  0  0  0  0  0  0  0
   -1.8404    2.2264    5.2443 N   0  0  0  0  0  0  0  0  0  0  0  0
   -1.7431    2.2575    6.5907 C   0  0  0  0  0  0  0  0  0  0  0  0
   -2.5830    3.1083    7.3333 C   0  0  0  0  0  0  0  0  0  0  0  0
   -2.5056    3.1613    8.7383 C   0  0  0  0  0  0  0  0  0  0  0  0
   -1.5851    2.3467    9.4240 C   0  0  0  0  0  0  0  0  0  0  0  0
   -0.7392    1.4838    8.6989 C   0  0  0  0  0  0  0  0  0  0  0  0
   -0.8148    1.4424    7.2899 C   0  0  0  0  0  0  0  0  0  0  0  0
    0.0356    0.5954    6.5563 C   0  0  0  0  0  0  0  0  0  0  0  0
    2.3168   -0.1493    4.3790 C   0  0  2  0  0  0  0  0  0  0  0  0
    2.6372    1.5750    4.7391 Cl  0  0  0  0  0  0  0  0  0  0  0  0
    3.3005   -1.6787    0.8468 C   0  0  0  0  0  0  0  0  0  0  0  0
    5.1287   -0.6101   -0.8852 H   0  0  0  0  0  0  0  0  0  0  0  0
    5.0587   -2.3454   -1.1563 H   0  0  0  0  0  0  0  0  0  0  0  0
    6.5127   -1.6187   -0.4656 H   0  0  0  0  0  0  0  0  0  0  0  0
    4.9311   -3.3043    2.5122 H   0  0  0  0  0  0  0  0  0  0  0  0
    6.3672   -3.2428    1.5095 H   0  0  0  0  0  0  0  0  0  0  0  0
    4.8761   -3.9603    0.8846 H   0  0  0  0  0  0  0  0  0  0  0  0
    6.4539   -0.7944    2.0566 H   0  0  0  0  0  0  0  0  0  0  0  0
    5.3081    0.3098    1.3404 H   0  0  0  0  0  0  0  0  0  0  0  0
    2.8973    0.4051    2.4023 H   0  0  0  0  0  0  0  0  0  0  0  0
    1.5470   -2.1370    6.9279 H   0  0  0  0  0  0  0  0  0  0  0  0
    0.3959   -3.2656    7.6035 H   0  0  0  0  0  0  0  0  0  0  0  0
    2.7573   -4.4969    7.9168 H   0  0  0  0  0  0  0  0  0  0  0  0
    3.5808   -3.3881    6.8284 H   0  0  0  0  0  0  0  0  0  0  0  0
    3.5796   -5.1114    6.4838 H   0  0  0  0  0  0  0  0  0  0  0  0
    0.5399   -5.6800    7.0827 H   0  0  0  0  0  0  0  0  0  0  0  0
    1.4157   -6.2531    5.6630 H   0  0  0  0  0  0  0  0  0  0  0  0
   -0.0564   -5.3138    5.4676 H   0  0  0  0  0  0  0  0  0  0  0  0
    2.8159   -4.4115    4.1781 H   0  0  0  0  0  0  0  0  0  0  0  0
    2.9975   -0.7627    0.3335 H   0  0  0  0  0  0  0  0  0  0  0  0
    0.5174   -0.0801    3.2589 H   0  0  0  0  0  0  0  0  0  0  0  0
   -1.1809    1.4019    3.4719 H   0  0  0  0  0  0  0  0  0  0  0  0
   -3.2842    3.7297    6.8065 H   0  0  0  0  0  0  0  0  0  0  0  0
   -3.1469    3.8304    9.2937 H   0  0  0  0  0  0  0  0  0  0  0  0
   -1.5250    2.3847   10.5060 H   0  0  0  0  0  0  0  0  0  0  0  0
   -0.0348    0.8608    9.2279 H   0  0  0  0  0  0  0  0  0  0  0  0
    0.7541   -0.0212    7.0722 H   0  0  0  0  0  0  0  0  0  0  0  0
    2.7297   -0.7073    5.2229 H   0  0  0  0  0  0  0  0  0  0  0  0
    2.9041   -2.5070    0.2583 H   0  0  0  0  0  0  0  0  0  0  0  0
   -0.4836   -2.0333    3.6770 H   0  0  0  0  0  0  0  0  0  0  0  0
  1  2  1  0
  1 33  1  0
  1 34  1  0
  1 35  1  0
  2  3  1  0
  2  4  1  0
  2 32  1  0
  3 36  1  0
  3 37  1  0
  3 38  1  0
  4  5  1  0
  4 39  1  0
  4 40  1  0
  5  6  2  0
  5  7  1  0
  7 30  1  0
  7 41  1  6
  7  8  1  0
  8 32  1  0
  8  9  2  0
  9 10  1  0
 10 11  1  0
 10 18  2  0
 11 12  1  0
 11 19  1  0
 11 61  1  6
 12 13  2  0
 12 14  1  0
 14 15  1  0
 14 42  1  0
 14 43  1  0
 15 16  1  0
 15 17  1  0
 15 18  1  0
 16 44  1  0
 16 45  1  0
 16 46  1  0
 17 47  1  0
 17 48  1  0
 17 49  1  0
 18 50  1  0
 19 20  1  0
 19 30  1  0
 19 52  1  6
 20 29  1  0
 20 21  2  0
 21 22  1  0
 21 53  1  0
 22 23  2  0
 23 28  1  0
 23 24  1  0
 24 25  2  0
 24 54  1  0
 25 26  1  0
 25 55  1  0
 26 27  2  0
 26 56  1  0
 27 28  1  0
 27 57  1  0
 28 29  2  0
 29 58  1  0
 30 31  1  0
 30 59  1  1
 32 60  1  0
 32 51  1  0
M  END
>  <i_m_ct_stereo_status>  (216) 
1

>  <s_m_source_file>  (216) 
/var/tmp/pbs.5076255.sched01/tmpe6iyr0oq/80tt78e_gd.sdf

>  <i_m_source_file_index>  (216) 
11

>  <i_lp_mmshare_version>  (216) 
48012

>  <i_f3d_flags>  (216) 
0

>  <s_epik_input>  (216) 
Tz1DMVtDSDJdQyhbQ0gzXSkoW0NIM10pW0NIMl1DKFtDQEhdMTIpPU5DMz1DKEMoPU8pW0NIMl1DKFtDSDNdKShbQ0gzXSlbQ0gyXTMpW0NASF0oW0NAQEhdMkNsKWMoW2NIXW40KVtjSF1jKGM0NSlbY0hdW2NIXVtjSF1bY0hdNQ==

>  <s_epik_cmdline>  (216) 
J2VwaWtfcHl0aG9uJywgJy1waHQnLCAnMi4wJywgJy1waCcsICc3LjAnLCAnLXRuJywgJzgnLCAnLW1hJywgJzIwMCcsICctaW1hZScsICc8aW5maWxlLm1hZT4nLCAnLW9tYWUnLCAnPG91dGZpbGUubWFlPic=

>  <r_epik_Ionization_Penalty>  (216) 
0.00216244

>  <r_epik_Ionization_Penalty_Charging>  (216) 
0

>  <r_epik_Ionization_Penalty_Neutral>  (216) 
0.00216244

>  <r_epik_State_Penalty>  (216) 
0.875058

>  <r_epik_Charging_Adjusted_Penalty>  (216) 
0.875058

>  <i_epik_Tot_Q>  (216) 
0

>  <i_epik_Tot_abs_Q>  (216) 
0

>  <s_epik_Chemistry_Notes>  (216) 
This compound has an imine and may undergo hydrolysis.

>  <s_lp_Force_Field>  (216) 
OPLS3e

>  <r_lp_Energy>  (216) 
45.4579

>  <b_lp_Chiralities_Consistent>  (216) 
1

>  <s_lp_Variant>  (216) 
63:0-5

>  <s_i_glide_gridfile>  (216) 
pfpi4k_grid

>  <i_i_glide_lignum>  (216) 
11

>  <i_i_glide_rotatable_bonds>  (216) 
1

>  <r_i_docking_score>  (216) 
-2.74515

>  <r_i_glide_ligand_efficiency>  (216) 
-0.085786

>  <r_i_glide_ligand_efficiency_sa>  (216) 
-0.272354

>  <r_i_glide_ligand_efficiency_ln>  (216) 
-0.614714

>  <r_i_glide_gscore>  (216) 
-2.74515

>  <r_i_glide_lipo>  (216) 
-0.378803

>  <r_i_glide_hbond>  (216) 
0

>  <r_i_glide_metal>  (216) 
-0

>  <r_i_glide_rewards>  (216) 
-0.464587

>  <r_i_glide_evdw>  (216) 
-30.4514

>  <r_i_glide_ecoul>  (216) 
-2.94102

>  <r_i_glide_erotb>  (216) 
0.0993975

>  <r_i_glide_esite>  (216) 
-0.0374367

>  <r_i_glide_emodel>  (216) 
-39.354

>  <r_i_glide_energy>  (216) 
-33.3924

>  <r_i_glide_einternal>  (216) 
0.489467

>  <r_i_glide_intrahb_reward>  (216) 
-0

>  <i_i_glide_confnum>  (216) 
2

>  <i_i_glide_posenum>  (216) 
10

>  <r_i_glide_eff_state_penalty>  (216) 
0

>  <ligand_id>  (216) 
63

>  <original_smiles>  (216) 
CC1(C)CC(=O)C2C(=NC3=C(C(=O)CC(C)(C)C3)C(c3cnc4ccccc4c3)C2Cl)C1

>  <smiles>  (216) 
[H]C1=C2N=C3C([H])([H])C(C([H])([H])[H])(C([H])([H])[H])C([H])([H])C(=O)C3([H])C([H])(Cl)C([H])(c3c([H])nc4c([H])c([H])c([H])c([H])c4c3[H])C2([H])C(=O)C([H])([H])C1(C([H])([H])[H])C([H])([H])[H]

$$$$
63:4:1
     RDKit          3D

 61 65  0  0  1  0  0  0  0  0999 V2000
    5.0318   -3.2992   -2.7318 C   0  0  0  0  0  0  0  0  0  0  0  0
    4.8550   -3.1244   -1.2109 C   0  0  0  0  0  0  0  0  0  0  0  0
    5.6484   -4.2332   -0.4733 C   0  0  0  0  0  0  0  0  0  0  0  0
    5.3940   -1.7270   -0.8004 C   0  0  0  0  0  0  0  0  0  0  0  0
    4.9547   -1.3082    0.6143 C   0  0  0  0  0  0  0  0  0  0  0  0
    5.7616   -0.8789    1.4360 O   0  0  0  0  0  0  0  0  0  0  0  0
    3.4542   -1.4600    0.9182 C   0  0  1  0  0  0  0  0  0  0  0  0
    3.0769   -2.9164    0.5824 C   0  0  0  0  0  0  0  0  0  0  0  0
    2.6734   -3.8366    1.3631 N   0  0  0  0  0  0  0  0  0  0  0  0
    2.5725   -3.6464    2.7224 C   0  0  0  0  0  0  0  0  0  0  0  0
    1.4476   -2.7487    3.2579 C   0  0  1  0  0  0  0  0  0  0  0  0
    1.3623   -2.9198    4.7848 C   0  0  0  0  0  0  0  0  0  0  0  0
    0.2864   -2.9448    5.3774 O   0  0  0  0  0  0  0  0  0  0  0  0
    2.6946   -3.0336    5.5283 C   0  0  0  0  0  0  0  0  0  0  0  0
    3.5302   -4.2233    5.0126 C   0  0  0  0  0  0  0  0  0  0  0  0
    4.9963   -4.0161    5.4431 C   0  0  0  0  0  0  0  0  0  0  0  0
    2.9816   -5.5439    5.5923 C   0  0  0  0  0  0  0  0  0  0  0  0
    3.4683   -4.3003    3.4950 C   0  0  0  0  0  0  0  0  0  0  0  0
    1.5430   -1.2850    2.7070 C   0  0  1  0  0  0  0  0  0  0  0  0
    0.7942   -0.2200    3.5376 C   0  0  0  0  0  0  0  0  0  0  0  0
    1.1630    0.1052    4.8605 C   0  0  0  0  0  0  0  0  0  0  0  0
    0.5072    0.9765    5.6394 N   0  0  0  0  0  0  0  0  0  0  0  0
   -0.5255    1.6609    5.1121 C   0  0  0  0  0  0  0  0  0  0  0  0
   -1.2127    2.5826    5.9219 C   0  0  0  0  0  0  0  0  0  0  0  0
   -2.2705    3.3380    5.3936 C   0  0  0  0  0  0  0  0  0  0  0  0
   -2.6483    3.1723    4.0486 C   0  0  0  0  0  0  0  0  0  0  0  0
   -1.9838    2.2433    3.2326 C   0  0  0  0  0  0  0  0  0  0  0  0
   -0.9268    1.4802    3.7616 C   0  0  0  0  0  0  0  0  0  0  0  0
   -0.2566    0.5333    2.9644 C   0  0  0  0  0  0  0  0  0  0  0  0
    2.9860   -0.8668    2.2907 C   0  0  2  0  0  0  0  0  0  0  0  0
    2.9943    0.9086    2.0860 Cl  0  0  0  0  0  0  0  0  0  0  0  0
    3.3431   -3.2370   -0.8814 C   0  0  0  0  0  0  0  0  0  0  0  0
    4.4760   -2.5317   -3.2746 H   0  0  0  0  0  0  0  0  0  0  0  0
    4.6527   -4.2690   -3.0651 H   0  0  0  0  0  0  0  0  0  0  0  0
    6.0795   -3.2275   -3.0295 H   0  0  0  0  0  0  0  0  0  0  0  0
    5.5924   -4.1315    0.6127 H   0  0  0  0  0  0  0  0  0  0  0  0
    6.7079   -4.2036   -0.7299 H   0  0  0  0  0  0  0  0  0  0  0  0
    5.2650   -5.2251   -0.7244 H   0  0  0  0  0  0  0  0  0  0  0  0
    6.4801   -1.7197   -0.8713 H   0  0  0  0  0  0  0  0  0  0  0  0
    5.0270   -0.9690   -1.4920 H   0  0  0  0  0  0  0  0  0  0  0  0
    2.9572   -0.8512    0.1604 H   0  0  0  0  0  0  0  0  0  0  0  0
    3.2563   -2.1184    5.3538 H   0  0  0  0  0  0  0  0  0  0  0  0
    2.5303   -3.1128    6.5991 H   0  0  0  0  0  0  0  0  0  0  0  0
    5.0844   -3.9301    6.5230 H   0  0  0  0  0  0  0  0  0  0  0  0
    5.4006   -3.1036    5.0028 H   0  0  0  0  0  0  0  0  0  0  0  0
    5.6294   -4.8437    5.1160 H   0  0  0  0  0  0  0  0  0  0  0  0
    2.9855   -5.5283    6.6808 H   0  0  0  0  0  0  0  0  0  0  0  0
    3.5733   -6.4019    5.2604 H   0  0  0  0  0  0  0  0  0  0  0  0
    1.9516   -5.7136    5.2699 H   0  0  0  0  0  0  0  0  0  0  0  0
    4.2152   -4.9297    3.0203 H   0  0  0  0  0  0  0  0  0  0  0  0
    2.7593   -2.5439   -1.4950 H   0  0  0  0  0  0  0  0  0  0  0  0
    0.9939   -1.3055    1.7634 H   0  0  0  0  0  0  0  0  0  0  0  0
    2.0042   -0.3643    5.3520 H   0  0  0  0  0  0  0  0  0  0  0  0
   -0.8998    2.7135    6.9426 H   0  0  0  0  0  0  0  0  0  0  0  0
   -2.7860    4.0422    6.0278 H   0  0  0  0  0  0  0  0  0  0  0  0
   -3.4649    3.7340    3.6236 H   0  0  0  0  0  0  0  0  0  0  0  0
   -2.2984    2.0958    2.2110 H   0  0  0  0  0  0  0  0  0  0  0  0
   -0.5590    0.3907    1.9359 H   0  0  0  0  0  0  0  0  0  0  0  0
    3.6964   -1.0926    3.0921 H   0  0  0  0  0  0  0  0  0  0  0  0
    2.9820   -4.2422   -1.1048 H   0  0  0  0  0  0  0  0  0  0  0  0
    0.5104   -3.1661    2.8840 H   0  0  0  0  0  0  0  0  0  0  0  0
  1  2  1  0
  1 33  1  0
  1 34  1  0
  1 35  1  0
  2  3  1  0
  2  4  1  0
  2 32  1  0
  3 36  1  0
  3 37  1  0
  3 38  1  0
  4  5  1  0
  4 39  1  0
  4 40  1  0
  5  6  2  0
  5  7  1  0
  7 30  1  0
  7 41  1  6
  7  8  1  0
  8 32  1  0
  8  9  2  0
  9 10  1  0
 10 11  1  0
 10 18  2  0
 11 12  1  0
 11 19  1  0
 11 61  1  6
 12 13  2  0
 12 14  1  0
 14 15  1  0
 14 42  1  0
 14 43  1  0
 15 16  1  0
 15 17  1  0
 15 18  1  0
 16 44  1  0
 16 45  1  0
 16 46  1  0
 17 47  1  0
 17 48  1  0
 17 49  1  0
 18 50  1  0
 19 20  1  0
 19 30  1  0
 19 52  1  6
 20 29  1  0
 20 21  2  0
 21 22  1  0
 21 53  1  0
 22 23  2  0
 23 28  1  0
 23 24  1  0
 24 25  2  0
 24 54  1  0
 25 26  1  0
 25 55  1  0
 26 27  2  0
 26 56  1  0
 27 28  1  0
 27 57  1  0
 28 29  2  0
 29 58  1  0
 30 31  1  0
 30 59  1  1
 32 60  1  0
 32 51  1  0
M  END
>  <i_m_ct_stereo_status>  (217) 
1

>  <s_m_source_file>  (217) 
/var/tmp/pbs.5076255.sched01/tmpe6iyr0oq/80tt78e_gd.sdf

>  <i_m_source_file_index>  (217) 
11

>  <i_lp_mmshare_version>  (217) 
48012

>  <i_f3d_flags>  (217) 
0

>  <s_epik_input>  (217) 
Tz1DMVtDSDJdQyhbQ0gzXSkoW0NIM10pW0NIMl1DKFtDQEhdMTIpPU5DMz1DKEMoPU8pW0NIMl1DKFtDSDNdKShbQ0gzXSlbQ0gyXTMpW0NASF0oW0NAQEhdMkNsKWMoW2NIXW40KVtjSF1jKGM0NSlbY0hdW2NIXVtjSF1bY0hdNQ==

>  <s_epik_cmdline>  (217) 
J2VwaWtfcHl0aG9uJywgJy1waHQnLCAnMi4wJywgJy1waCcsICc3LjAnLCAnLXRuJywgJzgnLCAnLW1hJywgJzIwMCcsICctaW1hZScsICc8aW5maWxlLm1hZT4nLCAnLW9tYWUnLCAnPG91dGZpbGUubWFlPic=

>  <r_epik_Ionization_Penalty>  (217) 
0.00216244

>  <r_epik_Ionization_Penalty_Charging>  (217) 
0

>  <r_epik_Ionization_Penalty_Neutral>  (217) 
0.00216244

>  <r_epik_State_Penalty>  (217) 
0.875058

>  <r_epik_Charging_Adjusted_Penalty>  (217) 
0.875058

>  <i_epik_Tot_Q>  (217) 
0

>  <i_epik_Tot_abs_Q>  (217) 
0

>  <s_epik_Chemistry_Notes>  (217) 
This compound has an imine and may undergo hydrolysis.

>  <s_lp_Force_Field>  (217) 
OPLS3e

>  <r_lp_Energy>  (217) 
45.4579

>  <b_lp_Chiralities_Consistent>  (217) 
1

>  <s_lp_Variant>  (217) 
63:0-5

>  <s_i_glide_gridfile>  (217) 
pfpi4k_grid

>  <i_i_glide_lignum>  (217) 
11

>  <i_i_glide_rotatable_bonds>  (217) 
1

>  <r_i_docking_score>  (217) 
-2.68118

>  <r_i_glide_ligand_efficiency>  (217) 
-0.083787

>  <r_i_glide_ligand_efficiency_sa>  (217) 
-0.266007

>  <r_i_glide_ligand_efficiency_ln>  (217) 
-0.60039

>  <r_i_glide_gscore>  (217) 
-2.68118

>  <r_i_glide_lipo>  (217) 
-0.424743

>  <r_i_glide_hbond>  (217) 
0

>  <r_i_glide_metal>  (217) 
-0

>  <r_i_glide_rewards>  (217) 
-0.431622

>  <r_i_glide_evdw>  (217) 
-32.9777

>  <r_i_glide_ecoul>  (217) 
-1.6659

>  <r_i_glide_erotb>  (217) 
0.0993975

>  <r_i_glide_esite>  (217) 
-0.0254481

>  <r_i_glide_emodel>  (217) 
-39.1047

>  <r_i_glide_energy>  (217) 
-34.6436

>  <r_i_glide_einternal>  (217) 
2.56515

>  <r_i_glide_intrahb_reward>  (217) 
-0

>  <i_i_glide_confnum>  (217) 
4

>  <i_i_glide_posenum>  (217) 
7

>  <r_i_glide_eff_state_penalty>  (217) 
0

>  <ligand_id>  (217) 
63

>  <original_smiles>  (217) 
CC1(C)CC(=O)C2C(=NC3=C(C(=O)CC(C)(C)C3)C(c3cnc4ccccc4c3)C2Cl)C1

>  <smiles>  (217) 
[H]C1=C2N=C3C([H])([H])C(C([H])([H])[H])(C([H])([H])[H])C([H])([H])C(=O)C3([H])C([H])(Cl)C([H])(c3c([H])nc4c([H])c([H])c([H])c([H])c4c3[H])C2([H])C(=O)C([H])([H])C1(C([H])([H])[H])C([H])([H])[H]

$$$$
63:4:2
     RDKit          3D

 61 65  0  0  1  0  0  0  0  0999 V2000
    4.4203   -2.9411   -2.2084 C   0  0  0  0  0  0  0  0  0  0  0  0
    4.4194   -2.7678   -0.6803 C   0  0  0  0  0  0  0  0  0  0  0  0
    5.5202   -3.6681   -0.0654 C   0  0  0  0  0  0  0  0  0  0  0  0
    4.7074   -1.2765   -0.3490 C   0  0  0  0  0  0  0  0  0  0  0  0
    4.3904   -0.9215    1.1100 C   0  0  0  0  0  0  0  0  0  0  0  0
    5.1931   -0.3086    1.8129 O   0  0  0  0  0  0  0  0  0  0  0  0
    3.0092   -1.3674    1.6141 C   0  0  1  0  0  0  0  0  0  0  0  0
    2.8966   -2.8760    1.3402 C   0  0  0  0  0  0  0  0  0  0  0  0
    2.7833   -3.8322    2.1700 N   0  0  0  0  0  0  0  0  0  0  0  0
    2.8243   -3.6210    3.5320 C   0  0  0  0  0  0  0  0  0  0  0  0
    1.6252   -2.9498    4.2065 C   0  0  1  0  0  0  0  0  0  0  0  0
    1.7806   -3.0444    5.7377 C   0  0  0  0  0  0  0  0  0  0  0  0
    0.8153   -3.2352    6.4745 O   0  0  0  0  0  0  0  0  0  0  0  0
    3.1953   -2.8959    6.2945 C   0  0  0  0  0  0  0  0  0  0  0  0
    4.1715   -3.9221    5.6754 C   0  0  0  0  0  0  0  0  0  0  0  0
    5.6099   -3.4215    5.8988 C   0  0  0  0  0  0  0  0  0  0  0  0
    3.9942   -5.3152    6.3194 C   0  0  0  0  0  0  0  0  0  0  0  0
    3.9247   -4.0572    4.1823 C   0  0  0  0  0  0  0  0  0  0  0  0
    1.3494   -1.5184    3.6354 C   0  0  1  0  0  0  0  0  0  0  0  0
    0.4987   -0.6499    4.5795 C   0  0  0  0  0  0  0  0  0  0  0  0
   -0.9065   -0.7611    4.5635 C   0  0  0  0  0  0  0  0  0  0  0  0
   -1.7350   -0.0493    5.3535 N   0  0  0  0  0  0  0  0  0  0  0  0
   -1.1969    0.8611    6.1928 C   0  0  0  0  0  0  0  0  0  0  0  0
   -2.0446    1.6390    7.0061 C   0  0  0  0  0  0  0  0  0  0  0  0
   -1.5122    2.5715    7.9142 C   0  0  0  0  0  0  0  0  0  0  0  0
   -0.1189    2.7424    8.0148 C   0  0  0  0  0  0  0  0  0  0  0  0
    0.7424    1.9768    7.2067 C   0  0  0  0  0  0  0  0  0  0  0  0
    0.2076    1.0353    6.3045 C   0  0  0  0  0  0  0  0  0  0  0  0
    1.0640    0.2600    5.4993 C   0  0  0  0  0  0  0  0  0  0  0  0
    2.6200   -0.8280    3.0254 C   0  0  2  0  0  0  0  0  0  0  0  0
    2.3271    0.9187    2.7504 Cl  0  0  0  0  0  0  0  0  0  0  0  0
    3.0260   -3.1855   -0.1409 C   0  0  0  0  0  0  0  0  0  0  0  0
    3.6459   -2.3219   -2.6647 H   0  0  0  0  0  0  0  0  0  0  0  0
    4.2154   -3.9759   -2.4865 H   0  0  0  0  0  0  0  0  0  0  0  0
    5.3765   -2.6575   -2.6468 H   0  0  0  0  0  0  0  0  0  0  0  0
    5.5908   -3.5444    1.0177 H   0  0  0  0  0  0  0  0  0  0  0  0
    6.5030   -3.4343   -0.4760 H   0  0  0  0  0  0  0  0  0  0  0  0
    5.3166   -4.7247   -0.2522 H   0  0  0  0  0  0  0  0  0  0  0  0
    5.7449   -1.0325   -0.5709 H   0  0  0  0  0  0  0  0  0  0  0  0
    4.0935   -0.6336   -0.9791 H   0  0  0  0  0  0  0  0  0  0  0  0
    2.2997   -0.8982    0.9307 H   0  0  0  0  0  0  0  0  0  0  0  0
    3.5265   -1.8851    6.0633 H   0  0  0  0  0  0  0  0  0  0  0  0
    3.1878   -2.9887    7.3765 H   0  0  0  0  0  0  0  0  0  0  0  0
    5.8245   -3.2906    6.9572 H   0  0  0  0  0  0  0  0  0  0  0  0
    5.7610   -2.4588    5.4086 H   0  0  0  0  0  0  0  0  0  0  0  0
    6.3484   -4.1133    5.4900 H   0  0  0  0  0  0  0  0  0  0  0  0
    4.1426   -5.2795    7.3975 H   0  0  0  0  0  0  0  0  0  0  0  0
    4.7015   -6.0408    5.9096 H   0  0  0  0  0  0  0  0  0  0  0  0
    2.9923   -5.7095    6.1370 H   0  0  0  0  0  0  0  0  0  0  0  0
    4.7084   -4.5410    3.6136 H   0  0  0  0  0  0  0  0  0  0  0  0
    2.2304   -2.6605   -0.6728 H   0  0  0  0  0  0  0  0  0  0  0  0
    0.6826   -1.6723    2.7827 H   0  0  0  0  0  0  0  0  0  0  0  0
   -1.3898   -1.4623    3.8986 H   0  0  0  0  0  0  0  0  0  0  0  0
   -3.1111    1.5244    6.9213 H   0  0  0  0  0  0  0  0  0  0  0  0
   -2.1727    3.1552    8.5395 H   0  0  0  0  0  0  0  0  0  0  0  0
    0.2947    3.4577    8.7136 H   0  0  0  0  0  0  0  0  0  0  0  0
    1.8104    2.1073    7.2798 H   0  0  0  0  0  0  0  0  0  0  0  0
    2.1341    0.3767    5.5776 H   0  0  0  0  0  0  0  0  0  0  0  0
    3.4536   -0.8917    3.7299 H   0  0  0  0  0  0  0  0  0  0  0  0
    2.8498   -4.2464   -0.3133 H   0  0  0  0  0  0  0  0  0  0  0  0
    0.7500   -3.5644    3.9840 H   0  0  0  0  0  0  0  0  0  0  0  0
  1  2  1  0
  1 33  1  0
  1 34  1  0
  1 35  1  0
  2  3  1  0
  2  4  1  0
  2 32  1  0
  3 36  1  0
  3 37  1  0
  3 38  1  0
  4  5  1  0
  4 39  1  0
  4 40  1  0
  5  6  2  0
  5  7  1  0
  7 30  1  0
  7 41  1  6
  7  8  1  0
  8 32  1  0
  8  9  2  0
  9 10  1  0
 10 11  1  0
 10 18  2  0
 11 12  1  0
 11 19  1  0
 11 61  1  6
 12 13  2  0
 12 14  1  0
 14 15  1  0
 14 42  1  0
 14 43  1  0
 15 16  1  0
 15 17  1  0
 15 18  1  0
 16 44  1  0
 16 45  1  0
 16 46  1  0
 17 47  1  0
 17 48  1  0
 17 49  1  0
 18 50  1  0
 19 20  1  0
 19 30  1  0
 19 52  1  6
 20 29  1  0
 20 21  2  0
 21 22  1  0
 21 53  1  0
 22 23  2  0
 23 28  1  0
 23 24  1  0
 24 25  2  0
 24 54  1  0
 25 26  1  0
 25 55  1  0
 26 27  2  0
 26 56  1  0
 27 28  1  0
 27 57  1  0
 28 29  2  0
 29 58  1  0
 30 31  1  0
 30 59  1  1
 32 60  1  0
 32 51  1  0
M  END
>  <i_m_ct_stereo_status>  (218) 
1

>  <s_m_source_file>  (218) 
/var/tmp/pbs.5076255.sched01/tmpe6iyr0oq/80tt78e_gd.sdf

>  <i_m_source_file_index>  (218) 
11

>  <i_lp_mmshare_version>  (218) 
48012

>  <i_f3d_flags>  (218) 
0

>  <s_epik_input>  (218) 
Tz1DMVtDSDJdQyhbQ0gzXSkoW0NIM10pW0NIMl1DKFtDQEhdMTIpPU5DMz1DKEMoPU8pW0NIMl1DKFtDSDNdKShbQ0gzXSlbQ0gyXTMpW0NASF0oW0NAQEhdMkNsKWMoW2NIXW40KVtjSF1jKGM0NSlbY0hdW2NIXVtjSF1bY0hdNQ==

>  <s_epik_cmdline>  (218) 
J2VwaWtfcHl0aG9uJywgJy1waHQnLCAnMi4wJywgJy1waCcsICc3LjAnLCAnLXRuJywgJzgnLCAnLW1hJywgJzIwMCcsICctaW1hZScsICc8aW5maWxlLm1hZT4nLCAnLW9tYWUnLCAnPG91dGZpbGUubWFlPic=

>  <r_epik_Ionization_Penalty>  (218) 
0.00216244

>  <r_epik_Ionization_Penalty_Charging>  (218) 
0

>  <r_epik_Ionization_Penalty_Neutral>  (218) 
0.00216244

>  <r_epik_State_Penalty>  (218) 
0.875058

>  <r_epik_Charging_Adjusted_Penalty>  (218) 
0.875058

>  <i_epik_Tot_Q>  (218) 
0

>  <i_epik_Tot_abs_Q>  (218) 
0

>  <s_epik_Chemistry_Notes>  (218) 
This compound has an imine and may undergo hydrolysis.

>  <s_lp_Force_Field>  (218) 
OPLS3e

>  <r_lp_Energy>  (218) 
45.4579

>  <b_lp_Chiralities_Consistent>  (218) 
1

>  <s_lp_Variant>  (218) 
63:0-5

>  <s_i_glide_gridfile>  (218) 
pfpi4k_grid

>  <i_i_glide_lignum>  (218) 
11

>  <i_i_glide_rotatable_bonds>  (218) 
1

>  <r_i_docking_score>  (218) 
-2.60884

>  <r_i_glide_ligand_efficiency>  (218) 
-0.0815262

>  <r_i_glide_ligand_efficiency_sa>  (218) 
-0.25883

>  <r_i_glide_ligand_efficiency_ln>  (218) 
-0.58419

>  <r_i_glide_gscore>  (218) 
-2.60884

>  <r_i_glide_lipo>  (218) 
-0.088027

>  <r_i_glide_hbond>  (218) 
-0.125958

>  <r_i_glide_metal>  (218) 
-0

>  <r_i_glide_rewards>  (218) 
-0.424705

>  <r_i_glide_evdw>  (218) 
-29.9794

>  <r_i_glide_ecoul>  (218) 
-3.7101

>  <r_i_glide_erotb>  (218) 
0.0993975

>  <r_i_glide_esite>  (218) 
-0.0140601

>  <r_i_glide_emodel>  (218) 
-39.3435

>  <r_i_glide_energy>  (218) 
-33.6895

>  <r_i_glide_einternal>  (218) 
0.490012

>  <r_i_glide_intrahb_reward>  (218) 
-0

>  <i_i_glide_confnum>  (218) 
1

>  <i_i_glide_posenum>  (218) 
13

>  <r_i_glide_eff_state_penalty>  (218) 
0

>  <ligand_id>  (218) 
63

>  <original_smiles>  (218) 
CC1(C)CC(=O)C2C(=NC3=C(C(=O)CC(C)(C)C3)C(c3cnc4ccccc4c3)C2Cl)C1

>  <smiles>  (218) 
[H]C1=C2N=C3C([H])([H])C(C([H])([H])[H])(C([H])([H])[H])C([H])([H])C(=O)C3([H])C([H])(Cl)C([H])(c3c([H])nc4c([H])c([H])c([H])c([H])c4c3[H])C2([H])C(=O)C([H])([H])C1(C([H])([H])[H])C([H])([H])[H]

$$$$
63:5:0
     RDKit          3D

 61 65  0  0  1  0  0  0  0  0999 V2000
   -0.9032   -8.0435    4.5907 C   0  0  0  0  0  0  0  0  0  0  0  0
   -0.4938   -8.3587    3.1304 C   0  0  0  0  0  0  0  0  0  0  0  0
   -1.6684   -9.0370    2.4189 C   0  0  0  0  0  0  0  0  0  0  0  0
   -0.1252   -7.0904    2.3514 C   0  0  0  0  0  0  0  0  0  0  0  0
    1.1608   -6.4289    2.8541 C   0  0  0  0  0  0  0  0  0  0  0  0
    1.2891   -5.2224    2.6524 O   0  0  0  0  0  0  0  0  0  0  0  0
    2.2042   -7.2657    3.4980 C   0  0  0  0  0  0  0  0  0  0  0  0
    2.0017   -8.6086    3.5842 C   0  0  0  0  0  0  0  0  0  0  0  0
    2.9004   -9.4475    4.2330 N   0  0  0  0  0  0  0  0  0  0  0  0
    4.1510   -9.4422    4.0096 C   0  0  0  0  0  0  0  0  0  0  0  0
    4.8314   -8.5227    2.9700 C   0  0  2  0  0  0  0  0  0  0  0  0
    6.2401   -9.0006    2.5408 C   0  0  0  0  0  0  0  0  0  0  0  0
    6.7375   -8.6280    1.4805 O   0  0  0  0  0  0  0  0  0  0  0  0
    7.0332   -9.9398    3.4543 C   0  0  0  0  0  0  0  0  0  0  0  0
    6.1604  -11.0417    4.0749 C   0  0  0  0  0  0  0  0  0  0  0  0
    5.6024  -12.0027    2.9933 C   0  0  0  0  0  0  0  0  0  0  0  0
    7.0145  -11.8578    5.0612 C   0  0  0  0  0  0  0  0  0  0  0  0
    5.0281  -10.3530    4.8542 C   0  0  0  0  0  0  0  0  0  0  0  0
    4.7833   -7.0091    3.3667 C   0  0  1  0  0  0  0  0  0  0  0  0
    5.1151   -6.0973    2.1796 C   0  0  0  0  0  0  0  0  0  0  0  0
    4.1913   -5.8910    1.1359 C   0  0  0  0  0  0  0  0  0  0  0  0
    4.4198   -5.0914    0.0790 N   0  0  0  0  0  0  0  0  0  0  0  0
    5.6087   -4.4749   -0.0264 C   0  0  0  0  0  0  0  0  0  0  0  0
    5.8688   -3.6587   -1.1433 C   0  0  0  0  0  0  0  0  0  0  0  0
    7.1192   -3.0381   -1.3076 C   0  0  0  0  0  0  0  0  0  0  0  0
    8.1227   -3.1990   -0.3315 C   0  0  0  0  0  0  0  0  0  0  0  0
    7.8760   -4.0028    0.7978 C   0  0  0  0  0  0  0  0  0  0  0  0
    6.6277   -4.6392    0.9533 C   0  0  0  0  0  0  0  0  0  0  0  0
    6.3679   -5.4542    2.0746 C   0  0  0  0  0  0  0  0  0  0  0  0
    3.4495   -6.5354    4.0286 C   0  0  2  0  0  0  0  0  0  0  0  0
    3.5588   -6.6688    5.8110 Cl  0  0  0  0  0  0  0  0  0  0  0  0
    0.7296   -9.2917    3.1009 C   0  0  0  0  0  0  0  0  0  0  0  0
   -0.0954   -7.5830    5.1645 H   0  0  0  0  0  0  0  0  0  0  0  0
   -1.1766   -8.9566    5.1261 H   0  0  0  0  0  0  0  0  0  0  0  0
   -1.7611   -7.3699    4.6370 H   0  0  0  0  0  0  0  0  0  0  0  0
   -1.4015   -9.2724    1.3896 H   0  0  0  0  0  0  0  0  0  0  0  0
   -2.5587   -8.4096    2.3932 H   0  0  0  0  0  0  0  0  0  0  0  0
   -1.9258   -9.9709    2.9086 H   0  0  0  0  0  0  0  0  0  0  0  0
    0.0094   -7.3292    1.2955 H   0  0  0  0  0  0  0  0  0  0  0  0
   -0.9434   -6.3820    2.4109 H   0  0  0  0  0  0  0  0  0  0  0  0
    4.3981  -11.1084    5.3228 H   0  0  0  0  0  0  0  0  0  0  0  0
    7.8331  -10.3988    2.8798 H   0  0  0  0  0  0  0  0  0  0  0  0
    7.5106   -9.3520    4.2391 H   0  0  0  0  0  0  0  0  0  0  0  0
    4.9592  -12.7734    3.4282 H   0  0  0  0  0  0  0  0  0  0  0  0
    6.3986  -12.5053    2.4394 H   0  0  0  0  0  0  0  0  0  0  0  0
    4.9983  -11.4702    2.2571 H   0  0  0  0  0  0  0  0  0  0  0  0
    6.4217  -12.6315    5.5523 H   0  0  0  0  0  0  0  0  0  0  0  0
    7.4225  -11.2141    5.8400 H   0  0  0  0  0  0  0  0  0  0  0  0
    7.8499  -12.3436    4.5589 H   0  0  0  0  0  0  0  0  0  0  0  0
    5.4460   -9.7518    5.6634 H   0  0  0  0  0  0  0  0  0  0  0  0
    0.5367  -10.1817    3.7039 H   0  0  0  0  0  0  0  0  0  0  0  0
    5.5687   -6.8330    4.1045 H   0  0  0  0  0  0  0  0  0  0  0  0
    3.2291   -6.3781    1.1268 H   0  0  0  0  0  0  0  0  0  0  0  0
    5.1051   -3.5541   -1.8984 H   0  0  0  0  0  0  0  0  0  0  0  0
    7.3142   -2.4540   -2.1947 H   0  0  0  0  0  0  0  0  0  0  0  0
    9.0823   -2.7152   -0.4594 H   0  0  0  0  0  0  0  0  0  0  0  0
    8.6418   -4.1363    1.5477 H   0  0  0  0  0  0  0  0  0  0  0  0
    7.1275   -5.5988    2.8302 H   0  0  0  0  0  0  0  0  0  0  0  0
    3.3570   -5.4600    3.8803 H   0  0  0  0  0  0  0  0  0  0  0  0
    0.9117   -9.6307    2.0780 H   0  0  0  0  0  0  0  0  0  0  0  0
    4.2362   -8.6227    2.0616 H   0  0  0  0  0  0  0  0  0  0  0  0
  1  2  1  0
  1 33  1  0
  1 34  1  0
  1 35  1  0
  2  3  1  0
  2  4  1  0
  2 32  1  0
  3 36  1  0
  3 37  1  0
  3 38  1  0
  4  5  1  0
  4 39  1  0
  4 40  1  0
  5  6  2  0
  5  7  1  0
  7  8  2  0
  7 30  1  0
  8  9  1  0
  8 32  1  0
  9 10  2  0
 10 18  1  0
 10 11  1  0
 11 12  1  0
 11 19  1  0
 11 61  1  6
 12 13  2  0
 12 14  1  0
 14 15  1  0
 14 42  1  0
 14 43  1  0
 15 16  1  0
 15 17  1  0
 15 18  1  0
 16 44  1  0
 16 45  1  0
 16 46  1  0
 17 47  1  0
 17 48  1  0
 17 49  1  0
 18 50  1  0
 18 41  1  0
 19 20  1  0
 19 30  1  0
 19 52  1  1
 20 29  1  0
 20 21  2  0
 21 22  1  0
 21 53  1  0
 22 23  2  0
 23 28  1  0
 23 24  1  0
 24 25  2  0
 24 54  1  0
 25 26  1  0
 25 55  1  0
 26 27  2  0
 26 56  1  0
 27 28  1  0
 27 57  1  0
 28 29  2  0
 29 58  1  0
 30 31  1  0
 30 59  1  1
 32 60  1  0
 32 51  1  0
M  END
>  <i_m_ct_stereo_status>  (219) 
1

>  <s_m_source_file>  (219) 
/var/tmp/pbs.5076255.sched01/tmpe6iyr0oq/80tt78e_gd.sdf

>  <i_m_source_file_index>  (219) 
12

>  <i_lp_mmshare_version>  (219) 
48012

>  <i_f3d_flags>  (219) 
0

>  <s_epik_input>  (219) 
Tz1DMVtDSDJdQyhbQ0gzXSkoW0NIM10pW0NIMl1DKFtDQEhdMTIpPU5DMz1DKEMoPU8pW0NIMl1DKFtDSDNdKShbQ0gzXSlbQ0gyXTMpW0NASF0oW0NAQEhdMkNsKWMoW2NIXW40KVtjSF1jKGM0NSlbY0hdW2NIXVtjSF1bY0hdNQ==

>  <s_epik_cmdline>  (219) 
J2VwaWtfcHl0aG9uJywgJy1waHQnLCAnMi4wJywgJy1waCcsICc3LjAnLCAnLXRuJywgJzgnLCAnLW1hJywgJzIwMCcsICctaW1hZScsICc8aW5maWxlLm1hZT4nLCAnLW9tYWUnLCAnPG91dGZpbGUubWFlPic=

>  <r_epik_Ionization_Penalty>  (219) 
0.00123502

>  <r_epik_Ionization_Penalty_Charging>  (219) 
0

>  <r_epik_Ionization_Penalty_Neutral>  (219) 
0.00123502

>  <r_epik_State_Penalty>  (219) 
0.875058

>  <r_epik_Charging_Adjusted_Penalty>  (219) 
0.875058

>  <i_epik_Tot_Q>  (219) 
0

>  <i_epik_Tot_abs_Q>  (219) 
0

>  <s_epik_Chemistry_Notes>  (219) 
This compound has an imine and may undergo hydrolysis.

>  <s_lp_Force_Field>  (219) 
OPLS3e

>  <r_lp_Energy>  (219) 
45.8625

>  <b_lp_Chiralities_Consistent>  (219) 
1

>  <s_lp_Variant>  (219) 
63:0-6

>  <s_i_glide_gridfile>  (219) 
pfpi4k_grid

>  <i_i_glide_lignum>  (219) 
12

>  <i_i_glide_rotatable_bonds>  (219) 
1

>  <r_i_docking_score>  (219) 
-2.77687

>  <r_i_glide_ligand_efficiency>  (219) 
-0.0867772

>  <r_i_glide_ligand_efficiency_sa>  (219) 
-0.2755

>  <r_i_glide_ligand_efficiency_ln>  (219) 
-0.621817

>  <r_i_glide_gscore>  (219) 
-2.77687

>  <r_i_glide_lipo>  (219) 
-1.00711

>  <r_i_glide_hbond>  (219) 
-0.00290764

>  <r_i_glide_metal>  (219) 
-0

>  <r_i_glide_rewards>  (219) 
-0.35896

>  <r_i_glide_evdw>  (219) 
-33.3745

>  <r_i_glide_ecoul>  (219) 
1.3211

>  <r_i_glide_erotb>  (219) 
0.0993975

>  <r_i_glide_esite>  (219) 
-0.0367282

>  <r_i_glide_emodel>  (219) 
-37.2216

>  <r_i_glide_energy>  (219) 
-32.0534

>  <r_i_glide_einternal>  (219) 
0.432382

>  <r_i_glide_intrahb_reward>  (219) 
-0

>  <i_i_glide_confnum>  (219) 
2

>  <i_i_glide_posenum>  (219) 
7

>  <r_i_glide_eff_state_penalty>  (219) 
0

>  <ligand_id>  (219) 
63

>  <original_smiles>  (219) 
CC1(C)CC(=O)C2C(=NC3=C(C(=O)CC(C)(C)C3)C(c3cnc4ccccc4c3)C2Cl)C1

>  <smiles>  (219) 
[H]c1nc2c([H])c([H])c([H])c([H])c2c([H])c1C1([H])C([H])(Cl)C2=C(N=C3C([H])([H])C(C([H])([H])[H])(C([H])([H])[H])C([H])([H])C(=O)C31[H])C([H])([H])C(C([H])([H])[H])(C([H])([H])[H])C([H])([H])C2=O

$$$$
63:5:1
     RDKit          3D

 61 65  0  0  1  0  0  0  0  0999 V2000
   -0.1354   -8.6463    4.8743 C   0  0  0  0  0  0  0  0  0  0  0  0
    0.7635   -9.1544    3.7159 C   0  0  0  0  0  0  0  0  0  0  0  0
    0.3574  -10.5860    3.3418 C   0  0  0  0  0  0  0  0  0  0  0  0
    0.6300   -8.2765    2.4575 C   0  0  0  0  0  0  0  0  0  0  0  0
    1.2399   -6.8800    2.6181 C   0  0  0  0  0  0  0  0  0  0  0  0
    0.7929   -5.9834    1.9022 O   0  0  0  0  0  0  0  0  0  0  0  0
    2.3419   -6.6854    3.5981 C   0  0  0  0  0  0  0  0  0  0  0  0
    2.8154   -7.7593    4.2877 C   0  0  0  0  0  0  0  0  0  0  0  0
    3.7831   -7.6426    5.2814 N   0  0  0  0  0  0  0  0  0  0  0  0
    4.8731   -7.0094    5.1267 C   0  0  0  0  0  0  0  0  0  0  0  0
    5.2678   -6.3132    3.8124 C   0  0  2  0  0  0  0  0  0  0  0  0
    6.7789   -6.0202    3.6698 C   0  0  0  0  0  0  0  0  0  0  0  0
    7.2854   -5.8396    2.5650 O   0  0  0  0  0  0  0  0  0  0  0  0
    7.6578   -5.9518    4.9179 C   0  0  0  0  0  0  0  0  0  0  0  0
    7.3103   -7.0511    5.9347 C   0  0  0  0  0  0  0  0  0  0  0  0
    7.6190   -8.4662    5.3722 C   0  0  0  0  0  0  0  0  0  0  0  0
    8.1501   -6.8204    7.2027 C   0  0  0  0  0  0  0  0  0  0  0  0
    5.8235   -6.8989    6.3046 C   0  0  0  0  0  0  0  0  0  0  0  0
    4.3596   -5.0792    3.4643 C   0  0  1  0  0  0  0  0  0  0  0  0
    4.4968   -4.6310    2.0052 C   0  0  0  0  0  0  0  0  0  0  0  0
    4.6425   -5.5669    0.9599 C   0  0  0  0  0  0  0  0  0  0  0  0
    4.8203   -5.2212   -0.3236 N   0  0  0  0  0  0  0  0  0  0  0  0
    4.8259   -3.9173   -0.6632 C   0  0  0  0  0  0  0  0  0  0  0  0
    4.9971   -3.5563   -2.0128 C   0  0  0  0  0  0  0  0  0  0  0  0
    4.9910   -2.2059   -2.4020 C   0  0  0  0  0  0  0  0  0  0  0  0
    4.8283   -1.1972   -1.4349 C   0  0  0  0  0  0  0  0  0  0  0  0
    4.6657   -1.5385   -0.0788 C   0  0  0  0  0  0  0  0  0  0  0  0
    4.6623   -2.8958    0.3078 C   0  0  0  0  0  0  0  0  0  0  0  0
    4.4937   -3.2611    1.6602 C   0  0  0  0  0  0  0  0  0  0  0  0
    2.8471   -5.2478    3.7946 C   0  0  2  0  0  0  0  0  0  0  0  0
    2.5076   -4.6639    5.4521 Cl  0  0  0  0  0  0  0  0  0  0  0  0
    2.2423   -9.1602    4.1335 C   0  0  0  0  0  0  0  0  0  0  0  0
    0.1381   -7.6419    5.2031 H   0  0  0  0  0  0  0  0  0  0  0  0
   -0.0579   -9.2961    5.7492 H   0  0  0  0  0  0  0  0  0  0  0  0
   -1.1891   -8.6201    4.5908 H   0  0  0  0  0  0  0  0  0  0  0  0
    0.9697  -10.9751    2.5282 H   0  0  0  0  0  0  0  0  0  0  0  0
   -0.6751  -10.6204    3.0086 H   0  0  0  0  0  0  0  0  0  0  0  0
    0.4513  -11.2692    4.1873 H   0  0  0  0  0  0  0  0  0  0  0  0
    1.1413   -8.7565    1.6226 H   0  0  0  0  0  0  0  0  0  0  0  0
   -0.4157   -8.1857    2.1698 H   0  0  0  0  0  0  0  0  0  0  0  0
    5.5516   -7.6533    7.0413 H   0  0  0  0  0  0  0  0  0  0  0  0
    8.7038   -6.0307    4.6207 H   0  0  0  0  0  0  0  0  0  0  0  0
    7.5354   -4.9670    5.3708 H   0  0  0  0  0  0  0  0  0  0  0  0
    7.3620   -9.2445    6.0936 H   0  0  0  0  0  0  0  0  0  0  0  0
    8.6771   -8.5756    5.1251 H   0  0  0  0  0  0  0  0  0  0  0  0
    7.0584   -8.6874    4.4612 H   0  0  0  0  0  0  0  0  0  0  0  0
    7.9151   -7.5561    7.9737 H   0  0  0  0  0  0  0  0  0  0  0  0
    7.9517   -5.8332    7.6222 H   0  0  0  0  0  0  0  0  0  0  0  0
    9.2180   -6.8801    6.9930 H   0  0  0  0  0  0  0  0  0  0  0  0
    5.6502   -5.9263    6.7686 H   0  0  0  0  0  0  0  0  0  0  0  0
    2.3615   -9.7215    5.0610 H   0  0  0  0  0  0  0  0  0  0  0  0
    4.7174   -4.2374    4.0615 H   0  0  0  0  0  0  0  0  0  0  0  0
    4.6488   -6.6333    1.1305 H   0  0  0  0  0  0  0  0  0  0  0  0
    5.1060   -4.3335   -2.7501 H   0  0  0  0  0  0  0  0  0  0  0  0
    5.0965   -1.9470   -3.4449 H   0  0  0  0  0  0  0  0  0  0  0  0
    4.8085   -0.1589   -1.7354 H   0  0  0  0  0  0  0  0  0  0  0  0
    4.5295   -0.7625    0.6569 H   0  0  0  0  0  0  0  0  0  0  0  0
    4.3739   -2.5013    2.4191 H   0  0  0  0  0  0  0  0  0  0  0  0
    2.2773   -4.5546    3.1775 H   0  0  0  0  0  0  0  0  0  0  0  0
    2.8357   -9.6737    3.3733 H   0  0  0  0  0  0  0  0  0  0  0  0
    5.0914   -7.0841    3.0639 H   0  0  0  0  0  0  0  0  0  0  0  0
  1  2  1  0
  1 33  1  0
  1 34  1  0
  1 35  1  0
  2  3  1  0
  2  4  1  0
  2 32  1  0
  3 36  1  0
  3 37  1  0
  3 38  1  0
  4  5  1  0
  4 39  1  0
  4 40  1  0
  5  6  2  0
  5  7  1  0
  7  8  2  0
  7 30  1  0
  8  9  1  0
  8 32  1  0
  9 10  2  0
 10 18  1  0
 10 11  1  0
 11 12  1  0
 11 19  1  0
 11 61  1  6
 12 13  2  0
 12 14  1  0
 14 15  1  0
 14 42  1  0
 14 43  1  0
 15 16  1  0
 15 17  1  0
 15 18  1  0
 16 44  1  0
 16 45  1  0
 16 46  1  0
 17 47  1  0
 17 48  1  0
 17 49  1  0
 18 50  1  0
 18 41  1  0
 19 20  1  0
 19 30  1  0
 19 52  1  1
 20 29  1  0
 20 21  2  0
 21 22  1  0
 21 53  1  0
 22 23  2  0
 23 28  1  0
 23 24  1  0
 24 25  2  0
 24 54  1  0
 25 26  1  0
 25 55  1  0
 26 27  2  0
 26 56  1  0
 27 28  1  0
 27 57  1  0
 28 29  2  0
 29 58  1  0
 30 31  1  0
 30 59  1  6
 32 60  1  0
 32 51  1  0
M  END
>  <i_m_ct_stereo_status>  (220) 
1

>  <s_m_source_file>  (220) 
/var/tmp/pbs.5076255.sched01/tmpe6iyr0oq/80tt78e_gd.sdf

>  <i_m_source_file_index>  (220) 
12

>  <i_lp_mmshare_version>  (220) 
48012

>  <i_f3d_flags>  (220) 
0

>  <s_epik_input>  (220) 
Tz1DMVtDSDJdQyhbQ0gzXSkoW0NIM10pW0NIMl1DKFtDQEhdMTIpPU5DMz1DKEMoPU8pW0NIMl1DKFtDSDNdKShbQ0gzXSlbQ0gyXTMpW0NASF0oW0NAQEhdMkNsKWMoW2NIXW40KVtjSF1jKGM0NSlbY0hdW2NIXVtjSF1bY0hdNQ==

>  <s_epik_cmdline>  (220) 
J2VwaWtfcHl0aG9uJywgJy1waHQnLCAnMi4wJywgJy1waCcsICc3LjAnLCAnLXRuJywgJzgnLCAnLW1hJywgJzIwMCcsICctaW1hZScsICc8aW5maWxlLm1hZT4nLCAnLW9tYWUnLCAnPG91dGZpbGUubWFlPic=

>  <r_epik_Ionization_Penalty>  (220) 
0.00123502

>  <r_epik_Ionization_Penalty_Charging>  (220) 
0

>  <r_epik_Ionization_Penalty_Neutral>  (220) 
0.00123502

>  <r_epik_State_Penalty>  (220) 
0.875058

>  <r_epik_Charging_Adjusted_Penalty>  (220) 
0.875058

>  <i_epik_Tot_Q>  (220) 
0

>  <i_epik_Tot_abs_Q>  (220) 
0

>  <s_epik_Chemistry_Notes>  (220) 
This compound has an imine and may undergo hydrolysis.

>  <s_lp_Force_Field>  (220) 
OPLS3e

>  <r_lp_Energy>  (220) 
45.8625

>  <b_lp_Chiralities_Consistent>  (220) 
1

>  <s_lp_Variant>  (220) 
63:0-6

>  <s_i_glide_gridfile>  (220) 
pfpi4k_grid

>  <i_i_glide_lignum>  (220) 
12

>  <i_i_glide_rotatable_bonds>  (220) 
1

>  <r_i_docking_score>  (220) 
-2.34283

>  <r_i_glide_ligand_efficiency>  (220) 
-0.0732134

>  <r_i_glide_ligand_efficiency_sa>  (220) 
-0.232438

>  <r_i_glide_ligand_efficiency_ln>  (220) 
-0.524623

>  <r_i_glide_gscore>  (220) 
-2.34283

>  <r_i_glide_lipo>  (220) 
-0.297332

>  <r_i_glide_hbond>  (220) 
-0.129795

>  <r_i_glide_metal>  (220) 
-0

>  <r_i_glide_rewards>  (220) 
-0.350349

>  <r_i_glide_evdw>  (220) 
-27.4315

>  <r_i_glide_ecoul>  (220) 
-1.74604

>  <r_i_glide_erotb>  (220) 
0.0993975

>  <r_i_glide_esite>  (220) 
-0.0312694

>  <r_i_glide_emodel>  (220) 
-33.2748

>  <r_i_glide_energy>  (220) 
-29.1775

>  <r_i_glide_einternal>  (220) 
1.02016

>  <r_i_glide_intrahb_reward>  (220) 
-0

>  <i_i_glide_confnum>  (220) 
1

>  <i_i_glide_posenum>  (220) 
27

>  <r_i_glide_eff_state_penalty>  (220) 
0

>  <ligand_id>  (220) 
63

>  <original_smiles>  (220) 
CC1(C)CC(=O)C2C(=NC3=C(C(=O)CC(C)(C)C3)C(c3cnc4ccccc4c3)C2Cl)C1

>  <smiles>  (220) 
[H]c1nc2c([H])c([H])c([H])c([H])c2c([H])c1C1([H])C([H])(Cl)C2=C(N=C3C([H])([H])C(C([H])([H])[H])(C([H])([H])[H])C([H])([H])C(=O)C31[H])C([H])([H])C(C([H])([H])[H])(C([H])([H])[H])C([H])([H])C2=O

$$$$
63:5:2
     RDKit          3D

 61 65  0  0  1  0  0  0  0  0999 V2000
    0.7469  -11.2772    3.5072 C   0  0  0  0  0  0  0  0  0  0  0  0
    2.1689  -10.6806    3.6614 C   0  0  0  0  0  0  0  0  0  0  0  0
    3.2012  -11.8214    3.6823 C   0  0  0  0  0  0  0  0  0  0  0  0
    2.5180   -9.7251    2.5025 C   0  0  0  0  0  0  0  0  0  0  0  0
    1.7014   -8.4280    2.5222 C   0  0  0  0  0  0  0  0  0  0  0  0
    1.5641   -7.8158    1.4629 O   0  0  0  0  0  0  0  0  0  0  0  0
    1.1699   -7.9289    3.8176 C   0  0  0  0  0  0  0  0  0  0  0  0
    1.4608   -8.6053    4.9608 C   0  0  0  0  0  0  0  0  0  0  0  0
    0.9403   -8.2313    6.1978 N   0  0  0  0  0  0  0  0  0  0  0  0
    0.9856   -7.0451    6.6473 C   0  0  0  0  0  0  0  0  0  0  0  0
    1.6398   -5.8674    5.8930 C   0  0  2  0  0  0  0  0  0  0  0  0
    1.9786   -4.6564    6.7967 C   0  0  0  0  0  0  0  0  0  0  0  0
    2.8155   -3.8262    6.4494 O   0  0  0  0  0  0  0  0  0  0  0  0
    1.2600   -4.4775    8.1370 C   0  0  0  0  0  0  0  0  0  0  0  0
    1.0848   -5.8040    8.8951 C   0  0  0  0  0  0  0  0  0  0  0  0
    2.4497   -6.4084    9.3219 C   0  0  0  0  0  0  0  0  0  0  0  0
    0.2388   -5.5403   10.1557 C   0  0  0  0  0  0  0  0  0  0  0  0
    0.3092   -6.7602    7.9783 C   0  0  0  0  0  0  0  0  0  0  0  0
    0.8626   -5.4719    4.5917 C   0  0  1  0  0  0  0  0  0  0  0  0
    1.7095   -4.5730    3.6801 C   0  0  0  0  0  0  0  0  0  0  0  0
    2.8338   -5.0767    2.9934 C   0  0  0  0  0  0  0  0  0  0  0  0
    3.6173   -4.3330    2.1897 N   0  0  0  0  0  0  0  0  0  0  0  0
    3.3373   -3.0221    2.0347 C   0  0  0  0  0  0  0  0  0  0  0  0
    4.1562   -2.2286    1.2065 C   0  0  0  0  0  0  0  0  0  0  0  0
    3.8939   -0.8581    1.0293 C   0  0  0  0  0  0  0  0  0  0  0  0
    2.8007   -0.2612    1.6861 C   0  0  0  0  0  0  0  0  0  0  0  0
    1.9708   -1.0387    2.5167 C   0  0  0  0  0  0  0  0  0  0  0  0
    2.2372   -2.4126    2.6920 C   0  0  0  0  0  0  0  0  0  0  0  0
    1.4147   -3.2005    3.5231 C   0  0  0  0  0  0  0  0  0  0  0  0
    0.2966   -6.6690    3.7614 C   0  0  2  0  0  0  0  0  0  0  0  0
   -1.3828   -7.0528    4.2469 Cl  0  0  0  0  0  0  0  0  0  0  0  0
    2.2763   -9.8882    4.9767 C   0  0  0  0  0  0  0  0  0  0  0  0
   -0.0313  -10.5114    3.5249 H   0  0  0  0  0  0  0  0  0  0  0  0
    0.5162  -11.9695    4.3198 H   0  0  0  0  0  0  0  0  0  0  0  0
    0.6308  -11.8246    2.5708 H   0  0  0  0  0  0  0  0  0  0  0  0
    4.2110  -11.4273    3.7981 H   0  0  0  0  0  0  0  0  0  0  0  0
    3.1823  -12.3998    2.7584 H   0  0  0  0  0  0  0  0  0  0  0  0
    3.0220  -12.5070    4.5119 H   0  0  0  0  0  0  0  0  0  0  0  0
    3.5705   -9.4467    2.5628 H   0  0  0  0  0  0  0  0  0  0  0  0
    2.3852  -10.2265    1.5454 H   0  0  0  0  0  0  0  0  0  0  0  0
    0.1402   -7.7056    8.4926 H   0  0  0  0  0  0  0  0  0  0  0  0
    1.8220   -3.7747    8.7508 H   0  0  0  0  0  0  0  0  0  0  0  0
    0.2883   -4.0187    7.9495 H   0  0  0  0  0  0  0  0  0  0  0  0
    2.3184   -7.3565    9.8475 H   0  0  0  0  0  0  0  0  0  0  0  0
    2.9968   -5.7334    9.9830 H   0  0  0  0  0  0  0  0  0  0  0  0
    3.1007   -6.6126    8.4690 H   0  0  0  0  0  0  0  0  0  0  0  0
    0.0555   -6.4596   10.7142 H   0  0  0  0  0  0  0  0  0  0  0  0
   -0.7311   -5.1157    9.8923 H   0  0  0  0  0  0  0  0  0  0  0  0
    0.7311   -4.8366   10.8271 H   0  0  0  0  0  0  0  0  0  0  0  0
   -0.6728   -6.3369    7.7631 H   0  0  0  0  0  0  0  0  0  0  0  0
    1.9655  -10.5145    5.8160 H   0  0  0  0  0  0  0  0  0  0  0  0
    0.0027   -4.8686    4.8896 H   0  0  0  0  0  0  0  0  0  0  0  0
    3.1337   -6.1105    3.0940 H   0  0  0  0  0  0  0  0  0  0  0  0
    4.9905   -2.6869    0.7020 H   0  0  0  0  0  0  0  0  0  0  0  0
    4.5257   -0.2623    0.3858 H   0  0  0  0  0  0  0  0  0  0  0  0
    2.5902    0.7908    1.5446 H   0  0  0  0  0  0  0  0  0  0  0  0
    1.1311   -0.5763    3.0108 H   0  0  0  0  0  0  0  0  0  0  0  0
    0.5758   -2.7565    4.0371 H   0  0  0  0  0  0  0  0  0  0  0  0
    0.1773   -6.3356    2.7331 H   0  0  0  0  0  0  0  0  0  0  0  0
    3.3169   -9.6100    5.1570 H   0  0  0  0  0  0  0  0  0  0  0  0
    2.6168   -6.2351    5.5743 H   0  0  0  0  0  0  0  0  0  0  0  0
  1  2  1  0
  1 33  1  0
  1 34  1  0
  1 35  1  0
  2  3  1  0
  2  4  1  0
  2 32  1  0
  3 36  1  0
  3 37  1  0
  3 38  1  0
  4  5  1  0
  4 39  1  0
  4 40  1  0
  5  6  2  0
  5  7  1  0
  7  8  2  0
  7 30  1  0
  8  9  1  0
  8 32  1  0
  9 10  2  0
 10 18  1  0
 10 11  1  0
 11 12  1  0
 11 19  1  0
 11 61  1  6
 12 13  2  0
 12 14  1  0
 14 15  1  0
 14 42  1  0
 14 43  1  0
 15 16  1  0
 15 17  1  0
 15 18  1  0
 16 44  1  0
 16 45  1  0
 16 46  1  0
 17 47  1  0
 17 48  1  0
 17 49  1  0
 18 50  1  0
 18 41  1  0
 19 20  1  0
 19 30  1  0
 19 52  1  1
 20 29  1  0
 20 21  2  0
 21 22  1  0
 21 53  1  0
 22 23  2  0
 23 28  1  0
 23 24  1  0
 24 25  2  0
 24 54  1  0
 25 26  1  0
 25 55  1  0
 26 27  2  0
 26 56  1  0
 27 28  1  0
 27 57  1  0
 28 29  2  0
 29 58  1  0
 30 31  1  0
 30 59  1  6
 32 60  1  0
 32 51  1  0
M  END
>  <i_m_ct_stereo_status>  (221) 
1

>  <s_m_source_file>  (221) 
/var/tmp/pbs.5076255.sched01/tmpe6iyr0oq/80tt78e_gd.sdf

>  <i_m_source_file_index>  (221) 
12

>  <i_lp_mmshare_version>  (221) 
48012

>  <i_f3d_flags>  (221) 
0

>  <s_epik_input>  (221) 
Tz1DMVtDSDJdQyhbQ0gzXSkoW0NIM10pW0NIMl1DKFtDQEhdMTIpPU5DMz1DKEMoPU8pW0NIMl1DKFtDSDNdKShbQ0gzXSlbQ0gyXTMpW0NASF0oW0NAQEhdMkNsKWMoW2NIXW40KVtjSF1jKGM0NSlbY0hdW2NIXVtjSF1bY0hdNQ==

>  <s_epik_cmdline>  (221) 
J2VwaWtfcHl0aG9uJywgJy1waHQnLCAnMi4wJywgJy1waCcsICc3LjAnLCAnLXRuJywgJzgnLCAnLW1hJywgJzIwMCcsICctaW1hZScsICc8aW5maWxlLm1hZT4nLCAnLW9tYWUnLCAnPG91dGZpbGUubWFlPic=

>  <r_epik_Ionization_Penalty>  (221) 
0.00123502

>  <r_epik_Ionization_Penalty_Charging>  (221) 
0

>  <r_epik_Ionization_Penalty_Neutral>  (221) 
0.00123502

>  <r_epik_State_Penalty>  (221) 
0.875058

>  <r_epik_Charging_Adjusted_Penalty>  (221) 
0.875058

>  <i_epik_Tot_Q>  (221) 
0

>  <i_epik_Tot_abs_Q>  (221) 
0

>  <s_epik_Chemistry_Notes>  (221) 
This compound has an imine and may undergo hydrolysis.

>  <s_lp_Force_Field>  (221) 
OPLS3e

>  <r_lp_Energy>  (221) 
45.8625

>  <b_lp_Chiralities_Consistent>  (221) 
1

>  <s_lp_Variant>  (221) 
63:0-6

>  <s_i_glide_gridfile>  (221) 
pfpi4k_grid

>  <i_i_glide_lignum>  (221) 
12

>  <i_i_glide_rotatable_bonds>  (221) 
1

>  <r_i_docking_score>  (221) 
-1.96981

>  <r_i_glide_ligand_efficiency>  (221) 
-0.0615565

>  <r_i_glide_ligand_efficiency_sa>  (221) 
-0.19543

>  <r_i_glide_ligand_efficiency_ln>  (221) 
-0.441094

>  <r_i_glide_gscore>  (221) 
-1.96981

>  <r_i_glide_lipo>  (221) 
-0.192715

>  <r_i_glide_hbond>  (221) 
0

>  <r_i_glide_metal>  (221) 
-0

>  <r_i_glide_rewards>  (221) 
-0.347836

>  <r_i_glide_evdw>  (221) 
-31.2863

>  <r_i_glide_ecoul>  (221) 
0.373594

>  <r_i_glide_erotb>  (221) 
0.0993975

>  <r_i_glide_esite>  (221) 
-0.0203798

>  <r_i_glide_emodel>  (221) 
-34.6476

>  <r_i_glide_energy>  (221) 
-30.9127

>  <r_i_glide_einternal>  (221) 
0.196479

>  <r_i_glide_intrahb_reward>  (221) 
-0

>  <i_i_glide_confnum>  (221) 
1

>  <i_i_glide_posenum>  (221) 
8

>  <r_i_glide_eff_state_penalty>  (221) 
0

>  <ligand_id>  (221) 
63

>  <original_smiles>  (221) 
CC1(C)CC(=O)C2C(=NC3=C(C(=O)CC(C)(C)C3)C(c3cnc4ccccc4c3)C2Cl)C1

>  <smiles>  (221) 
[H]c1nc2c([H])c([H])c([H])c([H])c2c([H])c1C1([H])C([H])(Cl)C2=C(N=C3C([H])([H])C(C([H])([H])[H])(C([H])([H])[H])C([H])([H])C(=O)C31[H])C([H])([H])C(C([H])([H])[H])(C([H])([H])[H])C([H])([H])C2=O

$$$$
63:6:0
     RDKit          3D

 61 65  0  0  1  0  0  0  0  0999 V2000
    7.4165   -8.5055    5.6050 C   0  0  0  0  0  0  0  0  0  0  0  0
    7.0144   -7.0105    5.5645 C   0  0  0  0  0  0  0  0  0  0  0  0
    7.4445   -6.3274    6.8743 C   0  0  0  0  0  0  0  0  0  0  0  0
    7.6648   -6.2648    4.3870 C   0  0  0  0  0  0  0  0  0  0  0  0
    7.1167   -6.6862    3.0182 C   0  0  0  0  0  0  0  0  0  0  0  0
    7.8365   -6.4871    2.0412 O   0  0  0  0  0  0  0  0  0  0  0  0
    5.7435   -7.2556    2.9260 C   0  0  0  0  0  0  0  0  0  0  0  0
    4.9833   -7.3362    4.0491 C   0  0  0  0  0  0  0  0  0  0  0  0
    3.7089   -7.8915    4.1447 N   0  0  0  0  0  0  0  0  0  0  0  0
    2.7690   -8.0231    3.2933 C   0  0  0  0  0  0  0  0  0  0  0  0
    2.6886   -7.6337    1.7986 C   0  0  1  0  0  0  0  0  0  0  0  0
    1.3295   -6.9820    1.4358 C   0  0  0  0  0  0  0  0  0  0  0  0
    1.2117   -6.0828    0.6044 O   0  0  0  0  0  0  0  0  0  0  0  0
    0.0704   -7.5633    2.0775 C   0  0  0  0  0  0  0  0  0  0  0  0
    0.2308   -7.8222    3.5850 C   0  0  0  0  0  0  0  0  0  0  0  0
    0.2963   -6.4886    4.3731 C   0  0  0  0  0  0  0  0  0  0  0  0
   -0.9862   -8.6280    4.0635 C   0  0  0  0  0  0  0  0  0  0  0  0
    1.4964   -8.6796    3.8097 C   0  0  0  0  0  0  0  0  0  0  0  0
    3.9452   -6.9817    1.1397 C   0  0  1  0  0  0  0  0  0  0  0  0
    4.0320   -5.4481    1.2146 C   0  0  0  0  0  0  0  0  0  0  0  0
    3.8152   -4.7548    2.4222 C   0  0  0  0  0  0  0  0  0  0  0  0
    3.8922   -3.4210    2.5482 N   0  0  0  0  0  0  0  0  0  0  0  0
    4.1742   -2.6814    1.4581 C   0  0  0  0  0  0  0  0  0  0  0  0
    4.2407   -1.2820    1.5825 C   0  0  0  0  0  0  0  0  0  0  0  0
    4.5153   -0.4751    0.4686 C   0  0  0  0  0  0  0  0  0  0  0  0
    4.7367   -1.0631   -0.7922 C   0  0  0  0  0  0  0  0  0  0  0  0
    4.6836   -2.4630   -0.9341 C   0  0  0  0  0  0  0  0  0  0  0  0
    4.4032   -3.2744    0.1875 C   0  0  0  0  0  0  0  0  0  0  0  0
    4.3343   -4.6783    0.0677 C   0  0  0  0  0  0  0  0  0  0  0  0
    5.2775   -7.6518    1.5327 C   0  0  2  0  0  0  0  0  0  0  0  0
    5.2333   -9.4234    1.3128 Cl  0  0  0  0  0  0  0  0  0  0  0  0
    5.4931   -6.8751    5.4085 C   0  0  0  0  0  0  0  0  0  0  0  0
    7.1113   -9.0395    4.7029 H   0  0  0  0  0  0  0  0  0  0  0  0
    6.9429   -9.0198    6.4444 H   0  0  0  0  0  0  0  0  0  0  0  0
    8.4951   -8.6317    5.7046 H   0  0  0  0  0  0  0  0  0  0  0  0
    7.1631   -5.2741    6.8694 H   0  0  0  0  0  0  0  0  0  0  0  0
    8.5228   -6.3758    7.0191 H   0  0  0  0  0  0  0  0  0  0  0  0
    6.9664   -6.7847    7.7413 H   0  0  0  0  0  0  0  0  0  0  0  0
    7.4828   -5.1952    4.4937 H   0  0  0  0  0  0  0  0  0  0  0  0
    8.7439   -6.4048    4.4015 H   0  0  0  0  0  0  0  0  0  0  0  0
    1.6064   -8.8930    4.8725 H   0  0  0  0  0  0  0  0  0  0  0  0
   -0.7767   -6.9056    1.8919 H   0  0  0  0  0  0  0  0  0  0  0  0
   -0.1476   -8.5011    1.5711 H   0  0  0  0  0  0  0  0  0  0  0  0
    0.4448   -6.6670    5.4398 H   0  0  0  0  0  0  0  0  0  0  0  0
   -0.6230   -5.9125    4.2569 H   0  0  0  0  0  0  0  0  0  0  0  0
    1.1164   -5.8499    4.0393 H   0  0  0  0  0  0  0  0  0  0  0  0
   -0.9166   -8.8650    5.1268 H   0  0  0  0  0  0  0  0  0  0  0  0
   -1.0483   -9.5788    3.5306 H   0  0  0  0  0  0  0  0  0  0  0  0
   -1.9227   -8.0969    3.8971 H   0  0  0  0  0  0  0  0  0  0  0  0
    1.3977   -9.6454    3.3118 H   0  0  0  0  0  0  0  0  0  0  0  0
    4.9896   -7.4278    6.2036 H   0  0  0  0  0  0  0  0  0  0  0  0
    3.8311   -7.1947    0.0776 H   0  0  0  0  0  0  0  0  0  0  0  0
    3.5704   -5.2697    3.3377 H   0  0  0  0  0  0  0  0  0  0  0  0
    4.0574   -0.8287    2.5437 H   0  0  0  0  0  0  0  0  0  0  0  0
    4.5419    0.5990    0.5754 H   0  0  0  0  0  0  0  0  0  0  0  0
    4.9288   -0.4316   -1.6498 H   0  0  0  0  0  0  0  0  0  0  0  0
    4.8423   -2.9122   -1.9028 H   0  0  0  0  0  0  0  0  0  0  0  0
    4.5002   -5.1524   -0.8898 H   0  0  0  0  0  0  0  0  0  0  0  0
    6.0048   -7.3126    0.8030 H   0  0  0  0  0  0  0  0  0  0  0  0
    5.2024   -5.8274    5.5202 H   0  0  0  0  0  0  0  0  0  0  0  0
    2.6150   -8.6014    1.3032 H   0  0  0  0  0  0  0  0  0  0  0  0
  1  2  1  0
  1 33  1  0
  1 34  1  0
  1 35  1  0
  2  3  1  0
  2  4  1  0
  2 32  1  0
  3 36  1  0
  3 37  1  0
  3 38  1  0
  4  5  1  0
  4 39  1  0
  4 40  1  0
  5  6  2  0
  5  7  1  0
  7  8  2  0
  7 30  1  0
  8  9  1  0
  8 32  1  0
  9 10  2  0
 10 18  1  0
 10 11  1  0
 11 12  1  0
 11 19  1  0
 11 61  1  6
 12 13  2  0
 12 14  1  0
 14 15  1  0
 14 42  1  0
 14 43  1  0
 15 16  1  0
 15 17  1  0
 15 18  1  0
 16 44  1  0
 16 45  1  0
 16 46  1  0
 17 47  1  0
 17 48  1  0
 17 49  1  0
 18 50  1  0
 18 41  1  0
 19 20  1  0
 19 30  1  0
 19 52  1  6
 20 29  1  0
 20 21  2  0
 21 22  1  0
 21 53  1  0
 22 23  2  0
 23 28  1  0
 23 24  1  0
 24 25  2  0
 24 54  1  0
 25 26  1  0
 25 55  1  0
 26 27  2  0
 26 56  1  0
 27 28  1  0
 27 57  1  0
 28 29  2  0
 29 58  1  0
 30 31  1  0
 30 59  1  6
 32 60  1  0
 32 51  1  0
M  END
>  <i_m_ct_stereo_status>  (222) 
1

>  <s_m_source_file>  (222) 
/var/tmp/pbs.5076255.sched01/tmpe6iyr0oq/80tt78e_gd.sdf

>  <i_m_source_file_index>  (222) 
13

>  <i_lp_mmshare_version>  (222) 
48012

>  <i_f3d_flags>  (222) 
0

>  <s_epik_input>  (222) 
Tz1DMVtDSDJdQyhbQ0gzXSkoW0NIM10pW0NIMl1DKFtDQEhdMTIpPU5DMz1DKEMoPU8pW0NIMl1DKFtDSDNdKShbQ0gzXSlbQ0gyXTMpW0NASF0oW0NAQEhdMkNsKWMoW2NIXW40KVtjSF1jKGM0NSlbY0hdW2NIXVtjSF1bY0hdNQ==

>  <s_epik_cmdline>  (222) 
J2VwaWtfcHl0aG9uJywgJy1waHQnLCAnMi4wJywgJy1waCcsICc3LjAnLCAnLXRuJywgJzgnLCAnLW1hJywgJzIwMCcsICctaW1hZScsICc8aW5maWxlLm1hZT4nLCAnLW9tYWUnLCAnPG91dGZpbGUubWFlPic=

>  <r_epik_Ionization_Penalty>  (222) 
0.00123502

>  <r_epik_Ionization_Penalty_Charging>  (222) 
0

>  <r_epik_Ionization_Penalty_Neutral>  (222) 
0.00123502

>  <r_epik_State_Penalty>  (222) 
0.875058

>  <r_epik_Charging_Adjusted_Penalty>  (222) 
0.875058

>  <i_epik_Tot_Q>  (222) 
0

>  <i_epik_Tot_abs_Q>  (222) 
0

>  <s_epik_Chemistry_Notes>  (222) 
This compound has an imine and may undergo hydrolysis.

>  <s_lp_Force_Field>  (222) 
OPLS3e

>  <r_lp_Energy>  (222) 
44.5235

>  <b_lp_Chiralities_Consistent>  (222) 
1

>  <s_lp_Variant>  (222) 
63:0-7

>  <s_i_glide_gridfile>  (222) 
pfpi4k_grid

>  <i_i_glide_lignum>  (222) 
13

>  <i_i_glide_rotatable_bonds>  (222) 
1

>  <r_i_docking_score>  (222) 
-2.8983

>  <r_i_glide_ligand_efficiency>  (222) 
-0.090572

>  <r_i_glide_ligand_efficiency_sa>  (222) 
-0.287548

>  <r_i_glide_ligand_efficiency_ln>  (222) 
-0.649009

>  <r_i_glide_gscore>  (222) 
-2.8983

>  <r_i_glide_lipo>  (222) 
-0.398205

>  <r_i_glide_hbond>  (222) 
-0.16

>  <r_i_glide_metal>  (222) 
-0

>  <r_i_glide_rewards>  (222) 
-0.360645

>  <r_i_glide_evdw>  (222) 
-31.9476

>  <r_i_glide_ecoul>  (222) 
-2.84059

>  <r_i_glide_erotb>  (222) 
0.0993975

>  <r_i_glide_esite>  (222) 
-0.0553843

>  <r_i_glide_emodel>  (222) 
-40.7994

>  <r_i_glide_energy>  (222) 
-34.7882

>  <r_i_glide_einternal>  (222) 
0.28161

>  <r_i_glide_intrahb_reward>  (222) 
-0

>  <i_i_glide_confnum>  (222) 
2

>  <i_i_glide_posenum>  (222) 
20

>  <r_i_glide_eff_state_penalty>  (222) 
0

>  <ligand_id>  (222) 
63

>  <original_smiles>  (222) 
CC1(C)CC(=O)C2C(=NC3=C(C(=O)CC(C)(C)C3)C(c3cnc4ccccc4c3)C2Cl)C1

>  <smiles>  (222) 
[H]c1nc2c([H])c([H])c([H])c([H])c2c([H])c1C1([H])C([H])(Cl)C2=C(N=C3C([H])([H])C(C([H])([H])[H])(C([H])([H])[H])C([H])([H])C(=O)C31[H])C([H])([H])C(C([H])([H])[H])(C([H])([H])[H])C([H])([H])C2=O

$$$$
63:6:1
     RDKit          3D

 61 65  0  0  1  0  0  0  0  0999 V2000
    7.2589   -8.3581    5.6282 C   0  0  0  0  0  0  0  0  0  0  0  0
    6.8310   -6.8722    5.6113 C   0  0  0  0  0  0  0  0  0  0  0  0
    7.2104   -6.2099    6.9481 C   0  0  0  0  0  0  0  0  0  0  0  0
    7.5106   -6.1065    4.4729 C   0  0  0  0  0  0  0  0  0  0  0  0
    7.0097   -6.4798    3.0765 C   0  0  0  0  0  0  0  0  0  0  0  0
    7.7599   -6.2465    2.1288 O   0  0  0  0  0  0  0  0  0  0  0  0
    5.6454   -7.0564    2.9282 C   0  0  0  0  0  0  0  0  0  0  0  0
    4.8494   -7.1697    4.0244 C   0  0  0  0  0  0  0  0  0  0  0  0
    3.5832   -7.7519    4.0723 N   0  0  0  0  0  0  0  0  0  0  0  0
    2.6765   -7.8882    3.1881 C   0  0  0  0  0  0  0  0  0  0  0  0
    2.6387   -7.4694    1.7033 C   0  0  1  0  0  0  0  0  0  0  0  0
    1.2834   -6.8314    1.3077 C   0  0  0  0  0  0  0  0  0  0  0  0
    1.1820   -5.9177    0.4906 O   0  0  0  0  0  0  0  0  0  0  0  0
    0.0136   -7.4517    1.8910 C   0  0  0  0  0  0  0  0  0  0  0  0
    0.1309   -7.7512    3.3964 C   0  0  0  0  0  0  0  0  0  0  0  0
    0.1488   -6.4374    4.2198 C   0  0  0  0  0  0  0  0  0  0  0  0
   -1.0845   -8.5920    3.8158 C   0  0  0  0  0  0  0  0  0  0  0  0
    1.4052   -8.5878    3.6412 C   0  0  0  0  0  0  0  0  0  0  0  0
    3.9013   -6.7846    1.1029 C   0  0  1  0  0  0  0  0  0  0  0  0
    3.9771   -5.2531    1.1949 C   0  0  0  0  0  0  0  0  0  0  0  0
    4.4340   -4.5103    0.0868 C   0  0  0  0  0  0  0  0  0  0  0  0
    4.5691   -3.1691    0.0904 N   0  0  0  0  0  0  0  0  0  0  0  0
    4.2413   -2.4800    1.2062 C   0  0  0  0  0  0  0  0  0  0  0  0
    4.3744   -1.0780    1.2326 C   0  0  0  0  0  0  0  0  0  0  0  0
    4.0454   -0.3385    2.3834 C   0  0  0  0  0  0  0  0  0  0  0  0
    3.5827   -0.9979    3.5372 C   0  0  0  0  0  0  0  0  0  0  0  0
    3.4420   -2.3984    3.5322 C   0  0  0  0  0  0  0  0  0  0  0  0
    3.7674   -3.1368    2.3746 C   0  0  0  0  0  0  0  0  0  0  0  0
    3.6310   -4.5371    2.3630 C   0  0  0  0  0  0  0  0  0  0  0  0
    5.2327   -7.4362    1.5155 C   0  0  2  0  0  0  0  0  0  0  0  0
    5.2200   -9.2046    1.2760 Cl  0  0  0  0  0  0  0  0  0  0  0  0
    5.3143   -6.7465    5.4088 C   0  0  0  0  0  0  0  0  0  0  0  0
    6.9929   -8.8718    4.7025 H   0  0  0  0  0  0  0  0  0  0  0  0
    6.7721   -8.9023    6.4389 H   0  0  0  0  0  0  0  0  0  0  0  0
    8.3373   -8.4631    5.7560 H   0  0  0  0  0  0  0  0  0  0  0  0
    6.9113   -5.1607    6.9604 H   0  0  0  0  0  0  0  0  0  0  0  0
    8.2856   -6.2416    7.1250 H   0  0  0  0  0  0  0  0  0  0  0  0
    6.7146   -6.6937    7.7896 H   0  0  0  0  0  0  0  0  0  0  0  0
    7.2889   -5.0558    4.6028 H   0  0  0  0  0  0  0  0  0  0  0  0
    8.5930   -6.2063    4.5201 H   0  0  0  0  0  0  0  0  0  0  0  0
    1.4853   -8.8262    4.7023 H   0  0  0  0  0  0  0  0  0  0  0  0
   -0.8381   -6.8036    1.6969 H   0  0  0  0  0  0  0  0  0  0  0  0
   -0.1714   -8.3727    1.3441 H   0  0  0  0  0  0  0  0  0  0  0  0
    0.2672   -6.6368    5.2864 H   0  0  0  0  0  0  0  0  0  0  0  0
   -0.7759   -5.8756    4.0889 H   0  0  0  0  0  0  0  0  0  0  0  0
    0.9661   -5.7746    3.9288 H   0  0  0  0  0  0  0  0  0  0  0  0
   -1.0391   -8.8510    4.8746 H   0  0  0  0  0  0  0  0  0  0  0  0
   -1.1160   -9.5322    3.2636 H   0  0  0  0  0  0  0  0  0  0  0  0
   -2.0250   -8.0724    3.6351 H   0  0  0  0  0  0  0  0  0  0  0  0
    1.3438   -9.5437    3.1169 H   0  0  0  0  0  0  0  0  0  0  0  0
    4.7958   -7.3315    6.1701 H   0  0  0  0  0  0  0  0  0  0  0  0
    3.8172   -6.9801    0.0332 H   0  0  0  0  0  0  0  0  0  0  0  0
    4.7159   -5.0085   -0.8334 H   0  0  0  0  0  0  0  0  0  0  0  0
    4.7234   -0.5653    0.3490 H   0  0  0  0  0  0  0  0  0  0  0  0
    4.1424    0.7378    2.3821 H   0  0  0  0  0  0  0  0  0  0  0  0
    3.3315   -0.4278    4.4210 H   0  0  0  0  0  0  0  0  0  0  0  0
    3.0857   -2.9007    4.4187 H   0  0  0  0  0  0  0  0  0  0  0  0
    3.2774   -5.0465    3.2466 H   0  0  0  0  0  0  0  0  0  0  0  0
    5.9748   -7.0746    0.8068 H   0  0  0  0  0  0  0  0  0  0  0  0
    5.0037   -5.7082    5.5448 H   0  0  0  0  0  0  0  0  0  0  0  0
    2.5980   -8.4289    1.1867 H   0  0  0  0  0  0  0  0  0  0  0  0
  1  2  1  0
  1 33  1  0
  1 34  1  0
  1 35  1  0
  2  3  1  0
  2  4  1  0
  2 32  1  0
  3 36  1  0
  3 37  1  0
  3 38  1  0
  4  5  1  0
  4 39  1  0
  4 40  1  0
  5  6  2  0
  5  7  1  0
  7  8  2  0
  7 30  1  0
  8  9  1  0
  8 32  1  0
  9 10  2  0
 10 18  1  0
 10 11  1  0
 11 12  1  0
 11 19  1  0
 11 61  1  6
 12 13  2  0
 12 14  1  0
 14 15  1  0
 14 42  1  0
 14 43  1  0
 15 16  1  0
 15 17  1  0
 15 18  1  0
 16 44  1  0
 16 45  1  0
 16 46  1  0
 17 47  1  0
 17 48  1  0
 17 49  1  0
 18 50  1  0
 18 41  1  0
 19 20  1  0
 19 30  1  0
 19 52  1  6
 20 29  1  0
 20 21  2  0
 21 22  1  0
 21 53  1  0
 22 23  2  0
 23 28  1  0
 23 24  1  0
 24 25  2  0
 24 54  1  0
 25 26  1  0
 25 55  1  0
 26 27  2  0
 26 56  1  0
 27 28  1  0
 27 57  1  0
 28 29  2  0
 29 58  1  0
 30 31  1  0
 30 59  1  6
 32 60  1  0
 32 51  1  0
M  END
>  <i_m_ct_stereo_status>  (223) 
1

>  <s_m_source_file>  (223) 
/var/tmp/pbs.5076255.sched01/tmpe6iyr0oq/80tt78e_gd.sdf

>  <i_m_source_file_index>  (223) 
13

>  <i_lp_mmshare_version>  (223) 
48012

>  <i_f3d_flags>  (223) 
0

>  <s_epik_input>  (223) 
Tz1DMVtDSDJdQyhbQ0gzXSkoW0NIM10pW0NIMl1DKFtDQEhdMTIpPU5DMz1DKEMoPU8pW0NIMl1DKFtDSDNdKShbQ0gzXSlbQ0gyXTMpW0NASF0oW0NAQEhdMkNsKWMoW2NIXW40KVtjSF1jKGM0NSlbY0hdW2NIXVtjSF1bY0hdNQ==

>  <s_epik_cmdline>  (223) 
J2VwaWtfcHl0aG9uJywgJy1waHQnLCAnMi4wJywgJy1waCcsICc3LjAnLCAnLXRuJywgJzgnLCAnLW1hJywgJzIwMCcsICctaW1hZScsICc8aW5maWxlLm1hZT4nLCAnLW9tYWUnLCAnPG91dGZpbGUubWFlPic=

>  <r_epik_Ionization_Penalty>  (223) 
0.00123502

>  <r_epik_Ionization_Penalty_Charging>  (223) 
0

>  <r_epik_Ionization_Penalty_Neutral>  (223) 
0.00123502

>  <r_epik_State_Penalty>  (223) 
0.875058

>  <r_epik_Charging_Adjusted_Penalty>  (223) 
0.875058

>  <i_epik_Tot_Q>  (223) 
0

>  <i_epik_Tot_abs_Q>  (223) 
0

>  <s_epik_Chemistry_Notes>  (223) 
This compound has an imine and may undergo hydrolysis.

>  <s_lp_Force_Field>  (223) 
OPLS3e

>  <r_lp_Energy>  (223) 
44.5235

>  <b_lp_Chiralities_Consistent>  (223) 
1

>  <s_lp_Variant>  (223) 
63:0-7

>  <s_i_glide_gridfile>  (223) 
pfpi4k_grid

>  <i_i_glide_lignum>  (223) 
13

>  <i_i_glide_rotatable_bonds>  (223) 
1

>  <r_i_docking_score>  (223) 
-2.74971

>  <r_i_glide_ligand_efficiency>  (223) 
-0.0859283

>  <r_i_glide_ligand_efficiency_sa>  (223) 
-0.272805

>  <r_i_glide_ligand_efficiency_ln>  (223) 
-0.615734

>  <r_i_glide_gscore>  (223) 
-2.74971

>  <r_i_glide_lipo>  (223) 
-0.312365

>  <r_i_glide_hbond>  (223) 
-0.16

>  <r_i_glide_metal>  (223) 
-0

>  <r_i_glide_rewards>  (223) 
-0.359521

>  <r_i_glide_evdw>  (223) 
-29.8216

>  <r_i_glide_ecoul>  (223) 
-3.08662

>  <r_i_glide_erotb>  (223) 
0.0993975

>  <r_i_glide_esite>  (223) 
-0.063146

>  <r_i_glide_emodel>  (223) 
-38.8145

>  <r_i_glide_energy>  (223) 
-32.9082

>  <r_i_glide_einternal>  (223) 
0.00422816

>  <r_i_glide_intrahb_reward>  (223) 
-0

>  <i_i_glide_confnum>  (223) 
3

>  <i_i_glide_posenum>  (223) 
29

>  <r_i_glide_eff_state_penalty>  (223) 
0

>  <ligand_id>  (223) 
63

>  <original_smiles>  (223) 
CC1(C)CC(=O)C2C(=NC3=C(C(=O)CC(C)(C)C3)C(c3cnc4ccccc4c3)C2Cl)C1

>  <smiles>  (223) 
[H]c1nc2c([H])c([H])c([H])c([H])c2c([H])c1C1([H])C([H])(Cl)C2=C(N=C3C([H])([H])C(C([H])([H])[H])(C([H])([H])[H])C([H])([H])C(=O)C31[H])C([H])([H])C(C([H])([H])[H])(C([H])([H])[H])C([H])([H])C2=O

$$$$
63:6:2
     RDKit          3D

 61 65  0  0  1  0  0  0  0  0999 V2000
    8.5909   -8.5332    4.6921 C   0  0  0  0  0  0  0  0  0  0  0  0
    8.1361   -7.0598    4.8194 C   0  0  0  0  0  0  0  0  0  0  0  0
    8.8914   -6.3887    5.9798 C   0  0  0  0  0  0  0  0  0  0  0  0
    8.4050   -6.2658    3.5333 C   0  0  0  0  0  0  0  0  0  0  0  0
    7.5036   -6.6628    2.3583 C   0  0  0  0  0  0  0  0  0  0  0  0
    7.9077   -6.4106    1.2231 O   0  0  0  0  0  0  0  0  0  0  0  0
    6.1761   -7.2763    2.6384 C   0  0  0  0  0  0  0  0  0  0  0  0
    5.7682   -7.4247    3.9255 C   0  0  0  0  0  0  0  0  0  0  0  0
    4.5971   -8.0511    4.3539 N   0  0  0  0  0  0  0  0  0  0  0  0
    3.4621   -8.2120    3.7945 C   0  0  0  0  0  0  0  0  0  0  0  0
    2.9494   -7.7917    2.3962 C   0  0  1  0  0  0  0  0  0  0  0  0
    1.5177   -7.1975    2.4441 C   0  0  0  0  0  0  0  0  0  0  0  0
    1.1432   -6.2819    1.7082 O   0  0  0  0  0  0  0  0  0  0  0  0
    0.5154   -7.8596    3.3931 C   0  0  0  0  0  0  0  0  0  0  0  0
    1.1051   -8.1498    4.7882 C   0  0  0  0  0  0  0  0  0  0  0  0
    1.3341   -6.8329    5.5761 C   0  0  0  0  0  0  0  0  0  0  0  0
    0.1144   -9.0293    5.5671 C   0  0  0  0  0  0  0  0  0  0  0  0
    2.4165   -8.9455    4.6184 C   0  0  0  0  0  0  0  0  0  0  0  0
    3.9417   -7.0627    1.4421 C   0  0  1  0  0  0  0  0  0  0  0  0
    3.9987   -5.5320    1.5453 C   0  0  0  0  0  0  0  0  0  0  0  0
    3.9814   -4.8777    2.7943 C   0  0  0  0  0  0  0  0  0  0  0  0
    4.0317   -3.5452    2.9449 N   0  0  0  0  0  0  0  0  0  0  0  0
    4.0964   -2.7679    1.8455 C   0  0  0  0  0  0  0  0  0  0  0  0
    4.1351   -1.3710    1.9978 C   0  0  0  0  0  0  0  0  0  0  0  0
    4.1961   -0.5222    0.8784 C   0  0  0  0  0  0  0  0  0  0  0  0
    4.2279   -1.0747   -0.4162 C   0  0  0  0  0  0  0  0  0  0  0  0
    4.1932   -2.4729   -0.5893 C   0  0  0  0  0  0  0  0  0  0  0  0
    4.1262   -3.3227    0.5372 C   0  0  0  0  0  0  0  0  0  0  0  0
    4.0805   -4.7249    0.3867 C   0  0  0  0  0  0  0  0  0  0  0  0
    5.3543   -7.6764    1.4241 C   0  0  2  0  0  0  0  0  0  0  0  0
    5.3286   -9.4515    1.2284 Cl  0  0  0  0  0  0  0  0  0  0  0  0
    6.6278   -6.9854    5.1009 C   0  0  0  0  0  0  0  0  0  0  0  0
    8.0653   -9.0574    3.8917 H   0  0  0  0  0  0  0  0  0  0  0  0
    8.3960   -9.0906    5.6117 H   0  0  0  0  0  0  0  0  0  0  0  0
    9.6586   -8.6064    4.4769 H   0  0  0  0  0  0  0  0  0  0  0  0
    8.5796   -5.3496    6.0940 H   0  0  0  0  0  0  0  0  0  0  0  0
    9.9681   -6.3871    5.8146 H   0  0  0  0  0  0  0  0  0  0  0  0
    8.6942   -6.8873    6.9295 H   0  0  0  0  0  0  0  0  0  0  0  0
    8.2200   -5.2138    3.7301 H   0  0  0  0  0  0  0  0  0  0  0  0
    9.4498   -6.3531    3.2397 H   0  0  0  0  0  0  0  0  0  0  0  0
    2.8282   -9.1750    5.6006 H   0  0  0  0  0  0  0  0  0  0  0  0
   -0.3701   -7.2324    3.4855 H   0  0  0  0  0  0  0  0  0  0  0  0
    0.1948   -8.7903    2.9261 H   0  0  0  0  0  0  0  0  0  0  0  0
    1.7834   -7.0267    6.5534 H   0  0  0  0  0  0  0  0  0  0  0  0
    0.3962   -6.2996    5.7407 H   0  0  0  0  0  0  0  0  0  0  0  0
    2.0021   -6.1468    5.0538 H   0  0  0  0  0  0  0  0  0  0  0  0
    0.4905   -9.2829    6.5598 H   0  0  0  0  0  0  0  0  0  0  0  0
   -0.0604   -9.9673    5.0410 H   0  0  0  0  0  0  0  0  0  0  0  0
   -0.8517   -8.5437    5.6794 H   0  0  0  0  0  0  0  0  0  0  0  0
    2.2217   -9.9049    4.1360 H   0  0  0  0  0  0  0  0  0  0  0  0
    6.3898   -7.5847    5.9805 H   0  0  0  0  0  0  0  0  0  0  0  0
    3.5352   -7.2545    0.4528 H   0  0  0  0  0  0  0  0  0  0  0  0
    3.9252   -5.4316    3.7194 H   0  0  0  0  0  0  0  0  0  0  0  0
    4.1026   -0.9510    2.9906 H   0  0  0  0  0  0  0  0  0  0  0  0
    4.2075    0.5490    1.0122 H   0  0  0  0  0  0  0  0  0  0  0  0
    4.2589   -0.4205   -1.2767 H   0  0  0  0  0  0  0  0  0  0  0  0
    4.2019   -2.8891   -1.5836 H   0  0  0  0  0  0  0  0  0  0  0  0
    4.1026   -5.1698   -0.6000 H   0  0  0  0  0  0  0  0  0  0  0  0
    5.8147   -7.2941    0.5158 H   0  0  0  0  0  0  0  0  0  0  0  0
    6.3445   -5.9556    5.3340 H   0  0  0  0  0  0  0  0  0  0  0  0
    2.7823   -8.7523    1.9058 H   0  0  0  0  0  0  0  0  0  0  0  0
  1  2  1  0
  1 33  1  0
  1 34  1  0
  1 35  1  0
  2  3  1  0
  2  4  1  0
  2 32  1  0
  3 36  1  0
  3 37  1  0
  3 38  1  0
  4  5  1  0
  4 39  1  0
  4 40  1  0
  5  6  2  0
  5  7  1  0
  7  8  2  0
  7 30  1  0
  8  9  1  0
  8 32  1  0
  9 10  2  0
 10 18  1  0
 10 11  1  0
 11 12  1  0
 11 19  1  0
 11 61  1  6
 12 13  2  0
 12 14  1  0
 14 15  1  0
 14 42  1  0
 14 43  1  0
 15 16  1  0
 15 17  1  0
 15 18  1  0
 16 44  1  0
 16 45  1  0
 16 46  1  0
 17 47  1  0
 17 48  1  0
 17 49  1  0
 18 50  1  0
 18 41  1  0
 19 20  1  0
 19 30  1  0
 19 52  1  6
 20 29  1  0
 20 21  2  0
 21 22  1  0
 21 53  1  0
 22 23  2  0
 23 28  1  0
 23 24  1  0
 24 25  2  0
 24 54  1  0
 25 26  1  0
 25 55  1  0
 26 27  2  0
 26 56  1  0
 27 28  1  0
 27 57  1  0
 28 29  2  0
 29 58  1  0
 30 31  1  0
 30 59  1  6
 32 60  1  0
 32 51  1  0
M  END
>  <i_m_ct_stereo_status>  (224) 
1

>  <s_m_source_file>  (224) 
/var/tmp/pbs.5076255.sched01/tmpe6iyr0oq/80tt78e_gd.sdf

>  <i_m_source_file_index>  (224) 
13

>  <i_lp_mmshare_version>  (224) 
48012

>  <i_f3d_flags>  (224) 
0

>  <s_epik_input>  (224) 
Tz1DMVtDSDJdQyhbQ0gzXSkoW0NIM10pW0NIMl1DKFtDQEhdMTIpPU5DMz1DKEMoPU8pW0NIMl1DKFtDSDNdKShbQ0gzXSlbQ0gyXTMpW0NASF0oW0NAQEhdMkNsKWMoW2NIXW40KVtjSF1jKGM0NSlbY0hdW2NIXVtjSF1bY0hdNQ==

>  <s_epik_cmdline>  (224) 
J2VwaWtfcHl0aG9uJywgJy1waHQnLCAnMi4wJywgJy1waCcsICc3LjAnLCAnLXRuJywgJzgnLCAnLW1hJywgJzIwMCcsICctaW1hZScsICc8aW5maWxlLm1hZT4nLCAnLW9tYWUnLCAnPG91dGZpbGUubWFlPic=

>  <r_epik_Ionization_Penalty>  (224) 
0.00123502

>  <r_epik_Ionization_Penalty_Charging>  (224) 
0

>  <r_epik_Ionization_Penalty_Neutral>  (224) 
0.00123502

>  <r_epik_State_Penalty>  (224) 
0.875058

>  <r_epik_Charging_Adjusted_Penalty>  (224) 
0.875058

>  <i_epik_Tot_Q>  (224) 
0

>  <i_epik_Tot_abs_Q>  (224) 
0

>  <s_epik_Chemistry_Notes>  (224) 
This compound has an imine and may undergo hydrolysis.

>  <s_lp_Force_Field>  (224) 
OPLS3e

>  <r_lp_Energy>  (224) 
44.5235

>  <b_lp_Chiralities_Consistent>  (224) 
1

>  <s_lp_Variant>  (224) 
63:0-7

>  <s_i_glide_gridfile>  (224) 
pfpi4k_grid

>  <i_i_glide_lignum>  (224) 
13

>  <i_i_glide_rotatable_bonds>  (224) 
1

>  <r_i_docking_score>  (224) 
-2.57192

>  <r_i_glide_ligand_efficiency>  (224) 
-0.0803725

>  <r_i_glide_ligand_efficiency_sa>  (224) 
-0.255167

>  <r_i_glide_ligand_efficiency_ln>  (224) 
-0.575923

>  <r_i_glide_gscore>  (224) 
-2.57192

>  <r_i_glide_lipo>  (224) 
-0.390845

>  <r_i_glide_hbond>  (224) 
-0.066484

>  <r_i_glide_metal>  (224) 
-0

>  <r_i_glide_rewards>  (224) 
-0.347836

>  <r_i_glide_evdw>  (224) 
-29.7502

>  <r_i_glide_ecoul>  (224) 
-2.31254

>  <r_i_glide_erotb>  (224) 
0.0993975

>  <r_i_glide_esite>  (224) 
-0.0317627

>  <r_i_glide_emodel>  (224) 
-37.4023

>  <r_i_glide_energy>  (224) 
-32.0627

>  <r_i_glide_einternal>  (224) 
0.271838

>  <r_i_glide_intrahb_reward>  (224) 
-0

>  <i_i_glide_confnum>  (224) 
4

>  <i_i_glide_posenum>  (224) 
23

>  <r_i_glide_eff_state_penalty>  (224) 
0

>  <ligand_id>  (224) 
63

>  <original_smiles>  (224) 
CC1(C)CC(=O)C2C(=NC3=C(C(=O)CC(C)(C)C3)C(c3cnc4ccccc4c3)C2Cl)C1

>  <smiles>  (224) 
[H]c1nc2c([H])c([H])c([H])c([H])c2c([H])c1C1([H])C([H])(Cl)C2=C(N=C3C([H])([H])C(C([H])([H])[H])(C([H])([H])[H])C([H])([H])C(=O)C31[H])C([H])([H])C(C([H])([H])[H])(C([H])([H])[H])C([H])([H])C2=O

$$$$
65:0:0
     RDKit          3D

 41 44  0  0  1  0  0  0  0  0999 V2000
    0.0262   -6.2606    1.6727 O   0  0  0  0  0  0  0  0  0  0  0  0
    0.6470   -6.7139    2.9263 S   0  0  0  0  0  0  0  0  0  0  0  0
    0.5192   -5.8739    4.1304 O   0  0  0  0  0  0  0  0  0  0  0  0
    0.0487   -8.4195    3.2872 C   0  0  0  0  0  0  0  0  0  0  0  0
   -1.4169   -8.4823    3.6302 C   0  0  0  0  0  0  0  0  0  0  0  0
   -0.3718   -8.6473    4.7159 C   0  0  0  0  0  0  0  0  0  0  0  0
    2.3291   -6.9754    2.6278 N   0  0  0  0  0  0  0  0  0  0  0  0
    3.1577   -7.5117    3.7197 C   0  0  0  0  0  0  0  0  0  0  0  0
    4.6331   -7.1565    3.4800 C   0  0  0  0  0  0  0  0  0  0  0  0
    5.1606   -7.6613    2.1227 C   0  0  2  0  0  0  0  0  0  0  0  0
    6.4591   -6.9373    1.7129 C   0  0  0  0  0  0  0  0  0  0  0  0
    6.0129   -5.7776    0.9476 N   0  0  0  0  0  0  0  0  0  0  0  0
    6.8535   -4.7073    0.5779 C   0  0  0  0  0  0  0  0  0  0  0  0
    6.3818   -3.5601   -0.1072 C   0  0  0  0  0  0  0  0  0  0  0  0
    7.1991   -2.5491   -0.4761 N   0  0  0  0  0  0  0  0  0  0  0  0
    8.4853   -2.6825   -0.1599 C   0  0  0  0  0  0  0  0  0  0  0  0
    9.0492   -3.7039    0.4798 N   0  0  0  0  0  0  0  0  0  0  0  0
    8.2379   -4.7131    0.8562 C   0  0  0  0  0  0  0  0  0  0  0  0
    4.6070   -5.8638    0.5815 C   0  0  0  0  0  0  0  0  0  0  0  0
    4.2022   -7.2863    0.9906 C   0  0  2  0  0  0  0  0  0  0  0  0
    2.7082   -7.5050    1.3119 C   0  0  0  0  0  0  0  0  0  0  0  0
    0.5018   -9.1948    2.6747 H   0  0  0  0  0  0  0  0  0  0  0  0
   -2.0045   -7.5653    3.6461 H   0  0  0  0  0  0  0  0  0  0  0  0
   -1.9620   -9.3719    3.3164 H   0  0  0  0  0  0  0  0  0  0  0  0
   -0.1939   -9.6409    5.1220 H   0  0  0  0  0  0  0  0  0  0  0  0
   -0.2789   -7.8396    5.4382 H   0  0  0  0  0  0  0  0  0  0  0  0
    2.8226   -7.1084    4.6737 H   0  0  0  0  0  0  0  0  0  0  0  0
    3.0092   -8.5937    3.7820 H   0  0  0  0  0  0  0  0  0  0  0  0
    4.7624   -6.0737    3.5551 H   0  0  0  0  0  0  0  0  0  0  0  0
    5.2285   -7.5964    4.2755 H   0  0  0  0  0  0  0  0  0  0  0  0
    5.3069   -8.7441    2.1597 H   0  0  0  0  0  0  0  0  0  0  0  0
    7.0615   -6.6672    2.5795 H   0  0  0  0  0  0  0  0  0  0  0  0
    7.0614   -7.5741    1.0663 H   0  0  0  0  0  0  0  0  0  0  0  0
    5.3444   -3.4334   -0.3754 H   0  0  0  0  0  0  0  0  0  0  0  0
    9.1294   -1.8641   -0.4385 H   0  0  0  0  0  0  0  0  0  0  0  0
    8.7295   -5.5279    1.3645 H   0  0  0  0  0  0  0  0  0  0  0  0
    4.0367   -5.1205    1.1361 H   0  0  0  0  0  0  0  0  0  0  0  0
    4.4511   -5.6939   -0.4852 H   0  0  0  0  0  0  0  0  0  0  0  0
    4.4443   -7.9228    0.1427 H   0  0  0  0  0  0  0  0  0  0  0  0
    2.4752   -8.5739    1.2920 H   0  0  0  0  0  0  0  0  0  0  0  0
    2.0941   -7.0360    0.5470 H   0  0  0  0  0  0  0  0  0  0  0  0
  1  2  2  0
  2  3  2  0
  2  4  1  0
  2  7  1  0
  4  6  1  0
  4  5  1  0
  4 22  1  0
  5  6  1  0
  5 23  1  0
  5 24  1  0
  6 25  1  0
  6 26  1  0
  7 21  1  0
  7  8  1  0
  8  9  1  0
  8 27  1  0
  8 28  1  0
  9 10  1  0
  9 29  1  0
  9 30  1  0
 10 20  1  0
 10 11  1  0
 10 31  1  1
 11 12  1  0
 11 32  1  0
 11 33  1  0
 12 13  1  0
 12 19  1  0
 13 18  1  0
 13 14  2  0
 14 15  1  0
 14 34  1  0
 15 16  2  0
 16 17  1  0
 16 35  1  0
 17 18  2  0
 18 36  1  0
 19 20  1  0
 19 37  1  0
 19 38  1  0
 20 21  1  0
 20 39  1  6
 21 40  1  0
 21 41  1  0
M  END
>  <i_m_ct_stereo_status>  (225) 
1

>  <s_m_source_file>  (225) 
/var/tmp/pbs.5076255.sched01/tmpe6iyr0oq/80tt78e_gd.sdf

>  <i_m_source_file_index>  (225) 
15

>  <i_lp_mmshare_version>  (225) 
48012

>  <i_f3d_flags>  (225) 
0

>  <s_epik_input>  (225) 
W0NIMl0xW0NIMl1bQ0hdMVMoPU8pKD1PKU4oW0NIMl1bQ0gyXTIpW0NIMl1bQ0BIXShbQ0BIXTIzKVtDSDJdTihbQ0gyXTMpYzRbY0hdbltjSF1uW2NIXTQ=

>  <s_epik_cmdline>  (225) 
J2VwaWtfcHl0aG9uJywgJy1waHQnLCAnMi4wJywgJy1waCcsICc3LjAnLCAnLXRuJywgJzgnLCAnLW1hJywgJzIwMCcsICctaW1hZScsICc8aW5maWxlLm1hZT4nLCAnLW9tYWUnLCAnPG91dGZpbGUubWFlPic=

>  <r_lp_tautomer_probability>  (225) 
1

>  <r_epik_Ionization_Penalty>  (225) 
0.000320425

>  <r_epik_Ionization_Penalty_Charging>  (225) 
0

>  <r_epik_Ionization_Penalty_Neutral>  (225) 
0.000320425

>  <r_epik_State_Penalty>  (225) 
0.00019347

>  <r_epik_Charging_Adjusted_Penalty>  (225) 
0.00019347

>  <i_epik_Tot_Q>  (225) 
0

>  <i_epik_Tot_abs_Q>  (225) 
0

>  <s_lp_Force_Field>  (225) 
OPLS3e

>  <r_lp_Energy>  (225) 
35.5758

>  <b_lp_Chiralities_Consistent>  (225) 
1

>  <s_lp_Variant>  (225) 
65:0-1

>  <s_i_glide_gridfile>  (225) 
pfpi4k_grid

>  <i_i_glide_lignum>  (225) 
15

>  <i_i_glide_rotatable_bonds>  (225) 
3

>  <r_i_docking_score>  (225) 
-3.96177

>  <r_i_glide_ligand_efficiency>  (225) 
-0.188656

>  <r_i_glide_ligand_efficiency_sa>  (225) 
-0.520487

>  <r_i_glide_ligand_efficiency_ln>  (225) 
-0.97954

>  <r_i_glide_gscore>  (225) 
-3.96177

>  <r_i_glide_lipo>  (225) 
-0.648861

>  <r_i_glide_hbond>  (225) 
-0.0874707

>  <r_i_glide_metal>  (225) 
-0

>  <r_i_glide_rewards>  (225) 
-1.42356

>  <r_i_glide_evdw>  (225) 
-24.5857

>  <r_i_glide_ecoul>  (225) 
-6.38394

>  <r_i_glide_erotb>  (225) 
0.583562

>  <r_i_glide_esite>  (225) 
-0.198566

>  <r_i_glide_emodel>  (225) 
-39.6777

>  <r_i_glide_energy>  (225) 
-30.9697

>  <r_i_glide_einternal>  (225) 
0.580903

>  <r_i_glide_intrahb_reward>  (225) 
-0

>  <i_i_glide_confnum>  (225) 
3

>  <i_i_glide_posenum>  (225) 
39

>  <r_i_glide_eff_state_penalty>  (225) 
0

>  <ligand_id>  (225) 
65

>  <original_smiles>  (225) 
O=S(=O)(C1CC1)N1CCC2CN(c3cncnc3)CC2C1

>  <smiles>  (225) 
[H]c1nc([H])c(N2C([H])([H])C3([H])C([H])([H])N(S(=O)(=O)C4([H])C([H])([H])C4([H])[H])C([H])([H])C([H])([H])C3([H])C2([H])[H])c([H])n1

$$$$
65:0:1
     RDKit          3D

 41 44  0  0  1  0  0  0  0  0999 V2000
    1.4748   -8.1376    1.3987 O   0  0  0  0  0  0  0  0  0  0  0  0
    1.0441   -7.1078    2.3488 S   0  0  0  0  0  0  0  0  0  0  0  0
   -0.3568   -6.6507    2.3476 O   0  0  0  0  0  0  0  0  0  0  0  0
    1.5352   -7.6297    4.0540 C   0  0  0  0  0  0  0  0  0  0  0  0
    0.5790   -8.6022    4.6999 C   0  0  0  0  0  0  0  0  0  0  0  0
    0.6059   -7.1563    5.1474 C   0  0  0  0  0  0  0  0  0  0  0  0
    2.0688   -5.7264    2.0957 N   0  0  0  0  0  0  0  0  0  0  0  0
    1.9016   -4.5561    2.9756 C   0  0  0  0  0  0  0  0  0  0  0  0
    2.4493   -3.2932    2.2851 C   0  0  0  0  0  0  0  0  0  0  0  0
    3.9241   -3.4272    1.8602 C   0  0  2  0  0  0  0  0  0  0  0  0
    4.3036   -2.3749    0.8000 C   0  0  0  0  0  0  0  0  0  0  0  0
    4.0483   -3.0184   -0.4828 N   0  0  0  0  0  0  0  0  0  0  0  0
    4.0236   -2.3418   -1.7217 C   0  0  0  0  0  0  0  0  0  0  0  0
    3.8104   -2.9991   -2.9608 C   0  0  0  0  0  0  0  0  0  0  0  0
    3.8051   -2.3444   -4.1400 N   0  0  0  0  0  0  0  0  0  0  0  0
    3.9699   -1.0248   -4.0918 C   0  0  0  0  0  0  0  0  0  0  0  0
    4.2095   -0.2975   -3.0113 N   0  0  0  0  0  0  0  0  0  0  0  0
    4.2146   -0.9450   -1.8278 C   0  0  0  0  0  0  0  0  0  0  0  0
    3.8092   -4.4445   -0.3332 C   0  0  0  0  0  0  0  0  0  0  0  0
    4.1657   -4.7493    1.1252 C   0  0  2  0  0  0  0  0  0  0  0  0
    3.4842   -5.9825    1.7582 C   0  0  0  0  0  0  0  0  0  0  0  0
    2.6051   -7.7159    4.2067 H   0  0  0  0  0  0  0  0  0  0  0  0
   -0.2894   -8.9346    4.1362 H   0  0  0  0  0  0  0  0  0  0  0  0
    1.0097   -9.3510    5.3658 H   0  0  0  0  0  0  0  0  0  0  0  0
    1.0575   -6.9235    6.1111 H   0  0  0  0  0  0  0  0  0  0  0  0
   -0.2501   -6.5401    4.8857 H   0  0  0  0  0  0  0  0  0  0  0  0
    0.8491   -4.4188    3.2279 H   0  0  0  0  0  0  0  0  0  0  0  0
    2.4205   -4.7413    3.9200 H   0  0  0  0  0  0  0  0  0  0  0  0
    1.8395   -3.0638    1.4102 H   0  0  0  0  0  0  0  0  0  0  0  0
    2.3462   -2.4441    2.9590 H   0  0  0  0  0  0  0  0  0  0  0  0
    4.5675   -3.3546    2.7383 H   0  0  0  0  0  0  0  0  0  0  0  0
    3.7464   -1.4469    0.9301 H   0  0  0  0  0  0  0  0  0  0  0  0
    5.3668   -2.1470    0.8573 H   0  0  0  0  0  0  0  0  0  0  0  0
    3.6705   -4.0657   -3.0292 H   0  0  0  0  0  0  0  0  0  0  0  0
    3.9988   -0.5113   -5.0397 H   0  0  0  0  0  0  0  0  0  0  0  0
    4.3872   -0.3195   -0.9632 H   0  0  0  0  0  0  0  0  0  0  0  0
    2.7642   -4.6688   -0.5412 H   0  0  0  0  0  0  0  0  0  0  0  0
    4.4239   -5.0276   -1.0179 H   0  0  0  0  0  0  0  0  0  0  0  0
    5.2378   -4.9340    1.1382 H   0  0  0  0  0  0  0  0  0  0  0  0
    4.0076   -6.2582    2.6760 H   0  0  0  0  0  0  0  0  0  0  0  0
    3.5739   -6.8389    1.0898 H   0  0  0  0  0  0  0  0  0  0  0  0
  1  2  2  0
  2  3  2  0
  2  4  1  0
  2  7  1  0
  4  6  1  0
  4  5  1  0
  4 22  1  0
  5  6  1  0
  5 23  1  0
  5 24  1  0
  6 25  1  0
  6 26  1  0
  7 21  1  0
  7  8  1  0
  8  9  1  0
  8 27  1  0
  8 28  1  0
  9 10  1  0
  9 29  1  0
  9 30  1  0
 10 20  1  0
 10 11  1  0
 10 31  1  1
 11 12  1  0
 11 32  1  0
 11 33  1  0
 12 13  1  0
 12 19  1  0
 13 18  1  0
 13 14  2  0
 14 15  1  0
 14 34  1  0
 15 16  2  0
 16 17  1  0
 16 35  1  0
 17 18  2  0
 18 36  1  0
 19 20  1  0
 19 37  1  0
 19 38  1  0
 20 21  1  0
 20 39  1  6
 21 40  1  0
 21 41  1  0
M  END
>  <i_m_ct_stereo_status>  (226) 
1

>  <s_m_source_file>  (226) 
/var/tmp/pbs.5076255.sched01/tmpe6iyr0oq/80tt78e_gd.sdf

>  <i_m_source_file_index>  (226) 
15

>  <i_lp_mmshare_version>  (226) 
48012

>  <i_f3d_flags>  (226) 
0

>  <s_epik_input>  (226) 
W0NIMl0xW0NIMl1bQ0hdMVMoPU8pKD1PKU4oW0NIMl1bQ0gyXTIpW0NIMl1bQ0BIXShbQ0BIXTIzKVtDSDJdTihbQ0gyXTMpYzRbY0hdbltjSF1uW2NIXTQ=

>  <s_epik_cmdline>  (226) 
J2VwaWtfcHl0aG9uJywgJy1waHQnLCAnMi4wJywgJy1waCcsICc3LjAnLCAnLXRuJywgJzgnLCAnLW1hJywgJzIwMCcsICctaW1hZScsICc8aW5maWxlLm1hZT4nLCAnLW9tYWUnLCAnPG91dGZpbGUubWFlPic=

>  <r_lp_tautomer_probability>  (226) 
1

>  <r_epik_Ionization_Penalty>  (226) 
0.000320425

>  <r_epik_Ionization_Penalty_Charging>  (226) 
0

>  <r_epik_Ionization_Penalty_Neutral>  (226) 
0.000320425

>  <r_epik_State_Penalty>  (226) 
0.00019347

>  <r_epik_Charging_Adjusted_Penalty>  (226) 
0.00019347

>  <i_epik_Tot_Q>  (226) 
0

>  <i_epik_Tot_abs_Q>  (226) 
0

>  <s_lp_Force_Field>  (226) 
OPLS3e

>  <r_lp_Energy>  (226) 
35.5758

>  <b_lp_Chiralities_Consistent>  (226) 
1

>  <s_lp_Variant>  (226) 
65:0-1

>  <s_i_glide_gridfile>  (226) 
pfpi4k_grid

>  <i_i_glide_lignum>  (226) 
15

>  <i_i_glide_rotatable_bonds>  (226) 
3

>  <r_i_docking_score>  (226) 
-3.62918

>  <r_i_glide_ligand_efficiency>  (226) 
-0.172818

>  <r_i_glide_ligand_efficiency_sa>  (226) 
-0.476792

>  <r_i_glide_ligand_efficiency_ln>  (226) 
-0.897308

>  <r_i_glide_gscore>  (226) 
-3.62918

>  <r_i_glide_lipo>  (226) 
-0.0832014

>  <r_i_glide_hbond>  (226) 
-0.316014

>  <r_i_glide_metal>  (226) 
-0

>  <r_i_glide_rewards>  (226) 
-1.44755

>  <r_i_glide_evdw>  (226) 
-26.0039

>  <r_i_glide_ecoul>  (226) 
-5.72198

>  <r_i_glide_erotb>  (226) 
0.583562

>  <r_i_glide_esite>  (226) 
-0.207487

>  <r_i_glide_emodel>  (226) 
-39.7259

>  <r_i_glide_energy>  (226) 
-31.7259

>  <r_i_glide_einternal>  (226) 
0.446287

>  <r_i_glide_intrahb_reward>  (226) 
-0

>  <i_i_glide_confnum>  (226) 
4

>  <i_i_glide_posenum>  (226) 
35

>  <r_i_glide_eff_state_penalty>  (226) 
0

>  <ligand_id>  (226) 
65

>  <original_smiles>  (226) 
O=S(=O)(C1CC1)N1CCC2CN(c3cncnc3)CC2C1

>  <smiles>  (226) 
[H]c1nc([H])c(N2C([H])([H])C3([H])C([H])([H])N(S(=O)(=O)C4([H])C([H])([H])C4([H])[H])C([H])([H])C([H])([H])C3([H])C2([H])[H])c([H])n1

$$$$
65:0:2
     RDKit          3D

 41 44  0  0  1  0  0  0  0  0999 V2000
    3.2032   -7.9090    3.7771 O   0  0  0  0  0  0  0  0  0  0  0  0
    2.7289   -7.5054    2.4456 S   0  0  0  0  0  0  0  0  0  0  0  0
    2.8366   -8.4405    1.3164 O   0  0  0  0  0  0  0  0  0  0  0  0
    0.9772   -6.9069    2.5836 C   0  0  0  0  0  0  0  0  0  0  0  0
   -0.0569   -8.0038    2.4803 C   0  0  0  0  0  0  0  0  0  0  0  0
    0.1544   -7.0503    1.3252 C   0  0  0  0  0  0  0  0  0  0  0  0
    3.5981   -6.0633    2.0152 N   0  0  0  0  0  0  0  0  0  0  0  0
    3.6209   -4.9493    2.9823 C   0  0  0  0  0  0  0  0  0  0  0  0
    3.9165   -3.6298    2.2537 C   0  0  0  0  0  0  0  0  0  0  0  0
    5.2437   -3.6679    1.4743 C   0  0  2  0  0  0  0  0  0  0  0  0
    5.3133   -2.5490    0.4189 C   0  0  0  0  0  0  0  0  0  0  0  0
    4.7700   -3.1424   -0.7958 N   0  0  0  0  0  0  0  0  0  0  0  0
    4.4357   -2.4087   -1.9564 C   0  0  0  0  0  0  0  0  0  0  0  0
    4.4262   -0.9951   -1.9866 C   0  0  0  0  0  0  0  0  0  0  0  0
    4.1386   -0.2951   -3.1024 N   0  0  0  0  0  0  0  0  0  0  0  0
    3.8144   -0.9946   -4.1842 C   0  0  0  0  0  0  0  0  0  0  0  0
    3.8097   -2.3170   -4.2969 N   0  0  0  0  0  0  0  0  0  0  0  0
    4.0883   -3.0289   -3.1826 C   0  0  0  0  0  0  0  0  0  0  0  0
    4.6364   -4.5867   -0.6845 C   0  0  0  0  0  0  0  0  0  0  0  0
    5.3544   -4.9401    0.6251 C   0  0  2  0  0  0  0  0  0  0  0  0
    4.8971   -6.2346    1.3356 C   0  0  0  0  0  0  0  0  0  0  0  0
    0.8247   -6.0878    3.2785 H   0  0  0  0  0  0  0  0  0  0  0  0
    0.2759   -9.0294    2.3412 H   0  0  0  0  0  0  0  0  0  0  0  0
   -0.9617   -7.8910    3.0765 H   0  0  0  0  0  0  0  0  0  0  0  0
   -0.6002   -6.2962    1.1377 H   0  0  0  0  0  0  0  0  0  0  0  0
    0.6267   -7.4552    0.4322 H   0  0  0  0  0  0  0  0  0  0  0  0
    2.6645   -4.8681    3.4961 H   0  0  0  0  0  0  0  0  0  0  0  0
    4.3621   -5.1567    3.7573 H   0  0  0  0  0  0  0  0  0  0  0  0
    3.0906   -3.4044    1.5752 H   0  0  0  0  0  0  0  0  0  0  0  0
    3.9458   -2.8173    2.9777 H   0  0  0  0  0  0  0  0  0  0  0  0
    6.0781   -3.6029    2.1738 H   0  0  0  0  0  0  0  0  0  0  0  0
    4.7740   -1.6592    0.7400 H   0  0  0  0  0  0  0  0  0  0  0  0
    6.3500   -2.2715    0.2318 H   0  0  0  0  0  0  0  0  0  0  0  0
    4.6739   -0.3985   -1.1197 H   0  0  0  0  0  0  0  0  0  0  0  0
    3.5854   -0.4313   -5.0740 H   0  0  0  0  0  0  0  0  0  0  0  0
    4.0609   -4.1021   -3.2987 H   0  0  0  0  0  0  0  0  0  0  0  0
    3.5835   -4.8585   -0.6413 H   0  0  0  0  0  0  0  0  0  0  0  0
    5.0848   -5.1060   -1.5287 H   0  0  0  0  0  0  0  0  0  0  0  0
    6.4058   -5.0694    0.3732 H   0  0  0  0  0  0  0  0  0  0  0  0
    5.6336   -6.5195    2.0908 H   0  0  0  0  0  0  0  0  0  0  0  0
    4.8521   -7.0590    0.6238 H   0  0  0  0  0  0  0  0  0  0  0  0
  1  2  2  0
  2  3  2  0
  2  4  1  0
  2  7  1  0
  4  6  1  0
  4  5  1  0
  4 22  1  0
  5  6  1  0
  5 23  1  0
  5 24  1  0
  6 25  1  0
  6 26  1  0
  7 21  1  0
  7  8  1  0
  8  9  1  0
  8 27  1  0
  8 28  1  0
  9 10  1  0
  9 29  1  0
  9 30  1  0
 10 20  1  0
 10 11  1  0
 10 31  1  1
 11 12  1  0
 11 32  1  0
 11 33  1  0
 12 13  1  0
 12 19  1  0
 13 18  1  0
 13 14  2  0
 14 15  1  0
 14 34  1  0
 15 16  2  0
 16 17  1  0
 16 35  1  0
 17 18  2  0
 18 36  1  0
 19 20  1  0
 19 37  1  0
 19 38  1  0
 20 21  1  0
 20 39  1  6
 21 40  1  0
 21 41  1  0
M  END
>  <i_m_ct_stereo_status>  (227) 
1

>  <s_m_source_file>  (227) 
/var/tmp/pbs.5076255.sched01/tmpe6iyr0oq/80tt78e_gd.sdf

>  <i_m_source_file_index>  (227) 
15

>  <i_lp_mmshare_version>  (227) 
48012

>  <i_f3d_flags>  (227) 
0

>  <s_epik_input>  (227) 
W0NIMl0xW0NIMl1bQ0hdMVMoPU8pKD1PKU4oW0NIMl1bQ0gyXTIpW0NIMl1bQ0BIXShbQ0BIXTIzKVtDSDJdTihbQ0gyXTMpYzRbY0hdbltjSF1uW2NIXTQ=

>  <s_epik_cmdline>  (227) 
J2VwaWtfcHl0aG9uJywgJy1waHQnLCAnMi4wJywgJy1waCcsICc3LjAnLCAnLXRuJywgJzgnLCAnLW1hJywgJzIwMCcsICctaW1hZScsICc8aW5maWxlLm1hZT4nLCAnLW9tYWUnLCAnPG91dGZpbGUubWFlPic=

>  <r_lp_tautomer_probability>  (227) 
1

>  <r_epik_Ionization_Penalty>  (227) 
0.000320425

>  <r_epik_Ionization_Penalty_Charging>  (227) 
0

>  <r_epik_Ionization_Penalty_Neutral>  (227) 
0.000320425

>  <r_epik_State_Penalty>  (227) 
0.00019347

>  <r_epik_Charging_Adjusted_Penalty>  (227) 
0.00019347

>  <i_epik_Tot_Q>  (227) 
0

>  <i_epik_Tot_abs_Q>  (227) 
0

>  <s_lp_Force_Field>  (227) 
OPLS3e

>  <r_lp_Energy>  (227) 
35.5758

>  <b_lp_Chiralities_Consistent>  (227) 
1

>  <s_lp_Variant>  (227) 
65:0-1

>  <s_i_glide_gridfile>  (227) 
pfpi4k_grid

>  <i_i_glide_lignum>  (227) 
15

>  <i_i_glide_rotatable_bonds>  (227) 
3

>  <r_i_docking_score>  (227) 
-3.46182

>  <r_i_glide_ligand_efficiency>  (227) 
-0.164849

>  <r_i_glide_ligand_efficiency_sa>  (227) 
-0.454805

>  <r_i_glide_ligand_efficiency_ln>  (227) 
-0.855928

>  <r_i_glide_gscore>  (227) 
-3.46182

>  <r_i_glide_lipo>  (227) 
-0.3338

>  <r_i_glide_hbond>  (227) 
-0.32

>  <r_i_glide_metal>  (227) 
-0

>  <r_i_glide_rewards>  (227) 
-1.48385

>  <r_i_glide_evdw>  (227) 
-29.255

>  <r_i_glide_ecoul>  (227) 
-2.79299

>  <r_i_glide_erotb>  (227) 
0.583562

>  <r_i_glide_esite>  (227) 
-0.0260277

>  <r_i_glide_emodel>  (227) 
-38.5271

>  <r_i_glide_energy>  (227) 
-32.048

>  <r_i_glide_einternal>  (227) 
2.80924

>  <r_i_glide_intrahb_reward>  (227) 
-0

>  <i_i_glide_confnum>  (227) 
4

>  <i_i_glide_posenum>  (227) 
2

>  <r_i_glide_eff_state_penalty>  (227) 
0

>  <ligand_id>  (227) 
65

>  <original_smiles>  (227) 
O=S(=O)(C1CC1)N1CCC2CN(c3cncnc3)CC2C1

>  <smiles>  (227) 
[H]c1nc([H])c(N2C([H])([H])C3([H])C([H])([H])N(S(=O)(=O)C4([H])C([H])([H])C4([H])[H])C([H])([H])C([H])([H])C3([H])C2([H])[H])c([H])n1

$$$$
66:0:0
     RDKit          3D

 42 46  0  0  1  0  0  0  0  0999 V2000
    8.6112   -1.8546   -0.3304 O   0  0  0  0  0  0  0  0  0  0  0  0
    7.8799   -2.9426    0.0379 C   0  0  0  0  0  0  0  0  0  0  0  0
    8.4812   -3.9360    0.8385 C   0  0  0  0  0  0  0  0  0  0  0  0
    7.7339   -5.0488    1.2443 C   0  0  0  0  0  0  0  0  0  0  0  0
    6.3882   -5.1860    0.8567 C   0  0  0  0  0  0  0  0  0  0  0  0
    5.6140   -6.3634    1.2746 C   0  0  0  0  0  0  0  0  0  0  0  0
    5.9691   -7.1781    2.1851 N   0  0  0  0  0  0  0  0  0  0  0  0
    5.1110   -8.3098    2.4794 C   0  0  1  0  0  0  0  0  0  0  0  0
    5.6941   -9.2714    3.5552 C   0  0  0  0  0  0  0  0  0  0  0  0
    5.0015  -10.6215    3.1921 C   0  0  1  0  0  0  0  0  0  0  0  0
    4.2994  -11.3842    4.3502 C   0  0  0  0  0  0  0  0  0  0  0  0
    2.7615  -11.3445    4.2727 C   0  0  0  0  0  0  0  0  0  0  0  0
    2.3156   -9.9595    3.8865 C   0  0  2  0  0  0  0  0  0  0  0  0
    1.5656   -9.6735    2.6044 C   0  0  0  0  0  0  0  0  0  0  0  0
    3.0253   -9.3273    2.7083 C   0  0  1  0  0  0  0  0  0  0  0  0
    3.6562   -7.9624    2.8528 C   0  0  0  0  0  0  0  0  0  0  0  0
    4.0699  -10.2156    2.1052 N   0  0  1  0  0  0  0  0  0  0  0  0
    4.8986   -9.2836    1.3285 C   0  0  0  0  0  0  0  0  0  0  0  0
    5.7841   -4.1918    0.0522 C   0  0  0  0  0  0  0  0  0  0  0  0
    6.5283   -3.0660   -0.3533 C   0  0  0  0  0  0  0  0  0  0  0  0
    5.9427   -2.1023   -1.1311 O   0  0  0  0  0  0  0  0  0  0  0  0
    9.5566   -1.9714   -0.4035 H   0  0  0  0  0  0  0  0  0  0  0  0
    9.5020   -3.8334    1.1630 H   0  0  0  0  0  0  0  0  0  0  0  0
    8.2044   -5.8048    1.8588 H   0  0  0  0  0  0  0  0  0  0  0  0
    4.6807   -6.5101    0.7234 H   0  0  0  0  0  0  0  0  0  0  0  0
    6.7807   -9.3698    3.4848 H   0  0  0  0  0  0  0  0  0  0  0  0
    5.4593   -8.9380    4.5697 H   0  0  0  0  0  0  0  0  0  0  0  0
    5.7514  -11.2829    2.7639 H   0  0  0  0  0  0  0  0  0  0  0  0
    4.6118  -12.4288    4.3293 H   0  0  0  0  0  0  0  0  0  0  0  0
    4.6444  -10.9918    5.3111 H   0  0  0  0  0  0  0  0  0  0  0  0
    2.4173  -12.0529    3.5152 H   0  0  0  0  0  0  0  0  0  0  0  0
    2.3071  -11.6322    5.2214 H   0  0  0  0  0  0  0  0  0  0  0  0
    2.1358   -9.2973    4.7278 H   0  0  0  0  0  0  0  0  0  0  0  0
    1.2275  -10.5488    2.0565 H   0  0  0  0  0  0  0  0  0  0  0  0
    0.8629   -8.8463    2.6599 H   0  0  0  0  0  0  0  0  0  0  0  0
    3.5555   -7.5586    3.8634 H   0  0  0  0  0  0  0  0  0  0  0  0
    3.1579   -7.2972    2.1467 H   0  0  0  0  0  0  0  0  0  0  0  0
    4.3625   -8.8700    0.4746 H   0  0  0  0  0  0  0  0  0  0  0  0
    5.8284   -9.7378    0.9802 H   0  0  0  0  0  0  0  0  0  0  0  0
    4.7531   -4.3011   -0.2558 H   0  0  0  0  0  0  0  0  0  0  0  0
    5.0267   -2.2662   -1.3057 H   0  0  0  0  0  0  0  0  0  0  0  0
    3.7586  -10.9979    1.5289 H   0  0  0  0  0  0  0  0  0  0  0  0
  1  2  1  0
  1 22  1  0
  2 20  2  0
  2  3  1  0
  3  4  2  0
  3 23  1  0
  4  5  1  0
  4 24  1  0
  5  6  1  0
  5 19  2  0
  6  7  2  3
  6 25  1  0
  7  8  1  0
  8 16  1  1
  8 18  1  0
  8  9  1  0
  9 10  1  0
  9 26  1  0
  9 27  1  0
 10 17  1  0
 10 11  1  0
 10 28  1  6
 11 12  1  0
 11 29  1  0
 11 30  1  0
 12 13  1  0
 12 31  1  0
 12 32  1  0
 13 15  1  0
 13 14  1  0
 13 33  1  1
 15 14  1  6
 14 34  1  0
 14 35  1  0
 15 16  1  0
 15 17  1  0
 16 36  1  0
 16 37  1  0
 17 18  1  0
 17 42  1  6
 18 38  1  0
 18 39  1  0
 19 20  1  0
 19 40  1  0
 20 21  1  0
 21 41  1  0
M  CHG  1  17   1
M  END
>  <i_m_ct_stereo_status>  (228) 
1

>  <s_m_source_file>  (228) 
/var/tmp/pbs.5076255.sched01/tmpe6iyr0oq/80tt78e_gd.sdf

>  <i_m_source_file_index>  (228) 
16

>  <i_lp_mmshare_version>  (228) 
48012

>  <i_f3d_flags>  (228) 
0

>  <s_epik_input>  (228) 
W09IXWMxW2NIXVtjSF1jKFtjSF1jMVtPSF0pL1tDSF09Ti9bQ0BAXShbQ0gyXTIpKFtDSDJdMylbQ0gyXU40W0NAQEhdMltDSDJdW0NIMl1bQ0BASF0oW0NAQF0zNDUpW0NIMl01

>  <s_epik_cmdline>  (228) 
J2VwaWtfcHl0aG9uJywgJy1waHQnLCAnMi4wJywgJy1waCcsICc3LjAnLCAnLXRuJywgJzgnLCAnLW1hJywgJzIwMCcsICctaW1hZScsICc8aW5maWxlLm1hZT4nLCAnLW9tYWUnLCAnPG91dGZpbGUubWFlPic=

>  <r_epik_Ionization_Penalty>  (228) 
0.010752

>  <r_epik_Ionization_Penalty_Charging>  (228) 
6.54115e-05

>  <r_epik_Ionization_Penalty_Neutral>  (228) 
0.0106866

>  <r_epik_State_Penalty>  (228) 
0.0077851

>  <r_epik_Charging_Adjusted_Penalty>  (228) 
0.00785052

>  <i_epik_Tot_Q>  (228) 
1

>  <i_epik_Tot_abs_Q>  (228) 
1

>  <s_epik_Chemistry_Notes>  (228) 
This compound has an imine and may undergo hydrolysis.

>  <s_lp_Force_Field>  (228) 
OPLS3e

>  <r_lp_Energy>  (228) 
58.5372

>  <b_lp_Chiralities_Consistent>  (228) 
1

>  <s_lp_Variant>  (228) 
66:0-1

>  <s_i_glide_gridfile>  (228) 
pfpi4k_grid

>  <i_i_glide_lignum>  (228) 
16

>  <i_i_glide_rotatable_bonds>  (228) 
4

>  <r_i_docking_score>  (228) 
-4.58501

>  <r_i_glide_ligand_efficiency>  (228) 
-0.218334

>  <r_i_glide_ligand_efficiency_sa>  (228) 
-0.602367

>  <r_i_glide_ligand_efficiency_ln>  (228) 
-1.13363

>  <r_i_glide_gscore>  (228) 
-4.58501

>  <r_i_glide_lipo>  (228) 
-0.672079

>  <r_i_glide_hbond>  (228) 
-0.197816

>  <r_i_glide_metal>  (228) 
-0

>  <r_i_glide_rewards>  (228) 
-1.58721

>  <r_i_glide_evdw>  (228) 
-21.8279

>  <r_i_glide_ecoul>  (228) 
-9.21396

>  <r_i_glide_erotb>  (228) 
0.445589

>  <r_i_glide_esite>  (228) 
-0.1

>  <r_i_glide_emodel>  (228) 
-41.4955

>  <r_i_glide_energy>  (228) 
-31.0419

>  <r_i_glide_einternal>  (228) 
3.52781

>  <r_i_glide_intrahb_reward>  (228) 
-0

>  <i_i_glide_confnum>  (228) 
6

>  <i_i_glide_posenum>  (228) 
18

>  <r_i_glide_eff_state_penalty>  (228) 
0

>  <ligand_id>  (228) 
66

>  <original_smiles>  (228) 
Oc1ccc(C=NC23CC4CCC5CC5(C2)N4C3)cc1O

>  <smiles>  (228) 
[H]Oc1c([H])c([H])c(C([H])=NC23C([H])([H])C4([H])C([H])([H])C([H])([H])C5([H])C([H])([H])C5(C2([H])[H])[N+]4([H])C3([H])[H])c([H])c1O[H]

$$$$
66:0:1
     RDKit          3D

 42 46  0  0  1  0  0  0  0  0999 V2000
    5.7969   -1.4468   -1.9023 O   0  0  0  0  0  0  0  0  0  0  0  0
    5.2035   -2.4119   -1.1540 C   0  0  0  0  0  0  0  0  0  0  0  0
    6.0097   -3.3400   -0.4796 C   0  0  0  0  0  0  0  0  0  0  0  0
    5.3971   -4.3255    0.3153 C   0  0  0  0  0  0  0  0  0  0  0  0
    3.9895   -4.3791    0.4186 C   0  0  0  0  0  0  0  0  0  0  0  0
    3.3726   -5.4240    1.2419 C   0  0  0  0  0  0  0  0  0  0  0  0
    2.1300   -5.6928    1.3219 N   0  0  0  0  0  0  0  0  0  0  0  0
    1.7224   -6.7791    2.1936 C   0  0  1  0  0  0  0  0  0  0  0  0
    2.1200   -6.6384    3.6933 C   0  0  0  0  0  0  0  0  0  0  0  0
    2.1303   -8.1195    4.1536 C   0  0  1  0  0  0  0  0  0  0  0  0
    1.3746   -8.4262    5.4668 C   0  0  0  0  0  0  0  0  0  0  0  0
    0.0715   -9.1924    5.2296 C   0  0  0  0  0  0  0  0  0  0  0  0
   -0.6520   -8.6407    4.0264 C   0  0  2  0  0  0  0  0  0  0  0  0
   -0.9181   -9.4530    2.7799 C   0  0  0  0  0  0  0  0  0  0  0  0
    0.1772   -8.4261    2.7783 C   0  0  1  0  0  0  0  0  0  0  0  0
    0.2187   -7.0845    2.0918 C   0  0  0  0  0  0  0  0  0  0  0  0
    1.5964   -8.8329    2.9622 N   0  0  1  0  0  0  0  0  0  0  0  0
    2.2795   -8.1605    1.8531 C   0  0  0  0  0  0  0  0  0  0  0  0
    3.1924   -3.4354   -0.2606 C   0  0  0  0  0  0  0  0  0  0  0  0
    3.7976   -2.4406   -1.0483 C   0  0  0  0  0  0  0  0  0  0  0  0
    3.0184   -1.5167   -1.6813 O   0  0  0  0  0  0  0  0  0  0  0  0
    5.1308   -0.9215   -2.3158 H   0  0  0  0  0  0  0  0  0  0  0  0
    7.0889   -3.3035   -0.5619 H   0  0  0  0  0  0  0  0  0  0  0  0
    6.0182   -5.0481    0.8403 H   0  0  0  0  0  0  0  0  0  0  0  0
    4.0898   -6.0015    1.8302 H   0  0  0  0  0  0  0  0  0  0  0  0
    3.0991   -6.1992    3.8627 H   0  0  0  0  0  0  0  0  0  0  0  0
    1.4111   -6.0205    4.2372 H   0  0  0  0  0  0  0  0  0  0  0  0
    3.1682   -8.4128    4.2905 H   0  0  0  0  0  0  0  0  0  0  0  0
    2.0086   -9.0139    6.1313 H   0  0  0  0  0  0  0  0  0  0  0  0
    1.1703   -7.4990    5.9976 H   0  0  0  0  0  0  0  0  0  0  0  0
    0.2897  -10.2459    5.0510 H   0  0  0  0  0  0  0  0  0  0  0  0
   -0.5792   -9.1576    6.1022 H   0  0  0  0  0  0  0  0  0  0  0  0
   -1.3642   -7.8563    4.2631 H   0  0  0  0  0  0  0  0  0  0  0  0
   -0.6733  -10.5096    2.8431 H   0  0  0  0  0  0  0  0  0  0  0  0
   -1.8457   -9.2053    2.2697 H   0  0  0  0  0  0  0  0  0  0  0  0
   -0.4064   -6.3638    2.6133 H   0  0  0  0  0  0  0  0  0  0  0  0
   -0.1150   -7.1898    1.0577 H   0  0  0  0  0  0  0  0  0  0  0  0
    1.9827   -8.5377    0.8815 H   0  0  0  0  0  0  0  0  0  0  0  0
    3.3662   -8.2249    1.9376 H   0  0  0  0  0  0  0  0  0  0  0  0
    2.1189   -3.4685   -0.1776 H   0  0  0  0  0  0  0  0  0  0  0  0
    2.0906   -1.4548   -1.3587 H   0  0  0  0  0  0  0  0  0  0  0  0
    1.7426   -9.8368    2.9884 H   0  0  0  0  0  0  0  0  0  0  0  0
  1  2  1  0
  1 22  1  0
  2 20  2  0
  2  3  1  0
  3  4  2  0
  3 23  1  0
  4  5  1  0
  4 24  1  0
  5  6  1  0
  5 19  2  0
  6  7  2  3
  6 25  1  0
  7  8  1  0
  8 16  1  1
  8 18  1  0
  8  9  1  0
  9 10  1  0
  9 26  1  0
  9 27  1  0
 10 17  1  0
 10 11  1  0
 10 28  1  1
 11 12  1  0
 11 29  1  0
 11 30  1  0
 12 13  1  0
 12 31  1  0
 12 32  1  0
 13 15  1  0
 13 14  1  0
 13 33  1  1
 15 14  1  6
 14 34  1  0
 14 35  1  0
 15 16  1  0
 15 17  1  0
 16 36  1  0
 16 37  1  0
 17 18  1  0
 17 42  1  1
 18 38  1  0
 18 39  1  0
 19 20  1  0
 19 40  1  0
 20 21  1  0
 21 41  1  0
M  CHG  1  17   1
M  END
>  <i_m_ct_stereo_status>  (229) 
1

>  <s_m_source_file>  (229) 
/var/tmp/pbs.5076255.sched01/tmpe6iyr0oq/80tt78e_gd.sdf

>  <i_m_source_file_index>  (229) 
16

>  <i_lp_mmshare_version>  (229) 
48012

>  <i_f3d_flags>  (229) 
0

>  <s_epik_input>  (229) 
W09IXWMxW2NIXVtjSF1jKFtjSF1jMVtPSF0pL1tDSF09Ti9bQ0BAXShbQ0gyXTIpKFtDSDJdMylbQ0gyXU40W0NAQEhdMltDSDJdW0NIMl1bQ0BASF0oW0NAQF0zNDUpW0NIMl01

>  <s_epik_cmdline>  (229) 
J2VwaWtfcHl0aG9uJywgJy1waHQnLCAnMi4wJywgJy1waCcsICc3LjAnLCAnLXRuJywgJzgnLCAnLW1hJywgJzIwMCcsICctaW1hZScsICc8aW5maWxlLm1hZT4nLCAnLW9tYWUnLCAnPG91dGZpbGUubWFlPic=

>  <r_epik_Ionization_Penalty>  (229) 
0.010752

>  <r_epik_Ionization_Penalty_Charging>  (229) 
6.54115e-05

>  <r_epik_Ionization_Penalty_Neutral>  (229) 
0.0106866

>  <r_epik_State_Penalty>  (229) 
0.0077851

>  <r_epik_Charging_Adjusted_Penalty>  (229) 
0.00785052

>  <i_epik_Tot_Q>  (229) 
1

>  <i_epik_Tot_abs_Q>  (229) 
1

>  <s_epik_Chemistry_Notes>  (229) 
This compound has an imine and may undergo hydrolysis.

>  <s_lp_Force_Field>  (229) 
OPLS3e

>  <r_lp_Energy>  (229) 
58.5372

>  <b_lp_Chiralities_Consistent>  (229) 
1

>  <s_lp_Variant>  (229) 
66:0-1

>  <s_i_glide_gridfile>  (229) 
pfpi4k_grid

>  <i_i_glide_lignum>  (229) 
16

>  <i_i_glide_rotatable_bonds>  (229) 
4

>  <r_i_docking_score>  (229) 
-3.95308

>  <r_i_glide_ligand_efficiency>  (229) 
-0.188242

>  <r_i_glide_ligand_efficiency_sa>  (229) 
-0.519345

>  <r_i_glide_ligand_efficiency_ln>  (229) 
-0.977391

>  <r_i_glide_gscore>  (229) 
-3.95308

>  <r_i_glide_lipo>  (229) 
-0.228392

>  <r_i_glide_hbond>  (229) 
0

>  <r_i_glide_metal>  (229) 
-0

>  <r_i_glide_rewards>  (229) 
-1.46745

>  <r_i_glide_evdw>  (229) 
-20.8382

>  <r_i_glide_ecoul>  (229) 
-11.0327

>  <r_i_glide_erotb>  (229) 
0.445589

>  <r_i_glide_esite>  (229) 
-0.00601069

>  <r_i_glide_emodel>  (229) 
-41.2065

>  <r_i_glide_energy>  (229) 
-31.8708

>  <r_i_glide_einternal>  (229) 
2.93121

>  <r_i_glide_intrahb_reward>  (229) 
-0

>  <i_i_glide_confnum>  (229) 
3

>  <i_i_glide_posenum>  (229) 
20

>  <r_i_glide_eff_state_penalty>  (229) 
0

>  <ligand_id>  (229) 
66

>  <original_smiles>  (229) 
Oc1ccc(C=NC23CC4CCC5CC5(C2)N4C3)cc1O

>  <smiles>  (229) 
[H]Oc1c([H])c([H])c(C([H])=NC23C([H])([H])C4([H])C([H])([H])C([H])([H])C5([H])C([H])([H])C5(C2([H])[H])[N+]4([H])C3([H])[H])c([H])c1O[H]

$$$$
66:0:2
     RDKit          3D

 42 46  0  0  1  0  0  0  0  0999 V2000
    7.4956   -2.8884   -1.5641 O   0  0  0  0  0  0  0  0  0  0  0  0
    6.4851   -2.2608   -0.9006 C   0  0  0  0  0  0  0  0  0  0  0  0
    6.7154   -1.7739    0.3929 C   0  0  0  0  0  0  0  0  0  0  0  0
    5.6946   -1.0883    1.0743 C   0  0  0  0  0  0  0  0  0  0  0  0
    4.4351   -0.8962    0.4598 C   0  0  0  0  0  0  0  0  0  0  0  0
    3.3723   -0.1721    1.1713 C   0  0  0  0  0  0  0  0  0  0  0  0
    3.3934    0.1289    2.4041 N   0  0  0  0  0  0  0  0  0  0  0  0
    2.2729    0.8744    2.9521 C   0  0  1  0  0  0  0  0  0  0  0  0
    0.8589    0.2359    2.7635 C   0  0  0  0  0  0  0  0  0  0  0  0
   -0.0503    1.4949    2.8450 C   0  0  1  0  0  0  0  0  0  0  0  0
   -1.2741    1.3713    3.7878 C   0  0  0  0  0  0  0  0  0  0  0  0
   -1.1401    2.2145    5.0656 C   0  0  0  0  0  0  0  0  0  0  0  0
    0.2699    2.1032    5.5973 C   0  0  2  0  0  0  0  0  0  0  0  0
    1.1887    3.2993    5.7001 C   0  0  0  0  0  0  0  0  0  0  0  0
    1.3980    2.2920    4.5971 C   0  0  1  0  0  0  0  0  0  0  0  0
    2.4697    1.2382    4.4367 C   0  0  0  0  0  0  0  0  0  0  0  0
    0.8968    2.5805    3.2220 N   0  0  1  0  0  0  0  0  0  0  0  0
    2.0679    2.2808    2.3888 C   0  0  0  0  0  0  0  0  0  0  0  0
    4.2095   -1.3922   -0.8365 C   0  0  0  0  0  0  0  0  0  0  0  0
    5.2326   -2.0818   -1.5247 C   0  0  0  0  0  0  0  0  0  0  0  0
    5.0177   -2.5630   -2.7818 O   0  0  0  0  0  0  0  0  0  0  0  0
    7.2443   -3.1583   -2.4383 H   0  0  0  0  0  0  0  0  0  0  0  0
    7.6801   -1.9116    0.8612 H   0  0  0  0  0  0  0  0  0  0  0  0
    5.8896   -0.6976    2.0586 H   0  0  0  0  0  0  0  0  0  0  0  0
    2.5230    0.1137    0.5358 H   0  0  0  0  0  0  0  0  0  0  0  0
    0.6855   -0.2491    1.7994 H   0  0  0  0  0  0  0  0  0  0  0  0
    0.6583   -0.4971    3.5499 H   0  0  0  0  0  0  0  0  0  0  0  0
   -0.4146    1.7060    1.8370 H   0  0  0  0  0  0  0  0  0  0  0  0
   -2.1617    1.6988    3.2448 H   0  0  0  0  0  0  0  0  0  0  0  0
   -1.4304    0.3185    4.0284 H   0  0  0  0  0  0  0  0  0  0  0  0
   -1.3528    3.2609    4.8268 H   0  0  0  0  0  0  0  0  0  0  0  0
   -1.8578    1.8965    5.8250 H   0  0  0  0  0  0  0  0  0  0  0  0
    0.4116    1.2942    6.3170 H   0  0  0  0  0  0  0  0  0  0  0  0
    0.7554    4.2712    5.4753 H   0  0  0  0  0  0  0  0  0  0  0  0
    1.8867    3.2662    6.5359 H   0  0  0  0  0  0  0  0  0  0  0  0
    2.3286    0.3848    5.1075 H   0  0  0  0  0  0  0  0  0  0  0  0
    3.4459    1.6914    4.6146 H   0  0  0  0  0  0  0  0  0  0  0  0
    2.9073    2.9643    2.5632 H   0  0  0  0  0  0  0  0  0  0  0  0
    1.7954    2.3073    1.3326 H   0  0  0  0  0  0  0  0  0  0  0  0
    3.2465   -1.2353   -1.3077 H   0  0  0  0  0  0  0  0  0  0  0  0
    4.1090   -2.5239   -3.0450 H   0  0  0  0  0  0  0  0  0  0  0  0
    0.5329    3.5183    3.0900 H   0  0  0  0  0  0  0  0  0  0  0  0
  1  2  1  0
  1 22  1  0
  2 20  2  0
  2  3  1  0
  3  4  2  0
  3 23  1  0
  4  5  1  0
  4 24  1  0
  5  6  1  0
  5 19  2  0
  6  7  2  3
  6 25  1  0
  7  8  1  0
  8 16  1  1
  8 18  1  0
  8  9  1  0
  9 10  1  0
  9 26  1  0
  9 27  1  0
 10 17  1  0
 10 11  1  0
 10 28  1  6
 11 12  1  0
 11 29  1  0
 11 30  1  0
 12 13  1  0
 12 31  1  0
 12 32  1  0
 13 15  1  0
 13 14  1  0
 13 33  1  1
 15 14  1  1
 14 34  1  0
 14 35  1  0
 15 16  1  0
 15 17  1  0
 16 36  1  0
 16 37  1  0
 17 18  1  0
 17 42  1  1
 18 38  1  0
 18 39  1  0
 19 20  1  0
 19 40  1  0
 20 21  1  0
 21 41  1  0
M  CHG  1  17   1
M  END
>  <i_m_ct_stereo_status>  (230) 
1

>  <s_m_source_file>  (230) 
/var/tmp/pbs.5076255.sched01/tmpe6iyr0oq/80tt78e_gd.sdf

>  <i_m_source_file_index>  (230) 
16

>  <i_lp_mmshare_version>  (230) 
48012

>  <i_f3d_flags>  (230) 
0

>  <s_epik_input>  (230) 
W09IXWMxW2NIXVtjSF1jKFtjSF1jMVtPSF0pL1tDSF09Ti9bQ0BAXShbQ0gyXTIpKFtDSDJdMylbQ0gyXU40W0NAQEhdMltDSDJdW0NIMl1bQ0BASF0oW0NAQF0zNDUpW0NIMl01

>  <s_epik_cmdline>  (230) 
J2VwaWtfcHl0aG9uJywgJy1waHQnLCAnMi4wJywgJy1waCcsICc3LjAnLCAnLXRuJywgJzgnLCAnLW1hJywgJzIwMCcsICctaW1hZScsICc8aW5maWxlLm1hZT4nLCAnLW9tYWUnLCAnPG91dGZpbGUubWFlPic=

>  <r_epik_Ionization_Penalty>  (230) 
0.010752

>  <r_epik_Ionization_Penalty_Charging>  (230) 
6.54115e-05

>  <r_epik_Ionization_Penalty_Neutral>  (230) 
0.0106866

>  <r_epik_State_Penalty>  (230) 
0.0077851

>  <r_epik_Charging_Adjusted_Penalty>  (230) 
0.00785052

>  <i_epik_Tot_Q>  (230) 
1

>  <i_epik_Tot_abs_Q>  (230) 
1

>  <s_epik_Chemistry_Notes>  (230) 
This compound has an imine and may undergo hydrolysis.

>  <s_lp_Force_Field>  (230) 
OPLS3e

>  <r_lp_Energy>  (230) 
58.5372

>  <b_lp_Chiralities_Consistent>  (230) 
1

>  <s_lp_Variant>  (230) 
66:0-1

>  <s_i_glide_gridfile>  (230) 
pfpi4k_grid

>  <i_i_glide_lignum>  (230) 
16

>  <i_i_glide_rotatable_bonds>  (230) 
4

>  <r_i_docking_score>  (230) 
-3.58784

>  <r_i_glide_ligand_efficiency>  (230) 
-0.170849

>  <r_i_glide_ligand_efficiency_sa>  (230) 
-0.47136

>  <r_i_glide_ligand_efficiency_ln>  (230) 
-0.887085

>  <r_i_glide_gscore>  (230) 
-3.58784

>  <r_i_glide_lipo>  (230) 
-0.192748

>  <r_i_glide_hbond>  (230) 
0

>  <r_i_glide_metal>  (230) 
-0

>  <r_i_glide_rewards>  (230) 
-1.46345

>  <r_i_glide_evdw>  (230) 
-26.4918

>  <r_i_glide_ecoul>  (230) 
-6.48741

>  <r_i_glide_erotb>  (230) 
0.445589

>  <r_i_glide_esite>  (230) 
-0.0795283

>  <r_i_glide_emodel>  (230) 
-41.4213

>  <r_i_glide_energy>  (230) 
-32.9792

>  <r_i_glide_einternal>  (230) 
2.9942

>  <r_i_glide_intrahb_reward>  (230) 
-0

>  <i_i_glide_confnum>  (230) 
5

>  <i_i_glide_posenum>  (230) 
2

>  <r_i_glide_eff_state_penalty>  (230) 
0

>  <ligand_id>  (230) 
66

>  <original_smiles>  (230) 
Oc1ccc(C=NC23CC4CCC5CC5(C2)N4C3)cc1O

>  <smiles>  (230) 
[H]Oc1c([H])c([H])c(C([H])=NC23C([H])([H])C4([H])C([H])([H])C([H])([H])C5([H])C([H])([H])C5(C2([H])[H])[N+]4([H])C3([H])[H])c([H])c1O[H]

$$$$
66:1:0
     RDKit          3D

 42 46  0  0  1  0  0  0  0  0999 V2000
    1.9713   -1.5586    1.6517 O   0  0  0  0  0  0  0  0  0  0  0  0
    2.6066   -2.7640    1.4012 C   0  0  0  0  0  0  0  0  0  0  0  0
    2.7560   -3.6842    2.4547 C   0  0  0  0  0  0  0  0  0  0  0  0
    3.4380   -4.9002    2.2434 C   0  0  0  0  0  0  0  0  0  0  0  0
    3.8205   -5.3002    0.9408 C   0  0  0  0  0  0  0  0  0  0  0  0
    4.3906   -6.6621    0.6826 C   0  0  0  0  0  0  0  0  0  0  0  0
    4.0741   -7.8066    1.1563 N   0  0  0  0  0  0  0  0  0  0  0  0
    2.9765   -8.0921    2.0790 C   0  0  1  0  0  0  0  0  0  0  0  0
    3.2945   -7.9897    3.6151 C   0  0  0  0  0  0  0  0  0  0  0  0
    2.3453   -9.0172    4.2632 C   0  0  1  0  0  0  0  0  0  0  0  0
    1.4406   -8.4379    5.3865 C   0  0  0  0  0  0  0  0  0  0  0  0
   -0.0469   -8.3211    5.0030 C   0  0  0  0  0  0  0  0  0  0  0  0
   -0.1722   -7.7724    3.6102 C   0  0  2  0  0  0  0  0  0  0  0  0
   -0.7761   -8.5767    2.4832 C   0  0  0  0  0  0  0  0  0  0  0  0
    0.7086   -8.4189    2.5562 C   0  0  1  0  0  0  0  0  0  0  0  0
    1.5917   -7.5374    1.6992 C   0  0  0  0  0  0  0  0  0  0  0  0
    1.5809   -9.5105    3.0843 N   0  0  1  0  0  0  0  0  0  0  0  0
    2.6200   -9.5822    2.0375 C   0  0  0  0  0  0  0  0  0  0  0  0
    3.7069   -4.3654   -0.1272 C   0  0  0  0  0  0  0  0  0  0  0  0
    3.1185   -3.0850    0.1129 C   0  0  0  0  0  0  0  0  0  0  0  0
    3.0394   -2.2001   -0.9424 O   0  0  0  0  0  0  0  0  0  0  0  0
    1.7186   -1.0592    0.8751 H   0  0  0  0  0  0  0  0  0  0  0  0
    2.3590   -3.4654    3.4266 H   0  0  0  0  0  0  0  0  0  0  0  0
    3.6533   -5.5048    3.1180 H   0  0  0  0  0  0  0  0  0  0  0  0
    5.2193   -6.6644   -0.0304 H   0  0  0  0  0  0  0  0  0  0  0  0
    4.3327   -8.1967    3.8573 H   0  0  0  0  0  0  0  0  0  0  0  0
    3.0039   -7.0815    4.1088 H   0  0  0  0  0  0  0  0  0  0  0  0
    2.9434   -9.8334    4.6650 H   0  0  0  0  0  0  0  0  0  0  0  0
    1.5360   -9.0667    6.2619 H   0  0  0  0  0  0  0  0  0  0  0  0
    1.8070   -7.4724    5.7199 H   0  0  0  0  0  0  0  0  0  0  0  0
   -0.4823   -9.3120    5.0379 H   0  0  0  0  0  0  0  0  0  0  0  0
   -0.5866   -7.6751    5.6956 H   0  0  0  0  0  0  0  0  0  0  0  0
   -0.2460   -6.6919    3.5686 H   0  0  0  0  0  0  0  0  0  0  0  0
   -1.2322   -9.5299    2.7630 H   0  0  0  0  0  0  0  0  0  0  0  0
   -1.2935   -7.9729    1.7505 H   0  0  0  0  0  0  0  0  0  0  0  0
    1.4309   -6.4907    1.9424 H   0  0  0  0  0  0  0  0  0  0  0  0
    1.3510   -7.7133    0.6403 H   0  0  0  0  0  0  0  0  0  0  0  0
    2.2515   -9.9404    1.0686 H   0  0  0  0  0  0  0  0  0  0  0  0
    3.4371  -10.2445    2.3545 H   0  0  0  0  0  0  0  0  0  0  0  0
    4.0560   -4.6168   -1.1374 H   0  0  0  0  0  0  0  0  0  0  0  0
    2.2754   -1.6097   -0.8400 H   0  0  0  0  0  0  0  0  0  0  0  0
    1.0313  -10.3538    3.2429 H   0  0  0  0  0  0  0  0  0  0  0  0
  1  2  1  0
  1 22  1  0
  2 20  2  0
  2  3  1  0
  3  4  2  0
  3 23  1  0
  4  5  1  0
  4 24  1  0
  5  6  1  0
  5 19  2  0
  6  7  2  3
  6 25  1  0
  7  8  1  0
  8 16  1  6
  8 18  1  0
  8  9  1  0
  9 10  1  0
  9 26  1  0
  9 27  1  0
 10 17  1  0
 10 11  1  0
 10 28  1  1
 11 12  1  0
 11 29  1  0
 11 30  1  0
 12 13  1  0
 12 31  1  0
 12 32  1  0
 13 15  1  0
 13 14  1  0
 13 33  1  1
 15 14  1  6
 14 34  1  0
 14 35  1  0
 15 16  1  0
 15 17  1  0
 16 36  1  0
 16 37  1  0
 17 18  1  0
 17 42  1  1
 18 38  1  0
 18 39  1  0
 19 20  1  0
 19 40  1  0
 20 21  1  0
 21 41  1  0
M  CHG  1  17   1
M  END
>  <i_m_ct_stereo_status>  (231) 
1

>  <s_m_source_file>  (231) 
/var/tmp/pbs.5076255.sched01/tmpe6iyr0oq/80tt78e_gd.sdf

>  <i_m_source_file_index>  (231) 
17

>  <i_lp_mmshare_version>  (231) 
48012

>  <i_f3d_flags>  (231) 
0

>  <s_epik_input>  (231) 
W09IXWMxW2NIXVtjSF1jKFtjSF1jMVtPSF0pL1tDSF09Ti9bQ0BAXShbQ0gyXTIpKFtDSDJdMylbQ0gyXU40W0NAQEhdMltDSDJdW0NIMl1bQ0BASF0oW0NAQF0zNDUpW0NIMl01

>  <s_epik_cmdline>  (231) 
J2VwaWtfcHl0aG9uJywgJy1waHQnLCAnMi4wJywgJy1waCcsICc3LjAnLCAnLXRuJywgJzgnLCAnLW1hJywgJzIwMCcsICctaW1hZScsICc8aW5maWxlLm1hZT4nLCAnLW9tYWUnLCAnPG91dGZpbGUubWFlPic=

>  <r_epik_Ionization_Penalty>  (231) 
0.010752

>  <r_epik_Ionization_Penalty_Charging>  (231) 
6.54115e-05

>  <r_epik_Ionization_Penalty_Neutral>  (231) 
0.0106866

>  <r_epik_State_Penalty>  (231) 
0.0077851

>  <r_epik_Charging_Adjusted_Penalty>  (231) 
0.00785052

>  <i_epik_Tot_Q>  (231) 
1

>  <i_epik_Tot_abs_Q>  (231) 
1

>  <s_epik_Chemistry_Notes>  (231) 
This compound has an imine and may undergo hydrolysis.

>  <s_lp_Force_Field>  (231) 
OPLS3e

>  <r_lp_Energy>  (231) 
66.8369

>  <b_lp_Chiralities_Consistent>  (231) 
1

>  <s_lp_Variant>  (231) 
66:0-2

>  <s_i_glide_gridfile>  (231) 
pfpi4k_grid

>  <i_i_glide_lignum>  (231) 
17

>  <i_i_glide_rotatable_bonds>  (231) 
4

>  <r_i_docking_score>  (231) 
-3.68372

>  <r_i_glide_ligand_efficiency>  (231) 
-0.175415

>  <r_i_glide_ligand_efficiency_sa>  (231) 
-0.483957

>  <r_i_glide_ligand_efficiency_ln>  (231) 
-0.910792

>  <r_i_glide_gscore>  (231) 
-3.68372

>  <r_i_glide_lipo>  (231) 
-0.0136466

>  <r_i_glide_hbond>  (231) 
0

>  <r_i_glide_metal>  (231) 
-0

>  <r_i_glide_rewards>  (231) 
-1.63871

>  <r_i_glide_evdw>  (231) 
-20.7676

>  <r_i_glide_ecoul>  (231) 
-9.59045

>  <r_i_glide_erotb>  (231) 
0.445589

>  <r_i_glide_esite>  (231) 
0

>  <r_i_glide_emodel>  (231) 
-37.3154

>  <r_i_glide_energy>  (231) 
-30.358

>  <r_i_glide_einternal>  (231) 
1.7533

>  <r_i_glide_intrahb_reward>  (231) 
-0

>  <i_i_glide_confnum>  (231) 
5

>  <i_i_glide_posenum>  (231) 
8

>  <r_i_glide_eff_state_penalty>  (231) 
0

>  <ligand_id>  (231) 
66

>  <original_smiles>  (231) 
Oc1ccc(C=NC23CC4CCC5CC5(C2)N4C3)cc1O

>  <smiles>  (231) 
[H]Oc1c([H])c([H])c(C([H])=NC23C([H])([H])C4([H])C([H])([H])C([H])([H])C5([H])C([H])([H])C5(C2([H])[H])[N+]4([H])C3([H])[H])c([H])c1O[H]

$$$$
66:1:1
     RDKit          3D

 42 46  0  0  1  0  0  0  0  0999 V2000
    4.7818   -3.5671    2.6672 O   0  0  0  0  0  0  0  0  0  0  0  0
    4.5092   -4.8505    2.3072 C   0  0  0  0  0  0  0  0  0  0  0  0
    4.2806   -5.8054    3.3066 C   0  0  0  0  0  0  0  0  0  0  0  0
    4.1036   -7.1414    2.9485 C   0  0  0  0  0  0  0  0  0  0  0  0
    3.9635   -7.5622    1.6108 C   0  0  0  0  0  0  0  0  0  0  0  0
    3.6347   -8.9867    1.2854 C   0  0  0  0  0  0  0  0  0  0  0  0
    2.8765   -9.8349    1.8712 N   0  0  0  0  0  0  0  0  0  0  0  0
    2.0547   -9.5992    3.0647 C   0  0  1  0  0  0  0  0  0  0  0  0
    2.7665   -9.7291    4.4539 C   0  0  0  0  0  0  0  0  0  0  0  0
    1.6497  -10.1845    5.4064 C   0  0  1  0  0  0  0  0  0  0  0  0
    1.4934   -9.2679    6.6617 C   0  0  0  0  0  0  0  0  0  0  0  0
    0.2165   -8.4231    6.6513 C   0  0  0  0  0  0  0  0  0  0  0  0
    0.0003   -7.8129    5.2797 C   0  0  2  0  0  0  0  0  0  0  0  0
   -1.1828   -8.1437    4.4062 C   0  0  0  0  0  0  0  0  0  0  0  0
    0.1498   -8.7520    4.1099 C   0  0  1  0  0  0  0  0  0  0  0  0
    1.0922   -8.4024    2.9706 C   0  0  0  0  0  0  0  0  0  0  0  0
    0.4652  -10.1552    4.5006 N   0  0  1  0  0  0  0  0  0  0  0  0
    1.0320  -10.7147    3.2587 C   0  0  0  0  0  0  0  0  0  0  0  0
    4.2149   -6.6146    0.5756 C   0  0  0  0  0  0  0  0  0  0  0  0
    4.5019   -5.2608    0.9431 C   0  0  0  0  0  0  0  0  0  0  0  0
    4.7657   -4.3486   -0.0422 O   0  0  0  0  0  0  0  0  0  0  0  0
    4.9256   -3.0574    1.8857 H   0  0  0  0  0  0  0  0  0  0  0  0
    4.2951   -5.5474    4.3552 H   0  0  0  0  0  0  0  0  0  0  0  0
    4.1209   -7.8523    3.7434 H   0  0  0  0  0  0  0  0  0  0  0  0
    4.1437   -9.3559    0.3840 H   0  0  0  0  0  0  0  0  0  0  0  0
    3.6367  -10.3850    4.4187 H   0  0  0  0  0  0  0  0  0  0  0  0
    3.0510   -8.8265    4.9506 H   0  0  0  0  0  0  0  0  0  0  0  0
    1.9078  -11.1983    5.6950 H   0  0  0  0  0  0  0  0  0  0  0  0
    1.5027   -9.8891    7.5531 H   0  0  0  0  0  0  0  0  0  0  0  0
    2.3440   -8.6075    6.8236 H   0  0  0  0  0  0  0  0  0  0  0  0
   -0.6164   -9.0717    6.8813 H   0  0  0  0  0  0  0  0  0  0  0  0
    0.2516   -7.6351    7.4026 H   0  0  0  0  0  0  0  0  0  0  0  0
    0.4411   -6.8327    5.1654 H   0  0  0  0  0  0  0  0  0  0  0  0
   -1.9760   -8.7195    4.8862 H   0  0  0  0  0  0  0  0  0  0  0  0
   -1.5235   -7.3248    3.7840 H   0  0  0  0  0  0  0  0  0  0  0  0
    1.5379   -7.4371    3.1467 H   0  0  0  0  0  0  0  0  0  0  0  0
    0.5509   -8.3758    2.0193 H   0  0  0  0  0  0  0  0  0  0  0  0
    0.2899  -10.8058    2.4635 H   0  0  0  0  0  0  0  0  0  0  0  0
    1.4944  -11.6961    3.4072 H   0  0  0  0  0  0  0  0  0  0  0  0
    4.2141   -6.9449   -0.4607 H   0  0  0  0  0  0  0  0  0  0  0  0
    4.6056   -4.7763   -0.8904 H   0  0  0  0  0  0  0  0  0  0  0  0
   -0.3413  -10.6503    4.8750 H   0  0  0  0  0  0  0  0  0  0  0  0
  1  2  1  0
  1 22  1  0
  2 20  2  0
  2  3  1  0
  3  4  2  0
  3 23  1  0
  4  5  1  0
  4 24  1  0
  5  6  1  0
  5 19  2  0
  6  7  2  3
  6 25  1  0
  7  8  1  0
  8 16  1  6
  8 18  1  0
  8  9  1  0
  9 10  1  0
  9 26  1  0
  9 27  1  0
 10 17  1  0
 10 11  1  0
 10 28  1  1
 11 12  1  0
 11 29  1  0
 11 30  1  0
 12 13  1  0
 12 31  1  0
 12 32  1  0
 13 15  1  0
 13 14  1  0
 13 33  1  6
 15 14  1  6
 14 34  1  0
 14 35  1  0
 15 16  1  0
 15 17  1  0
 16 36  1  0
 16 37  1  0
 17 18  1  0
 17 42  1  1
 18 38  1  0
 18 39  1  0
 19 20  1  0
 19 40  1  0
 20 21  1  0
 21 41  1  0
M  CHG  1  17   1
M  END
>  <i_m_ct_stereo_status>  (232) 
1

>  <s_m_source_file>  (232) 
/var/tmp/pbs.5076255.sched01/tmpe6iyr0oq/80tt78e_gd.sdf

>  <i_m_source_file_index>  (232) 
17

>  <i_lp_mmshare_version>  (232) 
48012

>  <i_f3d_flags>  (232) 
0

>  <s_epik_input>  (232) 
W09IXWMxW2NIXVtjSF1jKFtjSF1jMVtPSF0pL1tDSF09Ti9bQ0BAXShbQ0gyXTIpKFtDSDJdMylbQ0gyXU40W0NAQEhdMltDSDJdW0NIMl1bQ0BASF0oW0NAQF0zNDUpW0NIMl01

>  <s_epik_cmdline>  (232) 
J2VwaWtfcHl0aG9uJywgJy1waHQnLCAnMi4wJywgJy1waCcsICc3LjAnLCAnLXRuJywgJzgnLCAnLW1hJywgJzIwMCcsICctaW1hZScsICc8aW5maWxlLm1hZT4nLCAnLW9tYWUnLCAnPG91dGZpbGUubWFlPic=

>  <r_epik_Ionization_Penalty>  (232) 
0.010752

>  <r_epik_Ionization_Penalty_Charging>  (232) 
6.54115e-05

>  <r_epik_Ionization_Penalty_Neutral>  (232) 
0.0106866

>  <r_epik_State_Penalty>  (232) 
0.0077851

>  <r_epik_Charging_Adjusted_Penalty>  (232) 
0.00785052

>  <i_epik_Tot_Q>  (232) 
1

>  <i_epik_Tot_abs_Q>  (232) 
1

>  <s_epik_Chemistry_Notes>  (232) 
This compound has an imine and may undergo hydrolysis.

>  <s_lp_Force_Field>  (232) 
OPLS3e

>  <r_lp_Energy>  (232) 
66.8369

>  <b_lp_Chiralities_Consistent>  (232) 
1

>  <s_lp_Variant>  (232) 
66:0-2

>  <s_i_glide_gridfile>  (232) 
pfpi4k_grid

>  <i_i_glide_lignum>  (232) 
17

>  <i_i_glide_rotatable_bonds>  (232) 
4

>  <r_i_docking_score>  (232) 
-3.64422

>  <r_i_glide_ligand_efficiency>  (232) 
-0.173534

>  <r_i_glide_ligand_efficiency_sa>  (232) 
-0.478767

>  <r_i_glide_ligand_efficiency_ln>  (232) 
-0.901025

>  <r_i_glide_gscore>  (232) 
-3.64422

>  <r_i_glide_lipo>  (232) 
-0.414941

>  <r_i_glide_hbond>  (232) 
-0.2

>  <r_i_glide_metal>  (232) 
-0

>  <r_i_glide_rewards>  (232) 
-1.46345

>  <r_i_glide_evdw>  (232) 
-21.7546

>  <r_i_glide_ecoul>  (232) 
-5.33687

>  <r_i_glide_erotb>  (232) 
0.445589

>  <r_i_glide_esite>  (232) 
-0.123153

>  <r_i_glide_emodel>  (232) 
-34.4298

>  <r_i_glide_energy>  (232) 
-27.0915

>  <r_i_glide_einternal>  (232) 
0.415792

>  <r_i_glide_intrahb_reward>  (232) 
-0

>  <i_i_glide_confnum>  (232) 
1

>  <i_i_glide_posenum>  (232) 
25

>  <r_i_glide_eff_state_penalty>  (232) 
0

>  <ligand_id>  (232) 
66

>  <original_smiles>  (232) 
Oc1ccc(C=NC23CC4CCC5CC5(C2)N4C3)cc1O

>  <smiles>  (232) 
[H]Oc1c([H])c([H])c(C([H])=NC23C([H])([H])C4([H])C([H])([H])C([H])([H])C5([H])C([H])([H])C5(C2([H])[H])[N+]4([H])C3([H])[H])c([H])c1O[H]

$$$$
66:1:2
     RDKit          3D

 42 46  0  0  1  0  0  0  0  0999 V2000
    2.5992   -2.3475    1.0414 O   0  0  0  0  0  0  0  0  0  0  0  0
    3.0703   -3.6160    1.1642 C   0  0  0  0  0  0  0  0  0  0  0  0
    3.1700   -4.2007    2.4442 C   0  0  0  0  0  0  0  0  0  0  0  0
    3.7053   -5.4983    2.5804 C   0  0  0  0  0  0  0  0  0  0  0  0
    4.0386   -6.2792    1.4537 C   0  0  0  0  0  0  0  0  0  0  0  0
    4.5111   -7.6743    1.5739 C   0  0  0  0  0  0  0  0  0  0  0  0
    3.9645   -8.6825    2.1488 N   0  0  0  0  0  0  0  0  0  0  0  0
    2.6683   -8.6897    2.8073 C   0  0  1  0  0  0  0  0  0  0  0  0
    2.6171   -8.1357    4.2665 C   0  0  0  0  0  0  0  0  0  0  0  0
    1.4624   -8.9485    4.9054 C   0  0  1  0  0  0  0  0  0  0  0  0
    0.3997   -8.0757    5.6270 C   0  0  0  0  0  0  0  0  0  0  0  0
   -0.9384   -8.0153    4.8764 C   0  0  0  0  0  0  0  0  0  0  0  0
   -0.7000   -7.8431    3.4069 C   0  0  2  0  0  0  0  0  0  0  0  0
   -1.1191   -8.8877    2.3991 C   0  0  0  0  0  0  0  0  0  0  0  0
    0.3358   -8.7420    2.7718 C   0  0  1  0  0  0  0  0  0  0  0  0
    1.4839   -8.1617    1.9834 C   0  0  0  0  0  0  0  0  0  0  0  0
    0.9342   -9.7051    3.7460 N   0  0  1  0  0  0  0  0  0  0  0  0
    2.1733  -10.1063    3.0647 C   0  0  0  0  0  0  0  0  0  0  0  0
    3.9619   -5.6693    0.1743 C   0  0  0  0  0  0  0  0  0  0  0  0
    3.4804   -4.3552    0.0425 C   0  0  0  0  0  0  0  0  0  0  0  0
    3.3896   -3.7953   -1.2022 O   0  0  0  0  0  0  0  0  0  0  0  0
    2.4307   -2.0787    0.1422 H   0  0  0  0  0  0  0  0  0  0  0  0
    2.8579   -3.6485    3.3193 H   0  0  0  0  0  0  0  0  0  0  0  0
    3.8821   -5.8805    3.5846 H   0  0  0  0  0  0  0  0  0  0  0  0
    5.4626   -7.8600    1.0766 H   0  0  0  0  0  0  0  0  0  0  0  0
    3.5586   -8.2689    4.8068 H   0  0  0  0  0  0  0  0  0  0  0  0
    2.3239   -7.0849    4.3038 H   0  0  0  0  0  0  0  0  0  0  0  0
    1.8921   -9.6375    5.6353 H   0  0  0  0  0  0  0  0  0  0  0  0
    0.2200   -8.4789    6.6220 H   0  0  0  0  0  0  0  0  0  0  0  0
    0.7712   -7.0620    5.7923 H   0  0  0  0  0  0  0  0  0  0  0  0
   -1.4762   -8.9508    5.0439 H   0  0  0  0  0  0  0  0  0  0  0  0
   -1.5624   -7.1936    5.2329 H   0  0  0  0  0  0  0  0  0  0  0  0
   -0.6756   -6.8101    3.0765 H   0  0  0  0  0  0  0  0  0  0  0  0
   -1.7065   -9.7269    2.7696 H   0  0  0  0  0  0  0  0  0  0  0  0
   -1.3961   -8.5005    1.4225 H   0  0  0  0  0  0  0  0  0  0  0  0
    1.4264   -7.0726    1.9360 H   0  0  0  0  0  0  0  0  0  0  0  0
    1.4801   -8.5750    0.9743 H   0  0  0  0  0  0  0  0  0  0  0  0
    2.0038  -10.6620    2.1459 H   0  0  0  0  0  0  0  0  0  0  0  0
    2.8409  -10.6792    3.7133 H   0  0  0  0  0  0  0  0  0  0  0  0
    4.2729   -6.2235   -0.6937 H   0  0  0  0  0  0  0  0  0  0  0  0
    3.4122   -4.4539   -1.8845 H   0  0  0  0  0  0  0  0  0  0  0  0
    0.3108  -10.4579    4.0080 H   0  0  0  0  0  0  0  0  0  0  0  0
  1  2  1  0
  1 22  1  0
  2 20  2  0
  2  3  1  0
  3  4  2  0
  3 23  1  0
  4  5  1  0
  4 24  1  0
  5  6  1  0
  5 19  2  0
  6  7  2  3
  6 25  1  0
  7  8  1  0
  8 16  1  6
  8 18  1  0
  8  9  1  0
  9 10  1  0
  9 26  1  0
  9 27  1  0
 10 17  1  0
 10 11  1  0
 10 28  1  1
 11 12  1  0
 11 29  1  0
 11 30  1  0
 12 13  1  0
 12 31  1  0
 12 32  1  0
 13 15  1  0
 13 14  1  0
 13 33  1  6
 15 14  1  6
 14 34  1  0
 14 35  1  0
 15 16  1  0
 15 17  1  0
 16 36  1  0
 16 37  1  0
 17 18  1  0
 17 42  1  1
 18 38  1  0
 18 39  1  0
 19 20  1  0
 19 40  1  0
 20 21  1  0
 21 41  1  0
M  CHG  1  17   1
M  END
>  <i_m_ct_stereo_status>  (233) 
1

>  <s_m_source_file>  (233) 
/var/tmp/pbs.5076255.sched01/tmpe6iyr0oq/80tt78e_gd.sdf

>  <i_m_source_file_index>  (233) 
17

>  <i_lp_mmshare_version>  (233) 
48012

>  <i_f3d_flags>  (233) 
0

>  <s_epik_input>  (233) 
W09IXWMxW2NIXVtjSF1jKFtjSF1jMVtPSF0pL1tDSF09Ti9bQ0BAXShbQ0gyXTIpKFtDSDJdMylbQ0gyXU40W0NAQEhdMltDSDJdW0NIMl1bQ0BASF0oW0NAQF0zNDUpW0NIMl01

>  <s_epik_cmdline>  (233) 
J2VwaWtfcHl0aG9uJywgJy1waHQnLCAnMi4wJywgJy1waCcsICc3LjAnLCAnLXRuJywgJzgnLCAnLW1hJywgJzIwMCcsICctaW1hZScsICc8aW5maWxlLm1hZT4nLCAnLW9tYWUnLCAnPG91dGZpbGUubWFlPic=

>  <r_epik_Ionization_Penalty>  (233) 
0.010752

>  <r_epik_Ionization_Penalty_Charging>  (233) 
6.54115e-05

>  <r_epik_Ionization_Penalty_Neutral>  (233) 
0.0106866

>  <r_epik_State_Penalty>  (233) 
0.0077851

>  <r_epik_Charging_Adjusted_Penalty>  (233) 
0.00785052

>  <i_epik_Tot_Q>  (233) 
1

>  <i_epik_Tot_abs_Q>  (233) 
1

>  <s_epik_Chemistry_Notes>  (233) 
This compound has an imine and may undergo hydrolysis.

>  <s_lp_Force_Field>  (233) 
OPLS3e

>  <r_lp_Energy>  (233) 
66.8369

>  <b_lp_Chiralities_Consistent>  (233) 
1

>  <s_lp_Variant>  (233) 
66:0-2

>  <s_i_glide_gridfile>  (233) 
pfpi4k_grid

>  <i_i_glide_lignum>  (233) 
17

>  <i_i_glide_rotatable_bonds>  (233) 
4

>  <r_i_docking_score>  (233) 
-3.43937

>  <r_i_glide_ligand_efficiency>  (233) 
-0.16378

>  <r_i_glide_ligand_efficiency_sa>  (233) 
-0.451856

>  <r_i_glide_ligand_efficiency_ln>  (233) 
-0.850378

>  <r_i_glide_gscore>  (233) 
-3.43937

>  <r_i_glide_lipo>  (233) 
-0.206934

>  <r_i_glide_hbond>  (233) 
0

>  <r_i_glide_metal>  (233) 
-0

>  <r_i_glide_rewards>  (233) 
-1.52701

>  <r_i_glide_evdw>  (233) 
-20.6505

>  <r_i_glide_ecoul>  (233) 
-7.36458

>  <r_i_glide_erotb>  (233) 
0.445589

>  <r_i_glide_esite>  (233) 
-0.0138037

>  <r_i_glide_emodel>  (233) 
-35.4186

>  <r_i_glide_energy>  (233) 
-28.0151

>  <r_i_glide_einternal>  (233) 
2.40876

>  <r_i_glide_intrahb_reward>  (233) 
-0

>  <i_i_glide_confnum>  (233) 
5

>  <i_i_glide_posenum>  (233) 
39

>  <r_i_glide_eff_state_penalty>  (233) 
0

>  <ligand_id>  (233) 
66

>  <original_smiles>  (233) 
Oc1ccc(C=NC23CC4CCC5CC5(C2)N4C3)cc1O

>  <smiles>  (233) 
[H]Oc1c([H])c([H])c(C([H])=NC23C([H])([H])C4([H])C([H])([H])C([H])([H])C5([H])C([H])([H])C5(C2([H])[H])[N+]4([H])C3([H])[H])c([H])c1O[H]

$$$$
67:0:0
     RDKit          3D

 57 62  0  0  1  0  0  0  0  0999 V2000
    2.9830   -0.2729    7.9929 C   0  0  0  0  0  0  0  0  0  0  0  0
    2.3185    0.2758    6.9600 C   0  0  0  0  0  0  0  0  0  0  0  0
    2.8093    0.3262    5.5341 C   0  0  2  0  0  0  0  0  0  0  0  0
    2.8183    1.9084    5.0906 C   0  0  1  0  0  0  0  0  0  0  0  0
    2.3533    2.6387    3.7570 C   0  0  0  0  0  0  0  0  0  0  0  0
    0.7806    2.6927    3.5509 C   0  0  2  0  0  0  0  0  0  0  0  0
   -0.1622    3.5873    4.4752 C   0  0  0  0  0  0  0  0  0  0  0  0
    0.5080    4.9325    4.8618 C   0  0  0  0  0  0  0  0  0  0  0  0
   -1.4547    3.9984    3.7239 C   0  0  0  0  0  0  0  0  0  0  0  0
   -0.4759    2.6987    5.7534 C   0  0  1  0  0  0  0  0  0  0  0  0
   -1.7175    1.7337    5.7562 C   0  0  0  0  0  0  0  0  0  0  0  0
   -1.5556    0.4884    4.8149 C   0  0  1  0  0  0  0  0  0  0  0  0
   -0.9056    1.0523    3.7300 O   0  0  0  0  0  0  0  0  0  0  0  0
    0.4471    1.3073    4.0296 C   0  0  1  0  0  0  0  0  0  0  0  0
    1.0124    0.2044    2.9761 C   0  0  1  0  0  0  0  0  0  0  0  0
    1.2407    0.6986    1.6693 O   0  0  0  0  0  0  0  0  0  0  0  0
    2.1058   -0.8005    3.3240 C   0  0  0  0  0  0  0  0  0  0  0  0
    1.8123   -2.1905    2.6929 C   0  0  0  0  0  0  0  0  0  0  0  0
    3.5432   -0.4660    2.8232 C   0  0  0  0  0  0  0  0  0  0  0  0
    1.9895   -0.8491    4.8283 C   0  0  2  0  0  0  0  0  0  0  0  0
    0.5695   -1.4174    5.3793 C   0  0  0  0  0  0  0  0  0  0  0  0
   -0.9474   -0.8997    5.2915 C   0  0  0  0  0  0  0  0  0  0  0  0
   -1.7874   -1.7109    5.6811 O   0  0  0  0  0  0  0  0  0  0  0  0
    0.6638    1.7377    5.6658 C   0  0  1  0  0  0  0  0  0  0  0  0
    1.8318    2.5239    5.8443 O   0  0  0  0  0  0  0  0  0  0  0  0
    0.9785    0.9792    7.0425 C   0  0  1  0  0  0  0  0  0  0  0  0
    0.0072    0.2546    7.7857 O   0  0  0  0  0  0  0  0  0  0  0  0
    2.5754   -0.2589    8.9937 H   0  0  0  0  0  0  0  0  0  0  0  0
    3.9470   -0.7395    7.8526 H   0  0  0  0  0  0  0  0  0  0  0  0
    3.8568    0.0189    5.5340 H   0  0  0  0  0  0  0  0  0  0  0  0
    3.7748    2.3350    5.3900 H   0  0  0  0  0  0  0  0  0  0  0  0
    2.7222    3.6644    3.7752 H   0  0  0  0  0  0  0  0  0  0  0  0
    2.8465    2.2229    2.8821 H   0  0  0  0  0  0  0  0  0  0  0  0
    0.5490    2.8869    2.5026 H   0  0  0  0  0  0  0  0  0  0  0  0
   -0.1649    5.5523    5.4551 H   0  0  0  0  0  0  0  0  0  0  0  0
    0.7770    5.5044    3.9724 H   0  0  0  0  0  0  0  0  0  0  0  0
    1.4165    4.8190    5.4502 H   0  0  0  0  0  0  0  0  0  0  0  0
   -2.1362    4.5338    4.3830 H   0  0  0  0  0  0  0  0  0  0  0  0
   -1.9998    3.1528    3.3098 H   0  0  0  0  0  0  0  0  0  0  0  0
   -1.2243    4.6537    2.8822 H   0  0  0  0  0  0  0  0  0  0  0  0
   -0.4648    3.2969    6.6662 H   0  0  0  0  0  0  0  0  0  0  0  0
   -1.9509    1.3997    6.7650 H   0  0  0  0  0  0  0  0  0  0  0  0
   -2.5954    2.2990    5.4505 H   0  0  0  0  0  0  0  0  0  0  0  0
   -2.5613    0.2383    4.4796 H   0  0  0  0  0  0  0  0  0  0  0  0
    0.1739   -0.4591    2.7590 H   0  0  0  0  0  0  0  0  0  0  0  0
    1.0139    0.0353    1.0258 H   0  0  0  0  0  0  0  0  0  0  0  0
    2.5166   -2.9468    3.0467 H   0  0  0  0  0  0  0  0  0  0  0  0
    1.9054   -2.1537    1.6064 H   0  0  0  0  0  0  0  0  0  0  0  0
    0.8103   -2.5656    2.8981 H   0  0  0  0  0  0  0  0  0  0  0  0
    4.2460   -1.2479    3.1180 H   0  0  0  0  0  0  0  0  0  0  0  0
    3.9628    0.4634    3.1906 H   0  0  0  0  0  0  0  0  0  0  0  0
    3.5818   -0.4124    1.7338 H   0  0  0  0  0  0  0  0  0  0  0  0
    2.6278   -1.6952    5.0909 H   0  0  0  0  0  0  0  0  0  0  0  0
    0.4904   -2.4207    4.9651 H   0  0  0  0  0  0  0  0  0  0  0  0
    0.7184   -1.6451    6.4336 H   0  0  0  0  0  0  0  0  0  0  0  0
    1.1620    1.7712    7.7766 H   0  0  0  0  0  0  0  0  0  0  0  0
    0.3231    0.1824    8.6739 H   0  0  0  0  0  0  0  0  0  0  0  0
  1  2  2  0
  1 28  1  0
  1 29  1  0
  2 26  1  0
  2  3  1  0
  3 20  1  0
  3  4  1  0
  3 30  1  1
  4 25  1  0
  4  5  1  0
  4 31  1  1
  5  6  1  0
  5 32  1  0
  5 33  1  0
  6 14  1  0
  6  7  1  0
  6 34  1  6
  7  8  1  0
  7  9  1  0
  7 10  1  0
  8 35  1  0
  8 36  1  0
  8 37  1  0
  9 38  1  0
  9 39  1  0
  9 40  1  0
 10 24  1  0
 10 11  1  0
 10 41  1  1
 11 12  1  0
 11 42  1  0
 11 43  1  0
 12 22  1  0
 12 13  1  0
 12 44  1  6
 14 13  1  1
 14 15  1  0
 14 24  1  0
 15 16  1  0
 15 17  1  0
 15 45  1  6
 16 46  1  0
 17 18  1  0
 17 19  1  0
 17 20  1  0
 18 47  1  0
 18 48  1  0
 18 49  1  0
 19 50  1  0
 19 51  1  0
 19 52  1  0
 20 21  1  0
 20 53  1  1
 21 22  1  0
 21 54  1  0
 21 55  1  0
 22 23  2  0
 24 25  1  6
 24 26  1  0
 26 27  1  0
 26 56  1  1
 27 57  1  0
M  END
>  <i_m_ct_stereo_status>  (234) 
1

>  <s_m_source_file>  (234) 
/var/tmp/pbs.5076255.sched01/tmpe6iyr0oq/80tt78e_gd.sdf

>  <i_m_source_file_index>  (234) 
18

>  <i_lp_mmshare_version>  (234) 
48012

>  <i_f3d_flags>  (234) 
0

>  <s_epik_input>  (234) 
W0NIMl0xW0NAQEhdKE8yKUMoPU8pW0NIMl1bQ0BASF0oQyhbQ0gzXSkoW0NIM10pW0NAQEhdM1tPSF0pW0NASF0oQyg9W0NIMl0pW0NAQEhdNFtPSF0pW0NASF0oTzUpW0NIMl1bQ0BASF02QyhbQ0gzXSkoW0NIM10pW0NAQEhdMVtDQF00NVtDQF0yMzY=

>  <s_epik_cmdline>  (234) 
J2VwaWtfcHl0aG9uJywgJy1waHQnLCAnMi4wJywgJy1waCcsICc3LjAnLCAnLXRuJywgJzgnLCAnLW1hJywgJzIwMCcsICctaW1hZScsICc8aW5maWxlLm1hZT4nLCAnLW9tYWUnLCAnPG91dGZpbGUubWFlPic=

>  <r_lp_tautomer_probability>  (234) 
1

>  <r_epik_Ionization_Penalty>  (234) 
4.23099e-07

>  <r_epik_Ionization_Penalty_Charging>  (234) 
0

>  <r_epik_Ionization_Penalty_Neutral>  (234) 
4.23099e-07

>  <r_epik_State_Penalty>  (234) 
-0

>  <r_epik_Charging_Adjusted_Penalty>  (234) 
0

>  <i_epik_Tot_Q>  (234) 
0

>  <i_epik_Tot_abs_Q>  (234) 
0

>  <s_lp_Force_Field>  (234) 
OPLS3e

>  <r_lp_Energy>  (234) 
237.994

>  <b_lp_Chiralities_Consistent>  (234) 
1

>  <s_lp_Variant>  (234) 
67:0-1

>  <s_i_glide_gridfile>  (234) 
pfpi4k_grid

>  <i_i_glide_lignum>  (234) 
18

>  <i_i_glide_rotatable_bonds>  (234) 
2

>  <r_i_docking_score>  (234) 
-2.86161

>  <r_i_glide_ligand_efficiency>  (234) 
-0.105986

>  <r_i_glide_ligand_efficiency_sa>  (234) 
-0.317957

>  <r_i_glide_ligand_efficiency_ln>  (234) 
-0.666136

>  <r_i_glide_gscore>  (234) 
-2.86161

>  <r_i_glide_lipo>  (234) 
-0.0110066

>  <r_i_glide_hbond>  (234) 
0

>  <r_i_glide_metal>  (234) 
-0

>  <r_i_glide_rewards>  (234) 
-0.855882

>  <r_i_glide_evdw>  (234) 
-24.417

>  <r_i_glide_ecoul>  (234) 
-4.9263

>  <r_i_glide_erotb>  (234) 
0

>  <r_i_glide_esite>  (234) 
-0.0349263

>  <r_i_glide_emodel>  (234) 
-34.2567

>  <r_i_glide_energy>  (234) 
-29.3433

>  <r_i_glide_einternal>  (234) 
1.10802

>  <r_i_glide_intrahb_reward>  (234) 
-0

>  <i_i_glide_confnum>  (234) 
2

>  <i_i_glide_posenum>  (234) 
19

>  <r_i_glide_eff_state_penalty>  (234) 
0

>  <ligand_id>  (234) 
67

>  <original_smiles>  (234) 
C=C1C2C3CC4C(C)(C)C5CC6OC4(C(O)C(C)(C)C2CC6=O)C5(O3)C1O

>  <smiles>  (234) 
[H]OC1([H])C(=C([H])[H])C2([H])C3([H])OC14C1([H])C([H])([H])C5([H])OC4(C([H])(O[H])C(C([H])([H])[H])(C([H])([H])[H])C2([H])C([H])([H])C5=O)C([H])(C3([H])[H])C1(C([H])([H])[H])C([H])([H])[H]

$$$$
67:0:1
     RDKit          3D

 57 62  0  0  1  0  0  0  0  0999 V2000
    4.4667    0.9773    4.8865 C   0  0  0  0  0  0  0  0  0  0  0  0
    3.1433    1.0008    5.1263 C   0  0  0  0  0  0  0  0  0  0  0  0
    2.1445    0.0011    4.5979 C   0  0  2  0  0  0  0  0  0  0  0  0
    1.0074    0.8578    3.7799 C   0  0  1  0  0  0  0  0  0  0  0  0
   -0.5778    0.7483    3.7454 C   0  0  0  0  0  0  0  0  0  0  0  0
   -1.3012    1.2415    5.0706 C   0  0  2  0  0  0  0  0  0  0  0  0
   -1.3300    2.7783    5.4945 C   0  0  0  0  0  0  0  0  0  0  0  0
   -1.4637    3.7159    4.2653 C   0  0  0  0  0  0  0  0  0  0  0  0
   -2.5695    3.0956    6.3707 C   0  0  0  0  0  0  0  0  0  0  0  0
    0.0264    3.0302    6.2834 C   0  0  1  0  0  0  0  0  0  0  0  0
    0.0855    2.8021    7.8409 C   0  0  0  0  0  0  0  0  0  0  0  0
    0.0072    1.2907    8.2662 C   0  0  1  0  0  0  0  0  0  0  0  0
   -0.9204    0.8025    7.3535 O   0  0  0  0  0  0  0  0  0  0  0  0
   -0.3419    0.6718    6.0765 C   0  0  1  0  0  0  0  0  0  0  0  0
   -0.4465   -0.9481    6.0752 C   0  0  1  0  0  0  0  0  0  0  0  0
   -1.6856   -1.4570    5.6033 O   0  0  0  0  0  0  0  0  0  0  0  0
    0.7004   -1.8600    5.6468 C   0  0  0  0  0  0  0  0  0  0  0  0
    0.7892   -3.1180    6.5605 C   0  0  0  0  0  0  0  0  0  0  0  0
    0.6243   -2.4532    4.2099 C   0  0  0  0  0  0  0  0  0  0  0  0
    1.8891   -0.9520    5.8527 C   0  0  2  0  0  0  0  0  0  0  0  0
    2.1346   -0.5000    7.3961 C   0  0  0  0  0  0  0  0  0  0  0  0
    1.2932    0.3690    8.4512 C   0  0  0  0  0  0  0  0  0  0  0  0
    1.7179    0.3147    9.6022 O   0  0  0  0  0  0  0  0  0  0  0  0
    0.8233    1.8769    5.7669 C   0  0  1  0  0  0  0  0  0  0  0  0
    0.9637    2.1099    4.3738 O   0  0  0  0  0  0  0  0  0  0  0  0
    2.4072    2.0485    5.9378 C   0  0  1  0  0  0  0  0  0  0  0  0
    3.0273    2.3294    7.1801 O   0  0  0  0  0  0  0  0  0  0  0  0
    5.1187    1.7391    5.2877 H   0  0  0  0  0  0  0  0  0  0  0  0
    4.9138    0.2053    4.2775 H   0  0  0  0  0  0  0  0  0  0  0  0
    2.6525   -0.6047    3.8456 H   0  0  0  0  0  0  0  0  0  0  0  0
    1.3583    0.9907    2.7568 H   0  0  0  0  0  0  0  0  0  0  0  0
   -0.9475    1.3569    2.9184 H   0  0  0  0  0  0  0  0  0  0  0  0
   -0.8972   -0.2516    3.4710 H   0  0  0  0  0  0  0  0  0  0  0  0
   -2.3123    0.8405    5.1144 H   0  0  0  0  0  0  0  0  0  0  0  0
   -1.5181    4.7574    4.5795 H   0  0  0  0  0  0  0  0  0  0  0  0
   -2.3674    3.4938    3.6982 H   0  0  0  0  0  0  0  0  0  0  0  0
   -0.6305    3.6532    3.5665 H   0  0  0  0  0  0  0  0  0  0  0  0
   -2.5377    4.1228    6.7340 H   0  0  0  0  0  0  0  0  0  0  0  0
   -2.6620    2.4522    7.2434 H   0  0  0  0  0  0  0  0  0  0  0  0
   -3.4915    2.9810    5.8004 H   0  0  0  0  0  0  0  0  0  0  0  0
    0.4624    3.9981    6.0273 H   0  0  0  0  0  0  0  0  0  0  0  0
    0.9844    3.2505    8.2610 H   0  0  0  0  0  0  0  0  0  0  0  0
   -0.7283    3.3508    8.3165 H   0  0  0  0  0  0  0  0  0  0  0  0
   -0.4876    1.2718    9.2379 H   0  0  0  0  0  0  0  0  0  0  0  0
   -0.5534   -1.2448    7.1186 H   0  0  0  0  0  0  0  0  0  0  0  0
   -1.7477   -1.2473    4.6832 H   0  0  0  0  0  0  0  0  0  0  0  0
    1.6878   -3.7003    6.3480 H   0  0  0  0  0  0  0  0  0  0  0  0
   -0.0620   -3.7812    6.4015 H   0  0  0  0  0  0  0  0  0  0  0  0
    0.8061   -2.8925    7.6266 H   0  0  0  0  0  0  0  0  0  0  0  0
    1.4881   -3.0893    4.0119 H   0  0  0  0  0  0  0  0  0  0  0  0
    0.6021   -1.7318    3.4017 H   0  0  0  0  0  0  0  0  0  0  0  0
   -0.2533   -3.0849    4.0908 H   0  0  0  0  0  0  0  0  0  0  0  0
    2.7357   -1.6328    5.7411 H   0  0  0  0  0  0  0  0  0  0  0  0
    2.2774   -1.4299    7.9423 H   0  0  0  0  0  0  0  0  0  0  0  0
    3.1400   -0.0868    7.4425 H   0  0  0  0  0  0  0  0  0  0  0  0
    2.6649    2.9815    5.4269 H   0  0  0  0  0  0  0  0  0  0  0  0
    3.9330    2.5456    7.0231 H   0  0  0  0  0  0  0  0  0  0  0  0
  1  2  2  0
  1 28  1  0
  1 29  1  0
  2 26  1  0
  2  3  1  0
  3 20  1  0
  3  4  1  0
  3 30  1  6
  4 25  1  0
  4  5  1  0
  4 31  1  6
  5  6  1  0
  5 32  1  0
  5 33  1  0
  6 14  1  0
  6  7  1  0
  6 34  1  1
  7  8  1  0
  7  9  1  0
  7 10  1  0
  8 35  1  0
  8 36  1  0
  8 37  1  0
  9 38  1  0
  9 39  1  0
  9 40  1  0
 10 24  1  0
 10 11  1  0
 10 41  1  1
 11 12  1  0
 11 42  1  0
 11 43  1  0
 12 22  1  0
 12 13  1  0
 12 44  1  1
 14 13  1  1
 14 15  1  0
 14 24  1  0
 15 16  1  0
 15 17  1  0
 15 45  1  1
 16 46  1  0
 17 18  1  0
 17 19  1  0
 17 20  1  0
 18 47  1  0
 18 48  1  0
 18 49  1  0
 19 50  1  0
 19 51  1  0
 19 52  1  0
 20 21  1  0
 20 53  1  6
 21 22  1  0
 21 54  1  0
 21 55  1  0
 22 23  2  0
 24 25  1  6
 24 26  1  0
 26 27  1  0
 26 56  1  6
 27 57  1  0
M  END
>  <i_m_ct_stereo_status>  (235) 
1

>  <s_m_source_file>  (235) 
/var/tmp/pbs.5076255.sched01/tmpe6iyr0oq/80tt78e_gd.sdf

>  <i_m_source_file_index>  (235) 
18

>  <i_lp_mmshare_version>  (235) 
48012

>  <i_f3d_flags>  (235) 
0

>  <s_epik_input>  (235) 
W0NIMl0xW0NAQEhdKE8yKUMoPU8pW0NIMl1bQ0BASF0oQyhbQ0gzXSkoW0NIM10pW0NAQEhdM1tPSF0pW0NASF0oQyg9W0NIMl0pW0NAQEhdNFtPSF0pW0NASF0oTzUpW0NIMl1bQ0BASF02QyhbQ0gzXSkoW0NIM10pW0NAQEhdMVtDQF00NVtDQF0yMzY=

>  <s_epik_cmdline>  (235) 
J2VwaWtfcHl0aG9uJywgJy1waHQnLCAnMi4wJywgJy1waCcsICc3LjAnLCAnLXRuJywgJzgnLCAnLW1hJywgJzIwMCcsICctaW1hZScsICc8aW5maWxlLm1hZT4nLCAnLW9tYWUnLCAnPG91dGZpbGUubWFlPic=

>  <r_lp_tautomer_probability>  (235) 
1

>  <r_epik_Ionization_Penalty>  (235) 
4.23099e-07

>  <r_epik_Ionization_Penalty_Charging>  (235) 
0

>  <r_epik_Ionization_Penalty_Neutral>  (235) 
4.23099e-07

>  <r_epik_State_Penalty>  (235) 
-0

>  <r_epik_Charging_Adjusted_Penalty>  (235) 
0

>  <i_epik_Tot_Q>  (235) 
0

>  <i_epik_Tot_abs_Q>  (235) 
0

>  <s_lp_Force_Field>  (235) 
OPLS3e

>  <r_lp_Energy>  (235) 
237.994

>  <b_lp_Chiralities_Consistent>  (235) 
1

>  <s_lp_Variant>  (235) 
67:0-1

>  <s_i_glide_gridfile>  (235) 
pfpi4k_grid

>  <i_i_glide_lignum>  (235) 
18

>  <i_i_glide_rotatable_bonds>  (235) 
2

>  <r_i_docking_score>  (235) 
-2.6276

>  <r_i_glide_ligand_efficiency>  (235) 
-0.0973185

>  <r_i_glide_ligand_efficiency_sa>  (235) 
-0.291956

>  <r_i_glide_ligand_efficiency_ln>  (235) 
-0.611662

>  <r_i_glide_gscore>  (235) 
-2.6276

>  <r_i_glide_lipo>  (235) 
-0.201301

>  <r_i_glide_hbond>  (235) 
-0.0628929

>  <r_i_glide_metal>  (235) 
-0

>  <r_i_glide_rewards>  (235) 
-0.855882

>  <r_i_glide_evdw>  (235) 
-20.2742

>  <r_i_glide_ecoul>  (235) 
-3.2841

>  <r_i_glide_erotb>  (235) 
0

>  <r_i_glide_esite>  (235) 
-0.00119815

>  <r_i_glide_emodel>  (235) 
-28.4479

>  <r_i_glide_energy>  (235) 
-23.5583

>  <r_i_glide_einternal>  (235) 
0.485823

>  <r_i_glide_intrahb_reward>  (235) 
-0

>  <i_i_glide_confnum>  (235) 
1

>  <i_i_glide_posenum>  (235) 
3

>  <r_i_glide_eff_state_penalty>  (235) 
0

>  <ligand_id>  (235) 
67

>  <original_smiles>  (235) 
C=C1C2C3CC4C(C)(C)C5CC6OC4(C(O)C(C)(C)C2CC6=O)C5(O3)C1O

>  <smiles>  (235) 
[H]OC1([H])C(=C([H])[H])C2([H])C3([H])OC14C1([H])C([H])([H])C5([H])OC4(C([H])(O[H])C(C([H])([H])[H])(C([H])([H])[H])C2([H])C([H])([H])C5=O)C([H])(C3([H])[H])C1(C([H])([H])[H])C([H])([H])[H]

$$$$
67:0:2
     RDKit          3D

 57 62  0  0  1  0  0  0  0  0999 V2000
   -0.2679   -1.6851    6.1469 C   0  0  0  0  0  0  0  0  0  0  0  0
    0.0729   -0.3853    6.1124 C   0  0  0  0  0  0  0  0  0  0  0  0
   -0.0127    0.5078    4.8992 C   0  0  2  0  0  0  0  0  0  0  0  0
    1.4898    1.1279    4.6637 C   0  0  1  0  0  0  0  0  0  0  0  0
    1.9872    2.5920    4.2940 C   0  0  0  0  0  0  0  0  0  0  0  0
    1.8463    3.6518    5.4677 C   0  0  2  0  0  0  0  0  0  0  0  0
    2.7481    3.5774    6.7833 C   0  0  0  0  0  0  0  0  0  0  0  0
    4.1963    3.1115    6.4706 C   0  0  0  0  0  0  0  0  0  0  0  0
    2.9207    4.9779    7.4255 C   0  0  0  0  0  0  0  0  0  0  0  0
    2.0016    2.5695    7.7611 C   0  0  1  0  0  0  0  0  0  0  0  0
    0.9186    3.1074    8.7709 C   0  0  0  0  0  0  0  0  0  0  0  0
   -0.4152    3.5745    8.0829 C   0  0  1  0  0  0  0  0  0  0  0  0
    0.0783    4.1756    6.9333 O   0  0  0  0  0  0  0  0  0  0  0  0
    0.5103    3.2178    5.9959 C   0  0  1  0  0  0  0  0  0  0  0  0
   -0.6472    3.5710    4.9096 C   0  0  1  0  0  0  0  0  0  0  0  0
   -0.3542    4.6223    3.9976 O   0  0  0  0  0  0  0  0  0  0  0  0
   -1.4794    2.5022    4.2079 C   0  0  0  0  0  0  0  0  0  0  0  0
   -2.9566    2.9499    4.0710 C   0  0  0  0  0  0  0  0  0  0  0  0
   -1.0695    2.1433    2.7532 C   0  0  0  0  0  0  0  0  0  0  0  0
   -1.3472    1.3414    5.1592 C   0  0  2  0  0  0  0  0  0  0  0  0
   -1.9780    1.5957    6.6360 C   0  0  0  0  0  0  0  0  0  0  0  0
   -1.6527    2.6063    7.8328 C   0  0  0  0  0  0  0  0  0  0  0  0
   -2.5078    2.6229    8.7142 O   0  0  0  0  0  0  0  0  0  0  0  0
    1.1658    1.8409    6.7598 C   0  0  1  0  0  0  0  0  0  0  0  0
    2.0907    1.1753    5.9124 O   0  0  0  0  0  0  0  0  0  0  0  0
    0.6329    0.4151    7.2695 C   0  0  1  0  0  0  0  0  0  0  0  0
   -0.0925    0.2274    8.4735 O   0  0  0  0  0  0  0  0  0  0  0  0
   -0.1603   -2.2616    7.0558 H   0  0  0  0  0  0  0  0  0  0  0  0
   -0.6433   -2.1907    5.2698 H   0  0  0  0  0  0  0  0  0  0  0  0
   -0.2061   -0.1306    4.0355 H   0  0  0  0  0  0  0  0  0  0  0  0
    2.0511    0.4183    4.0556 H   0  0  0  0  0  0  0  0  0  0  0  0
    3.0428    2.5390    4.0185 H   0  0  0  0  0  0  0  0  0  0  0  0
    1.5198    2.9536    3.3828 H   0  0  0  0  0  0  0  0  0  0  0  0
    1.8742    4.6658    5.0662 H   0  0  0  0  0  0  0  0  0  0  0  0
    4.8101    3.1126    7.3725 H   0  0  0  0  0  0  0  0  0  0  0  0
    4.6748    3.7764    5.7523 H   0  0  0  0  0  0  0  0  0  0  0  0
    4.2566    2.1056    6.0599 H   0  0  0  0  0  0  0  0  0  0  0  0
    3.4661    4.9136    8.3676 H   0  0  0  0  0  0  0  0  0  0  0  0
    1.9758    5.4765    7.6328 H   0  0  0  0  0  0  0  0  0  0  0  0
    3.4840    5.6427    6.7698 H   0  0  0  0  0  0  0  0  0  0  0  0
    2.7138    1.9235    8.2800 H   0  0  0  0  0  0  0  0  0  0  0  0
    0.6924    2.3655    9.5345 H   0  0  0  0  0  0  0  0  0  0  0  0
    1.3384    3.9409    9.3360 H   0  0  0  0  0  0  0  0  0  0  0  0
   -0.8141    4.3826    8.6982 H   0  0  0  0  0  0  0  0  0  0  0  0
   -1.4179    4.0944    5.4751 H   0  0  0  0  0  0  0  0  0  0  0  0
    0.0585    4.2664    3.2180 H   0  0  0  0  0  0  0  0  0  0  0  0
   -3.5819    2.1497    3.6814 H   0  0  0  0  0  0  0  0  0  0  0  0
   -3.0435    3.7831    3.3735 H   0  0  0  0  0  0  0  0  0  0  0  0
   -3.4041    3.2848    5.0057 H   0  0  0  0  0  0  0  0  0  0  0  0
   -1.7288    1.3821    2.3370 H   0  0  0  0  0  0  0  0  0  0  0  0
   -0.0598    1.7739    2.6217 H   0  0  0  0  0  0  0  0  0  0  0  0
   -1.1679    3.0057    2.0980 H   0  0  0  0  0  0  0  0  0  0  0  0
   -2.0864    0.6344    4.7750 H   0  0  0  0  0  0  0  0  0  0  0  0
   -3.0265    1.8197    6.4710 H   0  0  0  0  0  0  0  0  0  0  0  0
   -2.0486    0.6207    7.1090 H   0  0  0  0  0  0  0  0  0  0  0  0
    1.5258   -0.1556    7.5454 H   0  0  0  0  0  0  0  0  0  0  0  0
    0.4524    0.5103    9.1927 H   0  0  0  0  0  0  0  0  0  0  0  0
  1  2  2  0
  1 28  1  0
  1 29  1  0
  2 26  1  0
  2  3  1  0
  3 20  1  0
  3  4  1  0
  3 30  1  6
  4 25  1  0
  4  5  1  0
  4 31  1  6
  5  6  1  0
  5 32  1  0
  5 33  1  0
  6 14  1  0
  6  7  1  0
  6 34  1  6
  7  8  1  0
  7  9  1  0
  7 10  1  0
  8 35  1  0
  8 36  1  0
  8 37  1  0
  9 38  1  0
  9 39  1  0
  9 40  1  0
 10 24  1  0
 10 11  1  0
 10 41  1  1
 11 12  1  0
 11 42  1  0
 11 43  1  0
 12 22  1  0
 12 13  1  0
 12 44  1  1
 14 13  1  1
 14 15  1  0
 14 24  1  0
 15 16  1  0
 15 17  1  0
 15 45  1  1
 16 46  1  0
 17 18  1  0
 17 19  1  0
 17 20  1  0
 18 47  1  0
 18 48  1  0
 18 49  1  0
 19 50  1  0
 19 51  1  0
 19 52  1  0
 20 21  1  0
 20 53  1  6
 21 22  1  0
 21 54  1  0
 21 55  1  0
 22 23  2  0
 24 25  1  6
 24 26  1  0
 26 27  1  0
 26 56  1  1
 27 57  1  0
M  END
>  <i_m_ct_stereo_status>  (236) 
1

>  <s_m_source_file>  (236) 
/var/tmp/pbs.5076255.sched01/tmpe6iyr0oq/80tt78e_gd.sdf

>  <i_m_source_file_index>  (236) 
18

>  <i_lp_mmshare_version>  (236) 
48012

>  <i_f3d_flags>  (236) 
0

>  <s_epik_input>  (236) 
W0NIMl0xW0NAQEhdKE8yKUMoPU8pW0NIMl1bQ0BASF0oQyhbQ0gzXSkoW0NIM10pW0NAQEhdM1tPSF0pW0NASF0oQyg9W0NIMl0pW0NAQEhdNFtPSF0pW0NASF0oTzUpW0NIMl1bQ0BASF02QyhbQ0gzXSkoW0NIM10pW0NAQEhdMVtDQF00NVtDQF0yMzY=

>  <s_epik_cmdline>  (236) 
J2VwaWtfcHl0aG9uJywgJy1waHQnLCAnMi4wJywgJy1waCcsICc3LjAnLCAnLXRuJywgJzgnLCAnLW1hJywgJzIwMCcsICctaW1hZScsICc8aW5maWxlLm1hZT4nLCAnLW9tYWUnLCAnPG91dGZpbGUubWFlPic=

>  <r_lp_tautomer_probability>  (236) 
1

>  <r_epik_Ionization_Penalty>  (236) 
4.23099e-07

>  <r_epik_Ionization_Penalty_Charging>  (236) 
0

>  <r_epik_Ionization_Penalty_Neutral>  (236) 
4.23099e-07

>  <r_epik_State_Penalty>  (236) 
-0

>  <r_epik_Charging_Adjusted_Penalty>  (236) 
0

>  <i_epik_Tot_Q>  (236) 
0

>  <i_epik_Tot_abs_Q>  (236) 
0

>  <s_lp_Force_Field>  (236) 
OPLS3e

>  <r_lp_Energy>  (236) 
237.994

>  <b_lp_Chiralities_Consistent>  (236) 
1

>  <s_lp_Variant>  (236) 
67:0-1

>  <s_i_glide_gridfile>  (236) 
pfpi4k_grid

>  <i_i_glide_lignum>  (236) 
18

>  <i_i_glide_rotatable_bonds>  (236) 
2

>  <r_i_docking_score>  (236) 
-2.51578

>  <r_i_glide_ligand_efficiency>  (236) 
-0.0931769

>  <r_i_glide_ligand_efficiency_sa>  (236) 
-0.279531

>  <r_i_glide_ligand_efficiency_ln>  (236) 
-0.585632

>  <r_i_glide_gscore>  (236) 
-2.51578

>  <r_i_glide_lipo>  (236) 
-0.000727842

>  <r_i_glide_hbond>  (236) 
0

>  <r_i_glide_metal>  (236) 
-0

>  <r_i_glide_rewards>  (236) 
-0.855882

>  <r_i_glide_evdw>  (236) 
-20.6376

>  <r_i_glide_ecoul>  (236) 
-4.15993

>  <r_i_glide_erotb>  (236) 
0

>  <r_i_glide_esite>  (236) 
-0.00329951

>  <r_i_glide_emodel>  (236) 
-29.2301

>  <r_i_glide_energy>  (236) 
-24.7975

>  <r_i_glide_einternal>  (236) 
0.805091

>  <r_i_glide_intrahb_reward>  (236) 
-0

>  <i_i_glide_confnum>  (236) 
1

>  <i_i_glide_posenum>  (236) 
20

>  <r_i_glide_eff_state_penalty>  (236) 
0

>  <ligand_id>  (236) 
67

>  <original_smiles>  (236) 
C=C1C2C3CC4C(C)(C)C5CC6OC4(C(O)C(C)(C)C2CC6=O)C5(O3)C1O

>  <smiles>  (236) 
[H]OC1([H])C(=C([H])[H])C2([H])C3([H])OC14C1([H])C([H])([H])C5([H])OC4(C([H])(O[H])C(C([H])([H])[H])(C([H])([H])[H])C2([H])C([H])([H])C5=O)C([H])(C3([H])[H])C1(C([H])([H])[H])C([H])([H])[H]

$$$$
68:0:0
     RDKit          3D

 67 73  0  0  1  0  0  0  0  0999 V2000
    4.4489   -3.0612   -1.3858 C   0  0  0  0  0  0  0  0  0  0  0  0
    4.0670   -2.7018    0.0634 C   0  0  2  0  0  0  0  0  0  0  0  0
    3.8257   -1.1865    0.2804 C   0  0  0  0  0  0  0  0  0  0  0  0
    4.5943   -0.7571    1.5401 C   0  0  0  0  0  0  0  0  0  0  0  0
    4.8839   -2.0794    2.2006 C   0  0  0  0  0  0  0  0  0  0  0  0
    4.8782   -2.5280    3.4892 C   0  0  0  0  0  0  0  0  0  0  0  0
    5.1575   -4.0229    3.4340 C   0  0  1  0  0  0  0  0  0  0  0  0
    4.5533   -5.1870    4.2296 C   0  0  0  0  0  0  0  0  0  0  0  0
    4.7494   -6.4447    3.2691 C   0  0  1  0  0  0  0  0  0  0  0  0
    6.1307   -7.0536    3.6253 C   0  0  0  0  0  0  0  0  0  0  0  0
    3.6273   -7.5593    3.4807 C   0  0  2  0  0  0  0  0  0  0  0  0
    3.8374   -8.9010    2.6720 C   0  0  0  0  0  0  0  0  0  0  0  0
    2.4292   -9.4219    2.3009 C   0  0  0  0  0  0  0  0  0  0  0  0
    1.5429   -8.6731    3.2922 C   0  0  2  0  0  0  0  0  0  0  0  0
    0.0392   -8.6471    3.1143 C   0  0  0  0  0  0  0  0  0  0  0  0
   -0.8546   -9.4569    2.4806 C   0  0  0  0  0  0  0  0  0  0  0  0
   -2.1265   -9.0167    2.6465 O   0  0  0  0  0  0  0  0  0  0  0  0
   -2.0295   -7.8979    3.4055 C   0  0  0  0  0  0  0  0  0  0  0  0
   -0.7446   -7.6145    3.7253 C   0  0  0  0  0  0  0  0  0  0  0  0
   -0.1196   -6.4577    4.4987 C   0  0  0  0  0  0  0  0  0  0  0  0
    1.4166   -6.6062    4.6464 C   0  0  0  0  0  0  0  0  0  0  0  0
    2.0905   -7.2375    3.3735 C   0  0  1  0  0  0  0  0  0  0  0  0
    1.7131   -6.4121    2.0812 C   0  0  0  0  0  0  0  0  0  0  0  0
    4.8116   -5.8122    1.8305 C   0  0  0  0  0  0  0  0  0  0  0  0
    5.7336   -6.2928    0.7252 C   0  0  0  0  0  0  0  0  0  0  0  0
    4.2787   -6.4706    0.5958 C   0  0  0  0  0  0  0  0  0  0  0  0
    4.5982   -4.3254    2.0496 C   0  0  2  0  0  0  0  0  0  0  0  0
    5.0738   -3.1446    1.1600 C   0  0  1  0  0  0  0  0  0  0  0  0
    6.5640   -3.1420    0.7369 C   0  0  0  0  0  0  0  0  0  0  0  0
    5.3574   -2.5468   -1.7021 H   0  0  0  0  0  0  0  0  0  0  0  0
    3.6571   -2.7873   -2.0796 H   0  0  0  0  0  0  0  0  0  0  0  0
    4.6179   -4.1352   -1.4958 H   0  0  0  0  0  0  0  0  0  0  0  0
    3.1050   -3.1856    0.2370 H   0  0  0  0  0  0  0  0  0  0  0  0
    4.1251   -0.5929   -0.5845 H   0  0  0  0  0  0  0  0  0  0  0  0
    2.7620   -1.0008    0.4270 H   0  0  0  0  0  0  0  0  0  0  0  0
    5.5459   -0.3257    1.2483 H   0  0  0  0  0  0  0  0  0  0  0  0
    4.0690   -0.0484    2.1740 H   0  0  0  0  0  0  0  0  0  0  0  0
    4.6851   -1.9721    4.3655 H   0  0  0  0  0  0  0  0  0  0  0  0
    6.2183   -4.1558    3.4486 H   0  0  0  0  0  0  0  0  0  0  0  0
    5.0499   -5.3085    5.1928 H   0  0  0  0  0  0  0  0  0  0  0  0
    3.5186   -4.9297    4.4187 H   0  0  0  0  0  0  0  0  0  0  0  0
    6.3191   -7.9974    3.1142 H   0  0  0  0  0  0  0  0  0  0  0  0
    6.2269   -7.2627    4.6856 H   0  0  0  0  0  0  0  0  0  0  0  0
    6.9633   -6.3936    3.3596 H   0  0  0  0  0  0  0  0  0  0  0  0
    3.7871   -7.8683    4.5141 H   0  0  0  0  0  0  0  0  0  0  0  0
    4.4524   -8.7948    1.8004 H   0  0  0  0  0  0  0  0  0  0  0  0
    4.3134   -9.6534    3.3349 H   0  0  0  0  0  0  0  0  0  0  0  0
    2.1771   -9.1646    1.2719 H   0  0  0  0  0  0  0  0  0  0  0  0
    2.3267  -10.5073    2.3929 H   0  0  0  0  0  0  0  0  0  0  0  0
    1.6733   -9.1813    4.2483 H   0  0  0  0  0  0  0  0  0  0  0  0
   -0.7554  -10.3717    1.9031 H   0  0  0  0  0  0  0  0  0  0  0  0
   -2.9854   -7.4307    3.6132 H   0  0  0  0  0  0  0  0  0  0  0  0
   -0.3126   -5.5406    3.9390 H   0  0  0  0  0  0  0  0  0  0  0  0
   -0.5998   -6.3452    5.4727 H   0  0  0  0  0  0  0  0  0  0  0  0
    1.7816   -5.6103    4.9062 H   0  0  0  0  0  0  0  0  0  0  0  0
    1.6210   -7.2458    5.5120 H   0  0  0  0  0  0  0  0  0  0  0  0
    0.5998   -6.3570    1.9640 H   0  0  0  0  0  0  0  0  0  0  0  0
    2.1561   -6.8603    1.2037 H   0  0  0  0  0  0  0  0  0  0  0  0
    2.0273   -5.3756    2.2308 H   0  0  0  0  0  0  0  0  0  0  0  0
    6.1983   -5.6086   -0.0066 H   0  0  0  0  0  0  0  0  0  0  0  0
    6.3540   -7.1785    0.9163 H   0  0  0  0  0  0  0  0  0  0  0  0
    3.9254   -7.5087    0.5769 H   0  0  0  0  0  0  0  0  0  0  0  0
    3.7247   -5.7775   -0.0890 H   0  0  0  0  0  0  0  0  0  0  0  0
    3.5186   -4.2158    2.1555 H   0  0  0  0  0  0  0  0  0  0  0  0
    6.7538   -3.6935   -0.1804 H   0  0  0  0  0  0  0  0  0  0  0  0
    7.1887   -3.5722    1.5176 H   0  0  0  0  0  0  0  0  0  0  0  0
    6.9160   -2.1157    0.5692 H   0  0  0  0  0  0  0  0  0  0  0  0
  1  2  1  0
  1 30  1  0
  1 31  1  0
  1 32  1  0
  2 28  1  0
  2  3  1  0
  2 33  1  1
  3  4  1  0
  3 34  1  0
  3 35  1  0
  4  5  1  0
  4 36  1  0
  4 37  1  0
  5 28  1  0
  5  6  2  0
  6  7  1  0
  6 38  1  0
  7 27  1  0
  7  8  1  0
  7 39  1  6
  8  9  1  0
  8 40  1  0
  8 41  1  0
  9 10  1  1
  9 11  1  0
  9 24  1  0
 10 42  1  0
 10 43  1  0
 10 44  1  0
 11 22  1  0
 11 12  1  0
 11 45  1  1
 12 13  1  0
 12 46  1  0
 12 47  1  0
 13 14  1  0
 13 48  1  0
 13 49  1  0
 14 22  1  0
 14 15  1  0
 14 50  1  1
 15 19  1  0
 15 16  2  0
 16 17  1  0
 16 51  1  0
 17 18  1  0
 18 19  2  0
 18 52  1  0
 19 20  1  0
 20 21  1  0
 20 53  1  0
 20 54  1  0
 21 22  1  0
 21 55  1  0
 21 56  1  0
 22 23  1  6
 23 57  1  0
 23 58  1  0
 23 59  1  0
 24 26  1  0
 24 25  1  0
 24 27  1  0
 25 26  1  0
 25 60  1  0
 25 61  1  0
 26 62  1  0
 26 63  1  0
 27 28  1  0
 27 64  1  1
 28 29  1  6
 29 65  1  0
 29 66  1  0
 29 67  1  0
M  END
>  <i_m_ct_stereo_status>  (237) 
1

>  <s_m_source_file>  (237) 
/var/tmp/pbs.5076255.sched01/tmpe6iyr0oq/80tt78e_gd.sdf

>  <i_m_source_file_index>  (237) 
19

>  <i_lp_mmshare_version>  (237) 
48012

>  <i_f3d_flags>  (237) 
0

>  <s_epik_input>  (237) 
W0NIMl0xW0NIMl1bQ0BASF0oW0NIM10pW0NAQF0yKFtDSDNdKUMxPVtDSF1bQ0BIXShbQ0BASF0yQzM0W0NIMl1bQ0gyXTQpW0NIMl1bQ0BAXTMoW0NIM10pW0NAQEhdNVtDSDJdW0NIMl1bQ0BASF0oW0NAXTU2W0NIM10pYzdjKFtDSDJdW0NIMl02KVtjSF1vW2NIXTc=

>  <s_epik_cmdline>  (237) 
J2VwaWtfcHl0aG9uJywgJy1waHQnLCAnMi4wJywgJy1waCcsICc3LjAnLCAnLXRuJywgJzgnLCAnLW1hJywgJzIwMCcsICctaW1hZScsICc8aW5maWxlLm1hZT4nLCAnLW9tYWUnLCAnPG91dGZpbGUubWFlPic=

>  <r_lp_tautomer_probability>  (237) 
1

>  <r_epik_Ionization_Penalty>  (237) 
0

>  <r_epik_Ionization_Penalty_Charging>  (237) 
0

>  <r_epik_Ionization_Penalty_Neutral>  (237) 
0

>  <r_epik_State_Penalty>  (237) 
-0

>  <r_epik_Charging_Adjusted_Penalty>  (237) 
0

>  <i_epik_Tot_Q>  (237) 
0

>  <i_epik_Tot_abs_Q>  (237) 
0

>  <s_lp_Force_Field>  (237) 
OPLS3e

>  <r_lp_Energy>  (237) 
52.767

>  <b_lp_Chiralities_Consistent>  (237) 
1

>  <s_lp_Variant>  (237) 
68:0-1

>  <s_i_glide_gridfile>  (237) 
pfpi4k_grid

>  <i_i_glide_lignum>  (237) 
19

>  <i_i_glide_rotatable_bonds>  (237) 
1

>  <r_i_docking_score>  (237) 
-2.97022

>  <r_i_glide_ligand_efficiency>  (237) 
-0.102421

>  <r_i_glide_ligand_efficiency_sa>  (237) 
-0.314671

>  <r_i_glide_ligand_efficiency_ln>  (237) 
-0.680105

>  <r_i_glide_gscore>  (237) 
-2.97022

>  <r_i_glide_lipo>  (237) 
-0.800171

>  <r_i_glide_hbond>  (237) 
0

>  <r_i_glide_metal>  (237) 
-0

>  <r_i_glide_rewards>  (237) 
-0.745904

>  <r_i_glide_evdw>  (237) 
-30.6807

>  <r_i_glide_ecoul>  (237) 
-0.119732

>  <r_i_glide_erotb>  (237) 
0.127851

>  <r_i_glide_esite>  (237) 
0

>  <r_i_glide_emodel>  (237) 
-30.9176

>  <r_i_glide_energy>  (237) 
-30.8004

>  <r_i_glide_einternal>  (237) 
4.10429

>  <r_i_glide_intrahb_reward>  (237) 
-0

>  <i_i_glide_confnum>  (237) 
2

>  <i_i_glide_posenum>  (237) 
39

>  <r_i_glide_eff_state_penalty>  (237) 
0

>  <ligand_id>  (237) 
68

>  <original_smiles>  (237) 
CC1CCC2=CC3CC(C)(C4CCC5c6cocc6CCC54C)C4(CC4)C3C21C

>  <smiles>  (237) 
[H]C1=C2C([H])([H])C([H])([H])C([H])(C([H])([H])[H])C2(C([H])([H])[H])C2([H])C1([H])C([H])([H])C(C([H])([H])[H])(C1([H])C([H])([H])C([H])([H])C3([H])c4c([H])oc([H])c4C([H])([H])C([H])([H])C31C([H])([H])[H])C21C([H])([H])C1([H])[H]

$$$$
68:0:1
     RDKit          3D

 67 73  0  0  1  0  0  0  0  0999 V2000
   -0.0155   -7.6030    3.2204 C   0  0  0  0  0  0  0  0  0  0  0  0
    1.4263   -7.9028    2.7671 C   0  0  2  0  0  0  0  0  0  0  0  0
    1.6991   -9.4128    2.5419 C   0  0  0  0  0  0  0  0  0  0  0  0
    3.0181   -9.7642    3.2471 C   0  0  0  0  0  0  0  0  0  0  0  0
    3.6268   -8.4107    3.4771 C   0  0  0  0  0  0  0  0  0  0  0  0
    4.8951   -7.8950    3.4081 C   0  0  0  0  0  0  0  0  0  0  0  0
    4.7920   -6.4118    3.7037 C   0  0  1  0  0  0  0  0  0  0  0  0
    5.4839   -5.2272    3.0040 C   0  0  0  0  0  0  0  0  0  0  0  0
    4.4876   -4.0043    3.2159 C   0  0  1  0  0  0  0  0  0  0  0  0
    4.8791   -3.3484    4.5641 C   0  0  0  0  0  0  0  0  0  0  0  0
    4.5878   -2.9069    2.0612 C   0  0  2  0  0  0  0  0  0  0  0  0
    3.7431   -1.5974    2.2861 C   0  0  0  0  0  0  0  0  0  0  0  0
    3.2692   -1.1196    0.8991 C   0  0  0  0  0  0  0  0  0  0  0  0
    4.2341   -1.8374   -0.0360 C   0  0  2  0  0  0  0  0  0  0  0  0
    3.9816   -1.8861   -1.5344 C   0  0  0  0  0  0  0  0  0  0  0  0
    3.2821   -1.1332   -2.4300 C   0  0  0  0  0  0  0  0  0  0  0  0
    3.4173   -1.6020   -3.7013 O   0  0  0  0  0  0  0  0  0  0  0  0
    4.2107   -2.6978   -3.5984 C   0  0  0  0  0  0  0  0  0  0  0  0
    4.5850   -2.9177   -2.3190 C   0  0  0  0  0  0  0  0  0  0  0  0
    5.4193   -4.0238   -1.7130 C   0  0  0  0  0  0  0  0  0  0  0  0
    5.6586   -3.8505   -0.1940 C   0  0  0  0  0  0  0  0  0  0  0  0
    4.4061   -3.2576    0.5396 C   0  0  1  0  0  0  0  0  0  0  0  0
    3.1404   -4.1483    0.2515 C   0  0  0  0  0  0  0  0  0  0  0  0
    3.0775   -4.6921    3.3799 C   0  0  0  0  0  0  0  0  0  0  0  0
    1.9991   -4.2388    4.3408 C   0  0  0  0  0  0  0  0  0  0  0  0
    1.8013   -4.1109    2.8833 C   0  0  0  0  0  0  0  0  0  0  0  0
    3.3699   -6.1770    3.1838 C   0  0  2  0  0  0  0  0  0  0  0  0
    2.5506   -7.3867    3.7084 C   0  0  1  0  0  0  0  0  0  0  0  0
    2.2094   -7.3801    5.2168 C   0  0  0  0  0  0  0  0  0  0  0  0
   -0.2572   -8.1153    4.1531 H   0  0  0  0  0  0  0  0  0  0  0  0
   -0.7394   -7.9284    2.4745 H   0  0  0  0  0  0  0  0  0  0  0  0
   -0.1646   -6.5329    3.3826 H   0  0  0  0  0  0  0  0  0  0  0  0
    1.5292   -7.4323    1.7878 H   0  0  0  0  0  0  0  0  0  0  0  0
    0.8830  -10.0410    2.9013 H   0  0  0  0  0  0  0  0  0  0  0  0
    1.7978   -9.6159    1.4755 H   0  0  0  0  0  0  0  0  0  0  0  0
    2.7975  -10.1899    4.2233 H   0  0  0  0  0  0  0  0  0  0  0  0
    3.6542  -10.4586    2.7040 H   0  0  0  0  0  0  0  0  0  0  0  0
    5.7827   -8.4217    3.1749 H   0  0  0  0  0  0  0  0  0  0  0  0
    4.8677   -6.2818    4.7872 H   0  0  0  0  0  0  0  0  0  0  0  0
    6.4743   -5.0580    3.4271 H   0  0  0  0  0  0  0  0  0  0  0  0
    5.6332   -5.4904    1.9526 H   0  0  0  0  0  0  0  0  0  0  0  0
    4.3357   -2.4263    4.7563 H   0  0  0  0  0  0  0  0  0  0  0  0
    5.9313   -3.0901    4.6026 H   0  0  0  0  0  0  0  0  0  0  0  0
    4.6894   -4.0059    5.4167 H   0  0  0  0  0  0  0  0  0  0  0  0
    5.6142   -2.5510    2.1515 H   0  0  0  0  0  0  0  0  0  0  0  0
    2.8980   -1.7381    2.9463 H   0  0  0  0  0  0  0  0  0  0  0  0
    4.3854   -0.8075    2.7220 H   0  0  0  0  0  0  0  0  0  0  0  0
    2.2445   -1.4372    0.7297 H   0  0  0  0  0  0  0  0  0  0  0  0
    3.3006   -0.0338    0.7683 H   0  0  0  0  0  0  0  0  0  0  0  0
    5.1758   -1.2938    0.0375 H   0  0  0  0  0  0  0  0  0  0  0  0
    2.6449   -0.2576   -2.3263 H   0  0  0  0  0  0  0  0  0  0  0  0
    4.4145   -3.2224   -4.5330 H   0  0  0  0  0  0  0  0  0  0  0  0
    4.8991   -4.9699   -1.8783 H   0  0  0  0  0  0  0  0  0  0  0  0
    6.3544   -4.0591   -2.2661 H   0  0  0  0  0  0  0  0  0  0  0  0
    5.9798   -4.8274    0.1706 H   0  0  0  0  0  0  0  0  0  0  0  0
    6.5105   -3.1767   -0.0520 H   0  0  0  0  0  0  0  0  0  0  0  0
    2.9526   -4.2382   -0.8447 H   0  0  0  0  0  0  0  0  0  0  0  0
    2.2605   -3.7352    0.7449 H   0  0  0  0  0  0  0  0  0  0  0  0
    3.3402   -5.1763    0.5771 H   0  0  0  0  0  0  0  0  0  0  0  0
    1.3307   -4.9516    4.8564 H   0  0  0  0  0  0  0  0  0  0  0  0
    2.1798   -3.3326    4.9327 H   0  0  0  0  0  0  0  0  0  0  0  0
    1.7198   -3.0806    2.5068 H   0  0  0  0  0  0  0  0  0  0  0  0
    1.1293   -4.8386    2.3897 H   0  0  0  0  0  0  0  0  0  0  0  0
    3.4183   -6.2956    2.0882 H   0  0  0  0  0  0  0  0  0  0  0  0
    1.2813   -6.8641    5.4453 H   0  0  0  0  0  0  0  0  0  0  0  0
    3.0005   -6.9043    5.7943 H   0  0  0  0  0  0  0  0  0  0  0  0
    2.1065   -8.4022    5.5963 H   0  0  0  0  0  0  0  0  0  0  0  0
  1  2  1  0
  1 30  1  0
  1 31  1  0
  1 32  1  0
  2 28  1  0
  2  3  1  0
  2 33  1  6
  3  4  1  0
  3 34  1  0
  3 35  1  0
  4  5  1  0
  4 36  1  0
  4 37  1  0
  5 28  1  0
  5  6  2  0
  6  7  1  0
  6 38  1  0
  7 27  1  0
  7  8  1  0
  7 39  1  1
  8  9  1  0
  8 40  1  0
  8 41  1  0
  9 10  1  1
  9 11  1  0
  9 24  1  0
 10 42  1  0
 10 43  1  0
 10 44  1  0
 11 22  1  0
 11 12  1  0
 11 45  1  6
 12 13  1  0
 12 46  1  0
 12 47  1  0
 13 14  1  0
 13 48  1  0
 13 49  1  0
 14 22  1  0
 14 15  1  0
 14 50  1  6
 15 19  1  0
 15 16  2  0
 16 17  1  0
 16 51  1  0
 17 18  1  0
 18 19  2  0
 18 52  1  0
 19 20  1  0
 20 21  1  0
 20 53  1  0
 20 54  1  0
 21 22  1  0
 21 55  1  0
 21 56  1  0
 22 23  1  1
 23 57  1  0
 23 58  1  0
 23 59  1  0
 24 26  1  0
 24 25  1  0
 24 27  1  0
 25 26  1  0
 25 60  1  0
 25 61  1  0
 26 62  1  0
 26 63  1  0
 27 28  1  0
 27 64  1  6
 28 29  1  1
 29 65  1  0
 29 66  1  0
 29 67  1  0
M  END
>  <i_m_ct_stereo_status>  (238) 
1

>  <s_m_source_file>  (238) 
/var/tmp/pbs.5076255.sched01/tmpe6iyr0oq/80tt78e_gd.sdf

>  <i_m_source_file_index>  (238) 
19

>  <i_lp_mmshare_version>  (238) 
48012

>  <i_f3d_flags>  (238) 
0

>  <s_epik_input>  (238) 
W0NIMl0xW0NIMl1bQ0BASF0oW0NIM10pW0NAQF0yKFtDSDNdKUMxPVtDSF1bQ0BIXShbQ0BASF0yQzM0W0NIMl1bQ0gyXTQpW0NIMl1bQ0BAXTMoW0NIM10pW0NAQEhdNVtDSDJdW0NIMl1bQ0BASF0oW0NAXTU2W0NIM10pYzdjKFtDSDJdW0NIMl02KVtjSF1vW2NIXTc=

>  <s_epik_cmdline>  (238) 
J2VwaWtfcHl0aG9uJywgJy1waHQnLCAnMi4wJywgJy1waCcsICc3LjAnLCAnLXRuJywgJzgnLCAnLW1hJywgJzIwMCcsICctaW1hZScsICc8aW5maWxlLm1hZT4nLCAnLW9tYWUnLCAnPG91dGZpbGUubWFlPic=

>  <r_lp_tautomer_probability>  (238) 
1

>  <r_epik_Ionization_Penalty>  (238) 
0

>  <r_epik_Ionization_Penalty_Charging>  (238) 
0

>  <r_epik_Ionization_Penalty_Neutral>  (238) 
0

>  <r_epik_State_Penalty>  (238) 
-0

>  <r_epik_Charging_Adjusted_Penalty>  (238) 
0

>  <i_epik_Tot_Q>  (238) 
0

>  <i_epik_Tot_abs_Q>  (238) 
0

>  <s_lp_Force_Field>  (238) 
OPLS3e

>  <r_lp_Energy>  (238) 
52.767

>  <b_lp_Chiralities_Consistent>  (238) 
1

>  <s_lp_Variant>  (238) 
68:0-1

>  <s_i_glide_gridfile>  (238) 
pfpi4k_grid

>  <i_i_glide_lignum>  (238) 
19

>  <i_i_glide_rotatable_bonds>  (238) 
1

>  <r_i_docking_score>  (238) 
-2.37653

>  <r_i_glide_ligand_efficiency>  (238) 
-0.0819495

>  <r_i_glide_ligand_efficiency_sa>  (238) 
-0.251775

>  <r_i_glide_ligand_efficiency_ln>  (238) 
-0.544166

>  <r_i_glide_gscore>  (238) 
-2.37653

>  <r_i_glide_lipo>  (238) 
-0.453855

>  <r_i_glide_hbond>  (238) 
0

>  <r_i_glide_metal>  (238) 
-0

>  <r_i_glide_rewards>  (238) 
-0.745904

>  <r_i_glide_evdw>  (238) 
-26.8368

>  <r_i_glide_ecoul>  (238) 
0.248098

>  <r_i_glide_erotb>  (238) 
0.127851

>  <r_i_glide_esite>  (238) 
0

>  <r_i_glide_emodel>  (238) 
-25.4026

>  <r_i_glide_energy>  (238) 
-26.5887

>  <r_i_glide_einternal>  (238) 
4.09715

>  <r_i_glide_intrahb_reward>  (238) 
-0

>  <i_i_glide_confnum>  (238) 
2

>  <i_i_glide_posenum>  (238) 
29

>  <r_i_glide_eff_state_penalty>  (238) 
0

>  <ligand_id>  (238) 
68

>  <original_smiles>  (238) 
CC1CCC2=CC3CC(C)(C4CCC5c6cocc6CCC54C)C4(CC4)C3C21C

>  <smiles>  (238) 
[H]C1=C2C([H])([H])C([H])([H])C([H])(C([H])([H])[H])C2(C([H])([H])[H])C2([H])C1([H])C([H])([H])C(C([H])([H])[H])(C1([H])C([H])([H])C([H])([H])C3([H])c4c([H])oc([H])c4C([H])([H])C([H])([H])C31C([H])([H])[H])C21C([H])([H])C1([H])[H]

$$$$
68:0:2
     RDKit          3D

 67 73  0  0  1  0  0  0  0  0999 V2000
   -1.3596   -7.0980    4.2387 C   0  0  0  0  0  0  0  0  0  0  0  0
   -0.2789   -7.7482    3.3984 C   0  0  2  0  0  0  0  0  0  0  0  0
   -0.8201   -9.0073    2.6378 C   0  0  0  0  0  0  0  0  0  0  0  0
    0.2039  -10.1383    2.8515 C   0  0  0  0  0  0  0  0  0  0  0  0
    1.4125   -9.4233    3.3706 C   0  0  0  0  0  0  0  0  0  0  0  0
    2.7441   -9.5289    3.1644 C   0  0  0  0  0  0  0  0  0  0  0  0
    3.4130   -8.4179    3.9730 C   0  0  1  0  0  0  0  0  0  0  0  0
    4.5742   -7.4834    3.4995 C   0  0  0  0  0  0  0  0  0  0  0  0
    4.2984   -6.1376    4.3373 C   0  0  1  0  0  0  0  0  0  0  0  0
    5.0611   -6.3295    5.6952 C   0  0  0  0  0  0  0  0  0  0  0  0
    4.8939   -4.8402    3.6155 C   0  0  2  0  0  0  0  0  0  0  0  0
    4.8606   -3.5065    4.4538 C   0  0  0  0  0  0  0  0  0  0  0  0
    4.5926   -2.3624    3.4573 C   0  0  0  0  0  0  0  0  0  0  0  0
    5.0171   -2.9869    2.1271 C   0  0  2  0  0  0  0  0  0  0  0  0
    4.6951   -2.3377    0.8020 C   0  0  0  0  0  0  0  0  0  0  0  0
    4.4048   -1.0333    0.4419 C   0  0  0  0  0  0  0  0  0  0  0  0
    4.2194   -0.9611   -0.9219 O   0  0  0  0  0  0  0  0  0  0  0  0
    4.3739   -2.2267   -1.4149 C   0  0  0  0  0  0  0  0  0  0  0  0
    4.6697   -3.0983   -0.3781 C   0  0  0  0  0  0  0  0  0  0  0  0
    4.8604   -4.6016   -0.4208 C   0  0  0  0  0  0  0  0  0  0  0  0
    5.2366   -5.1822    0.9805 C   0  0  0  0  0  0  0  0  0  0  0  0
    4.4824   -4.4404    2.1510 C   0  0  1  0  0  0  0  0  0  0  0  0
    2.9310   -4.4588    1.8589 C   0  0  0  0  0  0  0  0  0  0  0  0
    2.7748   -6.1619    4.6018 C   0  0  0  0  0  0  0  0  0  0  0  0
    2.1015   -5.6873    5.9229 C   0  0  0  0  0  0  0  0  0  0  0  0
    1.8922   -4.9038    4.6620 C   0  0  0  0  0  0  0  0  0  0  0  0
    2.2963   -7.3939    3.8828 C   0  0  2  0  0  0  0  0  0  0  0  0
    0.9928   -8.2147    4.1537 C   0  0  1  0  0  0  0  0  0  0  0  0
    0.7503   -8.6797    5.6202 C   0  0  0  0  0  0  0  0  0  0  0  0
   -1.7794   -7.7628    4.9557 H   0  0  0  0  0  0  0  0  0  0  0  0
   -2.1814   -6.7100    3.6210 H   0  0  0  0  0  0  0  0  0  0  0  0
   -0.9508   -6.2120    4.7802 H   0  0  0  0  0  0  0  0  0  0  0  0
    0.0031   -7.0386    2.6241 H   0  0  0  0  0  0  0  0  0  0  0  0
   -1.8026   -9.2992    2.9692 H   0  0  0  0  0  0  0  0  0  0  0  0
   -0.8961   -8.7634    1.5870 H   0  0  0  0  0  0  0  0  0  0  0  0
   -0.1414  -10.7812    3.6723 H   0  0  0  0  0  0  0  0  0  0  0  0
    0.3827  -10.7592    1.9853 H   0  0  0  0  0  0  0  0  0  0  0  0
    3.2548  -10.2545    2.5515 H   0  0  0  0  0  0  0  0  0  0  0  0
    3.5975   -8.7834    4.9666 H   0  0  0  0  0  0  0  0  0  0  0  0
    5.5343   -7.9336    3.7295 H   0  0  0  0  0  0  0  0  0  0  0  0
    4.4987   -7.3690    2.4537 H   0  0  0  0  0  0  0  0  0  0  0  0
    5.0564   -5.4292    6.2973 H   0  0  0  0  0  0  0  0  0  0  0  0
    6.1029   -6.5976    5.5408 H   0  0  0  0  0  0  0  0  0  0  0  0
    4.6144   -7.1186    6.3008 H   0  0  0  0  0  0  0  0  0  0  0  0
    5.9594   -5.0606    3.5692 H   0  0  0  0  0  0  0  0  0  0  0  0
    4.1269   -3.5031    5.2682 H   0  0  0  0  0  0  0  0  0  0  0  0
    5.8455   -3.3402    4.9127 H   0  0  0  0  0  0  0  0  0  0  0  0
    3.5358   -2.0907    3.4377 H   0  0  0  0  0  0  0  0  0  0  0  0
    5.1510   -1.4497    3.6739 H   0  0  0  0  0  0  0  0  0  0  0  0
    6.1153   -2.9946    2.1471 H   0  0  0  0  0  0  0  0  0  0  0  0
    4.3131   -0.1168    0.9676 H   0  0  0  0  0  0  0  0  0  0  0  0
    4.2331   -2.3514   -2.4593 H   0  0  0  0  0  0  0  0  0  0  0  0
    3.9095   -5.0505   -0.7257 H   0  0  0  0  0  0  0  0  0  0  0  0
    5.6050   -4.8751   -1.1676 H   0  0  0  0  0  0  0  0  0  0  0  0
    5.0491   -6.2407    0.9054 H   0  0  0  0  0  0  0  0  0  0  0  0
    6.3222   -5.0599    1.1146 H   0  0  0  0  0  0  0  0  0  0  0  0
    2.7128   -4.0367    0.8677 H   0  0  0  0  0  0  0  0  0  0  0  0
    2.3918   -3.8911    2.6263 H   0  0  0  0  0  0  0  0  0  0  0  0
    2.6141   -5.4861    1.7963 H   0  0  0  0  0  0  0  0  0  0  0  0
    1.2044   -6.1483    6.3306 H   0  0  0  0  0  0  0  0  0  0  0  0
    2.7471   -5.2772    6.6705 H   0  0  0  0  0  0  0  0  0  0  0  0
    2.2704   -3.8979    4.7091 H   0  0  0  0  0  0  0  0  0  0  0  0
    0.9311   -5.0328    4.1541 H   0  0  0  0  0  0  0  0  0  0  0  0
    2.2120   -7.1052    2.8445 H   0  0  0  0  0  0  0  0  0  0  0  0
    0.2108   -7.9419    6.2225 H   0  0  0  0  0  0  0  0  0  0  0  0
    1.7138   -8.8621    6.1224 H   0  0  0  0  0  0  0  0  0  0  0  0
    0.1923   -9.6062    5.6495 H   0  0  0  0  0  0  0  0  0  0  0  0
  1  2  1  0
  1 30  1  0
  1 31  1  0
  1 32  1  0
  2 28  1  0
  2  3  1  0
  2 33  1  6
  3  4  1  0
  3 34  1  0
  3 35  1  0
  4  5  1  0
  4 36  1  0
  4 37  1  0
  5 28  1  0
  5  6  2  0
  6  7  1  0
  6 38  1  0
  7 27  1  0
  7  8  1  0
  7 39  1  1
  8  9  1  0
  8 40  1  0
  8 41  1  0
  9 10  1  1
  9 11  1  0
  9 24  1  0
 10 42  1  0
 10 43  1  0
 10 44  1  0
 11 22  1  0
 11 12  1  0
 11 45  1  6
 12 13  1  0
 12 46  1  0
 12 47  1  0
 13 14  1  0
 13 48  1  0
 13 49  1  0
 14 22  1  0
 14 15  1  0
 14 50  1  1
 15 19  1  0
 15 16  2  0
 16 17  1  0
 16 51  1  0
 17 18  1  0
 18 19  2  0
 18 52  1  0
 19 20  1  0
 20 21  1  0
 20 53  1  0
 20 54  1  0
 21 22  1  0
 21 55  1  0
 21 56  1  0
 22 23  1  1
 23 57  1  0
 23 58  1  0
 23 59  1  0
 24 26  1  0
 24 25  1  0
 24 27  1  0
 25 26  1  0
 25 60  1  0
 25 61  1  0
 26 62  1  0
 26 63  1  0
 27 28  1  0
 27 64  1  6
 28 29  1  1
 29 65  1  0
 29 66  1  0
 29 67  1  0
M  END
>  <i_m_ct_stereo_status>  (239) 
1

>  <s_m_source_file>  (239) 
/var/tmp/pbs.5076255.sched01/tmpe6iyr0oq/80tt78e_gd.sdf

>  <i_m_source_file_index>  (239) 
19

>  <i_lp_mmshare_version>  (239) 
48012

>  <i_f3d_flags>  (239) 
0

>  <s_epik_input>  (239) 
W0NIMl0xW0NIMl1bQ0BASF0oW0NIM10pW0NAQF0yKFtDSDNdKUMxPVtDSF1bQ0BIXShbQ0BASF0yQzM0W0NIMl1bQ0gyXTQpW0NIMl1bQ0BAXTMoW0NIM10pW0NAQEhdNVtDSDJdW0NIMl1bQ0BASF0oW0NAXTU2W0NIM10pYzdjKFtDSDJdW0NIMl02KVtjSF1vW2NIXTc=

>  <s_epik_cmdline>  (239) 
J2VwaWtfcHl0aG9uJywgJy1waHQnLCAnMi4wJywgJy1waCcsICc3LjAnLCAnLXRuJywgJzgnLCAnLW1hJywgJzIwMCcsICctaW1hZScsICc8aW5maWxlLm1hZT4nLCAnLW9tYWUnLCAnPG91dGZpbGUubWFlPic=

>  <r_lp_tautomer_probability>  (239) 
1

>  <r_epik_Ionization_Penalty>  (239) 
0

>  <r_epik_Ionization_Penalty_Charging>  (239) 
0

>  <r_epik_Ionization_Penalty_Neutral>  (239) 
0

>  <r_epik_State_Penalty>  (239) 
-0

>  <r_epik_Charging_Adjusted_Penalty>  (239) 
0

>  <i_epik_Tot_Q>  (239) 
0

>  <i_epik_Tot_abs_Q>  (239) 
0

>  <s_lp_Force_Field>  (239) 
OPLS3e

>  <r_lp_Energy>  (239) 
52.767

>  <b_lp_Chiralities_Consistent>  (239) 
1

>  <s_lp_Variant>  (239) 
68:0-1

>  <s_i_glide_gridfile>  (239) 
pfpi4k_grid

>  <i_i_glide_lignum>  (239) 
19

>  <i_i_glide_rotatable_bonds>  (239) 
1

>  <r_i_docking_score>  (239) 
-2.33433

>  <r_i_glide_ligand_efficiency>  (239) 
-0.0804941

>  <r_i_glide_ligand_efficiency_sa>  (239) 
-0.247303

>  <r_i_glide_ligand_efficiency_ln>  (239) 
-0.534502

>  <r_i_glide_gscore>  (239) 
-2.33433

>  <r_i_glide_lipo>  (239) 
-0.307179

>  <r_i_glide_hbond>  (239) 
0

>  <r_i_glide_metal>  (239) 
-0

>  <r_i_glide_rewards>  (239) 
-0.745904

>  <r_i_glide_evdw>  (239) 
-28.0307

>  <r_i_glide_ecoul>  (239) 
-0.0503943

>  <r_i_glide_erotb>  (239) 
0.127851

>  <r_i_glide_esite>  (239) 
0

>  <r_i_glide_emodel>  (239) 
-28.1822

>  <r_i_glide_energy>  (239) 
-28.0811

>  <r_i_glide_einternal>  (239) 
4.13474

>  <r_i_glide_intrahb_reward>  (239) 
-0

>  <i_i_glide_confnum>  (239) 
3

>  <i_i_glide_posenum>  (239) 
38

>  <r_i_glide_eff_state_penalty>  (239) 
0

>  <ligand_id>  (239) 
68

>  <original_smiles>  (239) 
CC1CCC2=CC3CC(C)(C4CCC5c6cocc6CCC54C)C4(CC4)C3C21C

>  <smiles>  (239) 
[H]C1=C2C([H])([H])C([H])([H])C([H])(C([H])([H])[H])C2(C([H])([H])[H])C2([H])C1([H])C([H])([H])C(C([H])([H])[H])(C1([H])C([H])([H])C([H])([H])C3([H])c4c([H])oc([H])c4C([H])([H])C([H])([H])C31C([H])([H])[H])C21C([H])([H])C1([H])[H]

$$$$
69:0:0
     RDKit          3D

 29 31  0  0  1  0  0  0  0  0999 V2000
    2.6150   -2.6562   -1.7970 N   0  0  0  0  0  0  0  0  0  0  0  0
    3.6766   -2.6290   -0.7743 C   0  0  2  0  0  0  0  0  0  0  0  0
    4.1782   -1.1755   -0.5841 C   0  0  0  0  0  0  0  0  0  0  0  0
    5.2884   -1.1333    0.4794 C   0  0  1  0  0  0  0  0  0  0  0  0
    4.7289   -1.6470    1.8194 C   0  0  0  0  0  0  0  0  0  0  0  0
    4.2399   -3.0981    1.6480 C   0  0  2  0  0  0  0  0  0  0  0  0
    5.4168   -3.9910    1.2024 C   0  0  0  0  0  0  0  0  0  0  0  0
    5.9678   -3.4757   -0.1407 C   0  0  2  0  0  0  0  0  0  0  0  0
    6.4583   -2.0253    0.0245 C   0  0  0  0  0  0  0  0  0  0  0  0
    4.8584   -3.5226   -1.2111 C   0  0  0  0  0  0  0  0  0  0  0  0
    3.1254   -3.1439    0.5806 C   0  0  0  0  0  0  0  0  0  0  0  0
    1.8628   -2.0310   -1.4822 H   0  0  0  0  0  0  0  0  0  0  0  0
    2.2679   -3.5975   -1.9233 H   0  0  0  0  0  0  0  0  0  0  0  0
    4.5445   -0.7568   -1.5248 H   0  0  0  0  0  0  0  0  0  0  0  0
    3.3503   -0.5460   -0.2591 H   0  0  0  0  0  0  0  0  0  0  0  0
    5.6346   -0.1051    0.5994 H   0  0  0  0  0  0  0  0  0  0  0  0
    5.4950   -1.6002    2.5946 H   0  0  0  0  0  0  0  0  0  0  0  0
    3.9047   -1.0081    2.1511 H   0  0  0  0  0  0  0  0  0  0  0  0
    3.8558   -3.4613    2.6016 H   0  0  0  0  0  0  0  0  0  0  0  0
    6.2025   -3.9779    1.9594 H   0  0  0  0  0  0  0  0  0  0  0  0
    5.0899   -5.0283    1.1049 H   0  0  0  0  0  0  0  0  0  0  0  0
    6.7984   -4.1059   -0.4563 H   0  0  0  0  0  0  0  0  0  0  0  0
    6.8506   -1.6731   -0.9278 H   0  0  0  0  0  0  0  0  0  0  0  0
    7.2718   -1.9724    0.7484 H   0  0  0  0  0  0  0  0  0  0  0  0
    4.5278   -4.5554   -1.3529 H   0  0  0  0  0  0  0  0  0  0  0  0
    5.2549   -3.1939   -2.1753 H   0  0  0  0  0  0  0  0  0  0  0  0
    2.2751   -2.5405    0.9065 H   0  0  0  0  0  0  0  0  0  0  0  0
    2.7519   -4.1648    0.4806 H   0  0  0  0  0  0  0  0  0  0  0  0
    2.9674   -2.3090   -2.6729 H   0  0  0  0  0  0  0  0  0  0  0  0
  2  1  1  6
  1 12  1  0
  1 13  1  0
  1 29  1  0
  2 10  1  0
  2 11  1  0
  2  3  1  0
  3  4  1  0
  3 14  1  0
  3 15  1  0
  4  9  1  0
  4  5  1  0
  4 16  1  1
  5  6  1  0
  5 17  1  0
  5 18  1  0
  6  7  1  0
  6 11  1  0
  6 19  1  1
  7  8  1  0
  7 20  1  0
  7 21  1  0
  8  9  1  0
  8 10  1  0
  8 22  1  6
  9 23  1  0
  9 24  1  0
 10 25  1  0
 10 26  1  0
 11 27  1  0
 11 28  1  0
M  CHG  1   1   1
M  END
>  <i_m_ct_stereo_status>  (240) 
1

>  <s_m_source_file>  (240) 
/var/tmp/pbs.5076255.sched01/tmpe6iyr0oq/80tt78e_gd.sdf

>  <i_m_source_file_index>  (240) 
20

>  <i_lp_mmshare_version>  (240) 
48012

>  <i_f3d_flags>  (240) 
0

>  <s_epik_input>  (240) 
W05IMl1DMTJbQ0gyXVtDQEhdM1tDSDJdW0NAQEhdKFtDSDJdMilbQ0gyXVtDQEhdKFtDSDJdMylbQ0gyXTE=

>  <s_epik_cmdline>  (240) 
J2VwaWtfcHl0aG9uJywgJy1waHQnLCAnMi4wJywgJy1waCcsICc3LjAnLCAnLXRuJywgJzgnLCAnLW1hJywgJzIwMCcsICctaW1hZScsICc8aW5maWxlLm1hZT4nLCAnLW9tYWUnLCAnPG91dGZpbGUubWFlPic=

>  <r_lp_tautomer_probability>  (240) 
1

>  <r_epik_Ionization_Penalty>  (240) 
7.35582e-05

>  <r_epik_Ionization_Penalty_Charging>  (240) 
7.35582e-05

>  <r_epik_Ionization_Penalty_Neutral>  (240) 
0

>  <r_epik_State_Penalty>  (240) 
-0

>  <r_epik_Charging_Adjusted_Penalty>  (240) 
7.35582e-05

>  <i_epik_Tot_Q>  (240) 
1

>  <i_epik_Tot_abs_Q>  (240) 
1

>  <s_lp_Force_Field>  (240) 
OPLS3e

>  <r_lp_Energy>  (240) 
5.13466

>  <b_lp_Chiralities_Consistent>  (240) 
1

>  <s_lp_Variant>  (240) 
69:0-1

>  <s_i_glide_gridfile>  (240) 
pfpi4k_grid

>  <i_i_glide_lignum>  (240) 
20

>  <i_i_glide_rotatable_bonds>  (240) 
0

>  <r_i_docking_score>  (240) 
-4.43248

>  <r_i_glide_ligand_efficiency>  (240) 
-0.402953

>  <r_i_glide_ligand_efficiency_sa>  (240) 
-0.89616

>  <r_i_glide_ligand_efficiency_ln>  (240) 
-1.30448

>  <r_i_glide_gscore>  (240) 
-4.43248

>  <r_i_glide_lipo>  (240) 
-0.309512

>  <r_i_glide_hbond>  (240) 
-0.2

>  <r_i_glide_metal>  (240) 
-0

>  <r_i_glide_rewards>  (240) 
-2.25

>  <r_i_glide_evdw>  (240) 
-12.9903

>  <r_i_glide_ecoul>  (240) 
-6.5155

>  <r_i_glide_erotb>  (240) 
0

>  <r_i_glide_esite>  (240) 
-0.0461349

>  <r_i_glide_emodel>  (240) 
-26.5413

>  <r_i_glide_energy>  (240) 
-19.5058

>  <r_i_glide_einternal>  (240) 
0

>  <r_i_glide_intrahb_reward>  (240) 
-0

>  <i_i_glide_confnum>  (240) 
1

>  <i_i_glide_posenum>  (240) 
9

>  <r_i_glide_eff_state_penalty>  (240) 
0

>  <ligand_id>  (240) 
69

>  <original_smiles>  (240) 
NC12CC3CC(CC(C3)C1)C2

>  <smiles>  (240) 
[H]C1([H])C2([H])C([H])([H])C3([H])C([H])([H])C1([H])C([H])([H])C([N+]([H])([H])[H])(C2([H])[H])C3([H])[H]

$$$$
69:0:1
     RDKit          3D

 29 31  0  0  1  0  0  0  0  0999 V2000
    2.2144   -2.6526   -2.3473 N   0  0  0  0  0  0  0  0  0  0  0  0
    3.4220   -2.7281   -1.5194 C   0  0  2  0  0  0  0  0  0  0  0  0
    3.8217   -1.3101   -1.0435 C   0  0  0  0  0  0  0  0  0  0  0  0
    5.0886   -1.3903   -0.1730 C   0  0  1  0  0  0  0  0  0  0  0  0
    4.8037   -2.2663    1.0629 C   0  0  0  0  0  0  0  0  0  0  0  0
    4.4154   -3.6874    0.5998 C   0  0  2  0  0  0  0  0  0  0  0  0
    5.5679   -4.3023   -0.2235 C   0  0  0  0  0  0  0  0  0  0  0  0
    5.8414   -3.4171   -1.4559 C   0  0  2  0  0  0  0  0  0  0  0  0
    6.2265   -2.0094   -1.0009 C   0  0  0  0  0  0  0  0  0  0  0  0
    4.5843   -3.3275   -2.3385 C   0  0  0  0  0  0  0  0  0  0  0  0
    3.1468   -3.6137   -0.2790 C   0  0  0  0  0  0  0  0  0  0  0  0
    1.4990   -2.1652   -1.7940 H   0  0  0  0  0  0  0  0  0  0  0  0
    1.9062   -3.5781   -2.6263 H   0  0  0  0  0  0  0  0  0  0  0  0
    4.0041   -0.6561   -1.8982 H   0  0  0  0  0  0  0  0  0  0  0  0
    3.0130   -0.8523   -0.4673 H   0  0  0  0  0  0  0  0  0  0  0  0
    5.3692   -0.3854    0.1482 H   0  0  0  0  0  0  0  0  0  0  0  0
    5.6808   -2.3121    1.7097 H   0  0  0  0  0  0  0  0  0  0  0  0
    3.9959   -1.8284    1.6539 H   0  0  0  0  0  0  0  0  0  0  0  0
    4.2248   -4.3116    1.4755 H   0  0  0  0  0  0  0  0  0  0  0  0
    6.4665   -4.3789    0.3935 H   0  0  0  0  0  0  0  0  0  0  0  0
    5.3133   -5.3185   -0.5337 H   0  0  0  0  0  0  0  0  0  0  0  0
    6.6549   -3.8380   -2.0462 H   0  0  0  0  0  0  0  0  0  0  0  0
    6.4015   -1.4193   -1.8969 H   0  0  0  0  0  0  0  0  0  0  0  0
    7.1519   -2.0284   -0.4208 H   0  0  0  0  0  0  0  0  0  0  0  0
    4.3267   -4.3188   -2.7024 H   0  0  0  0  0  0  0  0  0  0  0  0
    4.7886   -2.7258   -3.2250 H   0  0  0  0  0  0  0  0  0  0  0  0
    2.3206   -3.2092    0.3060 H   0  0  0  0  0  0  0  0  0  0  0  0
    2.8494   -4.6201   -0.5806 H   0  0  0  0  0  0  0  0  0  0  0  0
    2.3989   -2.0952   -3.1675 H   0  0  0  0  0  0  0  0  0  0  0  0
  2  1  1  6
  1 12  1  0
  1 13  1  0
  1 29  1  0
  2 10  1  0
  2 11  1  0
  2  3  1  0
  3  4  1  0
  3 14  1  0
  3 15  1  0
  4  9  1  0
  4  5  1  0
  4 16  1  1
  5  6  1  0
  5 17  1  0
  5 18  1  0
  6  7  1  0
  6 11  1  0
  6 19  1  1
  7  8  1  0
  7 20  1  0
  7 21  1  0
  8  9  1  0
  8 10  1  0
  8 22  1  6
  9 23  1  0
  9 24  1  0
 10 25  1  0
 10 26  1  0
 11 27  1  0
 11 28  1  0
M  CHG  1   1   1
M  END
>  <i_m_ct_stereo_status>  (241) 
1

>  <s_m_source_file>  (241) 
/var/tmp/pbs.5076255.sched01/tmpe6iyr0oq/80tt78e_gd.sdf

>  <i_m_source_file_index>  (241) 
20

>  <i_lp_mmshare_version>  (241) 
48012

>  <i_f3d_flags>  (241) 
0

>  <s_epik_input>  (241) 
W05IMl1DMTJbQ0gyXVtDQEhdM1tDSDJdW0NAQEhdKFtDSDJdMilbQ0gyXVtDQEhdKFtDSDJdMylbQ0gyXTE=

>  <s_epik_cmdline>  (241) 
J2VwaWtfcHl0aG9uJywgJy1waHQnLCAnMi4wJywgJy1waCcsICc3LjAnLCAnLXRuJywgJzgnLCAnLW1hJywgJzIwMCcsICctaW1hZScsICc8aW5maWxlLm1hZT4nLCAnLW9tYWUnLCAnPG91dGZpbGUubWFlPic=

>  <r_lp_tautomer_probability>  (241) 
1

>  <r_epik_Ionization_Penalty>  (241) 
7.35582e-05

>  <r_epik_Ionization_Penalty_Charging>  (241) 
7.35582e-05

>  <r_epik_Ionization_Penalty_Neutral>  (241) 
0

>  <r_epik_State_Penalty>  (241) 
-0

>  <r_epik_Charging_Adjusted_Penalty>  (241) 
7.35582e-05

>  <i_epik_Tot_Q>  (241) 
1

>  <i_epik_Tot_abs_Q>  (241) 
1

>  <s_lp_Force_Field>  (241) 
OPLS3e

>  <r_lp_Energy>  (241) 
5.13466

>  <b_lp_Chiralities_Consistent>  (241) 
1

>  <s_lp_Variant>  (241) 
69:0-1

>  <s_i_glide_gridfile>  (241) 
pfpi4k_grid

>  <i_i_glide_lignum>  (241) 
20

>  <i_i_glide_rotatable_bonds>  (241) 
0

>  <r_i_docking_score>  (241) 
-4.4089

>  <r_i_glide_ligand_efficiency>  (241) 
-0.400809

>  <r_i_glide_ligand_efficiency_sa>  (241) 
-0.891392

>  <r_i_glide_ligand_efficiency_ln>  (241) 
-1.29754

>  <r_i_glide_gscore>  (241) 
-4.4089

>  <r_i_glide_lipo>  (241) 
-0.256909

>  <r_i_glide_hbond>  (241) 
-0.2

>  <r_i_glide_metal>  (241) 
-0

>  <r_i_glide_rewards>  (241) 
-2.25

>  <r_i_glide_evdw>  (241) 
-13.5774

>  <r_i_glide_ecoul>  (241) 
-6.58381

>  <r_i_glide_erotb>  (241) 
0

>  <r_i_glide_esite>  (241) 
-0.035554

>  <r_i_glide_emodel>  (241) 
-27.1447

>  <r_i_glide_energy>  (241) 
-20.1612

>  <r_i_glide_einternal>  (241) 
0

>  <r_i_glide_intrahb_reward>  (241) 
-0

>  <i_i_glide_confnum>  (241) 
2

>  <i_i_glide_posenum>  (241) 
22

>  <r_i_glide_eff_state_penalty>  (241) 
0

>  <ligand_id>  (241) 
69

>  <original_smiles>  (241) 
NC12CC3CC(CC(C3)C1)C2

>  <smiles>  (241) 
[H]C1([H])C2([H])C([H])([H])C3([H])C([H])([H])C1([H])C([H])([H])C([N+]([H])([H])[H])(C2([H])[H])C3([H])[H]

$$$$
69:0:2
     RDKit          3D

 29 31  0  0  1  0  0  0  0  0999 V2000
    1.8185   -3.0572   -3.7516 N   0  0  0  0  0  0  0  0  0  0  0  0
    2.8664   -2.8627   -2.7595 C   0  0  2  0  0  0  0  0  0  0  0  0
    3.1563   -1.3634   -2.6008 C   0  0  0  0  0  0  0  0  0  0  0  0
    4.2331   -1.1705   -1.5106 C   0  0  1  0  0  0  0  0  0  0  0  0
    3.8038   -1.7430   -0.1589 C   0  0  0  0  0  0  0  0  0  0  0  0
    3.5214   -3.2495   -0.3163 C   0  0  2  0  0  0  0  0  0  0  0  0
    4.7840   -3.9910   -0.8034 C   0  0  0  0  0  0  0  0  0  0  0  0
    5.2379   -3.3977   -2.1524 C   0  0  2  0  0  0  0  0  0  0  0  0
    5.4820   -1.9236   -1.9276 C   0  0  0  0  0  0  0  0  0  0  0  0
    4.1840   -3.5033   -3.2785 C   0  0  0  0  0  0  0  0  0  0  0  0
    2.4261   -3.4601   -1.3842 C   0  0  0  0  0  0  0  0  0  0  0  0
    1.0236   -2.5361   -3.3847 H   0  0  0  0  0  0  0  0  0  0  0  0
    1.5686   -4.0281   -3.8234 H   0  0  0  0  0  0  0  0  0  0  0  0
    3.5064   -0.9227   -3.5318 H   0  0  0  0  0  0  0  0  0  0  0  0
    2.2660   -0.7906   -2.3484 H   0  0  0  0  0  0  0  0  0  0  0  0
    4.4834   -0.1126   -1.4060 H   0  0  0  0  0  0  0  0  0  0  0  0
    4.5902   -1.5840    0.5760 H   0  0  0  0  0  0  0  0  0  0  0  0
    2.9293   -1.2055    0.2087 H   0  0  0  0  0  0  0  0  0  0  0  0
    3.2160   -3.6535    0.6517 H   0  0  0  0  0  0  0  0  0  0  0  0
    5.5800   -3.8825   -0.0699 H   0  0  0  0  0  0  0  0  0  0  0  0
    4.6003   -5.0630   -0.8933 H   0  0  0  0  0  0  0  0  0  0  0  0
    6.1658   -3.8703   -2.4927 H   0  0  0  0  0  0  0  0  0  0  0  0
    5.6888   -1.5662   -2.9112 H   0  0  0  0  0  0  0  0  0  0  0  0
    6.3391   -1.7278   -1.2861 H   0  0  0  0  0  0  0  0  0  0  0  0
    4.1143   -4.5303   -3.6271 H   0  0  0  0  0  0  0  0  0  0  0  0
    4.5290   -2.9904   -4.1751 H   0  0  0  0  0  0  0  0  0  0  0  0
    1.4815   -3.0511   -1.0276 H   0  0  0  0  0  0  0  0  0  0  0  0
    2.2187   -4.5276   -1.4512 H   0  0  0  0  0  0  0  0  0  0  0  0
    2.0804   -2.6859   -4.6399 H   0  0  0  0  0  0  0  0  0  0  0  0
  2  1  1  6
  1 12  1  0
  1 13  1  0
  1 29  1  0
  2 10  1  0
  2 11  1  0
  2  3  1  0
  3  4  1  0
  3 14  1  0
  3 15  1  0
  4  9  1  0
  4  5  1  0
  4 16  1  1
  5  6  1  0
  5 17  1  0
  5 18  1  0
  6  7  1  0
  6 11  1  0
  6 19  1  1
  7  8  1  0
  7 20  1  0
  7 21  1  0
  8  9  1  0
  8 10  1  0
  8 22  1  6
  9 23  1  0
  9 24  1  0
 10 25  1  0
 10 26  1  0
 11 27  1  0
 11 28  1  0
M  CHG  1   1   1
M  END
>  <i_m_ct_stereo_status>  (242) 
1

>  <s_m_source_file>  (242) 
/var/tmp/pbs.5076255.sched01/tmpe6iyr0oq/80tt78e_gd.sdf

>  <i_m_source_file_index>  (242) 
20

>  <i_lp_mmshare_version>  (242) 
48012

>  <i_f3d_flags>  (242) 
0

>  <s_epik_input>  (242) 
W05IMl1DMTJbQ0gyXVtDQEhdM1tDSDJdW0NAQEhdKFtDSDJdMilbQ0gyXVtDQEhdKFtDSDJdMylbQ0gyXTE=

>  <s_epik_cmdline>  (242) 
J2VwaWtfcHl0aG9uJywgJy1waHQnLCAnMi4wJywgJy1waCcsICc3LjAnLCAnLXRuJywgJzgnLCAnLW1hJywgJzIwMCcsICctaW1hZScsICc8aW5maWxlLm1hZT4nLCAnLW9tYWUnLCAnPG91dGZpbGUubWFlPic=

>  <r_lp_tautomer_probability>  (242) 
1

>  <r_epik_Ionization_Penalty>  (242) 
7.35582e-05

>  <r_epik_Ionization_Penalty_Charging>  (242) 
7.35582e-05

>  <r_epik_Ionization_Penalty_Neutral>  (242) 
0

>  <r_epik_State_Penalty>  (242) 
-0

>  <r_epik_Charging_Adjusted_Penalty>  (242) 
7.35582e-05

>  <i_epik_Tot_Q>  (242) 
1

>  <i_epik_Tot_abs_Q>  (242) 
1

>  <s_lp_Force_Field>  (242) 
OPLS3e

>  <r_lp_Energy>  (242) 
5.13466

>  <b_lp_Chiralities_Consistent>  (242) 
1

>  <s_lp_Variant>  (242) 
69:0-1

>  <s_i_glide_gridfile>  (242) 
pfpi4k_grid

>  <i_i_glide_lignum>  (242) 
20

>  <i_i_glide_rotatable_bonds>  (242) 
0

>  <r_i_docking_score>  (242) 
-4.06397

>  <r_i_glide_ligand_efficiency>  (242) 
-0.369452

>  <r_i_glide_ligand_efficiency_sa>  (242) 
-0.821653

>  <r_i_glide_ligand_efficiency_ln>  (242) 
-1.19603

>  <r_i_glide_gscore>  (242) 
-4.06397

>  <r_i_glide_lipo>  (242) 
-0.308898

>  <r_i_glide_hbond>  (242) 
0

>  <r_i_glide_metal>  (242) 
-0

>  <r_i_glide_rewards>  (242) 
-2.25

>  <r_i_glide_evdw>  (242) 
-11.0377

>  <r_i_glide_ecoul>  (242) 
-6.35456

>  <r_i_glide_erotb>  (242) 
0

>  <r_i_glide_esite>  (242) 
0

>  <r_i_glide_emodel>  (242) 
-23.2356

>  <r_i_glide_energy>  (242) 
-17.3923

>  <r_i_glide_einternal>  (242) 
0

>  <r_i_glide_intrahb_reward>  (242) 
-0

>  <i_i_glide_confnum>  (242) 
1

>  <i_i_glide_posenum>  (242) 
23

>  <r_i_glide_eff_state_penalty>  (242) 
0

>  <ligand_id>  (242) 
69

>  <original_smiles>  (242) 
NC12CC3CC(CC(C3)C1)C2

>  <smiles>  (242) 
[H]C1([H])C2([H])C([H])([H])C3([H])C([H])([H])C1([H])C([H])([H])C([N+]([H])([H])[H])(C2([H])[H])C3([H])[H]

$$$$
70:0:0
     RDKit          3D

 29 31  0  0  1  0  0  0  0  0999 V2000
   -5.1940   -8.8332   -5.8290 C   0  0  0  0  0  0  0  0  0  0  0  0
   -4.6199   -7.8752   -4.9746 C   0  0  0  0  0  0  0  0  0  0  0  0
   -5.0884   -6.6173   -4.7940 N   0  0  0  0  0  0  0  0  0  0  0  0
   -6.2043   -6.3275   -5.5175 C   0  0  0  0  0  0  0  0  0  0  0  0
   -6.8852   -5.1282   -5.5329 N   0  0  0  0  0  0  0  0  0  0  0  0
   -7.9489   -5.2061   -6.4194 C   0  0  0  0  0  0  0  0  0  0  0  0
   -7.9832   -6.4507   -7.0099 C   0  0  0  0  0  0  0  0  0  0  0  0
   -8.9658   -6.9458   -8.0460 C   0  0  0  0  0  0  0  0  0  0  0  0
   -8.2581   -7.6481   -9.2237 C   0  0  0  0  0  0  0  0  0  0  0  0
   -9.2459   -8.0234  -10.3337 C   0  0  0  0  0  0  0  0  0  0  0  0
   -9.9379   -6.8639  -10.7793 O   0  0  0  0  0  0  0  0  0  0  0  0
  -10.7359   -6.2923   -9.7491 C   0  0  0  0  0  0  0  0  0  0  0  0
   -9.8378   -5.8067   -8.6016 C   0  0  0  0  0  0  0  0  0  0  0  0
   -6.8870   -7.1861   -6.4272 C   0  0  0  0  0  0  0  0  0  0  0  0
   -6.3465   -8.4875   -6.5501 C   0  0  0  0  0  0  0  0  0  0  0  0
   -6.6376   -4.3028   -5.0068 H   0  0  0  0  0  0  0  0  0  0  0  0
   -4.7672   -9.8245   -5.9112 H   0  0  0  0  0  0  0  0  0  0  0  0
   -3.7709   -8.1523   -4.3723 H   0  0  0  0  0  0  0  0  0  0  0  0
   -8.5930   -4.3492   -6.5740 H   0  0  0  0  0  0  0  0  0  0  0  0
   -9.6319   -7.6647   -7.5690 H   0  0  0  0  0  0  0  0  0  0  0  0
   -7.4802   -6.9980   -9.6343 H   0  0  0  0  0  0  0  0  0  0  0  0
   -7.7791   -8.5717   -8.9075 H   0  0  0  0  0  0  0  0  0  0  0  0
   -8.6970   -8.4664  -11.1653 H   0  0  0  0  0  0  0  0  0  0  0  0
   -9.9571   -8.7756   -9.9836 H   0  0  0  0  0  0  0  0  0  0  0  0
  -11.2800   -5.4498  -10.1761 H   0  0  0  0  0  0  0  0  0  0  0  0
  -11.4767   -7.0131   -9.3929 H   0  0  0  0  0  0  0  0  0  0  0  0
  -10.4586   -5.3739   -7.8142 H   0  0  0  0  0  0  0  0  0  0  0  0
   -9.1921   -5.0142   -8.9820 H   0  0  0  0  0  0  0  0  0  0  0  0
   -6.8010   -9.2259   -7.1926 H   0  0  0  0  0  0  0  0  0  0  0  0
  1 15  2  0
  1  2  1  0
  1 17  1  0
  2  3  2  0
  2 18  1  0
  3  4  1  0
  4 14  2  0
  4  5  1  0
  5 16  1  0
  5  6  1  0
  6  7  2  0
  6 19  1  0
  7  8  1  0
  7 14  1  0
  8 13  1  0
  8  9  1  0
  8 20  1  0
  9 10  1  0
  9 21  1  0
  9 22  1  0
 10 11  1  0
 10 23  1  0
 10 24  1  0
 11 12  1  0
 12 13  1  0
 12 25  1  0
 12 26  1  0
 13 27  1  0
 13 28  1  0
 14 15  1  0
 15 29  1  0
M  END
>  <i_m_ct_stereo_status>  (243) 
1

>  <s_m_source_file>  (243) 
/var/tmp/pbs.5076255.sched01/tmpe6iyr0oq/80tt78e_gd.sdf

>  <i_m_source_file_index>  (243) 
21

>  <i_lp_mmshare_version>  (243) 
48012

>  <i_f3d_flags>  (243) 
0

>  <s_epik_input>  (243) 
bjFbY0hdW2NIXVtjSF1jKGMxMiljKFtjSF1bbkhdMilbQ0hdM1tDSDJdW0NIMl1PW0NIMl1bQ0gyXTM=

>  <s_epik_cmdline>  (243) 
J2VwaWtfcHl0aG9uJywgJy1waHQnLCAnMi4wJywgJy1waCcsICc3LjAnLCAnLXRuJywgJzgnLCAnLW1hJywgJzIwMCcsICctaW1hZScsICc8aW5maWxlLm1hZT4nLCAnLW9tYWUnLCAnPG91dGZpbGUubWFlPic=

>  <r_lp_tautomer_probability>  (243) 
0.999998

>  <r_epik_Ionization_Penalty>  (243) 
0.00512842

>  <r_epik_Ionization_Penalty_Charging>  (243) 
0

>  <r_epik_Ionization_Penalty_Neutral>  (243) 
0.00512842

>  <r_epik_State_Penalty>  (243) 
0.00373469

>  <r_epik_Charging_Adjusted_Penalty>  (243) 
0.00373469

>  <i_epik_Tot_Q>  (243) 
0

>  <i_epik_Tot_abs_Q>  (243) 
0

>  <s_lp_Force_Field>  (243) 
OPLS3e

>  <r_lp_Energy>  (243) 
16.3923

>  <b_lp_Chiralities_Consistent>  (243) 
1

>  <s_lp_Variant>  (243) 
70:0-1

>  <s_i_glide_gridfile>  (243) 
pfpi4k_grid

>  <i_i_glide_lignum>  (243) 
21

>  <i_i_glide_rotatable_bonds>  (243) 
1

>  <r_i_docking_score>  (243) 
-6.94211

>  <r_i_glide_ligand_efficiency>  (243) 
-0.462807

>  <r_i_glide_ligand_efficiency_sa>  (243) 
-1.14138

>  <r_i_glide_ligand_efficiency_ln>  (243) 
-1.87217

>  <r_i_glide_gscore>  (243) 
-6.94211

>  <r_i_glide_lipo>  (243) 
-1.76296

>  <r_i_glide_hbond>  (243) 
-0.216329

>  <r_i_glide_metal>  (243) 
-0

>  <r_i_glide_rewards>  (243) 
-3.70102

>  <r_i_glide_evdw>  (243) 
-24.3415

>  <r_i_glide_ecoul>  (243) 
-2.96996

>  <r_i_glide_erotb>  (243) 
0.400777

>  <r_i_glide_esite>  (243) 
0

>  <r_i_glide_emodel>  (243) 
-38.3694

>  <r_i_glide_energy>  (243) 
-27.3115

>  <r_i_glide_einternal>  (243) 
0.951823

>  <r_i_glide_intrahb_reward>  (243) 
-0

>  <i_i_glide_confnum>  (243) 
1

>  <i_i_glide_posenum>  (243) 
17

>  <r_i_glide_eff_state_penalty>  (243) 
0

>  <ligand_id>  (243) 
70

>  <original_smiles>  (243) 
c1cnc2[nH]cc(C3CCOCC3)c2c1

>  <smiles>  (243) 
[H]c1nc2c(c([H])c1[H])c(C1([H])C([H])([H])C([H])([H])OC([H])([H])C1([H])[H])c([H])n2[H]

$$$$
70:0:1
     RDKit          3D

 29 31  0  0  1  0  0  0  0  0999 V2000
   -7.5699   -4.2766   -5.0857 C   0  0  0  0  0  0  0  0  0  0  0  0
   -6.5207   -4.6831   -4.2320 C   0  0  0  0  0  0  0  0  0  0  0  0
   -5.8897   -5.8785   -4.3213 N   0  0  0  0  0  0  0  0  0  0  0  0
   -6.3476   -6.6921   -5.3087 C   0  0  0  0  0  0  0  0  0  0  0  0
   -5.9039   -7.9629   -5.5987 N   0  0  0  0  0  0  0  0  0  0  0  0
   -6.6078   -8.4757   -6.6820 C   0  0  0  0  0  0  0  0  0  0  0  0
   -7.5187   -7.5462   -7.1303 C   0  0  0  0  0  0  0  0  0  0  0  0
   -8.4602   -7.6859   -8.3021 C   0  0  0  0  0  0  0  0  0  0  0  0
   -8.0818   -8.8828   -9.1941 C   0  0  0  0  0  0  0  0  0  0  0  0
   -8.9488   -8.9341  -10.4600 C   0  0  0  0  0  0  0  0  0  0  0  0
   -8.8396   -7.7124  -11.1787 O   0  0  0  0  0  0  0  0  0  0  0  0
   -9.3332   -6.6092  -10.4321 C   0  0  0  0  0  0  0  0  0  0  0  0
   -8.4921   -6.4113   -9.1695 C   0  0  0  0  0  0  0  0  0  0  0  0
   -7.3873   -6.4121   -6.2421 C   0  0  0  0  0  0  0  0  0  0  0  0
   -8.0132   -5.1513   -6.0870 C   0  0  0  0  0  0  0  0  0  0  0  0
   -5.1831   -8.4622   -5.0956 H   0  0  0  0  0  0  0  0  0  0  0  0
   -8.0350   -3.3079   -4.9663 H   0  0  0  0  0  0  0  0  0  0  0  0
   -6.1964   -4.0262   -3.4340 H   0  0  0  0  0  0  0  0  0  0  0  0
   -6.3856   -9.4695   -7.0546 H   0  0  0  0  0  0  0  0  0  0  0  0
   -9.4662   -7.8638   -7.9236 H   0  0  0  0  0  0  0  0  0  0  0  0
   -7.0339   -8.8028   -9.4969 H   0  0  0  0  0  0  0  0  0  0  0  0
   -8.1903   -9.8226   -8.6477 H   0  0  0  0  0  0  0  0  0  0  0  0
   -8.5976   -9.7400  -11.1084 H   0  0  0  0  0  0  0  0  0  0  0  0
   -9.9959   -9.1320  -10.2152 H   0  0  0  0  0  0  0  0  0  0  0  0
   -9.2742   -5.7072  -11.0417 H   0  0  0  0  0  0  0  0  0  0  0  0
  -10.3840   -6.7592  -10.1734 H   0  0  0  0  0  0  0  0  0  0  0  0
   -8.9271   -5.5705   -8.6335 H   0  0  0  0  0  0  0  0  0  0  0  0
   -7.4730   -6.1349   -9.4554 H   0  0  0  0  0  0  0  0  0  0  0  0
   -8.8270   -4.8351   -6.7255 H   0  0  0  0  0  0  0  0  0  0  0  0
  1 15  2  0
  1  2  1  0
  1 17  1  0
  2  3  2  0
  2 18  1  0
  3  4  1  0
  4 14  2  0
  4  5  1  0
  5 16  1  0
  5  6  1  0
  6  7  2  0
  6 19  1  0
  7  8  1  0
  7 14  1  0
  8 13  1  0
  8  9  1  0
  8 20  1  0
  9 10  1  0
  9 21  1  0
  9 22  1  0
 10 11  1  0
 10 23  1  0
 10 24  1  0
 11 12  1  0
 12 13  1  0
 12 25  1  0
 12 26  1  0
 13 27  1  0
 13 28  1  0
 14 15  1  0
 15 29  1  0
M  END
>  <i_m_ct_stereo_status>  (244) 
1

>  <s_m_source_file>  (244) 
/var/tmp/pbs.5076255.sched01/tmpe6iyr0oq/80tt78e_gd.sdf

>  <i_m_source_file_index>  (244) 
21

>  <i_lp_mmshare_version>  (244) 
48012

>  <i_f3d_flags>  (244) 
0

>  <s_epik_input>  (244) 
bjFbY0hdW2NIXVtjSF1jKGMxMiljKFtjSF1bbkhdMilbQ0hdM1tDSDJdW0NIMl1PW0NIMl1bQ0gyXTM=

>  <s_epik_cmdline>  (244) 
J2VwaWtfcHl0aG9uJywgJy1waHQnLCAnMi4wJywgJy1waCcsICc3LjAnLCAnLXRuJywgJzgnLCAnLW1hJywgJzIwMCcsICctaW1hZScsICc8aW5maWxlLm1hZT4nLCAnLW9tYWUnLCAnPG91dGZpbGUubWFlPic=

>  <r_lp_tautomer_probability>  (244) 
0.999998

>  <r_epik_Ionization_Penalty>  (244) 
0.00512842

>  <r_epik_Ionization_Penalty_Charging>  (244) 
0

>  <r_epik_Ionization_Penalty_Neutral>  (244) 
0.00512842

>  <r_epik_State_Penalty>  (244) 
0.00373469

>  <r_epik_Charging_Adjusted_Penalty>  (244) 
0.00373469

>  <i_epik_Tot_Q>  (244) 
0

>  <i_epik_Tot_abs_Q>  (244) 
0

>  <s_lp_Force_Field>  (244) 
OPLS3e

>  <r_lp_Energy>  (244) 
16.3923

>  <b_lp_Chiralities_Consistent>  (244) 
1

>  <s_lp_Variant>  (244) 
70:0-1

>  <s_i_glide_gridfile>  (244) 
pfpi4k_grid

>  <i_i_glide_lignum>  (244) 
21

>  <i_i_glide_rotatable_bonds>  (244) 
1

>  <r_i_docking_score>  (244) 
-5.97699

>  <r_i_glide_ligand_efficiency>  (244) 
-0.398466

>  <r_i_glide_ligand_efficiency_sa>  (244) 
-0.982701

>  <r_i_glide_ligand_efficiency_ln>  (244) 
-1.61189

>  <r_i_glide_gscore>  (244) 
-5.97699

>  <r_i_glide_lipo>  (244) 
-2.24005

>  <r_i_glide_hbond>  (244) 
0

>  <r_i_glide_metal>  (244) 
-0

>  <r_i_glide_rewards>  (244) 
-2.69213

>  <r_i_glide_evdw>  (244) 
-25.1437

>  <r_i_glide_ecoul>  (244) 
-1.25602

>  <r_i_glide_erotb>  (244) 
0.400777

>  <r_i_glide_esite>  (244) 
0

>  <r_i_glide_emodel>  (244) 
-35.7962

>  <r_i_glide_energy>  (244) 
-26.3998

>  <r_i_glide_einternal>  (244) 
1.02732

>  <r_i_glide_intrahb_reward>  (244) 
-0

>  <i_i_glide_confnum>  (244) 
1

>  <i_i_glide_posenum>  (244) 
39

>  <r_i_glide_eff_state_penalty>  (244) 
0

>  <ligand_id>  (244) 
70

>  <original_smiles>  (244) 
c1cnc2[nH]cc(C3CCOCC3)c2c1

>  <smiles>  (244) 
[H]c1nc2c(c([H])c1[H])c(C1([H])C([H])([H])C([H])([H])OC([H])([H])C1([H])[H])c([H])n2[H]

$$$$
70:0:2
     RDKit          3D

 29 31  0  0  1  0  0  0  0  0999 V2000
   -4.5671   -8.4180   -5.1184 C   0  0  0  0  0  0  0  0  0  0  0  0
   -4.5417   -9.7112   -5.6770 C   0  0  0  0  0  0  0  0  0  0  0  0
   -5.3711  -10.1192   -6.6670 N   0  0  0  0  0  0  0  0  0  0  0  0
   -6.2698   -9.1859   -7.0782 C   0  0  0  0  0  0  0  0  0  0  0  0
   -7.2302   -9.3405   -8.0560 N   0  0  0  0  0  0  0  0  0  0  0  0
   -7.9720   -8.1788   -8.1872 C   0  0  0  0  0  0  0  0  0  0  0  0
   -7.5208   -7.2300   -7.2945 C   0  0  0  0  0  0  0  0  0  0  0  0
   -8.0770   -5.8348   -7.1007 C   0  0  0  0  0  0  0  0  0  0  0  0
   -8.0926   -5.4270   -5.6189 C   0  0  0  0  0  0  0  0  0  0  0  0
   -8.7996   -4.0895   -5.3971 C   0  0  0  0  0  0  0  0  0  0  0  0
  -10.1117   -4.1267   -5.9347 O   0  0  0  0  0  0  0  0  0  0  0  0
  -10.1006   -4.3249   -7.3417 C   0  0  0  0  0  0  0  0  0  0  0  0
   -9.4902   -5.6898   -7.6927 C   0  0  0  0  0  0  0  0  0  0  0  0
   -6.4174   -7.8519   -6.5926 C   0  0  0  0  0  0  0  0  0  0  0  0
   -5.5019   -7.4813   -5.5829 C   0  0  0  0  0  0  0  0  0  0  0  0
   -7.3904  -10.1798   -8.5885 H   0  0  0  0  0  0  0  0  0  0  0  0
   -3.8659   -8.1569   -4.3382 H   0  0  0  0  0  0  0  0  0  0  0  0
   -3.8043  -10.4319   -5.3328 H   0  0  0  0  0  0  0  0  0  0  0  0
   -8.7818   -8.1225   -8.9086 H   0  0  0  0  0  0  0  0  0  0  0  0
   -7.4362   -5.1356   -7.6206 H   0  0  0  0  0  0  0  0  0  0  0  0
   -8.5810   -6.2041   -5.0315 H   0  0  0  0  0  0  0  0  0  0  0  0
   -7.0879   -5.3105   -5.2195 H   0  0  0  0  0  0  0  0  0  0  0  0
   -8.8486   -3.8845   -4.3269 H   0  0  0  0  0  0  0  0  0  0  0  0
   -8.2266   -3.2858   -5.8548 H   0  0  0  0  0  0  0  0  0  0  0  0
  -11.1355   -4.2885   -7.6877 H   0  0  0  0  0  0  0  0  0  0  0  0
   -9.5490   -3.5161   -7.8305 H   0  0  0  0  0  0  0  0  0  0  0  0
   -9.4827   -5.8170   -8.7776 H   0  0  0  0  0  0  0  0  0  0  0  0
  -10.1500   -6.4598   -7.2991 H   0  0  0  0  0  0  0  0  0  0  0  0
   -5.5090   -6.4874   -5.1498 H   0  0  0  0  0  0  0  0  0  0  0  0
  1 15  2  0
  1  2  1  0
  1 17  1  0
  2  3  2  0
  2 18  1  0
  3  4  1  0
  4 14  2  0
  4  5  1  0
  5 16  1  0
  5  6  1  0
  6  7  2  0
  6 19  1  0
  7  8  1  0
  7 14  1  0
  8 13  1  0
  8  9  1  0
  8 20  1  0
  9 10  1  0
  9 21  1  0
  9 22  1  0
 10 11  1  0
 10 23  1  0
 10 24  1  0
 11 12  1  0
 12 13  1  0
 12 25  1  0
 12 26  1  0
 13 27  1  0
 13 28  1  0
 14 15  1  0
 15 29  1  0
M  END
>  <i_m_ct_stereo_status>  (245) 
1

>  <s_m_source_file>  (245) 
/var/tmp/pbs.5076255.sched01/tmpe6iyr0oq/80tt78e_gd.sdf

>  <i_m_source_file_index>  (245) 
21

>  <i_lp_mmshare_version>  (245) 
48012

>  <i_f3d_flags>  (245) 
0

>  <s_epik_input>  (245) 
bjFbY0hdW2NIXVtjSF1jKGMxMiljKFtjSF1bbkhdMilbQ0hdM1tDSDJdW0NIMl1PW0NIMl1bQ0gyXTM=

>  <s_epik_cmdline>  (245) 
J2VwaWtfcHl0aG9uJywgJy1waHQnLCAnMi4wJywgJy1waCcsICc3LjAnLCAnLXRuJywgJzgnLCAnLW1hJywgJzIwMCcsICctaW1hZScsICc8aW5maWxlLm1hZT4nLCAnLW9tYWUnLCAnPG91dGZpbGUubWFlPic=

>  <r_lp_tautomer_probability>  (245) 
0.999998

>  <r_epik_Ionization_Penalty>  (245) 
0.00512842

>  <r_epik_Ionization_Penalty_Charging>  (245) 
0

>  <r_epik_Ionization_Penalty_Neutral>  (245) 
0.00512842

>  <r_epik_State_Penalty>  (245) 
0.00373469

>  <r_epik_Charging_Adjusted_Penalty>  (245) 
0.00373469

>  <i_epik_Tot_Q>  (245) 
0

>  <i_epik_Tot_abs_Q>  (245) 
0

>  <s_lp_Force_Field>  (245) 
OPLS3e

>  <r_lp_Energy>  (245) 
16.3923

>  <b_lp_Chiralities_Consistent>  (245) 
1

>  <s_lp_Variant>  (245) 
70:0-1

>  <s_i_glide_gridfile>  (245) 
pfpi4k_grid

>  <i_i_glide_lignum>  (245) 
21

>  <i_i_glide_rotatable_bonds>  (245) 
1

>  <r_i_docking_score>  (245) 
-5.92438

>  <r_i_glide_ligand_efficiency>  (245) 
-0.394959

>  <r_i_glide_ligand_efficiency_sa>  (245) 
-0.974052

>  <r_i_glide_ligand_efficiency_ln>  (245) 
-1.59771

>  <r_i_glide_gscore>  (245) 
-5.92438

>  <r_i_glide_lipo>  (245) 
-2.18298

>  <r_i_glide_hbond>  (245) 
0

>  <r_i_glide_metal>  (245) 
-0

>  <r_i_glide_rewards>  (245) 
-2.72195

>  <r_i_glide_evdw>  (245) 
-25.9237

>  <r_i_glide_ecoul>  (245) 
-0.826955

>  <r_i_glide_erotb>  (245) 
0.400777

>  <r_i_glide_esite>  (245) 
0

>  <r_i_glide_emodel>  (245) 
-35.8743

>  <r_i_glide_energy>  (245) 
-26.7506

>  <r_i_glide_einternal>  (245) 
1.27567

>  <r_i_glide_intrahb_reward>  (245) 
-0

>  <i_i_glide_confnum>  (245) 
2

>  <i_i_glide_posenum>  (245) 
1

>  <r_i_glide_eff_state_penalty>  (245) 
0

>  <ligand_id>  (245) 
70

>  <original_smiles>  (245) 
c1cnc2[nH]cc(C3CCOCC3)c2c1

>  <smiles>  (245) 
[H]c1nc2c(c([H])c1[H])c(C1([H])C([H])([H])C([H])([H])OC([H])([H])C1([H])[H])c([H])n2[H]

$$$$
71:0:0
     RDKit          3D

 61 66  0  0  1  0  0  0  0  0999 V2000
   -1.3793   -8.7167    2.2240 C   0  0  0  0  0  0  0  0  0  0  0  0
   -0.3539   -7.9750    2.6638 C   0  0  0  0  0  0  0  0  0  0  0  0
    1.1089   -8.3290    2.4564 C   0  0  0  0  0  0  0  0  0  0  0  0
    1.8869   -7.1737    1.9458 N   0  0  0  0  0  0  0  0  0  0  0  0
    3.3713   -7.3340    1.9657 C   0  0  2  0  0  0  0  0  0  0  0  0
    3.9807   -7.8108    3.2896 C   0  0  0  0  0  0  0  0  0  0  0  0
    5.4768   -7.4853    3.1815 C   0  0  0  0  0  0  0  0  0  0  0  0
    5.6569   -6.4088    2.0766 C   0  0  2  0  0  0  0  0  0  0  0  0
    6.3406   -6.9318    0.9313 O   0  0  0  0  0  0  0  0  0  0  0  0
    7.6541   -7.4871    1.0940 C   0  0  0  0  0  0  0  0  0  0  0  0
    6.3015   -5.0653    2.5617 C   0  0  1  0  0  0  0  0  0  0  0  0
    7.4704   -4.6605    1.8086 O   0  0  0  0  0  0  0  0  0  0  0  0
    7.0358   -3.9374    0.7378 C   0  0  0  0  0  0  0  0  0  0  0  0
    7.7118   -3.5167   -0.4282 C   0  0  0  0  0  0  0  0  0  0  0  0
    9.0576   -3.7121   -0.5484 O   0  0  0  0  0  0  0  0  0  0  0  0
    6.9746   -2.9492   -1.4965 C   0  0  0  0  0  0  0  0  0  0  0  0
    5.5600   -2.8369   -1.4331 C   0  0  0  0  0  0  0  0  0  0  0  0
    4.8908   -3.1887   -0.2469 C   0  0  0  0  0  0  0  0  0  0  0  0
    5.6899   -3.6537    0.8057 C   0  0  0  0  0  0  0  0  0  0  0  0
    5.2407   -4.0097    2.1967 C   0  0  2  0  0  0  0  0  0  0  0  0
    5.2113   -2.7349    3.0777 C   0  0  0  0  0  0  0  0  0  0  0  0
    4.2000   -1.7261    2.5118 C   0  0  0  0  0  0  0  0  0  0  0  0
    2.8822   -2.3602    2.2226 N   0  0  1  0  0  0  0  0  0  0  0  0
    1.9036   -1.3653    1.7134 C   0  0  0  0  0  0  0  0  0  0  0  0
    2.9517   -3.6464    1.4331 C   0  0  1  0  0  0  0  0  0  0  0  0
    3.3953   -3.3925   -0.0265 C   0  0  0  0  0  0  0  0  0  0  0  0
    3.8676   -4.6722    2.1838 C   0  0  2  0  0  0  0  0  0  0  0  0
    3.3554   -4.7902    3.5058 O   0  0  0  0  0  0  0  0  0  0  0  0
    4.2030   -6.0775    1.5826 C   0  0  2  0  0  0  0  0  0  0  0  0
   -1.2267   -9.6315    1.6676 H   0  0  0  0  0  0  0  0  0  0  0  0
   -2.4011   -8.4274    2.4274 H   0  0  0  0  0  0  0  0  0  0  0  0
   -0.5739   -7.0815    3.2306 H   0  0  0  0  0  0  0  0  0  0  0  0
    1.4692   -8.6447    3.4327 H   0  0  0  0  0  0  0  0  0  0  0  0
    1.2172   -9.1726    1.7742 H   0  0  0  0  0  0  0  0  0  0  0  0
    1.6130   -7.0332    0.9813 H   0  0  0  0  0  0  0  0  0  0  0  0
    3.6071   -8.0992    1.2237 H   0  0  0  0  0  0  0  0  0  0  0  0
    3.5526   -7.2973    4.1512 H   0  0  0  0  0  0  0  0  0  0  0  0
    3.8322   -8.8807    3.4478 H   0  0  0  0  0  0  0  0  0  0  0  0
    5.8683   -7.1656    4.1468 H   0  0  0  0  0  0  0  0  0  0  0  0
    6.0169   -8.3987    2.9425 H   0  0  0  0  0  0  0  0  0  0  0  0
    8.1629   -7.5570    0.1312 H   0  0  0  0  0  0  0  0  0  0  0  0
    7.6193   -8.4970    1.4948 H   0  0  0  0  0  0  0  0  0  0  0  0
    8.3124   -6.8999    1.7276 H   0  0  0  0  0  0  0  0  0  0  0  0
    6.5137   -5.0781    3.6330 H   0  0  0  0  0  0  0  0  0  0  0  0
    9.4843   -3.2439   -1.2643 H   0  0  0  0  0  0  0  0  0  0  0  0
    7.4789   -2.6833   -2.4050 H   0  0  0  0  0  0  0  0  0  0  0  0
    4.9931   -2.5260   -2.3017 H   0  0  0  0  0  0  0  0  0  0  0  0
    4.9517   -2.9787    4.1113 H   0  0  0  0  0  0  0  0  0  0  0  0
    6.1868   -2.2606    3.1151 H   0  0  0  0  0  0  0  0  0  0  0  0
    4.0541   -0.9138    3.2232 H   0  0  0  0  0  0  0  0  0  0  0  0
    4.5987   -1.2642    1.6081 H   0  0  0  0  0  0  0  0  0  0  0  0
    2.2749   -0.8630    0.8221 H   0  0  0  0  0  0  0  0  0  0  0  0
    1.7217   -0.5912    2.4564 H   0  0  0  0  0  0  0  0  0  0  0  0
    0.9568   -1.8435    1.4848 H   0  0  0  0  0  0  0  0  0  0  0  0
    1.9383   -4.0430    1.4095 H   0  0  0  0  0  0  0  0  0  0  0  0
    2.8563   -2.5610   -0.4830 H   0  0  0  0  0  0  0  0  0  0  0  0
    3.1155   -4.2651   -0.6112 H   0  0  0  0  0  0  0  0  0  0  0  0
    2.5848   -5.3292    3.5159 H   0  0  0  0  0  0  0  0  0  0  0  0
    4.2143   -5.9819    0.4955 H   0  0  0  0  0  0  0  0  0  0  0  0
    1.6151   -6.3724    2.4910 H   0  0  0  0  0  0  0  0  0  0  0  0
    2.5380   -2.6518    3.1334 H   0  0  0  0  0  0  0  0  0  0  0  0
  1  2  2  0
  1 30  1  0
  1 31  1  0
  2  3  1  0
  2 32  1  0
  3  4  1  0
  3 33  1  0
  3 34  1  0
  4  5  1  0
  4 35  1  0
  4 60  1  0
  5 29  1  0
  5  6  1  0
  5 36  1  6
  6  7  1  0
  6 37  1  0
  6 38  1  0
  7  8  1  0
  7 39  1  0
  7 40  1  0
  8 29  1  0
  8  9  1  6
  8 11  1  0
  9 10  1  0
 10 41  1  0
 10 42  1  0
 10 43  1  0
 11 20  1  0
 11 12  1  0
 11 44  1  1
 12 13  1  0
 13 19  2  0
 13 14  1  0
 14 15  1  0
 14 16  2  0
 15 45  1  0
 16 17  1  0
 16 46  1  0
 17 18  2  0
 17 47  1  0
 18 26  1  0
 18 19  1  0
 19 20  1  0
 20 27  1  0
 20 21  1  1
 21 22  1  0
 21 48  1  0
 21 49  1  0
 22 23  1  0
 22 50  1  0
 22 51  1  0
 23 24  1  0
 23 25  1  0
 23 61  1  1
 24 52  1  0
 24 53  1  0
 24 54  1  0
 25 26  1  0
 25 27  1  0
 25 55  1  6
 26 56  1  0
 26 57  1  0
 27 28  1  1
 27 29  1  0
 28 58  1  0
 29 59  1  6
M  CHG  2   4   1  23   1
M  END
>  <i_m_ct_stereo_status>  (246) 
1

>  <s_m_source_file>  (246) 
/var/tmp/pbs.5076255.sched01/tmpe6iyr0oq/80tt78e_gd.sdf

>  <i_m_source_file_index>  (246) 
22

>  <i_lp_mmshare_version>  (246) 
48012

>  <i_f3d_flags>  (246) 
0

>  <s_epik_input>  (246) 
W0NIMl09W0NIXVtDSDJdW05IXVtDQEhdKFtDSDJdW0NIMl0xKVtDQEhdKFtDQF0xKFtDQEBIXTJbQ0BdMzQ1KU9bQ0gzXSlbQ0BdNShbT0hdKVtDQEBIXShOKFtDSDNdKVtDSDJdW0NIMl00KVtDSDJdYzZjM2MoTzIpYyhbT0hdKVtjSF1bY0hdNg==

>  <s_epik_cmdline>  (246) 
J2VwaWtfcHl0aG9uJywgJy1waHQnLCAnMi4wJywgJy1waCcsICc3LjAnLCAnLXRuJywgJzgnLCAnLW1hJywgJzIwMCcsICctaW1hZScsICc8aW5maWxlLm1hZT4nLCAnLW9tYWUnLCAnPG91dGZpbGUubWFlPic=

>  <r_lp_tautomer_probability>  (246) 
1

>  <r_epik_Ionization_Penalty>  (246) 
0.176662

>  <r_epik_Ionization_Penalty_Charging>  (246) 
0.162286

>  <r_epik_Ionization_Penalty_Neutral>  (246) 
0.0143758

>  <r_epik_State_Penalty>  (246) 
0.154266

>  <r_epik_Charging_Adjusted_Penalty>  (246) 
0.316552

>  <i_epik_Tot_Q>  (246) 
2

>  <i_epik_Tot_abs_Q>  (246) 
2

>  <s_lp_Force_Field>  (246) 
OPLS3e

>  <r_lp_Energy>  (246) 
87.2656

>  <b_lp_Chiralities_Consistent>  (246) 
1

>  <s_lp_Variant>  (246) 
71:0-1

>  <s_i_glide_gridfile>  (246) 
pfpi4k_grid

>  <i_i_glide_lignum>  (246) 
22

>  <i_i_glide_rotatable_bonds>  (246) 
6

>  <r_i_docking_score>  (246) 
-3.64341

>  <r_i_glide_ligand_efficiency>  (246) 
-0.125635

>  <r_i_glide_ligand_efficiency_sa>  (246) 
-0.38599

>  <r_i_glide_ligand_efficiency_ln>  (246) 
-0.834249

>  <r_i_glide_gscore>  (246) 
-3.64341

>  <r_i_glide_lipo>  (246) 
-0.742038

>  <r_i_glide_hbond>  (246) 
0

>  <r_i_glide_metal>  (246) 
-0

>  <r_i_glide_rewards>  (246) 
-0.678333

>  <r_i_glide_evdw>  (246) 
-20.5243

>  <r_i_glide_ecoul>  (246) 
-9.50661

>  <r_i_glide_erotb>  (246) 
0.256659

>  <r_i_glide_esite>  (246) 
-0.0274921

>  <r_i_glide_emodel>  (246) 
-40.4179

>  <r_i_glide_energy>  (246) 
-30.031

>  <r_i_glide_einternal>  (246) 
1.25399

>  <r_i_glide_intrahb_reward>  (246) 
-0

>  <i_i_glide_confnum>  (246) 
3

>  <i_i_glide_posenum>  (246) 
6

>  <r_i_glide_eff_state_penalty>  (246) 
0

>  <ligand_id>  (246) 
71

>  <original_smiles>  (246) 
C=CCNC1CCC2(OC)C3Oc4c(O)ccc5c4C34CCN(C)C(C5)C4(O)C12

>  <smiles>  (246) 
[H]Oc1c([H])c([H])c2c3c1OC1([H])C4(OC([H])([H])[H])C([H])([H])C([H])([H])C([H])([N+]([H])([H])C([H])([H])C([H])=C([H])[H])C4([H])C4(O[H])C31C([H])([H])C([H])([H])[N+]([H])(C([H])([H])[H])C4([H])C2([H])[H]

$$$$
71:0:1
     RDKit          3D

 61 66  0  0  1  0  0  0  0  0999 V2000
   -1.3587    1.0184    2.9208 C   0  0  0  0  0  0  0  0  0  0  0  0
   -0.0217    0.9862    2.9353 C   0  0  0  0  0  0  0  0  0  0  0  0
    0.8867    1.3665    1.7729 C   0  0  0  0  0  0  0  0  0  0  0  0
    1.7686    0.2582    1.3252 N   0  0  0  0  0  0  0  0  0  0  0  0
    2.5449   -0.4493    2.3842 C   0  0  2  0  0  0  0  0  0  0  0  0
    3.6336    0.3905    3.0560 C   0  0  0  0  0  0  0  0  0  0  0  0
    4.5331   -0.6339    3.7749 C   0  0  0  0  0  0  0  0  0  0  0  0
    4.2606   -2.0280    3.1441 C   0  0  2  0  0  0  0  0  0  0  0  0
    3.5657   -2.8858    4.0588 O   0  0  0  0  0  0  0  0  0  0  0  0
    4.1740   -3.1832    5.3178 C   0  0  0  0  0  0  0  0  0  0  0  0
    5.5100   -2.7156    2.4887 C   0  0  1  0  0  0  0  0  0  0  0  0
    5.8024   -4.0491    2.9724 O   0  0  0  0  0  0  0  0  0  0  0  0
    5.0459   -4.9140    2.2430 C   0  0  0  0  0  0  0  0  0  0  0  0
    4.7101   -6.2681    2.4600 C   0  0  0  0  0  0  0  0  0  0  0  0
    5.2924   -6.9669    3.4756 O   0  0  0  0  0  0  0  0  0  0  0  0
    3.7344   -6.8908    1.6386 C   0  0  0  0  0  0  0  0  0  0  0  0
    3.0445   -6.1510    0.6476 C   0  0  0  0  0  0  0  0  0  0  0  0
    3.4209   -4.8266    0.3767 C   0  0  0  0  0  0  0  0  0  0  0  0
    4.4583   -4.3031    1.1574 C   0  0  0  0  0  0  0  0  0  0  0  0
    5.0784   -2.9412    1.0327 C   0  0  2  0  0  0  0  0  0  0  0  0
    6.2100   -2.9785   -0.0205 C   0  0  0  0  0  0  0  0  0  0  0  0
    5.6298   -3.3398   -1.4034 C   0  0  0  0  0  0  0  0  0  0  0  0
    4.4390   -2.5096   -1.7458 N   0  0  1  0  0  0  0  0  0  0  0  0
    3.9009   -2.8343   -3.0902 C   0  0  0  0  0  0  0  0  0  0  0  0
    3.3985   -2.4329   -0.6672 C   0  0  1  0  0  0  0  0  0  0  0  0
    2.7000   -3.7926   -0.4766 C   0  0  0  0  0  0  0  0  0  0  0  0
    4.0448   -1.8928    0.6513 C   0  0  2  0  0  0  0  0  0  0  0  0
    4.6664   -0.6579    0.3303 O   0  0  0  0  0  0  0  0  0  0  0  0
    3.2367   -1.7658    1.9799 C   0  0  2  0  0  0  0  0  0  0  0  0
   -1.9253    1.3355    2.0535 H   0  0  0  0  0  0  0  0  0  0  0  0
   -1.9056    0.7183    3.8032 H   0  0  0  0  0  0  0  0  0  0  0  0
    0.4584    0.6796    3.8581 H   0  0  0  0  0  0  0  0  0  0  0  0
    0.2720    1.6909    0.9294 H   0  0  0  0  0  0  0  0  0  0  0  0
    1.4874    2.2283    2.0650 H   0  0  0  0  0  0  0  0  0  0  0  0
    1.1855   -0.3956    0.7904 H   0  0  0  0  0  0  0  0  0  0  0  0
    1.8815   -0.7790    3.1767 H   0  0  0  0  0  0  0  0  0  0  0  0
    4.2055    0.9305    2.3082 H   0  0  0  0  0  0  0  0  0  0  0  0
    3.2372    1.1362    3.7535 H   0  0  0  0  0  0  0  0  0  0  0  0
    5.5799   -0.3418    3.7095 H   0  0  0  0  0  0  0  0  0  0  0  0
    4.2966   -0.6115    4.8348 H   0  0  0  0  0  0  0  0  0  0  0  0
    3.6865   -4.0578    5.7466 H   0  0  0  0  0  0  0  0  0  0  0  0
    4.0477   -2.3814    6.0437 H   0  0  0  0  0  0  0  0  0  0  0  0
    5.2364   -3.4103    5.2514 H   0  0  0  0  0  0  0  0  0  0  0  0
    6.3855   -2.0707    2.5283 H   0  0  0  0  0  0  0  0  0  0  0  0
    5.0007   -7.8629    3.5209 H   0  0  0  0  0  0  0  0  0  0  0  0
    3.4609   -7.9202    1.7955 H   0  0  0  0  0  0  0  0  0  0  0  0
    2.2212   -6.5900    0.1024 H   0  0  0  0  0  0  0  0  0  0  0  0
    6.7169   -2.0122   -0.0713 H   0  0  0  0  0  0  0  0  0  0  0  0
    6.9770   -3.7001    0.2586 H   0  0  0  0  0  0  0  0  0  0  0  0
    6.3962   -3.1993   -2.1671 H   0  0  0  0  0  0  0  0  0  0  0  0
    5.3693   -4.4013   -1.4304 H   0  0  0  0  0  0  0  0  0  0  0  0
    3.6334   -3.8899   -3.1732 H   0  0  0  0  0  0  0  0  0  0  0  0
    4.6582   -2.6385   -3.8517 H   0  0  0  0  0  0  0  0  0  0  0  0
    3.0128   -2.2413   -3.3247 H   0  0  0  0  0  0  0  0  0  0  0  0
    2.6532   -1.7241   -1.0184 H   0  0  0  0  0  0  0  0  0  0  0  0
    2.3654   -4.2399   -1.4144 H   0  0  0  0  0  0  0  0  0  0  0  0
    1.8045   -3.5665    0.0749 H   0  0  0  0  0  0  0  0  0  0  0  0
    4.0080   -0.0286    0.0904 H   0  0  0  0  0  0  0  0  0  0  0  0
    2.4795   -2.5511    1.9925 H   0  0  0  0  0  0  0  0  0  0  0  0
    2.3915    0.6649    0.6402 H   0  0  0  0  0  0  0  0  0  0  0  0
    4.7829   -1.5575   -1.8018 H   0  0  0  0  0  0  0  0  0  0  0  0
  1  2  2  0
  1 30  1  0
  1 31  1  0
  2  3  1  0
  2 32  1  0
  3  4  1  0
  3 33  1  0
  3 34  1  0
  4  5  1  0
  4 35  1  0
  4 60  1  0
  5 29  1  0
  5  6  1  0
  5 36  1  1
  6  7  1  0
  6 37  1  0
  6 38  1  0
  7  8  1  0
  7 39  1  0
  7 40  1  0
  8 29  1  0
  8  9  1  1
  8 11  1  0
  9 10  1  0
 10 41  1  0
 10 42  1  0
 10 43  1  0
 11 20  1  0
 11 12  1  0
 11 44  1  6
 12 13  1  0
 13 19  2  0
 13 14  1  0
 14 15  1  0
 14 16  2  0
 15 45  1  0
 16 17  1  0
 16 46  1  0
 17 18  2  0
 17 47  1  0
 18 26  1  0
 18 19  1  0
 19 20  1  0
 20 27  1  0
 20 21  1  6
 21 22  1  0
 21 48  1  0
 21 49  1  0
 22 23  1  0
 22 50  1  0
 22 51  1  0
 23 24  1  0
 23 25  1  0
 23 61  1  6
 24 52  1  0
 24 53  1  0
 24 54  1  0
 25 26  1  0
 25 27  1  0
 25 55  1  6
 26 56  1  0
 26 57  1  0
 27 28  1  6
 27 29  1  0
 28 58  1  0
 29 59  1  6
M  CHG  2   4   1  23   1
M  END
>  <i_m_ct_stereo_status>  (247) 
1

>  <s_m_source_file>  (247) 
/var/tmp/pbs.5076255.sched01/tmpe6iyr0oq/80tt78e_gd.sdf

>  <i_m_source_file_index>  (247) 
22

>  <i_lp_mmshare_version>  (247) 
48012

>  <i_f3d_flags>  (247) 
0

>  <s_epik_input>  (247) 
W0NIMl09W0NIXVtDSDJdW05IXVtDQEhdKFtDSDJdW0NIMl0xKVtDQEhdKFtDQF0xKFtDQEBIXTJbQ0BdMzQ1KU9bQ0gzXSlbQ0BdNShbT0hdKVtDQEBIXShOKFtDSDNdKVtDSDJdW0NIMl00KVtDSDJdYzZjM2MoTzIpYyhbT0hdKVtjSF1bY0hdNg==

>  <s_epik_cmdline>  (247) 
J2VwaWtfcHl0aG9uJywgJy1waHQnLCAnMi4wJywgJy1waCcsICc3LjAnLCAnLXRuJywgJzgnLCAnLW1hJywgJzIwMCcsICctaW1hZScsICc8aW5maWxlLm1hZT4nLCAnLW9tYWUnLCAnPG91dGZpbGUubWFlPic=

>  <r_lp_tautomer_probability>  (247) 
1

>  <r_epik_Ionization_Penalty>  (247) 
0.176662

>  <r_epik_Ionization_Penalty_Charging>  (247) 
0.162286

>  <r_epik_Ionization_Penalty_Neutral>  (247) 
0.0143758

>  <r_epik_State_Penalty>  (247) 
0.154266

>  <r_epik_Charging_Adjusted_Penalty>  (247) 
0.316552

>  <i_epik_Tot_Q>  (247) 
2

>  <i_epik_Tot_abs_Q>  (247) 
2

>  <s_lp_Force_Field>  (247) 
OPLS3e

>  <r_lp_Energy>  (247) 
87.2656

>  <b_lp_Chiralities_Consistent>  (247) 
1

>  <s_lp_Variant>  (247) 
71:0-1

>  <s_i_glide_gridfile>  (247) 
pfpi4k_grid

>  <i_i_glide_lignum>  (247) 
22

>  <i_i_glide_rotatable_bonds>  (247) 
6

>  <r_i_docking_score>  (247) 
-3.27061

>  <r_i_glide_ligand_efficiency>  (247) 
-0.11278

>  <r_i_glide_ligand_efficiency_sa>  (247) 
-0.346494

>  <r_i_glide_ligand_efficiency_ln>  (247) 
-0.748886

>  <r_i_glide_gscore>  (247) 
-3.27061

>  <r_i_glide_lipo>  (247) 
-0.490219

>  <r_i_glide_hbond>  (247) 
-0.189117

>  <r_i_glide_metal>  (247) 
-0

>  <r_i_glide_rewards>  (247) 
-0.678333

>  <r_i_glide_evdw>  (247) 
-19.4166

>  <r_i_glide_ecoul>  (247) 
-8.05907

>  <r_i_glide_erotb>  (247) 
0.366656

>  <r_i_glide_esite>  (247) 
-0.0999013

>  <r_i_glide_emodel>  (247) 
-36.8045

>  <r_i_glide_energy>  (247) 
-27.4757

>  <r_i_glide_einternal>  (247) 
0.820646

>  <r_i_glide_intrahb_reward>  (247) 
-0

>  <i_i_glide_confnum>  (247) 
2

>  <i_i_glide_posenum>  (247) 
3

>  <r_i_glide_eff_state_penalty>  (247) 
0

>  <ligand_id>  (247) 
71

>  <original_smiles>  (247) 
C=CCNC1CCC2(OC)C3Oc4c(O)ccc5c4C34CCN(C)C(C5)C4(O)C12

>  <smiles>  (247) 
[H]Oc1c([H])c([H])c2c3c1OC1([H])C4(OC([H])([H])[H])C([H])([H])C([H])([H])C([H])([N+]([H])([H])C([H])([H])C([H])=C([H])[H])C4([H])C4(O[H])C31C([H])([H])C([H])([H])[N+]([H])(C([H])([H])[H])C4([H])C2([H])[H]

$$$$
71:0:2
     RDKit          3D

 61 66  0  0  1  0  0  0  0  0999 V2000
    3.7087   -0.8785   -2.8465 C   0  0  0  0  0  0  0  0  0  0  0  0
    4.3107   -1.4070   -1.7712 C   0  0  0  0  0  0  0  0  0  0  0  0
    3.6132   -2.3026   -0.7632 C   0  0  0  0  0  0  0  0  0  0  0  0
    3.5986   -1.7188    0.6022 N   0  0  0  0  0  0  0  0  0  0  0  0
    2.8030   -2.4975    1.5864 C   0  0  2  0  0  0  0  0  0  0  0  0
    2.5739   -1.8127    2.9408 C   0  0  0  0  0  0  0  0  0  0  0  0
    2.1329   -2.9569    3.8747 C   0  0  0  0  0  0  0  0  0  0  0  0
    2.5786   -4.3079    3.2460 C   0  0  2  0  0  0  0  0  0  0  0  0
    1.4493   -5.0703    2.7994 O   0  0  0  0  0  0  0  0  0  0  0  0
    0.5030   -5.5187    3.7715 C   0  0  0  0  0  0  0  0  0  0  0  0
    3.5778   -5.1531    4.1198 C   0  0  1  0  0  0  0  0  0  0  0  0
    3.1806   -6.5187    4.3893 O   0  0  0  0  0  0  0  0  0  0  0  0
    3.5607   -7.2702    3.3132 C   0  0  0  0  0  0  0  0  0  0  0  0
    3.1760   -8.5620    2.8953 C   0  0  0  0  0  0  0  0  0  0  0  0
    2.3710   -9.3265    3.6881 O   0  0  0  0  0  0  0  0  0  0  0  0
    3.6085   -9.0565    1.6366 C   0  0  0  0  0  0  0  0  0  0  0  0
    4.3724   -8.2435    0.7595 C   0  0  0  0  0  0  0  0  0  0  0  0
    4.7760   -6.9638    1.1770 C   0  0  0  0  0  0  0  0  0  0  0  0
    4.4067   -6.5818    2.4719 C   0  0  0  0  0  0  0  0  0  0  0  0
    4.7928   -5.3155    3.1862 C   0  0  2  0  0  0  0  0  0  0  0  0
    6.1554   -5.5195    3.8843 C   0  0  0  0  0  0  0  0  0  0  0  0
    7.2490   -5.8020    2.8309 C   0  0  0  0  0  0  0  0  0  0  0  0
    7.2135   -4.8349    1.6883 N   0  0  1  0  0  0  0  0  0  0  0  0
    8.2948   -5.0870    0.7036 C   0  0  0  0  0  0  0  0  0  0  0  0
    5.8468   -4.5881    1.1037 C   0  0  1  0  0  0  0  0  0  0  0  0
    5.3458   -5.8276    0.3312 C   0  0  0  0  0  0  0  0  0  0  0  0
    4.8520   -4.1343    2.2222 C   0  0  2  0  0  0  0  0  0  0  0  0
    5.3772   -2.9436    2.7963 O   0  0  0  0  0  0  0  0  0  0  0  0
    3.3329   -3.9099    1.9299 C   0  0  2  0  0  0  0  0  0  0  0  0
    2.6568   -1.0446   -3.0510 H   0  0  0  0  0  0  0  0  0  0  0  0
    4.2598   -0.2672   -3.5475 H   0  0  0  0  0  0  0  0  0  0  0  0
    5.3588   -1.2069   -1.6111 H   0  0  0  0  0  0  0  0  0  0  0  0
    2.5978   -2.5052   -1.1015 H   0  0  0  0  0  0  0  0  0  0  0  0
    4.1289   -3.2570   -0.7679 H   0  0  0  0  0  0  0  0  0  0  0  0
    4.5368   -1.5972    0.9644 H   0  0  0  0  0  0  0  0  0  0  0  0
    1.8136   -2.6139    1.1571 H   0  0  0  0  0  0  0  0  0  0  0  0
    3.4822   -1.3494    3.3230 H   0  0  0  0  0  0  0  0  0  0  0  0
    1.8211   -1.0270    2.8862 H   0  0  0  0  0  0  0  0  0  0  0  0
    2.5502   -2.8109    4.8696 H   0  0  0  0  0  0  0  0  0  0  0  0
    1.0542   -2.9162    4.0104 H   0  0  0  0  0  0  0  0  0  0  0  0
   -0.1158   -6.2938    3.3193 H   0  0  0  0  0  0  0  0  0  0  0  0
   -0.1571   -4.7183    4.0912 H   0  0  0  0  0  0  0  0  0  0  0  0
    0.9302   -5.9512    4.6728 H   0  0  0  0  0  0  0  0  0  0  0  0
    3.8383   -4.6392    5.0485 H   0  0  0  0  0  0  0  0  0  0  0  0
    2.2180  -10.1929    3.3422 H   0  0  0  0  0  0  0  0  0  0  0  0
    3.3145  -10.0369    1.3002 H   0  0  0  0  0  0  0  0  0  0  0  0
    4.6008   -8.5822   -0.2440 H   0  0  0  0  0  0  0  0  0  0  0  0
    6.4076   -4.6489    4.4882 H   0  0  0  0  0  0  0  0  0  0  0  0
    6.1133   -6.3453    4.5929 H   0  0  0  0  0  0  0  0  0  0  0  0
    8.2284   -5.7537    3.3081 H   0  0  0  0  0  0  0  0  0  0  0  0
    7.1445   -6.8216    2.4558 H   0  0  0  0  0  0  0  0  0  0  0  0
    8.2436   -6.0977    0.2990 H   0  0  0  0  0  0  0  0  0  0  0  0
    9.2556   -4.9775    1.2056 H   0  0  0  0  0  0  0  0  0  0  0  0
    8.2538   -4.3632   -0.1112 H   0  0  0  0  0  0  0  0  0  0  0  0
    5.9848   -3.7695    0.3994 H   0  0  0  0  0  0  0  0  0  0  0  0
    6.1220   -6.2257   -0.3189 H   0  0  0  0  0  0  0  0  0  0  0  0
    4.5519   -5.5105   -0.3406 H   0  0  0  0  0  0  0  0  0  0  0  0
    6.2376   -3.0884    3.1655 H   0  0  0  0  0  0  0  0  0  0  0  0
    3.0357   -4.5930    1.1304 H   0  0  0  0  0  0  0  0  0  0  0  0
    3.1589   -0.8121    0.5136 H   0  0  0  0  0  0  0  0  0  0  0  0
    7.4883   -3.9451    2.0875 H   0  0  0  0  0  0  0  0  0  0  0  0
  1  2  2  0
  1 30  1  0
  1 31  1  0
  2  3  1  0
  2 32  1  0
  3  4  1  0
  3 33  1  0
  3 34  1  0
  4  5  1  0
  4 35  1  0
  4 60  1  0
  5 29  1  0
  5  6  1  0
  5 36  1  6
  6  7  1  0
  6 37  1  0
  6 38  1  0
  7  8  1  0
  7 39  1  0
  7 40  1  0
  8 29  1  0
  8  9  1  6
  8 11  1  0
  9 10  1  0
 10 41  1  0
 10 42  1  0
 10 43  1  0
 11 20  1  0
 11 12  1  0
 11 44  1  1
 12 13  1  0
 13 19  2  0
 13 14  1  0
 14 15  1  0
 14 16  2  0
 15 45  1  0
 16 17  1  0
 16 46  1  0
 17 18  2  0
 17 47  1  0
 18 26  1  0
 18 19  1  0
 19 20  1  0
 20 27  1  0
 20 21  1  1
 21 22  1  0
 21 48  1  0
 21 49  1  0
 22 23  1  0
 22 50  1  0
 22 51  1  0
 23 24  1  0
 23 25  1  0
 23 61  1  1
 24 52  1  0
 24 53  1  0
 24 54  1  0
 25 26  1  0
 25 27  1  0
 25 55  1  6
 26 56  1  0
 26 57  1  0
 27 28  1  1
 27 29  1  0
 28 58  1  0
 29 59  1  6
M  CHG  2   4   1  23   1
M  END
>  <i_m_ct_stereo_status>  (248) 
1

>  <s_m_source_file>  (248) 
/var/tmp/pbs.5076255.sched01/tmpe6iyr0oq/80tt78e_gd.sdf

>  <i_m_source_file_index>  (248) 
22

>  <i_lp_mmshare_version>  (248) 
48012

>  <i_f3d_flags>  (248) 
0

>  <s_epik_input>  (248) 
W0NIMl09W0NIXVtDSDJdW05IXVtDQEhdKFtDSDJdW0NIMl0xKVtDQEhdKFtDQF0xKFtDQEBIXTJbQ0BdMzQ1KU9bQ0gzXSlbQ0BdNShbT0hdKVtDQEBIXShOKFtDSDNdKVtDSDJdW0NIMl00KVtDSDJdYzZjM2MoTzIpYyhbT0hdKVtjSF1bY0hdNg==

>  <s_epik_cmdline>  (248) 
J2VwaWtfcHl0aG9uJywgJy1waHQnLCAnMi4wJywgJy1waCcsICc3LjAnLCAnLXRuJywgJzgnLCAnLW1hJywgJzIwMCcsICctaW1hZScsICc8aW5maWxlLm1hZT4nLCAnLW9tYWUnLCAnPG91dGZpbGUubWFlPic=

>  <r_lp_tautomer_probability>  (248) 
1

>  <r_epik_Ionization_Penalty>  (248) 
0.176662

>  <r_epik_Ionization_Penalty_Charging>  (248) 
0.162286

>  <r_epik_Ionization_Penalty_Neutral>  (248) 
0.0143758

>  <r_epik_State_Penalty>  (248) 
0.154266

>  <r_epik_Charging_Adjusted_Penalty>  (248) 
0.316552

>  <i_epik_Tot_Q>  (248) 
2

>  <i_epik_Tot_abs_Q>  (248) 
2

>  <s_lp_Force_Field>  (248) 
OPLS3e

>  <r_lp_Energy>  (248) 
87.2656

>  <b_lp_Chiralities_Consistent>  (248) 
1

>  <s_lp_Variant>  (248) 
71:0-1

>  <s_i_glide_gridfile>  (248) 
pfpi4k_grid

>  <i_i_glide_lignum>  (248) 
22

>  <i_i_glide_rotatable_bonds>  (248) 
6

>  <r_i_docking_score>  (248) 
-2.8649

>  <r_i_glide_ligand_efficiency>  (248) 
-0.0987897

>  <r_i_glide_ligand_efficiency_sa>  (248) 
-0.303513

>  <r_i_glide_ligand_efficiency_ln>  (248) 
-0.65599

>  <r_i_glide_gscore>  (248) 
-2.8649

>  <r_i_glide_lipo>  (248) 
-0.407837

>  <r_i_glide_hbond>  (248) 
0

>  <r_i_glide_metal>  (248) 
-0

>  <r_i_glide_rewards>  (248) 
-1.17833

>  <r_i_glide_evdw>  (248) 
-19.9477

>  <r_i_glide_ecoul>  (248) 
-4.03052

>  <r_i_glide_erotb>  (248) 
0.366656

>  <r_i_glide_esite>  (248) 
-0.0434244

>  <r_i_glide_emodel>  (248) 
-37.3884

>  <r_i_glide_energy>  (248) 
-23.9782

>  <r_i_glide_einternal>  (248) 
0.416475

>  <r_i_glide_intrahb_reward>  (248) 
-0.5

>  <i_i_glide_confnum>  (248) 
5

>  <i_i_glide_posenum>  (248) 
34

>  <r_i_glide_eff_state_penalty>  (248) 
0

>  <ligand_id>  (248) 
71

>  <original_smiles>  (248) 
C=CCNC1CCC2(OC)C3Oc4c(O)ccc5c4C34CCN(C)C(C5)C4(O)C12

>  <smiles>  (248) 
[H]Oc1c([H])c([H])c2c3c1OC1([H])C4(OC([H])([H])[H])C([H])([H])C([H])([H])C([H])([N+]([H])([H])C([H])([H])C([H])=C([H])[H])C4([H])C4(O[H])C31C([H])([H])C([H])([H])[N+]([H])(C([H])([H])[H])C4([H])C2([H])[H]

$$$$
71:1:0
     RDKit          3D

 60 65  0  0  1  0  0  0  0  0999 V2000
    0.2903  -10.4630    2.8503 C   0  0  0  0  0  0  0  0  0  0  0  0
    1.4259   -9.8725    3.2419 C   0  0  0  0  0  0  0  0  0  0  0  0
    2.6571   -9.6944    2.3632 C   0  0  0  0  0  0  0  0  0  0  0  0
    3.0180   -8.2768    2.2539 N   0  0  0  0  0  0  0  0  0  0  0  0
    4.4454   -8.0057    1.9872 C   0  0  2  0  0  0  0  0  0  0  0  0
    5.3949   -8.4251    3.1219 C   0  0  0  0  0  0  0  0  0  0  0  0
    6.6983   -7.6427    2.8675 C   0  0  0  0  0  0  0  0  0  0  0  0
    6.3648   -6.4511    1.9179 C   0  0  2  0  0  0  0  0  0  0  0  0
    6.9672   -6.5128    0.6314 O   0  0  0  0  0  0  0  0  0  0  0  0
    8.3431   -6.8599    0.5253 C   0  0  0  0  0  0  0  0  0  0  0  0
    6.6905   -5.0481    2.5093 C   0  0  1  0  0  0  0  0  0  0  0  0
    7.5442   -4.2625    1.6396 O   0  0  0  0  0  0  0  0  0  0  0  0
    6.7426   -3.6203    0.7490 C   0  0  0  0  0  0  0  0  0  0  0  0
    7.0431   -2.9750   -0.4760 C   0  0  0  0  0  0  0  0  0  0  0  0
    8.3509   -2.7792   -0.8200 O   0  0  0  0  0  0  0  0  0  0  0  0
    5.9942   -2.5601   -1.3343 C   0  0  0  0  0  0  0  0  0  0  0  0
    4.6320   -2.8366   -1.0083 C   0  0  0  0  0  0  0  0  0  0  0  0
    4.3095   -3.4064    0.2372 C   0  0  0  0  0  0  0  0  0  0  0  0
    5.3937   -3.7118    1.0701 C   0  0  0  0  0  0  0  0  0  0  0  0
    5.3399   -4.3101    2.4512 C   0  0  2  0  0  0  0  0  0  0  0  0
    5.1157   -3.1975    3.5072 C   0  0  0  0  0  0  0  0  0  0  0  0
    3.7390   -2.5554    3.3092 C   0  0  0  0  0  0  0  0  0  0  0  0
    2.6606   -3.5333    3.1628 N   0  0  0  0  0  0  0  0  0  0  0  0
    1.3896   -2.8552    2.9796 C   0  0  0  0  0  0  0  0  0  0  0  0
    2.9506   -4.5869    2.1521 C   0  0  1  0  0  0  0  0  0  0  0  0
    3.0025   -4.0351    0.7105 C   0  0  0  0  0  0  0  0  0  0  0  0
    4.2478   -5.3666    2.5525 C   0  0  2  0  0  0  0  0  0  0  0  0
    4.1736   -5.8264    3.8981 O   0  0  0  0  0  0  0  0  0  0  0  0
    4.8163   -6.5241    1.6813 C   0  0  2  0  0  0  0  0  0  0  0  0
    0.1535  -10.8253    1.8328 H   0  0  0  0  0  0  0  0  0  0  0  0
   -0.5246  -10.5746    3.5614 H   0  0  0  0  0  0  0  0  0  0  0  0
    1.4917   -9.4956    4.2599 H   0  0  0  0  0  0  0  0  0  0  0  0
    3.4210  -10.2950    2.8573 H   0  0  0  0  0  0  0  0  0  0  0  0
    2.5079  -10.1022    1.3596 H   0  0  0  0  0  0  0  0  0  0  0  0
    2.4833   -7.8943    1.4817 H   0  0  0  0  0  0  0  0  0  0  0  0
    4.7458   -8.5732    1.1133 H   0  0  0  0  0  0  0  0  0  0  0  0
    4.9936   -8.1769    4.1084 H   0  0  0  0  0  0  0  0  0  0  0  0
    5.5894   -9.5055    3.1332 H   0  0  0  0  0  0  0  0  0  0  0  0
    7.1242   -7.3135    3.8207 H   0  0  0  0  0  0  0  0  0  0  0  0
    7.4317   -8.3286    2.4491 H   0  0  0  0  0  0  0  0  0  0  0  0
    8.6580   -6.6881   -0.4955 H   0  0  0  0  0  0  0  0  0  0  0  0
    8.4974   -7.9199    0.6883 H   0  0  0  0  0  0  0  0  0  0  0  0
    9.0074   -6.2937    1.1769 H   0  0  0  0  0  0  0  0  0  0  0  0
    7.0390   -5.1393    3.5432 H   0  0  0  0  0  0  0  0  0  0  0  0
    8.5276   -2.6987   -1.7415 H   0  0  0  0  0  0  0  0  0  0  0  0
    6.2139   -2.0989   -2.2755 H   0  0  0  0  0  0  0  0  0  0  0  0
    3.8559   -2.6468   -1.7302 H   0  0  0  0  0  0  0  0  0  0  0  0
    5.1824   -3.6293    4.5095 H   0  0  0  0  0  0  0  0  0  0  0  0
    5.8753   -2.4235    3.4451 H   0  0  0  0  0  0  0  0  0  0  0  0
    3.5430   -1.9013    4.1665 H   0  0  0  0  0  0  0  0  0  0  0  0
    3.7721   -1.9114    2.4307 H   0  0  0  0  0  0  0  0  0  0  0  0
    0.5921   -3.5912    2.9141 H   0  0  0  0  0  0  0  0  0  0  0  0
    1.4005   -2.2314    2.0826 H   0  0  0  0  0  0  0  0  0  0  0  0
    1.1521   -2.1945    3.8195 H   0  0  0  0  0  0  0  0  0  0  0  0
    2.1122   -5.2846    2.1687 H   0  0  0  0  0  0  0  0  0  0  0  0
    2.1867   -3.3514    0.4748 H   0  0  0  0  0  0  0  0  0  0  0  0
    2.8722   -4.8837    0.0437 H   0  0  0  0  0  0  0  0  0  0  0  0
    3.3675   -6.2805    4.0443 H   0  0  0  0  0  0  0  0  0  0  0  0
    4.6034   -6.3070    0.6294 H   0  0  0  0  0  0  0  0  0  0  0  0
    2.7302   -7.8203    3.1048 H   0  0  0  0  0  0  0  0  0  0  0  0
  1  2  2  0
  1 30  1  0
  1 31  1  0
  2  3  1  0
  2 32  1  0
  3  4  1  0
  3 33  1  0
  3 34  1  0
  4  5  1  0
  4 35  1  0
  4 60  1  0
  5 29  1  0
  5  6  1  0
  5 36  1  6
  6  7  1  0
  6 37  1  0
  6 38  1  0
  7  8  1  0
  7 39  1  0
  7 40  1  0
  8 29  1  0
  8  9  1  6
  8 11  1  0
  9 10  1  0
 10 41  1  0
 10 42  1  0
 10 43  1  0
 11 20  1  0
 11 12  1  0
 11 44  1  1
 12 13  1  0
 13 19  2  0
 13 14  1  0
 14 15  1  0
 14 16  2  0
 15 45  1  0
 16 17  1  0
 16 46  1  0
 17 18  2  0
 17 47  1  0
 18 26  1  0
 18 19  1  0
 19 20  1  0
 20 27  1  0
 20 21  1  1
 21 22  1  0
 21 48  1  0
 21 49  1  0
 22 23  1  0
 22 50  1  0
 22 51  1  0
 23 24  1  0
 23 25  1  0
 24 52  1  0
 24 53  1  0
 24 54  1  0
 25 26  1  0
 25 27  1  0
 25 55  1  6
 26 56  1  0
 26 57  1  0
 27 28  1  1
 27 29  1  0
 28 58  1  0
 29 59  1  6
M  CHG  1   4   1
M  END
>  <i_m_ct_stereo_status>  (249) 
1

>  <s_m_source_file>  (249) 
/var/tmp/pbs.5076255.sched01/tmpe6iyr0oq/80tt78e_gd.sdf

>  <i_m_source_file_index>  (249) 
23

>  <i_lp_mmshare_version>  (249) 
48012

>  <i_f3d_flags>  (249) 
0

>  <s_epik_input>  (249) 
W0NIMl09W0NIXVtDSDJdW05IXVtDQEhdKFtDSDJdW0NIMl0xKVtDQEhdKFtDQF0xKFtDQEBIXTJbQ0BdMzQ1KU9bQ0gzXSlbQ0BdNShbT0hdKVtDQEBIXShOKFtDSDNdKVtDSDJdW0NIMl00KVtDSDJdYzZjM2MoTzIpYyhbT0hdKVtjSF1bY0hdNg==

>  <s_epik_cmdline>  (249) 
J2VwaWtfcHl0aG9uJywgJy1waHQnLCAnMi4wJywgJy1waCcsICc3LjAnLCAnLXRuJywgJzgnLCAnLW1hJywgJzIwMCcsICctaW1hZScsICc8aW5maWxlLm1hZT4nLCAnLW9tYWUnLCAnPG91dGZpbGUubWFlPic=

>  <r_lp_tautomer_probability>  (249) 
1

>  <r_epik_Ionization_Penalty>  (249) 
0.869522

>  <r_epik_Ionization_Penalty_Charging>  (249) 
0.00210671

>  <r_epik_Ionization_Penalty_Neutral>  (249) 
0.867415

>  <r_epik_State_Penalty>  (249) 
0.91216

>  <r_epik_Charging_Adjusted_Penalty>  (249) 
0.914266

>  <i_epik_Tot_Q>  (249) 
1

>  <i_epik_Tot_abs_Q>  (249) 
1

>  <s_lp_Force_Field>  (249) 
OPLS3e

>  <r_lp_Energy>  (249) 
78.253

>  <b_lp_Chiralities_Consistent>  (249) 
1

>  <s_lp_Variant>  (249) 
71:0-2

>  <s_i_glide_gridfile>  (249) 
pfpi4k_grid

>  <i_i_glide_lignum>  (249) 
23

>  <i_i_glide_rotatable_bonds>  (249) 
6

>  <r_i_docking_score>  (249) 
-2.8509

>  <r_i_glide_ligand_efficiency>  (249) 
-0.0983068

>  <r_i_glide_ligand_efficiency_sa>  (249) 
-0.30203

>  <r_i_glide_ligand_efficiency_ln>  (249) 
-0.652783

>  <r_i_glide_gscore>  (249) 
-2.8509

>  <r_i_glide_lipo>  (249) 
-0.623964

>  <r_i_glide_hbond>  (249) 
0

>  <r_i_glide_metal>  (249) 
-0

>  <r_i_glide_rewards>  (249) 
-0.685205

>  <r_i_glide_evdw>  (249) 
-19.7422

>  <r_i_glide_ecoul>  (249) 
-5.35504

>  <r_i_glide_erotb>  (249) 
0.257826

>  <r_i_glide_esite>  (249) 
-0.00918793

>  <r_i_glide_emodel>  (249) 
-30.0686

>  <r_i_glide_energy>  (249) 
-25.0972

>  <r_i_glide_einternal>  (249) 
2.38291

>  <r_i_glide_intrahb_reward>  (249) 
-0

>  <i_i_glide_confnum>  (249) 
3

>  <i_i_glide_posenum>  (249) 
4

>  <r_i_glide_eff_state_penalty>  (249) 
0

>  <ligand_id>  (249) 
71

>  <original_smiles>  (249) 
C=CCNC1CCC2(OC)C3Oc4c(O)ccc5c4C34CCN(C)C(C5)C4(O)C12

>  <smiles>  (249) 
[H]Oc1c([H])c([H])c2c3c1OC1([H])C4(OC([H])([H])[H])C([H])([H])C([H])([H])C([H])([N+]([H])([H])C([H])([H])C([H])=C([H])[H])C4([H])C4(O[H])C([H])(N(C([H])([H])[H])C([H])([H])C([H])([H])C314)C2([H])[H]

$$$$
71:1:1
     RDKit          3D

 60 65  0  0  1  0  0  0  0  0999 V2000
    6.0221   -3.1382   -2.0547 C   0  0  0  0  0  0  0  0  0  0  0  0
    5.0367   -4.0263   -1.8705 C   0  0  0  0  0  0  0  0  0  0  0  0
    3.9507   -3.8769   -0.8261 C   0  0  0  0  0  0  0  0  0  0  0  0
    3.9356   -5.0348    0.1034 N   0  0  0  0  0  0  0  0  0  0  0  0
    3.0552   -4.8634    1.3003 C   0  0  2  0  0  0  0  0  0  0  0  0
    3.4318   -3.7084    2.2355 C   0  0  0  0  0  0  0  0  0  0  0  0
    2.7204   -4.0208    3.5632 C   0  0  0  0  0  0  0  0  0  0  0  0
    2.3357   -5.5259    3.5670 C   0  0  2  0  0  0  0  0  0  0  0  0
    0.9151   -5.6902    3.4576 O   0  0  0  0  0  0  0  0  0  0  0  0
    0.0892   -5.1749    4.5006 C   0  0  0  0  0  0  0  0  0  0  0  0
    2.9670   -6.3634    4.7493 C   0  0  1  0  0  0  0  0  0  0  0  0
    2.0212   -7.0993    5.5621 O   0  0  0  0  0  0  0  0  0  0  0  0
    1.7839   -8.2759    4.9017 C   0  0  0  0  0  0  0  0  0  0  0  0
    0.7358   -9.2135    5.0345 C   0  0  0  0  0  0  0  0  0  0  0  0
   -0.1866   -9.1103    6.0254 O   0  0  0  0  0  0  0  0  0  0  0  0
    0.6137  -10.2596    4.0863 C   0  0  0  0  0  0  0  0  0  0  0  0
    1.4759  -10.3284    2.9751 C   0  0  0  0  0  0  0  0  0  0  0  0
    2.5687   -9.4499    2.8677 C   0  0  0  0  0  0  0  0  0  0  0  0
    2.6843   -8.4968    3.8862 C   0  0  0  0  0  0  0  0  0  0  0  0
    3.7545   -7.4550    4.0140 C   0  0  2  0  0  0  0  0  0  0  0  0
    4.9753   -8.0436    4.7509 C   0  0  0  0  0  0  0  0  0  0  0  0
    5.6249   -9.1529    3.8983 C   0  0  0  0  0  0  0  0  0  0  0  0
    5.8321   -8.7733    2.4890 N   0  0  0  0  0  0  0  0  0  0  0  0
    6.4268   -9.8753    1.7334 C   0  0  0  0  0  0  0  0  0  0  0  0
    4.6276   -8.1882    1.8507 C   0  0  1  0  0  0  0  0  0  0  0  0
    3.4821   -9.2209    1.6710 C   0  0  0  0  0  0  0  0  0  0  0  0
    4.1647   -6.9176    2.6490 C   0  0  2  0  0  0  0  0  0  0  0  0
    5.2579   -6.0186    2.7862 O   0  0  0  0  0  0  0  0  0  0  0  0
    2.9086   -6.0990    2.2249 C   0  0  2  0  0  0  0  0  0  0  0  0
    6.1195   -2.2506   -1.4364 H   0  0  0  0  0  0  0  0  0  0  0  0
    6.7557   -3.2894   -2.8366 H   0  0  0  0  0  0  0  0  0  0  0  0
    5.0062   -4.8991   -2.5117 H   0  0  0  0  0  0  0  0  0  0  0  0
    4.1143   -2.9447   -0.2886 H   0  0  0  0  0  0  0  0  0  0  0  0
    2.9861   -3.8127   -1.3215 H   0  0  0  0  0  0  0  0  0  0  0  0
    3.6059   -5.8232   -0.4363 H   0  0  0  0  0  0  0  0  0  0  0  0
    2.0553   -4.6425    0.9283 H   0  0  0  0  0  0  0  0  0  0  0  0
    4.5106   -3.6452    2.3988 H   0  0  0  0  0  0  0  0  0  0  0  0
    3.1239   -2.7351    1.8473 H   0  0  0  0  0  0  0  0  0  0  0  0
    3.3610   -3.7598    4.4047 H   0  0  0  0  0  0  0  0  0  0  0  0
    1.8410   -3.3854    3.6624 H   0  0  0  0  0  0  0  0  0  0  0  0
   -0.8660   -5.6912    4.4448 H   0  0  0  0  0  0  0  0  0  0  0  0
   -0.0998   -4.1088    4.3919 H   0  0  0  0  0  0  0  0  0  0  0  0
    0.4603   -5.3350    5.5080 H   0  0  0  0  0  0  0  0  0  0  0  0
    3.6167   -5.7528    5.3810 H   0  0  0  0  0  0  0  0  0  0  0  0
   -0.8519   -9.7851    5.9071 H   0  0  0  0  0  0  0  0  0  0  0  0
   -0.1847  -10.9875    4.1623 H   0  0  0  0  0  0  0  0  0  0  0  0
    1.2638  -11.0409    2.1939 H   0  0  0  0  0  0  0  0  0  0  0  0
    5.7074   -7.2591    4.9342 H   0  0  0  0  0  0  0  0  0  0  0  0
    4.6990   -8.4269    5.7351 H   0  0  0  0  0  0  0  0  0  0  0  0
    6.5800   -9.4197    4.3529 H   0  0  0  0  0  0  0  0  0  0  0  0
    5.0064  -10.0489    3.9541 H   0  0  0  0  0  0  0  0  0  0  0  0
    6.5714   -9.6114    0.6841 H   0  0  0  0  0  0  0  0  0  0  0  0
    5.8094  -10.7739    1.7738 H   0  0  0  0  0  0  0  0  0  0  0  0
    7.3965  -10.1432    2.1528 H   0  0  0  0  0  0  0  0  0  0  0  0
    4.9137   -7.8788    0.8466 H   0  0  0  0  0  0  0  0  0  0  0  0
    3.8364  -10.1793    1.2973 H   0  0  0  0  0  0  0  0  0  0  0  0
    2.8210   -8.8411    0.9020 H   0  0  0  0  0  0  0  0  0  0  0  0
    5.6661   -5.9005    1.9420 H   0  0  0  0  0  0  0  0  0  0  0  0
    2.1852   -6.7873    1.7867 H   0  0  0  0  0  0  0  0  0  0  0  0
    4.8893   -5.2008    0.3890 H   0  0  0  0  0  0  0  0  0  0  0  0
  1  2  2  0
  1 30  1  0
  1 31  1  0
  2  3  1  0
  2 32  1  0
  3  4  1  0
  3 33  1  0
  3 34  1  0
  4  5  1  0
  4 35  1  0
  4 60  1  0
  5 29  1  0
  5  6  1  0
  5 36  1  6
  6  7  1  0
  6 37  1  0
  6 38  1  0
  7  8  1  0
  7 39  1  0
  7 40  1  0
  8 29  1  0
  8  9  1  6
  8 11  1  0
  9 10  1  0
 10 41  1  0
 10 42  1  0
 10 43  1  0
 11 20  1  0
 11 12  1  0
 11 44  1  1
 12 13  1  0
 13 19  2  0
 13 14  1  0
 14 15  1  0
 14 16  2  0
 15 45  1  0
 16 17  1  0
 16 46  1  0
 17 18  2  0
 17 47  1  0
 18 26  1  0
 18 19  1  0
 19 20  1  0
 20 27  1  0
 20 21  1  1
 21 22  1  0
 21 48  1  0
 21 49  1  0
 22 23  1  0
 22 50  1  0
 22 51  1  0
 23 24  1  0
 23 25  1  0
 24 52  1  0
 24 53  1  0
 24 54  1  0
 25 26  1  0
 25 27  1  0
 25 55  1  6
 26 56  1  0
 26 57  1  0
 27 28  1  1
 27 29  1  0
 28 58  1  0
 29 59  1  6
M  CHG  1   4   1
M  END
>  <i_m_ct_stereo_status>  (250) 
1

>  <s_m_source_file>  (250) 
/var/tmp/pbs.5076255.sched01/tmpe6iyr0oq/80tt78e_gd.sdf

>  <i_m_source_file_index>  (250) 
23

>  <i_lp_mmshare_version>  (250) 
48012

>  <i_f3d_flags>  (250) 
0

>  <s_epik_input>  (250) 
W0NIMl09W0NIXVtDSDJdW05IXVtDQEhdKFtDSDJdW0NIMl0xKVtDQEhdKFtDQF0xKFtDQEBIXTJbQ0BdMzQ1KU9bQ0gzXSlbQ0BdNShbT0hdKVtDQEBIXShOKFtDSDNdKVtDSDJdW0NIMl00KVtDSDJdYzZjM2MoTzIpYyhbT0hdKVtjSF1bY0hdNg==

>  <s_epik_cmdline>  (250) 
J2VwaWtfcHl0aG9uJywgJy1waHQnLCAnMi4wJywgJy1waCcsICc3LjAnLCAnLXRuJywgJzgnLCAnLW1hJywgJzIwMCcsICctaW1hZScsICc8aW5maWxlLm1hZT4nLCAnLW9tYWUnLCAnPG91dGZpbGUubWFlPic=

>  <r_lp_tautomer_probability>  (250) 
1

>  <r_epik_Ionization_Penalty>  (250) 
0.869522

>  <r_epik_Ionization_Penalty_Charging>  (250) 
0.00210671

>  <r_epik_Ionization_Penalty_Neutral>  (250) 
0.867415

>  <r_epik_State_Penalty>  (250) 
0.91216

>  <r_epik_Charging_Adjusted_Penalty>  (250) 
0.914266

>  <i_epik_Tot_Q>  (250) 
1

>  <i_epik_Tot_abs_Q>  (250) 
1

>  <s_lp_Force_Field>  (250) 
OPLS3e

>  <r_lp_Energy>  (250) 
78.253

>  <b_lp_Chiralities_Consistent>  (250) 
1

>  <s_lp_Variant>  (250) 
71:0-2

>  <s_i_glide_gridfile>  (250) 
pfpi4k_grid

>  <i_i_glide_lignum>  (250) 
23

>  <i_i_glide_rotatable_bonds>  (250) 
6

>  <r_i_docking_score>  (250) 
-2.64188

>  <r_i_glide_ligand_efficiency>  (250) 
-0.0910993

>  <r_i_glide_ligand_efficiency_sa>  (250) 
-0.279886

>  <r_i_glide_ligand_efficiency_ln>  (250) 
-0.604923

>  <r_i_glide_gscore>  (250) 
-2.64188

>  <r_i_glide_lipo>  (250) 
-0.300846

>  <r_i_glide_hbond>  (250) 
0

>  <r_i_glide_metal>  (250) 
-0

>  <r_i_glide_rewards>  (250) 
-0.685205

>  <r_i_glide_evdw>  (250) 
-19.7941

>  <r_i_glide_ecoul>  (250) 
-6.82084

>  <r_i_glide_erotb>  (250) 
0.368323

>  <r_i_glide_esite>  (250) 
-0.0113205

>  <r_i_glide_emodel>  (250) 
-32.6305

>  <r_i_glide_energy>  (250) 
-26.6149

>  <r_i_glide_einternal>  (250) 
0.466253

>  <r_i_glide_intrahb_reward>  (250) 
-0

>  <i_i_glide_confnum>  (250) 
1

>  <i_i_glide_posenum>  (250) 
23

>  <r_i_glide_eff_state_penalty>  (250) 
0

>  <ligand_id>  (250) 
71

>  <original_smiles>  (250) 
C=CCNC1CCC2(OC)C3Oc4c(O)ccc5c4C34CCN(C)C(C5)C4(O)C12

>  <smiles>  (250) 
[H]Oc1c([H])c([H])c2c3c1OC1([H])C4(OC([H])([H])[H])C([H])([H])C([H])([H])C([H])([N+]([H])([H])C([H])([H])C([H])=C([H])[H])C4([H])C4(O[H])C([H])(N(C([H])([H])[H])C([H])([H])C([H])([H])C314)C2([H])[H]

$$$$
71:1:2
     RDKit          3D

 60 65  0  0  1  0  0  0  0  0999 V2000
    4.5823   -3.9927   -3.9101 C   0  0  0  0  0  0  0  0  0  0  0  0
    3.5294   -3.1688   -3.7365 C   0  0  0  0  0  0  0  0  0  0  0  0
    2.9858   -2.6317   -2.4228 C   0  0  0  0  0  0  0  0  0  0  0  0
    3.4417   -3.4297   -1.2610 N   0  0  0  0  0  0  0  0  0  0  0  0
    3.1179   -2.8308    0.0625 C   0  0  2  0  0  0  0  0  0  0  0  0
    4.1592   -1.8560    0.6142 C   0  0  0  0  0  0  0  0  0  0  0  0
    3.8301   -1.7563    2.1174 C   0  0  0  0  0  0  0  0  0  0  0  0
    2.9405   -2.9725    2.5107 C   0  0  2  0  0  0  0  0  0  0  0  0
    1.5933   -2.5766    2.8042 O   0  0  0  0  0  0  0  0  0  0  0  0
    1.3687   -1.6173    3.8345 C   0  0  0  0  0  0  0  0  0  0  0  0
    3.5414   -3.9088    3.6265 C   0  0  1  0  0  0  0  0  0  0  0  0
    2.6652   -4.1372    4.7564 O   0  0  0  0  0  0  0  0  0  0  0  0
    1.8281   -5.1671    4.4097 C   0  0  0  0  0  0  0  0  0  0  0  0
    0.6092   -5.5987    4.9731 C   0  0  0  0  0  0  0  0  0  0  0  0
    0.1629   -5.0551    6.1439 O   0  0  0  0  0  0  0  0  0  0  0  0
   -0.1680   -6.5795    4.3041 C   0  0  0  0  0  0  0  0  0  0  0  0
    0.2292   -7.0880    3.0389 C   0  0  0  0  0  0  0  0  0  0  0  0
    1.4714   -6.6945    2.5004 C   0  0  0  0  0  0  0  0  0  0  0  0
    2.2369   -5.8073    3.2605 C   0  0  0  0  0  0  0  0  0  0  0  0
    3.6090   -5.2788    2.9309 C   0  0  2  0  0  0  0  0  0  0  0  0
    4.6996   -6.2547    3.4254 C   0  0  0  0  0  0  0  0  0  0  0  0
    4.6066   -7.5905    2.6591 C   0  0  0  0  0  0  0  0  0  0  0  0
    4.4881   -7.4309    1.2006 N   0  0  0  0  0  0  0  0  0  0  0  0
    4.3877   -8.7299    0.5361 C   0  0  0  0  0  0  0  0  0  0  0  0
    3.4505   -6.4506    0.7922 C   0  0  1  0  0  0  0  0  0  0  0  0
    2.0051   -6.9385    1.0981 C   0  0  0  0  0  0  0  0  0  0  0  0
    3.7594   -5.0541    1.4325 C   0  0  2  0  0  0  0  0  0  0  0  0
    5.0842   -4.6732    1.0916 O   0  0  0  0  0  0  0  0  0  0  0  0
    2.8350   -3.8262    1.2039 C   0  0  2  0  0  0  0  0  0  0  0  0
    5.1598   -4.3787   -3.0789 H   0  0  0  0  0  0  0  0  0  0  0  0
    4.8793   -4.2994   -4.9038 H   0  0  0  0  0  0  0  0  0  0  0  0
    2.9879   -2.8150   -4.6027 H   0  0  0  0  0  0  0  0  0  0  0  0
    3.2880   -1.5871   -2.3313 H   0  0  0  0  0  0  0  0  0  0  0  0
    1.8935   -2.6557   -2.4561 H   0  0  0  0  0  0  0  0  0  0  0  0
    3.0046   -4.3370   -1.3638 H   0  0  0  0  0  0  0  0  0  0  0  0
    2.2121   -2.2544   -0.0328 H   0  0  0  0  0  0  0  0  0  0  0  0
    5.1820   -2.2211    0.4806 H   0  0  0  0  0  0  0  0  0  0  0  0
    4.1091   -0.8789    0.1265 H   0  0  0  0  0  0  0  0  0  0  0  0
    4.7468   -1.7181    2.7034 H   0  0  0  0  0  0  0  0  0  0  0  0
    3.3260   -0.8093    2.3033 H   0  0  0  0  0  0  0  0  0  0  0  0
    0.3241   -1.6679    4.1326 H   0  0  0  0  0  0  0  0  0  0  0  0
    1.5388   -0.5980    3.4958 H   0  0  0  0  0  0  0  0  0  0  0  0
    1.9694   -1.7854    4.7251 H   0  0  0  0  0  0  0  0  0  0  0  0
    4.5298   -3.5703    3.9486 H   0  0  0  0  0  0  0  0  0  0  0  0
   -0.6049   -5.4955    6.4759 H   0  0  0  0  0  0  0  0  0  0  0  0
   -1.1037   -6.9108    4.7251 H   0  0  0  0  0  0  0  0  0  0  0  0
   -0.4185   -7.7558    2.4893 H   0  0  0  0  0  0  0  0  0  0  0  0
    5.6858   -5.8211    3.2642 H   0  0  0  0  0  0  0  0  0  0  0  0
    4.6218   -6.4247    4.4995 H   0  0  0  0  0  0  0  0  0  0  0  0
    5.4929   -8.1856    2.8914 H   0  0  0  0  0  0  0  0  0  0  0  0
    3.7564   -8.1585    3.0356 H   0  0  0  0  0  0  0  0  0  0  0  0
    4.2833   -8.6144   -0.5425 H   0  0  0  0  0  0  0  0  0  0  0  0
    3.5350   -9.3065    0.8972 H   0  0  0  0  0  0  0  0  0  0  0  0
    5.2766   -9.3357    0.7250 H   0  0  0  0  0  0  0  0  0  0  0  0
    3.5196   -6.3455   -0.2921 H   0  0  0  0  0  0  0  0  0  0  0  0
    1.8575   -7.9969    0.8885 H   0  0  0  0  0  0  0  0  0  0  0  0
    1.3409   -6.4008    0.4292 H   0  0  0  0  0  0  0  0  0  0  0  0
    5.1921   -4.7730    0.1590 H   0  0  0  0  0  0  0  0  0  0  0  0
    1.8194   -4.2004    1.0972 H   0  0  0  0  0  0  0  0  0  0  0  0
    4.4426   -3.5385   -1.3393 H   0  0  0  0  0  0  0  0  0  0  0  0
  1  2  2  0
  1 30  1  0
  1 31  1  0
  2  3  1  0
  2 32  1  0
  3  4  1  0
  3 33  1  0
  3 34  1  0
  4  5  1  0
  4 35  1  0
  4 60  1  0
  5 29  1  0
  5  6  1  0
  5 36  1  6
  6  7  1  0
  6 37  1  0
  6 38  1  0
  7  8  1  0
  7 39  1  0
  7 40  1  0
  8 29  1  0
  8  9  1  1
  8 11  1  0
  9 10  1  0
 10 41  1  0
 10 42  1  0
 10 43  1  0
 11 20  1  0
 11 12  1  0
 11 44  1  1
 12 13  1  0
 13 19  2  0
 13 14  1  0
 14 15  1  0
 14 16  2  0
 15 45  1  0
 16 17  1  0
 16 46  1  0
 17 18  2  0
 17 47  1  0
 18 26  1  0
 18 19  1  0
 19 20  1  0
 20 27  1  0
 20 21  1  1
 21 22  1  0
 21 48  1  0
 21 49  1  0
 22 23  1  0
 22 50  1  0
 22 51  1  0
 23 24  1  0
 23 25  1  0
 24 52  1  0
 24 53  1  0
 24 54  1  0
 25 26  1  0
 25 27  1  0
 25 55  1  6
 26 56  1  0
 26 57  1  0
 27 28  1  1
 27 29  1  0
 28 58  1  0
 29 59  1  6
M  CHG  1   4   1
M  END
>  <i_m_ct_stereo_status>  (251) 
1

>  <s_m_source_file>  (251) 
/var/tmp/pbs.5076255.sched01/tmpe6iyr0oq/80tt78e_gd.sdf

>  <i_m_source_file_index>  (251) 
23

>  <i_lp_mmshare_version>  (251) 
48012

>  <i_f3d_flags>  (251) 
0

>  <s_epik_input>  (251) 
W0NIMl09W0NIXVtDSDJdW05IXVtDQEhdKFtDSDJdW0NIMl0xKVtDQEhdKFtDQF0xKFtDQEBIXTJbQ0BdMzQ1KU9bQ0gzXSlbQ0BdNShbT0hdKVtDQEBIXShOKFtDSDNdKVtDSDJdW0NIMl00KVtDSDJdYzZjM2MoTzIpYyhbT0hdKVtjSF1bY0hdNg==

>  <s_epik_cmdline>  (251) 
J2VwaWtfcHl0aG9uJywgJy1waHQnLCAnMi4wJywgJy1waCcsICc3LjAnLCAnLXRuJywgJzgnLCAnLW1hJywgJzIwMCcsICctaW1hZScsICc8aW5maWxlLm1hZT4nLCAnLW9tYWUnLCAnPG91dGZpbGUubWFlPic=

>  <r_lp_tautomer_probability>  (251) 
1

>  <r_epik_Ionization_Penalty>  (251) 
0.869522

>  <r_epik_Ionization_Penalty_Charging>  (251) 
0.00210671

>  <r_epik_Ionization_Penalty_Neutral>  (251) 
0.867415

>  <r_epik_State_Penalty>  (251) 
0.91216

>  <r_epik_Charging_Adjusted_Penalty>  (251) 
0.914266

>  <i_epik_Tot_Q>  (251) 
1

>  <i_epik_Tot_abs_Q>  (251) 
1

>  <s_lp_Force_Field>  (251) 
OPLS3e

>  <r_lp_Energy>  (251) 
78.253

>  <b_lp_Chiralities_Consistent>  (251) 
1

>  <s_lp_Variant>  (251) 
71:0-2

>  <s_i_glide_gridfile>  (251) 
pfpi4k_grid

>  <i_i_glide_lignum>  (251) 
23

>  <i_i_glide_rotatable_bonds>  (251) 
6

>  <r_i_docking_score>  (251) 
-2.20485

>  <r_i_glide_ligand_efficiency>  (251) 
-0.0760295

>  <r_i_glide_ligand_efficiency_sa>  (251) 
-0.233587

>  <r_i_glide_ligand_efficiency_ln>  (251) 
-0.504856

>  <r_i_glide_gscore>  (251) 
-2.20485

>  <r_i_glide_lipo>  (251) 
-0.222185

>  <r_i_glide_hbond>  (251) 
0

>  <r_i_glide_metal>  (251) 
-0

>  <r_i_glide_rewards>  (251) 
-0.685205

>  <r_i_glide_evdw>  (251) 
-24.0346

>  <r_i_glide_ecoul>  (251) 
-3.0937

>  <r_i_glide_erotb>  (251) 
0.368323

>  <r_i_glide_esite>  (251) 
0

>  <r_i_glide_emodel>  (251) 
-30.2177

>  <r_i_glide_energy>  (251) 
-27.1283

>  <r_i_glide_einternal>  (251) 
4.40924

>  <r_i_glide_intrahb_reward>  (251) 
-0

>  <i_i_glide_confnum>  (251) 
2

>  <i_i_glide_posenum>  (251) 
1

>  <r_i_glide_eff_state_penalty>  (251) 
0

>  <ligand_id>  (251) 
71

>  <original_smiles>  (251) 
C=CCNC1CCC2(OC)C3Oc4c(O)ccc5c4C34CCN(C)C(C5)C4(O)C12

>  <smiles>  (251) 
[H]Oc1c([H])c([H])c2c3c1OC1([H])C4(OC([H])([H])[H])C([H])([H])C([H])([H])C([H])([N+]([H])([H])C([H])([H])C([H])=C([H])[H])C4([H])C4(O[H])C([H])(N(C([H])([H])[H])C([H])([H])C([H])([H])C314)C2([H])[H]

$$$$
71:2:0
     RDKit          3D

 60 65  0  0  1  0  0  0  0  0999 V2000
    5.0505   -3.7510   -3.8783 C   0  0  0  0  0  0  0  0  0  0  0  0
    3.9445   -3.5404   -3.1510 C   0  0  0  0  0  0  0  0  0  0  0  0
    3.9094   -2.8648   -1.7908 C   0  0  0  0  0  0  0  0  0  0  0  0
    3.6713   -3.8498   -0.7122 N   0  0  0  0  0  0  0  0  0  0  0  0
    3.2172   -3.2577    0.5801 C   0  0  2  0  0  0  0  0  0  0  0  0
    4.2405   -2.3852    1.3153 C   0  0  0  0  0  0  0  0  0  0  0  0
    3.6968   -2.2652    2.7519 C   0  0  0  0  0  0  0  0  0  0  0  0
    2.6964   -3.4283    2.9929 C   0  0  2  0  0  0  0  0  0  0  0  0
    1.3547   -2.9406    3.1050 O   0  0  0  0  0  0  0  0  0  0  0  0
    1.0386   -1.9978    4.1313 C   0  0  0  0  0  0  0  0  0  0  0  0
    3.0788   -4.4153    4.1538 C   0  0  1  0  0  0  0  0  0  0  0  0
    2.0607   -4.5960    5.1664 O   0  0  0  0  0  0  0  0  0  0  0  0
    1.2198   -5.5753    4.7094 C   0  0  0  0  0  0  0  0  0  0  0  0
   -0.0754   -5.9595    5.1375 C   0  0  0  0  0  0  0  0  0  0  0  0
   -0.6220   -5.4023    6.2609 O   0  0  0  0  0  0  0  0  0  0  0  0
   -0.8137   -6.9023    4.3760 C   0  0  0  0  0  0  0  0  0  0  0  0
   -0.3179   -7.4201    3.1539 C   0  0  0  0  0  0  0  0  0  0  0  0
    0.9840   -7.0675    2.7410 C   0  0  0  0  0  0  0  0  0  0  0  0
    1.7011   -6.2231    3.6006 C   0  0  0  0  0  0  0  0  0  0  0  0
    3.1372   -5.7815    3.4467 C   0  0  2  0  0  0  0  0  0  0  0  0
    4.0803   -6.8335    4.0768 C   0  0  0  0  0  0  0  0  0  0  0  0
    3.9274   -8.1813    3.3419 C   0  0  0  0  0  0  0  0  0  0  0  0
    4.0100   -8.0244    1.8628 N   0  0  1  0  0  0  0  0  0  0  0  0
    3.8982   -9.3334    1.1663 C   0  0  0  0  0  0  0  0  0  0  0  0
    3.1483   -6.9317    1.2894 C   0  0  1  0  0  0  0  0  0  0  0  0
    1.6402   -7.2908    1.3849 C   0  0  0  0  0  0  0  0  0  0  0  0
    3.5001   -5.5719    1.9829 C   0  0  2  0  0  0  0  0  0  0  0  0
    4.8932   -5.3676    1.8082 O   0  0  0  0  0  0  0  0  0  0  0  0
    2.7189   -4.2589    1.6581 C   0  0  2  0  0  0  0  0  0  0  0  0
    6.0294   -3.4558   -3.5240 H   0  0  0  0  0  0  0  0  0  0  0  0
    4.9916   -4.2335   -4.8447 H   0  0  0  0  0  0  0  0  0  0  0  0
    2.9928   -3.8686   -3.5488 H   0  0  0  0  0  0  0  0  0  0  0  0
    4.8497   -2.3452   -1.6045 H   0  0  0  0  0  0  0  0  0  0  0  0
    3.1149   -2.1195   -1.8232 H   0  0  0  0  0  0  0  0  0  0  0  0
    2.9618   -4.4817   -1.0523 H   0  0  0  0  0  0  0  0  0  0  0  0
    2.3601   -2.6197    0.3607 H   0  0  0  0  0  0  0  0  0  0  0  0
    5.2292   -2.8426    1.3391 H   0  0  0  0  0  0  0  0  0  0  0  0
    4.3521   -1.4028    0.8541 H   0  0  0  0  0  0  0  0  0  0  0  0
    4.5088   -2.2668    3.4766 H   0  0  0  0  0  0  0  0  0  0  0  0
    3.2193   -1.2939    2.8599 H   0  0  0  0  0  0  0  0  0  0  0  0
   -0.0426   -1.9653    4.2617 H   0  0  0  0  0  0  0  0  0  0  0  0
    1.3387   -0.9837    3.8728 H   0  0  0  0  0  0  0  0  0  0  0  0
    1.4698   -2.2397    5.1008 H   0  0  0  0  0  0  0  0  0  0  0  0
    4.0315   -4.1499    4.6135 H   0  0  0  0  0  0  0  0  0  0  0  0
   -1.7999   -7.1924    4.6991 H   0  0  0  0  0  0  0  0  0  0  0  0
   -0.9243   -8.0575    2.5296 H   0  0  0  0  0  0  0  0  0  0  0  0
    5.1200   -6.5007    4.0304 H   0  0  0  0  0  0  0  0  0  0  0  0
    3.8627   -6.9679    5.1377 H   0  0  0  0  0  0  0  0  0  0  0  0
    4.7108   -8.8636    3.6776 H   0  0  0  0  0  0  0  0  0  0  0  0
    2.9829   -8.6510    3.6256 H   0  0  0  0  0  0  0  0  0  0  0  0
    2.9678   -9.8552    1.4140 H   0  0  0  0  0  0  0  0  0  0  0  0
    4.7176   -9.9906    1.4692 H   0  0  0  0  0  0  0  0  0  0  0  0
    3.9471   -9.2200    0.0807 H   0  0  0  0  0  0  0  0  0  0  0  0
    3.4172   -6.8475    0.2325 H   0  0  0  0  0  0  0  0  0  0  0  0
    1.4380   -8.3102    1.0552 H   0  0  0  0  0  0  0  0  0  0  0  0
    1.1076   -6.6583    0.6759 H   0  0  0  0  0  0  0  0  0  0  0  0
    5.0889   -5.2821    0.8910 H   0  0  0  0  0  0  0  0  0  0  0  0
    1.7028   -4.5575    1.4154 H   0  0  0  0  0  0  0  0  0  0  0  0
    4.5304   -4.3589   -0.5972 H   0  0  0  0  0  0  0  0  0  0  0  0
    4.9554   -7.7026    1.7013 H   0  0  0  0  0  0  0  0  0  0  0  0
  1  2  2  0
  1 30  1  0
  1 31  1  0
  2  3  1  0
  2 32  1  0
  3  4  1  0
  3 33  1  0
  3 34  1  0
  4  5  1  0
  4 35  1  0
  4 59  1  0
  5 29  1  0
  5  6  1  0
  5 36  1  6
  6  7  1  0
  6 37  1  0
  6 38  1  0
  7  8  1  0
  7 39  1  0
  7 40  1  0
  8 29  1  0
  8  9  1  1
  8 11  1  0
  9 10  1  0
 10 41  1  0
 10 42  1  0
 10 43  1  0
 11 20  1  0
 11 12  1  0
 11 44  1  1
 12 13  1  0
 13 19  2  0
 13 14  1  0
 14 15  1  0
 14 16  2  0
 16 17  1  0
 16 45  1  0
 17 18  2  0
 17 46  1  0
 18 26  1  0
 18 19  1  0
 19 20  1  0
 20 27  1  0
 20 21  1  1
 21 22  1  0
 21 47  1  0
 21 48  1  0
 22 23  1  0
 22 49  1  0
 22 50  1  0
 23 24  1  0
 23 25  1  0
 23 60  1  1
 24 51  1  0
 24 52  1  0
 24 53  1  0
 25 26  1  0
 25 27  1  0
 25 54  1  6
 26 55  1  0
 26 56  1  0
 27 28  1  1
 27 29  1  0
 28 57  1  0
 29 58  1  6
M  CHG  3   4   1  15  -1  23   1
M  END
>  <i_m_ct_stereo_status>  (252) 
1

>  <s_m_source_file>  (252) 
/var/tmp/pbs.5076255.sched01/tmpe6iyr0oq/80tt78e_gd.sdf

>  <i_m_source_file_index>  (252) 
24

>  <i_lp_mmshare_version>  (252) 
48012

>  <i_f3d_flags>  (252) 
0

>  <s_epik_input>  (252) 
W0NIMl09W0NIXVtDSDJdW05IXVtDQEhdKFtDSDJdW0NIMl0xKVtDQEhdKFtDQF0xKFtDQEBIXTJbQ0BdMzQ1KU9bQ0gzXSlbQ0BdNShbT0hdKVtDQEBIXShOKFtDSDNdKVtDSDJdW0NIMl00KVtDSDJdYzZjM2MoTzIpYyhbT0hdKVtjSF1bY0hdNg==

>  <s_epik_cmdline>  (252) 
J2VwaWtfcHl0aG9uJywgJy1waHQnLCAnMi4wJywgJy1waCcsICc3LjAnLCAnLXRuJywgJzgnLCAnLW1hJywgJzIwMCcsICctaW1hZScsICc8aW5maWxlLm1hZT4nLCAnLW9tYWUnLCAnPG91dGZpbGUubWFlPic=

>  <r_epik_Ionization_Penalty>  (252) 
2.36139

>  <r_epik_Ionization_Penalty_Charging>  (252) 
2.36138

>  <r_epik_Ionization_Penalty_Neutral>  (252) 
5.68597e-06

>  <r_epik_State_Penalty>  (252) 
2.49797

>  <r_epik_Charging_Adjusted_Penalty>  (252) 
4.85935

>  <i_epik_Tot_Q>  (252) 
1

>  <i_epik_Tot_abs_Q>  (252) 
3

>  <s_lp_Force_Field>  (252) 
OPLS3e

>  <r_lp_Energy>  (252) 
79.7125

>  <b_lp_Chiralities_Consistent>  (252) 
1

>  <s_lp_Variant>  (252) 
71:0-3

>  <s_i_glide_gridfile>  (252) 
pfpi4k_grid

>  <i_i_glide_lignum>  (252) 
24

>  <i_i_glide_rotatable_bonds>  (252) 
5

>  <r_i_docking_score>  (252) 
-2.51232

>  <r_i_glide_ligand_efficiency>  (252) 
-0.0866317

>  <r_i_glide_ligand_efficiency_sa>  (252) 
-0.26616

>  <r_i_glide_ligand_efficiency_ln>  (252) 
-0.575258

>  <r_i_glide_gscore>  (252) 
-2.51232

>  <r_i_glide_lipo>  (252) 
-0.157672

>  <r_i_glide_hbond>  (252) 
0

>  <r_i_glide_metal>  (252) 
-0

>  <r_i_glide_rewards>  (252) 
-0.985205

>  <r_i_glide_evdw>  (252) 
-22.1278

>  <r_i_glide_ecoul>  (252) 
-4.11241

>  <r_i_glide_erotb>  (252) 
0.368323

>  <r_i_glide_esite>  (252) 
-0.0145143

>  <r_i_glide_emodel>  (252) 
-32.1616

>  <r_i_glide_energy>  (252) 
-26.2402

>  <r_i_glide_einternal>  (252) 
0.921092

>  <r_i_glide_intrahb_reward>  (252) 
-0

>  <i_i_glide_confnum>  (252) 
2

>  <i_i_glide_posenum>  (252) 
1

>  <r_i_glide_eff_state_penalty>  (252) 
0

>  <ligand_id>  (252) 
71

>  <original_smiles>  (252) 
C=CCNC1CCC2(OC)C3Oc4c(O)ccc5c4C34CCN(C)C(C5)C4(O)C12

>  <smiles>  (252) 
[H]OC12C3([H])C(OC([H])([H])[H])(C([H])([H])C([H])([H])C3([H])[N+]([H])([H])C([H])([H])C([H])=C([H])[H])C3([H])Oc4c([O-])c([H])c([H])c5c4C31C([H])([H])C([H])([H])[N+]([H])(C([H])([H])[H])C2([H])C5([H])[H]

$$$$
71:2:1
     RDKit          3D

 60 65  0  0  1  0  0  0  0  0999 V2000
    4.4002   -3.7869   -4.0963 C   0  0  0  0  0  0  0  0  0  0  0  0
    4.9144   -3.5933   -2.8716 C   0  0  0  0  0  0  0  0  0  0  0  0
    4.1685   -2.9754   -1.7002 C   0  0  0  0  0  0  0  0  0  0  0  0
    3.8852   -3.9667   -0.6362 N   0  0  0  0  0  0  0  0  0  0  0  0
    3.3425   -3.3770    0.6185 C   0  0  2  0  0  0  0  0  0  0  0  0
    4.3288   -2.5170    1.4208 C   0  0  0  0  0  0  0  0  0  0  0  0
    3.7174   -2.4140    2.8286 C   0  0  0  0  0  0  0  0  0  0  0  0
    2.7001   -3.5737    3.0020 C   0  0  2  0  0  0  0  0  0  0  0  0
    1.3585   -3.0800    3.0533 O   0  0  0  0  0  0  0  0  0  0  0  0
    0.9951   -2.1451    4.0707 C   0  0  0  0  0  0  0  0  0  0  0  0
    3.0207   -4.5762    4.1695 C   0  0  1  0  0  0  0  0  0  0  0  0
    1.9532   -4.7648    5.1275 O   0  0  0  0  0  0  0  0  0  0  0  0
    1.1347   -5.7348    4.6180 C   0  0  0  0  0  0  0  0  0  0  0  0
   -0.1793   -6.1186    4.9733 C   0  0  0  0  0  0  0  0  0  0  0  0
   -0.7697   -5.5625    6.0769 O   0  0  0  0  0  0  0  0  0  0  0  0
   -0.8873   -7.0502    4.1648 C   0  0  0  0  0  0  0  0  0  0  0  0
   -0.3331   -7.5496    2.9618 C   0  0  0  0  0  0  0  0  0  0  0  0
    0.9927   -7.1993    2.6202 C   0  0  0  0  0  0  0  0  0  0  0  0
    1.6704   -6.3708    3.5250 C   0  0  0  0  0  0  0  0  0  0  0  0
    3.1145   -5.9327    3.4466 C   0  0  2  0  0  0  0  0  0  0  0  0
    4.0198   -6.9981    4.1093 C   0  0  0  0  0  0  0  0  0  0  0  0
    3.8995   -8.3333    3.3489 C   0  0  0  0  0  0  0  0  0  0  0  0
    4.0557   -8.1570    1.8777 N   0  0  1  0  0  0  0  0  0  0  0  0
    3.9733   -9.4533    1.1589 C   0  0  0  0  0  0  0  0  0  0  0  0
    3.2240   -7.0531    1.2804 C   0  0  1  0  0  0  0  0  0  0  0  0
    1.7127   -7.4080    1.2965 C   0  0  0  0  0  0  0  0  0  0  0  0
    3.5460   -5.7041    2.0027 C   0  0  2  0  0  0  0  0  0  0  0  0
    4.9446   -5.4977    1.8584 O   0  0  0  0  0  0  0  0  0  0  0  0
    2.7842   -4.3855    1.6582 C   0  0  2  0  0  0  0  0  0  0  0  0
    3.3794   -3.5203   -4.3359 H   0  0  0  0  0  0  0  0  0  0  0  0
    5.0050   -4.2248   -4.8779 H   0  0  0  0  0  0  0  0  0  0  0  0
    5.9402   -3.8826   -2.6937 H   0  0  0  0  0  0  0  0  0  0  0  0
    4.7857   -2.1640   -1.3183 H   0  0  0  0  0  0  0  0  0  0  0  0
    3.2350   -2.5296   -2.0493 H   0  0  0  0  0  0  0  0  0  0  0  0
    3.1982   -4.5949   -1.0341 H   0  0  0  0  0  0  0  0  0  0  0  0
    2.5072   -2.7298    0.3444 H   0  0  0  0  0  0  0  0  0  0  0  0
    5.3170   -2.9724    1.4795 H   0  0  0  0  0  0  0  0  0  0  0  0
    4.4633   -1.5271    0.9834 H   0  0  0  0  0  0  0  0  0  0  0  0
    4.4909   -2.4245    3.5942 H   0  0  0  0  0  0  0  0  0  0  0  0
    3.2394   -1.4416    2.9224 H   0  0  0  0  0  0  0  0  0  0  0  0
   -0.0912   -2.1112    4.1481 H   0  0  0  0  0  0  0  0  0  0  0  0
    1.3091   -1.1300    3.8330 H   0  0  0  0  0  0  0  0  0  0  0  0
    1.3797   -2.3966    5.0575 H   0  0  0  0  0  0  0  0  0  0  0  0
    3.9478   -4.3203    4.6833 H   0  0  0  0  0  0  0  0  0  0  0  0
   -1.8904   -7.3383    4.4342 H   0  0  0  0  0  0  0  0  0  0  0  0
   -0.9061   -8.1789    2.2973 H   0  0  0  0  0  0  0  0  0  0  0  0
    5.0621   -6.6726    4.1185 H   0  0  0  0  0  0  0  0  0  0  0  0
    3.7489   -7.1477    5.1560 H   0  0  0  0  0  0  0  0  0  0  0  0
    4.6597   -9.0268    3.7127 H   0  0  0  0  0  0  0  0  0  0  0  0
    2.9411   -8.8052    3.5764 H   0  0  0  0  0  0  0  0  0  0  0  0
    3.0287   -9.9716    1.3541 H   0  0  0  0  0  0  0  0  0  0  0  0
    4.7727  -10.1191    1.4931 H   0  0  0  0  0  0  0  0  0  0  0  0
    4.0742   -9.3248    0.0786 H   0  0  0  0  0  0  0  0  0  0  0  0
    3.5474   -6.9571    0.2418 H   0  0  0  0  0  0  0  0  0  0  0  0
    1.5276   -8.4228    0.9467 H   0  0  0  0  0  0  0  0  0  0  0  0
    1.2174   -6.7663    0.5704 H   0  0  0  0  0  0  0  0  0  0  0  0
    5.2053   -4.7630    2.3947 H   0  0  0  0  0  0  0  0  0  0  0  0
    1.7807   -4.6697    1.3534 H   0  0  0  0  0  0  0  0  0  0  0  0
    4.7179   -4.4988   -0.4223 H   0  0  0  0  0  0  0  0  0  0  0  0
    5.0078   -7.8277    1.7584 H   0  0  0  0  0  0  0  0  0  0  0  0
  1  2  2  0
  1 30  1  0
  1 31  1  0
  2  3  1  0
  2 32  1  0
  3  4  1  0
  3 33  1  0
  3 34  1  0
  4  5  1  0
  4 35  1  0
  4 59  1  0
  5 29  1  0
  5  6  1  0
  5 36  1  6
  6  7  1  0
  6 37  1  0
  6 38  1  0
  7  8  1  0
  7 39  1  0
  7 40  1  0
  8 29  1  0
  8  9  1  1
  8 11  1  0
  9 10  1  0
 10 41  1  0
 10 42  1  0
 10 43  1  0
 11 20  1  0
 11 12  1  0
 11 44  1  1
 12 13  1  0
 13 19  2  0
 13 14  1  0
 14 15  1  0
 14 16  2  0
 16 17  1  0
 16 45  1  0
 17 18  2  0
 17 46  1  0
 18 26  1  0
 18 19  1  0
 19 20  1  0
 20 27  1  0
 20 21  1  1
 21 22  1  0
 21 47  1  0
 21 48  1  0
 22 23  1  0
 22 49  1  0
 22 50  1  0
 23 24  1  0
 23 25  1  0
 23 60  1  1
 24 51  1  0
 24 52  1  0
 24 53  1  0
 25 26  1  0
 25 27  1  0
 25 54  1  6
 26 55  1  0
 26 56  1  0
 27 28  1  1
 27 29  1  0
 28 57  1  0
 29 58  1  6
M  CHG  3   4   1  15  -1  23   1
M  END
>  <i_m_ct_stereo_status>  (253) 
1

>  <s_m_source_file>  (253) 
/var/tmp/pbs.5076255.sched01/tmpe6iyr0oq/80tt78e_gd.sdf

>  <i_m_source_file_index>  (253) 
24

>  <i_lp_mmshare_version>  (253) 
48012

>  <i_f3d_flags>  (253) 
0

>  <s_epik_input>  (253) 
W0NIMl09W0NIXVtDSDJdW05IXVtDQEhdKFtDSDJdW0NIMl0xKVtDQEhdKFtDQF0xKFtDQEBIXTJbQ0BdMzQ1KU9bQ0gzXSlbQ0BdNShbT0hdKVtDQEBIXShOKFtDSDNdKVtDSDJdW0NIMl00KVtDSDJdYzZjM2MoTzIpYyhbT0hdKVtjSF1bY0hdNg==

>  <s_epik_cmdline>  (253) 
J2VwaWtfcHl0aG9uJywgJy1waHQnLCAnMi4wJywgJy1waCcsICc3LjAnLCAnLXRuJywgJzgnLCAnLW1hJywgJzIwMCcsICctaW1hZScsICc8aW5maWxlLm1hZT4nLCAnLW9tYWUnLCAnPG91dGZpbGUubWFlPic=

>  <r_epik_Ionization_Penalty>  (253) 
2.36139

>  <r_epik_Ionization_Penalty_Charging>  (253) 
2.36138

>  <r_epik_Ionization_Penalty_Neutral>  (253) 
5.68597e-06

>  <r_epik_State_Penalty>  (253) 
2.49797

>  <r_epik_Charging_Adjusted_Penalty>  (253) 
4.85935

>  <i_epik_Tot_Q>  (253) 
1

>  <i_epik_Tot_abs_Q>  (253) 
3

>  <s_lp_Force_Field>  (253) 
OPLS3e

>  <r_lp_Energy>  (253) 
79.7125

>  <b_lp_Chiralities_Consistent>  (253) 
1

>  <s_lp_Variant>  (253) 
71:0-3

>  <s_i_glide_gridfile>  (253) 
pfpi4k_grid

>  <i_i_glide_lignum>  (253) 
24

>  <i_i_glide_rotatable_bonds>  (253) 
5

>  <r_i_docking_score>  (253) 
-2.50081

>  <r_i_glide_ligand_efficiency>  (253) 
-0.086235

>  <r_i_glide_ligand_efficiency_sa>  (253) 
-0.264941

>  <r_i_glide_ligand_efficiency_ln>  (253) 
-0.572623

>  <r_i_glide_gscore>  (253) 
-2.50081

>  <r_i_glide_lipo>  (253) 
-0.197743

>  <r_i_glide_hbond>  (253) 
0

>  <r_i_glide_metal>  (253) 
-0

>  <r_i_glide_rewards>  (253) 
-0.985205

>  <r_i_glide_evdw>  (253) 
-22.9389

>  <r_i_glide_ecoul>  (253) 
-3.44485

>  <r_i_glide_erotb>  (253) 
0.368323

>  <r_i_glide_esite>  (253) 
-0.0225171

>  <r_i_glide_emodel>  (253) 
-32.6235

>  <r_i_glide_energy>  (253) 
-26.3838

>  <r_i_glide_einternal>  (253) 
0.473795

>  <r_i_glide_intrahb_reward>  (253) 
-0

>  <i_i_glide_confnum>  (253) 
1

>  <i_i_glide_posenum>  (253) 
5

>  <r_i_glide_eff_state_penalty>  (253) 
0

>  <ligand_id>  (253) 
71

>  <original_smiles>  (253) 
C=CCNC1CCC2(OC)C3Oc4c(O)ccc5c4C34CCN(C)C(C5)C4(O)C12

>  <smiles>  (253) 
[H]OC12C3([H])C(OC([H])([H])[H])(C([H])([H])C([H])([H])C3([H])[N+]([H])([H])C([H])([H])C([H])=C([H])[H])C3([H])Oc4c([O-])c([H])c([H])c5c4C31C([H])([H])C([H])([H])[N+]([H])(C([H])([H])[H])C2([H])C5([H])[H]

$$$$
71:2:2
     RDKit          3D

 60 65  0  0  1  0  0  0  0  0999 V2000
    4.2072   -3.7857   -4.2615 C   0  0  0  0  0  0  0  0  0  0  0  0
    4.7736   -3.6321   -3.0539 C   0  0  0  0  0  0  0  0  0  0  0  0
    4.1069   -2.9800   -1.8519 C   0  0  0  0  0  0  0  0  0  0  0  0
    3.8922   -3.9410   -0.7444 N   0  0  0  0  0  0  0  0  0  0  0  0
    3.3725   -3.3277    0.5053 C   0  0  2  0  0  0  0  0  0  0  0  0
    4.3757   -2.4500    1.2619 C   0  0  0  0  0  0  0  0  0  0  0  0
    3.7922   -2.3163    2.6783 C   0  0  0  0  0  0  0  0  0  0  0  0
    2.7811   -3.4745    2.9004 C   0  0  2  0  0  0  0  0  0  0  0  0
    1.4375   -2.9835    2.9703 O   0  0  0  0  0  0  0  0  0  0  0  0
    1.1003   -2.0306    3.9790 C   0  0  0  0  0  0  0  0  0  0  0  0
    3.1357   -4.4491    4.0803 C   0  0  1  0  0  0  0  0  0  0  0  0
    2.0920   -4.6192    5.0676 O   0  0  0  0  0  0  0  0  0  0  0  0
    1.2621   -5.6016    4.5975 C   0  0  0  0  0  0  0  0  0  0  0  0
   -0.0439   -5.9829    4.9934 C   0  0  0  0  0  0  0  0  0  0  0  0
   -0.6141   -5.4185    6.1024 O   0  0  0  0  0  0  0  0  0  0  0  0
   -0.7653   -6.9296    4.2210 C   0  0  0  0  0  0  0  0  0  0  0  0
   -0.2388   -7.4582    3.0186 C   0  0  0  0  0  0  0  0  0  0  0  0
    1.0760   -7.1137    2.6381 C   0  0  0  0  0  0  0  0  0  0  0  0
    1.7722   -6.2613    3.5091 C   0  0  0  0  0  0  0  0  0  0  0  0
    3.2144   -5.8219    3.3867 C   0  0  2  0  0  0  0  0  0  0  0  0
    4.1369   -6.8701    4.0533 C   0  0  0  0  0  0  0  0  0  0  0  0
    4.0002   -8.2279    3.3292 C   0  0  0  0  0  0  0  0  0  0  0  0
    4.1178   -8.0940    1.8490 N   0  0  1  0  0  0  0  0  0  0  0  0
    4.0181   -9.4065    1.1646 C   0  0  0  0  0  0  0  0  0  0  0  0
    3.2791   -6.9974    1.2448 C   0  0  1  0  0  0  0  0  0  0  0  0
    1.7671   -7.3496    1.3049 C   0  0  0  0  0  0  0  0  0  0  0  0
    3.6117   -5.6279    1.9284 C   0  0  2  0  0  0  0  0  0  0  0  0
    5.0011   -5.3889    1.7323 O   0  0  0  0  0  0  0  0  0  0  0  0
    2.8294   -4.3173    1.5729 C   0  0  2  0  0  0  0  0  0  0  0  0
    3.1954   -3.4559   -4.4640 H   0  0  0  0  0  0  0  0  0  0  0  0
    4.7585   -4.2559   -5.0638 H   0  0  0  0  0  0  0  0  0  0  0  0
    5.7858   -3.9847   -2.9148 H   0  0  0  0  0  0  0  0  0  0  0  0
    4.7476   -2.1603   -1.5307 H   0  0  0  0  0  0  0  0  0  0  0  0
    3.1526   -2.5431   -2.1541 H   0  0  0  0  0  0  0  0  0  0  0  0
    3.2126   -4.6027   -1.0968 H   0  0  0  0  0  0  0  0  0  0  0  0
    2.5314   -2.6872    0.2390 H   0  0  0  0  0  0  0  0  0  0  0  0
    5.3629   -2.9096    1.3126 H   0  0  0  0  0  0  0  0  0  0  0  0
    4.5055   -1.4726    0.7963 H   0  0  0  0  0  0  0  0  0  0  0  0
    4.5860   -2.3128    3.4225 H   0  0  0  0  0  0  0  0  0  0  0  0
    3.3172   -1.3420    2.7632 H   0  0  0  0  0  0  0  0  0  0  0  0
    0.0169   -1.9937    4.0808 H   0  0  0  0  0  0  0  0  0  0  0  0
    1.4114   -1.0201    3.7202 H   0  0  0  0  0  0  0  0  0  0  0  0
    1.5058   -2.2655    4.9612 H   0  0  0  0  0  0  0  0  0  0  0  0
    4.0771   -4.1800    4.5603 H   0  0  0  0  0  0  0  0  0  0  0  0
   -1.7610   -7.2142    4.5207 H   0  0  0  0  0  0  0  0  0  0  0  0
   -0.8278   -8.1003    2.3809 H   0  0  0  0  0  0  0  0  0  0  0  0
    5.1774   -6.5368    4.0399 H   0  0  0  0  0  0  0  0  0  0  0  0
    3.8858   -6.9952    5.1093 H   0  0  0  0  0  0  0  0  0  0  0  0
    4.7725   -8.9080    3.6951 H   0  0  0  0  0  0  0  0  0  0  0  0
    3.0460   -8.6905    3.5965 H   0  0  0  0  0  0  0  0  0  0  0  0
    3.0796   -9.9232    1.3917 H   0  0  0  0  0  0  0  0  0  0  0  0
    4.8333  -10.0572    1.4957 H   0  0  0  0  0  0  0  0  0  0  0  0
    4.1034   -9.2958    0.0797 H   0  0  0  0  0  0  0  0  0  0  0  0
    3.5766   -6.9224    0.1958 H   0  0  0  0  0  0  0  0  0  0  0  0
    1.5750   -8.3717    0.9776 H   0  0  0  0  0  0  0  0  0  0  0  0
    1.2602   -6.7187    0.5750 H   0  0  0  0  0  0  0  0  0  0  0  0
    5.5226   -6.0753    2.1204 H   0  0  0  0  0  0  0  0  0  0  0  0
    1.8150   -4.6022    1.3000 H   0  0  0  0  0  0  0  0  0  0  0  0
    4.7473   -4.4369   -0.5313 H   0  0  0  0  0  0  0  0  0  0  0  0
    5.0762   -7.8250    1.6796 H   0  0  0  0  0  0  0  0  0  0  0  0
  1  2  2  0
  1 30  1  0
  1 31  1  0
  2  3  1  0
  2 32  1  0
  3  4  1  0
  3 33  1  0
  3 34  1  0
  4  5  1  0
  4 35  1  0
  4 59  1  0
  5 29  1  0
  5  6  1  0
  5 36  1  6
  6  7  1  0
  6 37  1  0
  6 38  1  0
  7  8  1  0
  7 39  1  0
  7 40  1  0
  8 29  1  0
  8  9  1  1
  8 11  1  0
  9 10  1  0
 10 41  1  0
 10 42  1  0
 10 43  1  0
 11 20  1  0
 11 12  1  0
 11 44  1  1
 12 13  1  0
 13 19  2  0
 13 14  1  0
 14 15  1  0
 14 16  2  0
 16 17  1  0
 16 45  1  0
 17 18  2  0
 17 46  1  0
 18 26  1  0
 18 19  1  0
 19 20  1  0
 20 27  1  0
 20 21  1  1
 21 22  1  0
 21 47  1  0
 21 48  1  0
 22 23  1  0
 22 49  1  0
 22 50  1  0
 23 24  1  0
 23 25  1  0
 23 60  1  1
 24 51  1  0
 24 52  1  0
 24 53  1  0
 25 26  1  0
 25 27  1  0
 25 54  1  6
 26 55  1  0
 26 56  1  0
 27 28  1  1
 27 29  1  0
 28 57  1  0
 29 58  1  6
M  CHG  3   4   1  15  -1  23   1
M  END
>  <i_m_ct_stereo_status>  (254) 
1

>  <s_m_source_file>  (254) 
/var/tmp/pbs.5076255.sched01/tmpe6iyr0oq/80tt78e_gd.sdf

>  <i_m_source_file_index>  (254) 
24

>  <i_lp_mmshare_version>  (254) 
48012

>  <i_f3d_flags>  (254) 
0

>  <s_epik_input>  (254) 
W0NIMl09W0NIXVtDSDJdW05IXVtDQEhdKFtDSDJdW0NIMl0xKVtDQEhdKFtDQF0xKFtDQEBIXTJbQ0BdMzQ1KU9bQ0gzXSlbQ0BdNShbT0hdKVtDQEBIXShOKFtDSDNdKVtDSDJdW0NIMl00KVtDSDJdYzZjM2MoTzIpYyhbT0hdKVtjSF1bY0hdNg==

>  <s_epik_cmdline>  (254) 
J2VwaWtfcHl0aG9uJywgJy1waHQnLCAnMi4wJywgJy1waCcsICc3LjAnLCAnLXRuJywgJzgnLCAnLW1hJywgJzIwMCcsICctaW1hZScsICc8aW5maWxlLm1hZT4nLCAnLW9tYWUnLCAnPG91dGZpbGUubWFlPic=

>  <r_epik_Ionization_Penalty>  (254) 
2.36139

>  <r_epik_Ionization_Penalty_Charging>  (254) 
2.36138

>  <r_epik_Ionization_Penalty_Neutral>  (254) 
5.68597e-06

>  <r_epik_State_Penalty>  (254) 
2.49797

>  <r_epik_Charging_Adjusted_Penalty>  (254) 
4.85935

>  <i_epik_Tot_Q>  (254) 
1

>  <i_epik_Tot_abs_Q>  (254) 
3

>  <s_lp_Force_Field>  (254) 
OPLS3e

>  <r_lp_Energy>  (254) 
79.7125

>  <b_lp_Chiralities_Consistent>  (254) 
1

>  <s_lp_Variant>  (254) 
71:0-3

>  <s_i_glide_gridfile>  (254) 
pfpi4k_grid

>  <i_i_glide_lignum>  (254) 
24

>  <i_i_glide_rotatable_bonds>  (254) 
5

>  <r_i_docking_score>  (254) 
-2.44806

>  <r_i_glide_ligand_efficiency>  (254) 
-0.084416

>  <r_i_glide_ligand_efficiency_sa>  (254) 
-0.259353

>  <r_i_glide_ligand_efficiency_ln>  (254) 
-0.560544

>  <r_i_glide_gscore>  (254) 
-2.44806

>  <r_i_glide_lipo>  (254) 
-0.172226

>  <r_i_glide_hbond>  (254) 
0

>  <r_i_glide_metal>  (254) 
-0

>  <r_i_glide_rewards>  (254) 
-0.985205

>  <r_i_glide_evdw>  (254) 
-22.8341

>  <r_i_glide_ecoul>  (254) 
-3.30219

>  <r_i_glide_erotb>  (254) 
0.368323

>  <r_i_glide_esite>  (254) 
-0.0219206

>  <r_i_glide_emodel>  (254) 
-32.336

>  <r_i_glide_energy>  (254) 
-26.1363

>  <r_i_glide_einternal>  (254) 
0.285611

>  <r_i_glide_intrahb_reward>  (254) 
-0

>  <i_i_glide_confnum>  (254) 
2

>  <i_i_glide_posenum>  (254) 
17

>  <r_i_glide_eff_state_penalty>  (254) 
0

>  <ligand_id>  (254) 
71

>  <original_smiles>  (254) 
C=CCNC1CCC2(OC)C3Oc4c(O)ccc5c4C34CCN(C)C(C5)C4(O)C12

>  <smiles>  (254) 
[H]OC12C3([H])C(OC([H])([H])[H])(C([H])([H])C([H])([H])C3([H])[N+]([H])([H])C([H])([H])C([H])=C([H])[H])C3([H])Oc4c([O-])c([H])c([H])c5c4C31C([H])([H])C([H])([H])[N+]([H])(C([H])([H])[H])C2([H])C5([H])[H]

$$$$
73:0:0
     RDKit          3D

 75 80  0  0  1  0  0  0  0  0999 V2000
   -2.1615   -1.3896    5.2817 C   0  0  0  0  0  0  0  0  0  0  0  0
   -1.6816   -0.2879    6.0320 O   0  0  0  0  0  0  0  0  0  0  0  0
   -0.8748    0.5891    5.2967 C   0  0  2  0  0  0  0  0  0  0  0  0
    0.3573   -0.0195    4.9323 O   0  0  0  0  0  0  0  0  0  0  0  0
    1.4864    0.7606    4.4472 C   0  0  1  0  0  0  0  0  0  0  0  0
    2.5440   -0.3227    3.9395 C   0  0  2  0  0  0  0  0  0  0  0  0
    4.0210   -0.2664    4.3969 C   0  0  0  0  0  0  0  0  0  0  0  0
    4.7374   -1.6246    4.1899 C   0  0  0  0  0  0  0  0  0  0  0  0
    4.0638   -2.5392    3.1349 C   0  0  2  0  0  0  0  0  0  0  0  0
    4.8793   -3.8085    2.7551 C   0  0  1  0  0  0  0  0  0  0  0  0
    5.2764   -4.6665    3.9786 C   0  0  0  0  0  0  0  0  0  0  0  0
    4.1066   -4.6513    1.7192 C   0  0  0  0  0  0  0  0  0  0  0  0
    4.2918   -5.8696    1.6597 O   0  0  0  0  0  0  0  0  0  0  0  0
    3.1765   -3.9669    0.8082 C   0  0  0  0  0  0  0  0  0  0  0  0
    2.9520   -2.6408    0.8890 C   0  0  0  0  0  0  0  0  0  0  0  0
    3.5884   -1.6976    1.9101 C   0  0  2  0  0  0  0  0  0  0  0  0
    4.8301   -1.0917    1.1917 C   0  0  0  0  0  0  0  0  0  0  0  0
    2.5302   -0.6090    2.3898 C   0  0  2  0  0  0  0  0  0  0  0  0
    2.5003    0.6860    1.5192 C   0  0  0  0  0  0  0  0  0  0  0  0
    2.0940    1.9645    2.2664 C   0  0  0  0  0  0  0  0  0  0  0  0
    0.9893    1.7189    3.3099 C   0  0  1  0  0  0  0  0  0  0  0  0
   -0.0701    1.2019    2.5169 O   0  0  0  0  0  0  0  0  0  0  0  0
    0.5454    2.9982    4.0642 C   0  0  1  0  0  0  0  0  0  0  0  0
   -0.6777    3.5597    3.6057 O   0  0  0  0  0  0  0  0  0  0  0  0
   -0.6958    4.9816    3.5855 C   0  0  0  0  0  0  0  0  0  0  0  0
    0.5950    2.6351    5.5774 C   0  0  1  0  0  0  0  0  0  0  0  0
   -0.6426    1.8703    6.1500 C   0  0  1  0  0  0  0  0  0  0  0  0
   -1.9557    2.6908    6.1374 C   0  0  0  0  0  0  0  0  0  0  0  0
   -0.3791    1.4972    7.6277 C   0  0  0  0  0  0  0  0  0  0  0  0
    0.7822    0.5273    7.7846 C   0  0  0  0  0  0  0  0  0  0  0  0
    2.0289    1.0369    7.0665 C   0  0  0  0  0  0  0  0  0  0  0  0
    1.8437    1.7152    5.6644 C   0  0  1  0  0  0  0  0  0  0  0  0
    3.1186    2.6105    5.5225 C   0  0  0  0  0  0  0  0  0  0  0  0
   -2.7591   -2.0300    5.9299 H   0  0  0  0  0  0  0  0  0  0  0  0
   -1.3504   -1.9966    4.8748 H   0  0  0  0  0  0  0  0  0  0  0  0
   -2.8046   -1.0562    4.4668 H   0  0  0  0  0  0  0  0  0  0  0  0
   -1.4415    0.8431    4.4039 H   0  0  0  0  0  0  0  0  0  0  0  0
    2.1798   -1.2304    4.4209 H   0  0  0  0  0  0  0  0  0  0  0  0
    4.5509    0.5233    3.8620 H   0  0  0  0  0  0  0  0  0  0  0  0
    4.1121   -0.0405    5.4524 H   0  0  0  0  0  0  0  0  0  0  0  0
    5.7846   -1.4508    3.9426 H   0  0  0  0  0  0  0  0  0  0  0  0
    4.7364   -2.1542    5.1413 H   0  0  0  0  0  0  0  0  0  0  0  0
    3.1632   -2.9390    3.6058 H   0  0  0  0  0  0  0  0  0  0  0  0
    5.8065   -3.5034    2.2741 H   0  0  0  0  0  0  0  0  0  0  0  0
    5.8626   -5.5369    3.6795 H   0  0  0  0  0  0  0  0  0  0  0  0
    4.3980   -5.0326    4.5146 H   0  0  0  0  0  0  0  0  0  0  0  0
    5.8935   -4.1111    4.6867 H   0  0  0  0  0  0  0  0  0  0  0  0
    2.6850   -4.5671    0.0549 H   0  0  0  0  0  0  0  0  0  0  0  0
    2.2698   -2.1885    0.1833 H   0  0  0  0  0  0  0  0  0  0  0  0
    5.3128   -0.3079    1.7720 H   0  0  0  0  0  0  0  0  0  0  0  0
    4.5650   -0.6729    0.2219 H   0  0  0  0  0  0  0  0  0  0  0  0
    5.5895   -1.8369    0.9679 H   0  0  0  0  0  0  0  0  0  0  0  0
    1.5473   -1.0619    2.2413 H   0  0  0  0  0  0  0  0  0  0  0  0
    3.4504    0.9305    1.0546 H   0  0  0  0  0  0  0  0  0  0  0  0
    1.8089    0.5312    0.6933 H   0  0  0  0  0  0  0  0  0  0  0  0
    2.9939    2.3636    2.7227 H   0  0  0  0  0  0  0  0  0  0  0  0
    1.7896    2.7245    1.5480 H   0  0  0  0  0  0  0  0  0  0  0  0
   -0.2453    1.8294    1.8306 H   0  0  0  0  0  0  0  0  0  0  0  0
    1.3101    3.7531    3.8839 H   0  0  0  0  0  0  0  0  0  0  0  0
   -1.6766    5.3258    3.2561 H   0  0  0  0  0  0  0  0  0  0  0  0
    0.0375    5.3818    2.8831 H   0  0  0  0  0  0  0  0  0  0  0  0
   -0.4986    5.3977    4.5751 H   0  0  0  0  0  0  0  0  0  0  0  0
    0.7350    3.5442    6.1647 H   0  0  0  0  0  0  0  0  0  0  0  0
   -1.8294    3.6492    6.6399 H   0  0  0  0  0  0  0  0  0  0  0  0
   -2.7478    2.1501    6.6574 H   0  0  0  0  0  0  0  0  0  0  0  0
   -2.3403    2.8791    5.1362 H   0  0  0  0  0  0  0  0  0  0  0  0
   -0.1500    2.4075    8.1821 H   0  0  0  0  0  0  0  0  0  0  0  0
   -1.2668    1.0794    8.1021 H   0  0  0  0  0  0  0  0  0  0  0  0
    1.0031    0.3904    8.8432 H   0  0  0  0  0  0  0  0  0  0  0  0
    0.5132   -0.4605    7.4171 H   0  0  0  0  0  0  0  0  0  0  0  0
    2.4949    1.7551    7.7428 H   0  0  0  0  0  0  0  0  0  0  0  0
    2.7244    0.2066    7.0083 H   0  0  0  0  0  0  0  0  0  0  0  0
    3.1010    3.3934    6.2836 H   0  0  0  0  0  0  0  0  0  0  0  0
    3.2317    3.1410    4.5846 H   0  0  0  0  0  0  0  0  0  0  0  0
    4.0461    2.0698    5.6936 H   0  0  0  0  0  0  0  0  0  0  0  0
  1  2  1  0
  1 34  1  0
  1 35  1  0
  1 36  1  0
  2  3  1  0
  3 27  1  0
  3  4  1  0
  3 37  1  6
  5  4  1  1
  5 21  1  0
  5 32  1  0
  5  6  1  0
  6 18  1  0
  6  7  1  0
  6 38  1  1
  7  8  1  0
  7 39  1  0
  7 40  1  0
  8  9  1  0
  8 41  1  0
  8 42  1  0
  9 16  1  0
  9 10  1  0
  9 43  1  1
 10 11  1  0
 10 12  1  0
 10 44  1  6
 11 45  1  0
 11 46  1  0
 11 47  1  0
 12 13  2  0
 12 14  1  0
 14 15  2  0
 14 48  1  0
 15 16  1  0
 15 49  1  0
 16 17  1  6
 16 18  1  0
 17 50  1  0
 17 51  1  0
 17 52  1  0
 18 19  1  0
 18 53  1  1
 19 20  1  0
 19 54  1  0
 19 55  1  0
 20 21  1  0
 20 56  1  0
 20 57  1  0
 21 22  1  6
 21 23  1  0
 22 58  1  0
 23 24  1  0
 23 26  1  0
 23 59  1  1
 24 25  1  0
 25 60  1  0
 25 61  1  0
 25 62  1  0
 26 32  1  0
 26 27  1  0
 26 63  1  1
 27 28  1  1
 27 29  1  0
 28 64  1  0
 28 65  1  0
 28 66  1  0
 29 30  1  0
 29 67  1  0
 29 68  1  0
 30 31  1  0
 30 69  1  0
 30 70  1  0
 31 32  1  0
 31 71  1  0
 31 72  1  0
 32 33  1  6
 33 73  1  0
 33 74  1  0
 33 75  1  0
M  END
>  <i_m_ct_stereo_status>  (255) 
1

>  <s_m_source_file>  (255) 
/var/tmp/pbs.5076255.sched01/tmpe6iyr0oq/80tt78e_gd.sdf

>  <i_m_source_file_index>  (255) 
26

>  <i_lp_mmshare_version>  (255) 
48012

>  <i_f3d_flags>  (255) 
0

>  <s_epik_input>  (255) 
W0NIM11bQ0BdMTJbQ0gyXVtDSDJdW0NIMl1bQ0BdKFtDSDNdKShbQ0BASF0oTzMpT1tDSDNdKVtDQEBIXTJbQ0BIXShPW0NIM10pW0NAQF00KFtPSF0pW0NIMl1bQ0gyXVtDQEhdKFtDQEBIXTVbQ0BdMTM0KVtDQEBdNihbQ0gzXSlbQ0BIXShbQ0gyXVtDSDJdNSlbQ0BASF0oW0NIM10pQyg9TylbQ0hdPVtDSF02

>  <s_epik_cmdline>  (255) 
J2VwaWtfcHl0aG9uJywgJy1waHQnLCAnMi4wJywgJy1waCcsICc3LjAnLCAnLXRuJywgJzgnLCAnLW1hJywgJzIwMCcsICctaW1hZScsICc8aW5maWxlLm1hZT4nLCAnLW9tYWUnLCAnPG91dGZpbGUubWFlPic=

>  <r_lp_tautomer_probability>  (255) 
1

>  <r_epik_Ionization_Penalty>  (255) 
3.09394e-08

>  <r_epik_Ionization_Penalty_Charging>  (255) 
0

>  <r_epik_Ionization_Penalty_Neutral>  (255) 
3.09394e-08

>  <r_epik_State_Penalty>  (255) 
-0

>  <r_epik_Charging_Adjusted_Penalty>  (255) 
0

>  <i_epik_Tot_Q>  (255) 
0

>  <i_epik_Tot_abs_Q>  (255) 
0

>  <s_epik_Chemistry_Notes>  (255) 
This compound contains an acetal/aminal-like group ( X-CH(R)-Y where X, Y are N, S, or O) that may be acid/base labile, releasing an aldehyde.

>  <s_lp_Force_Field>  (255) 
OPLS3e

>  <r_lp_Energy>  (255) 
104.7

>  <b_lp_Chiralities_Consistent>  (255) 
1

>  <s_lp_Variant>  (255) 
73:0-1

>  <s_i_glide_gridfile>  (255) 
pfpi4k_grid

>  <i_i_glide_lignum>  (255) 
26

>  <i_i_glide_rotatable_bonds>  (255) 
3

>  <r_i_docking_score>  (255) 
-2.1884

>  <r_i_glide_ligand_efficiency>  (255) 
-0.0663151

>  <r_i_glide_ligand_efficiency_sa>  (255) 
-0.212708

>  <r_i_glide_ligand_efficiency_ln>  (255) 
-0.486688

>  <r_i_glide_gscore>  (255) 
-2.1884

>  <r_i_glide_lipo>  (255) 
-0.222171

>  <r_i_glide_hbond>  (255) 
-0.137313

>  <r_i_glide_metal>  (255) 
-0

>  <r_i_glide_rewards>  (255) 
-0.299376

>  <r_i_glide_evdw>  (255) 
-24.2701

>  <r_i_glide_ecoul>  (255) 
-1.95434

>  <r_i_glide_erotb>  (255) 
0

>  <r_i_glide_esite>  (255) 
-0.0228808

>  <r_i_glide_emodel>  (255) 
-29.3449

>  <r_i_glide_energy>  (255) 
-26.2245

>  <r_i_glide_einternal>  (255) 
1.27463

>  <r_i_glide_intrahb_reward>  (255) 
-0

>  <i_i_glide_confnum>  (255) 
2

>  <i_i_glide_posenum>  (255) 
12

>  <r_i_glide_eff_state_penalty>  (255) 
0

>  <ligand_id>  (255) 
73

>  <original_smiles>  (255) 
COC1OC23C4CCC5C(C)C(=O)C=CC5(C)C4CCC2(O)C(OC)C2C1(C)CCCC23C

>  <smiles>  (255) 
[H]OC12C([H])([H])C([H])([H])C3([H])C([H])(C([H])([H])C([H])([H])C4([H])C([H])(C([H])([H])[H])C(=O)C([H])=C([H])C43C([H])([H])[H])C13OC([H])(OC([H])([H])[H])C1(C([H])([H])[H])C([H])([H])C([H])([H])C([H])([H])C3(C([H])([H])[H])C1([H])C2([H])OC([H])([H])[H]

$$$$
73:0:1
     RDKit          3D

 75 80  0  0  1  0  0  0  0  0999 V2000
   -2.1515   -8.2094    2.6572 C   0  0  0  0  0  0  0  0  0  0  0  0
   -0.9848   -7.4089    2.5256 O   0  0  0  0  0  0  0  0  0  0  0  0
   -0.2421   -7.1911    3.6977 C   0  0  2  0  0  0  0  0  0  0  0  0
    0.2102   -5.8453    3.7168 O   0  0  0  0  0  0  0  0  0  0  0  0
    1.2475   -5.3767    4.6374 C   0  0  1  0  0  0  0  0  0  0  0  0
    1.2774   -3.7869    4.4456 C   0  0  2  0  0  0  0  0  0  0  0  0
    2.6205   -3.0408    4.2187 C   0  0  0  0  0  0  0  0  0  0  0  0
    2.3984   -1.6404    3.6061 C   0  0  0  0  0  0  0  0  0  0  0  0
    0.9829   -1.0554    3.8508 C   0  0  2  0  0  0  0  0  0  0  0  0
    0.8094    0.4242    3.4454 C   0  0  1  0  0  0  0  0  0  0  0  0
    1.2141    0.7157    1.9806 C   0  0  0  0  0  0  0  0  0  0  0  0
   -0.6440    0.8873    3.7026 C   0  0  0  0  0  0  0  0  0  0  0  0
   -1.1277    1.7932    3.0361 O   0  0  0  0  0  0  0  0  0  0  0  0
   -1.4037    0.2261    4.7689 C   0  0  0  0  0  0  0  0  0  0  0  0
   -0.8877   -0.7945    5.4969 C   0  0  0  0  0  0  0  0  0  0  0  0
    0.4982   -1.3908    5.2973 C   0  0  2  0  0  0  0  0  0  0  0  0
    1.4167   -0.6446    6.3180 C   0  0  0  0  0  0  0  0  0  0  0  0
    0.4562   -2.9554    5.5058 C   0  0  2  0  0  0  0  0  0  0  0  0
    0.6831   -3.4182    6.9806 C   0  0  0  0  0  0  0  0  0  0  0  0
    1.3399   -4.7986    7.1372 C   0  0  0  0  0  0  0  0  0  0  0  0
    0.8454   -5.8147    6.0847 C   0  0  1  0  0  0  0  0  0  0  0  0
   -0.5445   -5.8034    6.3213 O   0  0  0  0  0  0  0  0  0  0  0  0
    1.4624   -7.2386    6.2224 C   0  0  1  0  0  0  0  0  0  0  0  0
    0.6136   -8.1957    6.8590 O   0  0  0  0  0  0  0  0  0  0  0  0
    1.2772   -9.3914    7.2675 C   0  0  0  0  0  0  0  0  0  0  0  0
    1.9885   -7.6129    4.8016 C   0  0  1  0  0  0  0  0  0  0  0  0
    0.9391   -8.1933    3.7943 C   0  0  1  0  0  0  0  0  0  0  0  0
    0.4032   -9.5782    4.2004 C   0  0  0  0  0  0  0  0  0  0  0  0
    1.6046   -8.3997    2.4168 C   0  0  0  0  0  0  0  0  0  0  0  0
    2.0638   -7.0936    1.7952 C   0  0  0  0  0  0  0  0  0  0  0  0
    2.9347   -6.2917    2.7585 C   0  0  0  0  0  0  0  0  0  0  0  0
    2.5132   -6.2495    4.2703 C   0  0  1  0  0  0  0  0  0  0  0  0
    3.8479   -5.9125    5.0083 C   0  0  0  0  0  0  0  0  0  0  0  0
   -2.5958   -8.3815    1.6812 H   0  0  0  0  0  0  0  0  0  0  0  0
   -2.8883   -7.7230    3.2935 H   0  0  0  0  0  0  0  0  0  0  0  0
   -1.9208   -9.2112    3.0848 H   0  0  0  0  0  0  0  0  0  0  0  0
   -0.9280   -7.3401    4.5253 H   0  0  0  0  0  0  0  0  0  0  0  0
    0.7679   -3.6643    3.4951 H   0  0  0  0  0  0  0  0  0  0  0  0
    3.1644   -2.9625    5.1520 H   0  0  0  0  0  0  0  0  0  0  0  0
    3.2628   -3.5744    3.5212 H   0  0  0  0  0  0  0  0  0  0  0  0
    3.1668   -0.9494    3.9764 H   0  0  0  0  0  0  0  0  0  0  0  0
    2.5480   -1.7092    2.5386 H   0  0  0  0  0  0  0  0  0  0  0  0
    0.3109   -1.6022    3.1727 H   0  0  0  0  0  0  0  0  0  0  0  0
    1.4420    1.0522    4.0731 H   0  0  0  0  0  0  0  0  0  0  0  0
    1.0881    1.7673    1.7252 H   0  0  0  0  0  0  0  0  0  0  0  0
    0.6074    0.1378    1.2771 H   0  0  0  0  0  0  0  0  0  0  0  0
    2.2636    0.4778    1.7945 H   0  0  0  0  0  0  0  0  0  0  0  0
   -2.4065    0.5909    4.9586 H   0  0  0  0  0  0  0  0  0  0  0  0
   -1.4771   -1.2444    6.2782 H   0  0  0  0  0  0  0  0  0  0  0  0
    2.4207   -1.0645    6.3640 H   0  0  0  0  0  0  0  0  0  0  0  0
    1.0001   -0.6694    7.3233 H   0  0  0  0  0  0  0  0  0  0  0  0
    1.5216    0.4113    6.0952 H   0  0  0  0  0  0  0  0  0  0  0  0
   -0.5801   -3.2600    5.2800 H   0  0  0  0  0  0  0  0  0  0  0  0
    1.3196   -2.7489    7.5631 H   0  0  0  0  0  0  0  0  0  0  0  0
   -0.2679   -3.4231    7.4951 H   0  0  0  0  0  0  0  0  0  0  0  0
    2.4139   -4.6590    7.0790 H   0  0  0  0  0  0  0  0  0  0  0  0
    1.1433   -5.1791    8.1396 H   0  0  0  0  0  0  0  0  0  0  0  0
   -0.9205   -6.5309    5.8175 H   0  0  0  0  0  0  0  0  0  0  0  0
    2.3208   -7.1597    6.8861 H   0  0  0  0  0  0  0  0  0  0  0  0
    0.5427  -10.0902    7.6678 H   0  0  0  0  0  0  0  0  0  0  0  0
    2.0409   -9.2147    8.0270 H   0  0  0  0  0  0  0  0  0  0  0  0
    1.7808   -9.8964    6.4460 H   0  0  0  0  0  0  0  0  0  0  0  0
    2.8118   -8.3202    4.8946 H   0  0  0  0  0  0  0  0  0  0  0  0
    1.1944  -10.2850    4.4284 H   0  0  0  0  0  0  0  0  0  0  0  0
   -0.1877  -10.0402    3.3932 H   0  0  0  0  0  0  0  0  0  0  0  0
   -0.2752   -9.5344    5.0463 H   0  0  0  0  0  0  0  0  0  0  0  0
    2.4662   -9.0554    2.5410 H   0  0  0  0  0  0  0  0  0  0  0  0
    0.9307   -8.9131    1.7302 H   0  0  0  0  0  0  0  0  0  0  0  0
    2.6286   -7.3039    0.8885 H   0  0  0  0  0  0  0  0  0  0  0  0
    1.2078   -6.4983    1.4737 H   0  0  0  0  0  0  0  0  0  0  0  0
    3.9398   -6.7259    2.6890 H   0  0  0  0  0  0  0  0  0  0  0  0
    3.0275   -5.2945    2.3464 H   0  0  0  0  0  0  0  0  0  0  0  0
    4.5553   -6.7311    4.8755 H   0  0  0  0  0  0  0  0  0  0  0  0
    3.7812   -5.7800    6.0803 H   0  0  0  0  0  0  0  0  0  0  0  0
    4.3552   -5.0364    4.6087 H   0  0  0  0  0  0  0  0  0  0  0  0
  1  2  1  0
  1 34  1  0
  1 35  1  0
  1 36  1  0
  2  3  1  0
  3 27  1  0
  3  4  1  0
  3 37  1  1
  5  4  1  6
  5 21  1  0
  5 32  1  0
  5  6  1  0
  6 18  1  0
  6  7  1  0
  6 38  1  6
  7  8  1  0
  7 39  1  0
  7 40  1  0
  8  9  1  0
  8 41  1  0
  8 42  1  0
  9 16  1  0
  9 10  1  0
  9 43  1  6
 10 11  1  0
 10 12  1  0
 10 44  1  1
 11 45  1  0
 11 46  1  0
 11 47  1  0
 12 13  2  0
 12 14  1  0
 14 15  2  0
 14 48  1  0
 15 16  1  0
 15 49  1  0
 16 17  1  1
 16 18  1  0
 17 50  1  0
 17 51  1  0
 17 52  1  0
 18 19  1  0
 18 53  1  6
 19 20  1  0
 19 54  1  0
 19 55  1  0
 20 21  1  0
 20 56  1  0
 20 57  1  0
 21 22  1  6
 21 23  1  0
 22 58  1  0
 23 24  1  0
 23 26  1  0
 23 59  1  1
 24 25  1  0
 25 60  1  0
 25 61  1  0
 25 62  1  0
 26 32  1  0
 26 27  1  0
 26 63  1  1
 27 28  1  1
 27 29  1  0
 28 64  1  0
 28 65  1  0
 28 66  1  0
 29 30  1  0
 29 67  1  0
 29 68  1  0
 30 31  1  0
 30 69  1  0
 30 70  1  0
 31 32  1  0
 31 71  1  0
 31 72  1  0
 32 33  1  1
 33 73  1  0
 33 74  1  0
 33 75  1  0
M  END
>  <i_m_ct_stereo_status>  (256) 
1

>  <s_m_source_file>  (256) 
/var/tmp/pbs.5076255.sched01/tmpe6iyr0oq/80tt78e_gd.sdf

>  <i_m_source_file_index>  (256) 
26

>  <i_lp_mmshare_version>  (256) 
48012

>  <i_f3d_flags>  (256) 
0

>  <s_epik_input>  (256) 
W0NIM11bQ0BdMTJbQ0gyXVtDSDJdW0NIMl1bQ0BdKFtDSDNdKShbQ0BASF0oTzMpT1tDSDNdKVtDQEBIXTJbQ0BIXShPW0NIM10pW0NAQF00KFtPSF0pW0NIMl1bQ0gyXVtDQEhdKFtDQEBIXTVbQ0BdMTM0KVtDQEBdNihbQ0gzXSlbQ0BIXShbQ0gyXVtDSDJdNSlbQ0BASF0oW0NIM10pQyg9TylbQ0hdPVtDSF02

>  <s_epik_cmdline>  (256) 
J2VwaWtfcHl0aG9uJywgJy1waHQnLCAnMi4wJywgJy1waCcsICc3LjAnLCAnLXRuJywgJzgnLCAnLW1hJywgJzIwMCcsICctaW1hZScsICc8aW5maWxlLm1hZT4nLCAnLW9tYWUnLCAnPG91dGZpbGUubWFlPic=

>  <r_lp_tautomer_probability>  (256) 
1

>  <r_epik_Ionization_Penalty>  (256) 
3.09394e-08

>  <r_epik_Ionization_Penalty_Charging>  (256) 
0

>  <r_epik_Ionization_Penalty_Neutral>  (256) 
3.09394e-08

>  <r_epik_State_Penalty>  (256) 
-0

>  <r_epik_Charging_Adjusted_Penalty>  (256) 
0

>  <i_epik_Tot_Q>  (256) 
0

>  <i_epik_Tot_abs_Q>  (256) 
0

>  <s_epik_Chemistry_Notes>  (256) 
This compound contains an acetal/aminal-like group ( X-CH(R)-Y where X, Y are N, S, or O) that may be acid/base labile, releasing an aldehyde.

>  <s_lp_Force_Field>  (256) 
OPLS3e

>  <r_lp_Energy>  (256) 
104.7

>  <b_lp_Chiralities_Consistent>  (256) 
1

>  <s_lp_Variant>  (256) 
73:0-1

>  <s_i_glide_gridfile>  (256) 
pfpi4k_grid

>  <i_i_glide_lignum>  (256) 
26

>  <i_i_glide_rotatable_bonds>  (256) 
3

>  <r_i_docking_score>  (256) 
-1.97178

>  <r_i_glide_ligand_efficiency>  (256) 
-0.0597509

>  <r_i_glide_ligand_efficiency_sa>  (256) 
-0.191653

>  <r_i_glide_ligand_efficiency_ln>  (256) 
-0.438513

>  <r_i_glide_gscore>  (256) 
-1.97178

>  <r_i_glide_lipo>  (256) 
-0.0388678

>  <r_i_glide_hbond>  (256) 
-0.10072

>  <r_i_glide_metal>  (256) 
-0

>  <r_i_glide_rewards>  (256) 
-0.282068

>  <r_i_glide_evdw>  (256) 
-25.0701

>  <r_i_glide_ecoul>  (256) 
-1.46782

>  <r_i_glide_erotb>  (256) 
0

>  <r_i_glide_esite>  (256) 
-0.0764449

>  <r_i_glide_emodel>  (256) 
-27.2621

>  <r_i_glide_energy>  (256) 
-26.5379

>  <r_i_glide_einternal>  (256) 
3.73374

>  <r_i_glide_intrahb_reward>  (256) 
-0

>  <i_i_glide_confnum>  (256) 
1

>  <i_i_glide_posenum>  (256) 
35

>  <r_i_glide_eff_state_penalty>  (256) 
0

>  <ligand_id>  (256) 
73

>  <original_smiles>  (256) 
COC1OC23C4CCC5C(C)C(=O)C=CC5(C)C4CCC2(O)C(OC)C2C1(C)CCCC23C

>  <smiles>  (256) 
[H]OC12C([H])([H])C([H])([H])C3([H])C([H])(C([H])([H])C([H])([H])C4([H])C([H])(C([H])([H])[H])C(=O)C([H])=C([H])C43C([H])([H])[H])C13OC([H])(OC([H])([H])[H])C1(C([H])([H])[H])C([H])([H])C([H])([H])C([H])([H])C3(C([H])([H])[H])C1([H])C2([H])OC([H])([H])[H]

$$$$
73:0:2
     RDKit          3D

 75 80  0  0  1  0  0  0  0  0999 V2000
   -2.1584   -8.1834    2.7725 C   0  0  0  0  0  0  0  0  0  0  0  0
   -1.0021   -7.3824    2.6156 O   0  0  0  0  0  0  0  0  0  0  0  0
   -0.2451   -7.1608    3.7701 C   0  0  2  0  0  0  0  0  0  0  0  0
    0.2056   -5.8138    3.7688 O   0  0  0  0  0  0  0  0  0  0  0  0
    1.2640   -5.3448    4.6594 C   0  0  1  0  0  0  0  0  0  0  0  0
    1.2884   -3.7543    4.4645 C   0  0  2  0  0  0  0  0  0  0  0  0
    2.6232   -3.0034    4.2017 C   0  0  0  0  0  0  0  0  0  0  0  0
    2.3819   -1.6068    3.5855 C   0  0  0  0  0  0  0  0  0  0  0  0
    0.9712   -1.0256    3.8610 C   0  0  2  0  0  0  0  0  0  0  0  0
    0.7795    0.4503    3.4504 C   0  0  1  0  0  0  0  0  0  0  0  0
    1.1515    0.7386    1.9735 C   0  0  0  0  0  0  0  0  0  0  0  0
   -0.6668    0.9133    3.7411 C   0  0  0  0  0  0  0  0  0  0  0  0
   -1.1693    1.8167    3.0878 O   0  0  0  0  0  0  0  0  0  0  0  0
   -1.3935    0.2536    4.8321 C   0  0  0  0  0  0  0  0  0  0  0  0
   -0.8576   -0.7595    5.5520 C   0  0  0  0  0  0  0  0  0  0  0  0
    0.5239   -1.3554    5.3218 C   0  0  2  0  0  0  0  0  0  0  0  0
    1.4632   -0.6027    6.3178 C   0  0  0  0  0  0  0  0  0  0  0  0
    0.4872   -2.9204    5.5385 C   0  0  2  0  0  0  0  0  0  0  0  0
    0.7443   -3.3806    7.0091 C   0  0  0  0  0  0  0  0  0  0  0  0
    1.4084   -4.7599    7.1562 C   0  0  0  0  0  0  0  0  0  0  0  0
    0.9014   -5.7860    6.1193 C   0  0  1  0  0  0  0  0  0  0  0  0
   -0.4851   -5.8152    6.3820 O   0  0  0  0  0  0  0  0  0  0  0  0
    1.5336   -7.2015    6.2514 C   0  0  1  0  0  0  0  0  0  0  0  0
    0.7079   -8.1542    6.9236 O   0  0  0  0  0  0  0  0  0  0  0  0
    1.3842   -9.3393    7.3281 C   0  0  0  0  0  0  0  0  0  0  0  0
    2.0211   -7.5759    4.8184 C   0  0  1  0  0  0  0  0  0  0  0  0
    0.9452   -8.1608    3.8432 C   0  0  1  0  0  0  0  0  0  0  0  0
    0.4242   -9.5459    4.2718 C   0  0  0  0  0  0  0  0  0  0  0  0
    1.5769   -8.3716    2.4491 C   0  0  0  0  0  0  0  0  0  0  0  0
    2.0193   -7.0680    1.8090 C   0  0  0  0  0  0  0  0  0  0  0  0
    2.9117   -6.2592    2.7467 C   0  0  0  0  0  0  0  0  0  0  0  0
    2.5278   -6.2125    4.2680 C   0  0  1  0  0  0  0  0  0  0  0  0
    3.8789   -5.8683    4.9724 C   0  0  0  0  0  0  0  0  0  0  0  0
   -2.6075   -8.3532    1.8016 H   0  0  0  0  0  0  0  0  0  0  0  0
   -2.8978   -7.7006    3.4043 H   0  0  0  0  0  0  0  0  0  0  0  0
   -1.9312   -9.1832    3.1888 H   0  0  0  0  0  0  0  0  0  0  0  0
   -0.9080   -7.2986    4.6215 H   0  0  0  0  0  0  0  0  0  0  0  0
    0.7581   -3.6350    3.5238 H   0  0  0  0  0  0  0  0  0  0  0  0
    3.1915   -2.9208    5.1208 H   0  0  0  0  0  0  0  0  0  0  0  0
    3.2491   -3.5374    3.4908 H   0  0  0  0  0  0  0  0  0  0  0  0
    3.1559   -0.9129    3.9355 H   0  0  0  0  0  0  0  0  0  0  0  0
    2.5078   -1.6791    2.5145 H   0  0  0  0  0  0  0  0  0  0  0  0
    0.2843   -1.5782    3.2036 H   0  0  0  0  0  0  0  0  0  0  0  0
    1.4263    1.0821    4.0563 H   0  0  0  0  0  0  0  0  0  0  0  0
    1.0191    1.7926    1.7202 H   0  0  0  0  0  0  0  0  0  0  0  0
    0.5356    0.1598    1.2768 H   0  0  0  0  0  0  0  0  0  0  0  0
    2.2001    0.5038    1.7663 H   0  0  0  0  0  0  0  0  0  0  0  0
   -2.3922    0.6174    5.0468 H   0  0  0  0  0  0  0  0  0  0  0  0
   -1.4267   -1.2048    6.3530 H   0  0  0  0  0  0  0  0  0  0  0  0
    2.4686   -1.0190    6.3416 H   0  0  0  0  0  0  0  0  0  0  0  0
    1.0704   -0.6241    7.3333 H   0  0  0  0  0  0  0  0  0  0  0  0
    1.5597    0.4526    6.0870 H   0  0  0  0  0  0  0  0  0  0  0  0
   -0.5523   -3.2229    5.3301 H   0  0  0  0  0  0  0  0  0  0  0  0
    1.3992   -2.7095    7.5671 H   0  0  0  0  0  0  0  0  0  0  0  0
   -0.1896   -3.3728    7.5545 H   0  0  0  0  0  0  0  0  0  0  0  0
    2.4791   -4.6127    7.0708 H   0  0  0  0  0  0  0  0  0  0  0  0
    1.2469   -5.1339    8.1674 H   0  0  0  0  0  0  0  0  0  0  0  0
   -0.8115   -4.9157    6.3321 H   0  0  0  0  0  0  0  0  0  0  0  0
    2.4078   -7.1062    6.8905 H   0  0  0  0  0  0  0  0  0  0  0  0
    0.6595  -10.0335    7.7527 H   0  0  0  0  0  0  0  0  0  0  0  0
    2.1564   -9.1442    8.0731 H   0  0  0  0  0  0  0  0  0  0  0  0
    1.8717   -9.8477    6.4993 H   0  0  0  0  0  0  0  0  0  0  0  0
    2.8468   -8.2825    4.8933 H   0  0  0  0  0  0  0  0  0  0  0  0
    1.2267  -10.2433    4.4919 H   0  0  0  0  0  0  0  0  0  0  0  0
   -0.1819  -10.0133    3.4824 H   0  0  0  0  0  0  0  0  0  0  0  0
   -0.2334   -9.5002    5.1345 H   0  0  0  0  0  0  0  0  0  0  0  0
    2.4432   -9.0245    2.5542 H   0  0  0  0  0  0  0  0  0  0  0  0
    0.8886   -8.8900    1.7815 H   0  0  0  0  0  0  0  0  0  0  0  0
    2.5612   -7.2824    0.8889 H   0  0  0  0  0  0  0  0  0  0  0  0
    1.1545   -6.4770    1.5053 H   0  0  0  0  0  0  0  0  0  0  0  0
    3.9150   -6.6921    2.6537 H   0  0  0  0  0  0  0  0  0  0  0  0
    2.9937   -5.2632    2.3276 H   0  0  0  0  0  0  0  0  0  0  0  0
    4.5851   -6.6860    4.8262 H   0  0  0  0  0  0  0  0  0  0  0  0
    3.8368   -5.7308    6.0449 H   0  0  0  0  0  0  0  0  0  0  0  0
    4.3735   -4.9925    4.5570 H   0  0  0  0  0  0  0  0  0  0  0  0
  1  2  1  0
  1 34  1  0
  1 35  1  0
  1 36  1  0
  2  3  1  0
  3 27  1  0
  3  4  1  0
  3 37  1  1
  5  4  1  6
  5 21  1  0
  5 32  1  0
  5  6  1  0
  6 18  1  0
  6  7  1  0
  6 38  1  6
  7  8  1  0
  7 39  1  0
  7 40  1  0
  8  9  1  0
  8 41  1  0
  8 42  1  0
  9 16  1  0
  9 10  1  0
  9 43  1  6
 10 11  1  0
 10 12  1  0
 10 44  1  1
 11 45  1  0
 11 46  1  0
 11 47  1  0
 12 13  2  0
 12 14  1  0
 14 15  2  0
 14 48  1  0
 15 16  1  0
 15 49  1  0
 16 17  1  1
 16 18  1  0
 17 50  1  0
 17 51  1  0
 17 52  1  0
 18 19  1  0
 18 53  1  6
 19 20  1  0
 19 54  1  0
 19 55  1  0
 20 21  1  0
 20 56  1  0
 20 57  1  0
 21 22  1  6
 21 23  1  0
 22 58  1  0
 23 24  1  0
 23 26  1  0
 23 59  1  1
 24 25  1  0
 25 60  1  0
 25 61  1  0
 25 62  1  0
 26 32  1  0
 26 27  1  0
 26 63  1  1
 27 28  1  1
 27 29  1  0
 28 64  1  0
 28 65  1  0
 28 66  1  0
 29 30  1  0
 29 67  1  0
 29 68  1  0
 30 31  1  0
 30 69  1  0
 30 70  1  0
 31 32  1  0
 31 71  1  0
 31 72  1  0
 32 33  1  1
 33 73  1  0
 33 74  1  0
 33 75  1  0
M  END
>  <i_m_ct_stereo_status>  (257) 
1

>  <s_m_source_file>  (257) 
/var/tmp/pbs.5076255.sched01/tmpe6iyr0oq/80tt78e_gd.sdf

>  <i_m_source_file_index>  (257) 
26

>  <i_lp_mmshare_version>  (257) 
48012

>  <i_f3d_flags>  (257) 
0

>  <s_epik_input>  (257) 
W0NIM11bQ0BdMTJbQ0gyXVtDSDJdW0NIMl1bQ0BdKFtDSDNdKShbQ0BASF0oTzMpT1tDSDNdKVtDQEBIXTJbQ0BIXShPW0NIM10pW0NAQF00KFtPSF0pW0NIMl1bQ0gyXVtDQEhdKFtDQEBIXTVbQ0BdMTM0KVtDQEBdNihbQ0gzXSlbQ0BIXShbQ0gyXVtDSDJdNSlbQ0BASF0oW0NIM10pQyg9TylbQ0hdPVtDSF02

>  <s_epik_cmdline>  (257) 
J2VwaWtfcHl0aG9uJywgJy1waHQnLCAnMi4wJywgJy1waCcsICc3LjAnLCAnLXRuJywgJzgnLCAnLW1hJywgJzIwMCcsICctaW1hZScsICc8aW5maWxlLm1hZT4nLCAnLW9tYWUnLCAnPG91dGZpbGUubWFlPic=

>  <r_lp_tautomer_probability>  (257) 
1

>  <r_epik_Ionization_Penalty>  (257) 
3.09394e-08

>  <r_epik_Ionization_Penalty_Charging>  (257) 
0

>  <r_epik_Ionization_Penalty_Neutral>  (257) 
3.09394e-08

>  <r_epik_State_Penalty>  (257) 
-0

>  <r_epik_Charging_Adjusted_Penalty>  (257) 
0

>  <i_epik_Tot_Q>  (257) 
0

>  <i_epik_Tot_abs_Q>  (257) 
0

>  <s_epik_Chemistry_Notes>  (257) 
This compound contains an acetal/aminal-like group ( X-CH(R)-Y where X, Y are N, S, or O) that may be acid/base labile, releasing an aldehyde.

>  <s_lp_Force_Field>  (257) 
OPLS3e

>  <r_lp_Energy>  (257) 
104.7

>  <b_lp_Chiralities_Consistent>  (257) 
1

>  <s_lp_Variant>  (257) 
73:0-1

>  <s_i_glide_gridfile>  (257) 
pfpi4k_grid

>  <i_i_glide_lignum>  (257) 
26

>  <i_i_glide_rotatable_bonds>  (257) 
3

>  <r_i_docking_score>  (257) 
-1.94894

>  <r_i_glide_ligand_efficiency>  (257) 
-0.0590589

>  <r_i_glide_ligand_efficiency_sa>  (257) 
-0.189433

>  <r_i_glide_ligand_efficiency_ln>  (257) 
-0.433435

>  <r_i_glide_gscore>  (257) 
-1.94894

>  <r_i_glide_lipo>  (257) 
-0.0135662

>  <r_i_glide_hbond>  (257) 
-0.104806

>  <r_i_glide_metal>  (257) 
-0

>  <r_i_glide_rewards>  (257) 
-0.282068

>  <r_i_glide_evdw>  (257) 
-24.8853

>  <r_i_glide_ecoul>  (257) 
-1.52635

>  <r_i_glide_erotb>  (257) 
0

>  <r_i_glide_esite>  (257) 
-0.0752858

>  <r_i_glide_emodel>  (257) 
-27.208

>  <r_i_glide_energy>  (257) 
-26.4116

>  <r_i_glide_einternal>  (257) 
3.66862

>  <r_i_glide_intrahb_reward>  (257) 
-0

>  <i_i_glide_confnum>  (257) 
1

>  <i_i_glide_posenum>  (257) 
3

>  <r_i_glide_eff_state_penalty>  (257) 
0

>  <ligand_id>  (257) 
73

>  <original_smiles>  (257) 
COC1OC23C4CCC5C(C)C(=O)C=CC5(C)C4CCC2(O)C(OC)C2C1(C)CCCC23C

>  <smiles>  (257) 
[H]OC12C([H])([H])C([H])([H])C3([H])C([H])(C([H])([H])C([H])([H])C4([H])C([H])(C([H])([H])[H])C(=O)C([H])=C([H])C43C([H])([H])[H])C13OC([H])(OC([H])([H])[H])C1(C([H])([H])[H])C([H])([H])C([H])([H])C([H])([H])C3(C([H])([H])[H])C1([H])C2([H])OC([H])([H])[H]

$$$$
74:0:0
     RDKit          3D

 42 49  0  0  1  0  0  0  0  0999 V2000
   -0.2622    2.5426    2.8792 N   0  0  0  0  0  0  0  0  0  0  0  0
    0.2092    1.3267    3.3124 C   0  0  0  0  0  0  0  0  0  0  0  0
   -0.2202    0.7065    4.2829 O   0  0  0  0  0  0  0  0  0  0  0  0
    1.2192    0.9222    2.5074 O   0  0  0  0  0  0  0  0  0  0  0  0
    1.8096   -0.3541    2.7285 C   0  0  2  0  0  0  0  0  0  0  0  0
    3.1616   -0.3294    3.4742 C   0  0  1  0  0  0  0  0  0  0  0  0
    4.0449   -1.6071    3.5685 C   0  0  1  0  0  0  0  0  0  0  0  0
    3.2856   -2.8107    2.9964 C   0  0  0  0  0  0  0  0  0  0  0  0
    2.7585   -2.4383    1.5633 C   0  0  1  0  0  0  0  0  0  0  0  0
    2.5908   -0.9033    1.5198 C   0  0  2  0  0  0  0  0  0  0  0  0
    3.7898   -0.1200    2.0945 C   0  0  2  0  0  0  0  0  0  0  0  0
    5.0288   -0.8516    2.6307 C   0  0  2  0  0  0  0  0  0  0  0  0
    6.0283   -1.4839    1.6296 C   0  0  2  0  0  0  0  0  0  0  0  0
    6.0973   -0.6752    0.3242 C   0  0  0  0  0  0  0  0  0  0  0  0
    5.1571   -1.1291   -0.7846 C   0  0  2  0  0  0  0  0  0  0  0  0
    4.0113   -2.1440   -0.7572 C   0  0  2  0  0  0  0  0  0  0  0  0
    3.5761   -3.0538    0.3883 C   0  0  1  0  0  0  0  0  0  0  0  0
    4.8343   -3.7711    0.8025 C   0  0  2  0  0  0  0  0  0  0  0  0
    6.0002   -3.0002    1.3588 C   0  0  1  0  0  0  0  0  0  0  0  0
    5.9768   -3.4562   -0.1078 C   0  0  2  0  0  0  0  0  0  0  0  0
    5.4029   -2.5560   -1.1791 C   0  0  2  0  0  0  0  0  0  0  0  0
   -1.0107    2.9762    3.3937 H   0  0  0  0  0  0  0  0  0  0  0  0
    0.1212    2.9665    2.0281 H   0  0  0  0  0  0  0  0  0  0  0  0
    1.1055   -1.0885    3.1234 H   0  0  0  0  0  0  0  0  0  0  0  0
    3.3510    0.4843    4.1809 H   0  0  0  0  0  0  0  0  0  0  0  0
    4.4511   -1.7483    4.5753 H   0  0  0  0  0  0  0  0  0  0  0  0
    3.8767   -3.7231    3.0632 H   0  0  0  0  0  0  0  0  0  0  0  0
    2.4179   -2.9990    3.6302 H   0  0  0  0  0  0  0  0  0  0  0  0
    1.7682   -2.8792    1.4818 H   0  0  0  0  0  0  0  0  0  0  0  0
    2.2559   -0.4698    0.5731 H   0  0  0  0  0  0  0  0  0  0  0  0
    3.8759    0.9370    1.8146 H   0  0  0  0  0  0  0  0  0  0  0  0
    5.5728   -0.1291    3.2420 H   0  0  0  0  0  0  0  0  0  0  0  0
    7.0101   -1.3178    2.0756 H   0  0  0  0  0  0  0  0  0  0  0  0
    5.9653    0.3923    0.4910 H   0  0  0  0  0  0  0  0  0  0  0  0
    7.1112   -0.8030   -0.0545 H   0  0  0  0  0  0  0  0  0  0  0  0
    5.0697   -0.4120   -1.5940 H   0  0  0  0  0  0  0  0  0  0  0  0
    3.2703   -2.0374   -1.5486 H   0  0  0  0  0  0  0  0  0  0  0  0
    2.9475   -3.8148   -0.0687 H   0  0  0  0  0  0  0  0  0  0  0  0
    4.7219   -4.8131    1.1014 H   0  0  0  0  0  0  0  0  0  0  0  0
    6.6062   -3.5798    2.0463 H   0  0  0  0  0  0  0  0  0  0  0  0
    6.6598   -4.2570   -0.3894 H   0  0  0  0  0  0  0  0  0  0  0  0
    5.5821   -2.7749   -2.2318 H   0  0  0  0  0  0  0  0  0  0  0  0
  1  2  1  0
  1 22  1  0
  1 23  1  0
  2  3  2  0
  2  4  1  0
  4  5  1  0
  5 10  1  0
  5  6  1  0
  5 24  1  1
  6 11  1  0
  6  7  1  0
  6 25  1  1
  7 12  1  0
  7  8  1  0
  7 26  1  1
  8  9  1  0
  8 27  1  0
  8 28  1  0
  9 17  1  0
  9 10  1  0
  9 29  1  1
 10 11  1  0
 10 30  1  6
 11 12  1  0
 11 31  1  6
 12 13  1  0
 12 32  1  1
 13 19  1  0
 13 14  1  0
 13 33  1  1
 14 15  1  0
 14 34  1  0
 14 35  1  0
 15 21  1  0
 15 16  1  0
 15 36  1  6
 16 21  1  0
 16 17  1  0
 16 37  1  6
 17 18  1  0
 17 38  1  6
 18 20  1  0
 18 19  1  0
 18 39  1  1
 19 20  1  0
 19 40  1  1
 20 21  1  0
 20 41  1  6
 21 42  1  6
M  END
>  <i_m_ct_stereo_status>  (258) 
1

>  <s_m_source_file>  (258) 
/var/tmp/pbs.5076255.sched01/tmpe6iyr0oq/80tt78e_gd.sdf

>  <i_m_source_file_index>  (258) 
27

>  <i_lp_mmshare_version>  (258) 
48012

>  <i_f3d_flags>  (258) 
0

>  <s_epik_input>  (258) 
W05IMl1DKD1PKU9bQ0BIXTFbQ0BASF0oW0NAQEhdMltDQEhdM1tDQEhdNFtDQEhdMTIpW0NASF0oW0NIMl00KVtDQEhdNVtDQEhdNltDQEBIXTdbQ0BIXTZbQ0BASF04W0NASF01W0NAQEhdOFtDQEhdM1tDSDJdNw==

>  <s_epik_cmdline>  (258) 
J2VwaWtfcHl0aG9uJywgJy1waHQnLCAnMi4wJywgJy1waCcsICc3LjAnLCAnLXRuJywgJzgnLCAnLW1hJywgJzIwMCcsICctaW1hZScsICc8aW5maWxlLm1hZT4nLCAnLW9tYWUnLCAnPG91dGZpbGUubWFlPic=

>  <r_lp_tautomer_probability>  (258) 
1

>  <r_epik_Ionization_Penalty>  (258) 
5.9452e-06

>  <r_epik_Ionization_Penalty_Charging>  (258) 
0

>  <r_epik_Ionization_Penalty_Neutral>  (258) 
5.9452e-06

>  <r_epik_State_Penalty>  (258) 
-0

>  <r_epik_Charging_Adjusted_Penalty>  (258) 
0

>  <i_epik_Tot_Q>  (258) 
0

>  <i_epik_Tot_abs_Q>  (258) 
0

>  <s_epik_Chemistry_Notes>  (258) 
This compound has an ester and may undergo hydrolysis at high or low pH.

>  <s_lp_Force_Field>  (258) 
OPLS3e

>  <r_lp_Energy>  (258) 
95.4092

>  <b_lp_Chiralities_Consistent>  (258) 
1

>  <s_lp_Variant>  (258) 
74:0-1

>  <s_i_glide_gridfile>  (258) 
pfpi4k_grid

>  <i_i_glide_lignum>  (258) 
27

>  <i_i_glide_rotatable_bonds>  (258) 
2

>  <r_i_docking_score>  (258) 
-3.90562

>  <r_i_glide_ligand_efficiency>  (258) 
-0.185982

>  <r_i_glide_ligand_efficiency_sa>  (258) 
-0.51311

>  <r_i_glide_ligand_efficiency_ln>  (258) 
-0.965656

>  <r_i_glide_gscore>  (258) 
-3.90562

>  <r_i_glide_lipo>  (258) 
-0.637043

>  <r_i_glide_hbond>  (258) 
-0.159432

>  <r_i_glide_metal>  (258) 
-0

>  <r_i_glide_rewards>  (258) 
-1.47706

>  <r_i_glide_evdw>  (258) 
-20.4902

>  <r_i_glide_ecoul>  (258) 
-3.17391

>  <r_i_glide_erotb>  (258) 
0

>  <r_i_glide_esite>  (258) 
-0.131489

>  <r_i_glide_emodel>  (258) 
-30.129

>  <r_i_glide_energy>  (258) 
-23.6641

>  <r_i_glide_einternal>  (258) 
0.231984

>  <r_i_glide_intrahb_reward>  (258) 
-0

>  <i_i_glide_confnum>  (258) 
2

>  <i_i_glide_posenum>  (258) 
33

>  <r_i_glide_eff_state_penalty>  (258) 
0

>  <ligand_id>  (258) 
74

>  <original_smiles>  (258) 
NC(=O)OC1C2C3CC4C1C2C3C1CC2C3C4C4C1C4C23

>  <smiles>  (258) 
[H]N([H])C(=O)OC1([H])C2([H])C3([H])C([H])([H])C4([H])C1([H])C2([H])C3([H])C1([H])C([H])([H])C2([H])C3([H])C4([H])C4([H])C1([H])C4([H])C23[H]

$$$$
74:0:1
     RDKit          3D

 42 49  0  0  1  0  0  0  0  0999 V2000
   -0.4278    2.1576    2.4749 N   0  0  0  0  0  0  0  0  0  0  0  0
    0.1557    1.0278    3.0084 C   0  0  0  0  0  0  0  0  0  0  0  0
   -0.4436    0.1556    3.6432 O   0  0  0  0  0  0  0  0  0  0  0  0
    1.4748    1.0575    2.7315 O   0  0  0  0  0  0  0  0  0  0  0  0
    2.2414   -0.0987    3.1134 C   0  0  2  0  0  0  0  0  0  0  0  0
    3.7650    0.1042    3.2278 C   0  0  1  0  0  0  0  0  0  0  0  0
    4.7398   -1.1173    3.3619 C   0  0  1  0  0  0  0  0  0  0  0  0
    3.9192   -2.3956    3.5506 C   0  0  0  0  0  0  0  0  0  0  0  0
    2.8613   -2.4999    2.3993 C   0  0  1  0  0  0  0  0  0  0  0  0
    2.5473   -1.0521    1.9452 C   0  0  2  0  0  0  0  0  0  0  0  0
    3.8113   -0.1841    1.7262 C   0  0  2  0  0  0  0  0  0  0  0  0
    5.2251   -0.7433    1.9331 C   0  0  2  0  0  0  0  0  0  0  0  0
    5.8602   -1.6874    0.8719 C   0  0  2  0  0  0  0  0  0  0  0  0
    5.3497   -1.3388   -0.5434 C   0  0  0  0  0  0  0  0  0  0  0  0
    4.1116   -2.0933   -0.9853 C   0  0  2  0  0  0  0  0  0  0  0  0
    3.1511   -2.9888   -0.1928 C   0  0  2  0  0  0  0  0  0  0  0  0
    3.2391   -3.4701    1.2492 C   0  0  1  0  0  0  0  0  0  0  0  0
    4.6296   -4.0451    1.3496 C   0  0  2  0  0  0  0  0  0  0  0  0
    5.8503   -3.1960    1.1275 C   0  0  1  0  0  0  0  0  0  0  0  0
    5.3037   -4.1064    0.0237 C   0  0  2  0  0  0  0  0  0  0  0  0
    4.3047   -3.5751   -0.9642 C   0  0  2  0  0  0  0  0  0  0  0  0
   -1.4220    2.2526    2.5717 H   0  0  0  0  0  0  0  0  0  0  0  0
    0.1249    2.8035    1.9190 H   0  0  0  0  0  0  0  0  0  0  0  0
    1.8645   -0.6232    3.9902 H   0  0  0  0  0  0  0  0  0  0  0  0
    4.1462    1.0966    3.4873 H   0  0  0  0  0  0  0  0  0  0  0  0
    5.4958   -0.9187    4.1198 H   0  0  0  0  0  0  0  0  0  0  0  0
    4.5807   -3.2492    3.6615 H   0  0  0  0  0  0  0  0  0  0  0  0
    3.3900   -2.3375    4.5015 H   0  0  0  0  0  0  0  0  0  0  0  0
    1.9507   -2.8918    2.8413 H   0  0  0  0  0  0  0  0  0  0  0  0
    1.8413   -0.9358    1.1396 H   0  0  0  0  0  0  0  0  0  0  0  0
    3.7055    0.7434    1.1420 H   0  0  0  0  0  0  0  0  0  0  0  0
    5.8717    0.1372    2.0481 H   0  0  0  0  0  0  0  0  0  0  0  0
    6.9209   -1.4240    0.8568 H   0  0  0  0  0  0  0  0  0  0  0  0
    5.1741   -0.2695   -0.6559 H   0  0  0  0  0  0  0  0  0  0  0  0
    6.1326   -1.6021   -1.2572 H   0  0  0  0  0  0  0  0  0  0  0  0
    3.6539   -1.6752   -1.8862 H   0  0  0  0  0  0  0  0  0  0  0  0
    2.1660   -3.1146   -0.6438 H   0  0  0  0  0  0  0  0  0  0  0  0
    2.5601   -4.3246    1.3265 H   0  0  0  0  0  0  0  0  0  0  0  0
    4.7350   -4.9340    1.9706 H   0  0  0  0  0  0  0  0  0  0  0  0
    6.7235   -3.5556    1.6781 H   0  0  0  0  0  0  0  0  0  0  0  0
    5.8909   -4.9861   -0.2286 H   0  0  0  0  0  0  0  0  0  0  0  0
    4.0931   -4.1176   -1.8793 H   0  0  0  0  0  0  0  0  0  0  0  0
  1  2  1  0
  1 22  1  0
  1 23  1  0
  2  3  2  0
  2  4  1  0
  4  5  1  0
  5 10  1  0
  5  6  1  0
  5 24  1  1
  6 11  1  0
  6  7  1  0
  6 25  1  6
  7 12  1  0
  7  8  1  0
  7 26  1  1
  8  9  1  0
  8 27  1  0
  8 28  1  0
  9 17  1  0
  9 10  1  0
  9 29  1  1
 10 11  1  0
 10 30  1  6
 11 12  1  0
 11 31  1  6
 12 13  1  0
 12 32  1  1
 13 19  1  0
 13 14  1  0
 13 33  1  6
 14 15  1  0
 14 34  1  0
 14 35  1  0
 15 21  1  0
 15 16  1  0
 15 36  1  6
 16 21  1  0
 16 17  1  0
 16 37  1  6
 17 18  1  0
 17 38  1  6
 18 20  1  0
 18 19  1  0
 18 39  1  1
 19 20  1  0
 19 40  1  1
 20 21  1  0
 20 41  1  6
 21 42  1  6
M  END
>  <i_m_ct_stereo_status>  (259) 
1

>  <s_m_source_file>  (259) 
/var/tmp/pbs.5076255.sched01/tmpe6iyr0oq/80tt78e_gd.sdf

>  <i_m_source_file_index>  (259) 
27

>  <i_lp_mmshare_version>  (259) 
48012

>  <i_f3d_flags>  (259) 
0

>  <s_epik_input>  (259) 
W05IMl1DKD1PKU9bQ0BIXTFbQ0BASF0oW0NAQEhdMltDQEhdM1tDQEhdNFtDQEhdMTIpW0NASF0oW0NIMl00KVtDQEhdNVtDQEhdNltDQEBIXTdbQ0BIXTZbQ0BASF04W0NASF01W0NAQEhdOFtDQEhdM1tDSDJdNw==

>  <s_epik_cmdline>  (259) 
J2VwaWtfcHl0aG9uJywgJy1waHQnLCAnMi4wJywgJy1waCcsICc3LjAnLCAnLXRuJywgJzgnLCAnLW1hJywgJzIwMCcsICctaW1hZScsICc8aW5maWxlLm1hZT4nLCAnLW9tYWUnLCAnPG91dGZpbGUubWFlPic=

>  <r_lp_tautomer_probability>  (259) 
1

>  <r_epik_Ionization_Penalty>  (259) 
5.9452e-06

>  <r_epik_Ionization_Penalty_Charging>  (259) 
0

>  <r_epik_Ionization_Penalty_Neutral>  (259) 
5.9452e-06

>  <r_epik_State_Penalty>  (259) 
-0

>  <r_epik_Charging_Adjusted_Penalty>  (259) 
0

>  <i_epik_Tot_Q>  (259) 
0

>  <i_epik_Tot_abs_Q>  (259) 
0

>  <s_epik_Chemistry_Notes>  (259) 
This compound has an ester and may undergo hydrolysis at high or low pH.

>  <s_lp_Force_Field>  (259) 
OPLS3e

>  <r_lp_Energy>  (259) 
95.4092

>  <b_lp_Chiralities_Consistent>  (259) 
1

>  <s_lp_Variant>  (259) 
74:0-1

>  <s_i_glide_gridfile>  (259) 
pfpi4k_grid

>  <i_i_glide_lignum>  (259) 
27

>  <i_i_glide_rotatable_bonds>  (259) 
2

>  <r_i_docking_score>  (259) 
-3.7646

>  <r_i_glide_ligand_efficiency>  (259) 
-0.179267

>  <r_i_glide_ligand_efficiency_sa>  (259) 
-0.494584

>  <r_i_glide_ligand_efficiency_ln>  (259) 
-0.93079

>  <r_i_glide_gscore>  (259) 
-3.7646

>  <r_i_glide_lipo>  (259) 
-0.510127

>  <r_i_glide_hbond>  (259) 
-0.146184

>  <r_i_glide_metal>  (259) 
-0

>  <r_i_glide_rewards>  (259) 
-1.47706

>  <r_i_glide_evdw>  (259) 
-23.2816

>  <r_i_glide_ecoul>  (259) 
-2.20654

>  <r_i_glide_erotb>  (259) 
0

>  <r_i_glide_esite>  (259) 
-0.136172

>  <r_i_glide_emodel>  (259) 
-31.4163

>  <r_i_glide_energy>  (259) 
-25.4882

>  <r_i_glide_einternal>  (259) 
0.607838

>  <r_i_glide_intrahb_reward>  (259) 
-0

>  <i_i_glide_confnum>  (259) 
1

>  <i_i_glide_posenum>  (259) 
24

>  <r_i_glide_eff_state_penalty>  (259) 
0

>  <ligand_id>  (259) 
74

>  <original_smiles>  (259) 
NC(=O)OC1C2C3CC4C1C2C3C1CC2C3C4C4C1C4C23

>  <smiles>  (259) 
[H]N([H])C(=O)OC1([H])C2([H])C3([H])C([H])([H])C4([H])C1([H])C2([H])C3([H])C1([H])C([H])([H])C2([H])C3([H])C4([H])C4([H])C1([H])C4([H])C23[H]

$$$$
74:0:2
     RDKit          3D

 42 49  0  0  1  0  0  0  0  0999 V2000
    2.6216   -1.1723    0.8762 N   0  0  0  0  0  0  0  0  0  0  0  0
    2.4366   -0.7925    2.1900 C   0  0  0  0  0  0  0  0  0  0  0  0
    3.2664   -0.9570    3.0861 O   0  0  0  0  0  0  0  0  0  0  0  0
    1.2148   -0.2291    2.3446 O   0  0  0  0  0  0  0  0  0  0  0  0
    0.8213    0.1491    3.6643 C   0  0  2  0  0  0  0  0  0  0  0  0
   -0.6195    0.6703    3.8162 C   0  0  1  0  0  0  0  0  0  0  0  0
   -1.1005    1.3216    5.1440 C   0  0  1  0  0  0  0  0  0  0  0  0
   -0.0205    1.1658    6.2205 C   0  0  0  0  0  0  0  0  0  0  0  0
    1.3411    1.7004    5.6425 C   0  0  1  0  0  0  0  0  0  0  0  0
    1.2801    1.5502    4.1067 C   0  0  2  0  0  0  0  0  0  0  0  0
   -0.0442    2.0466    3.4817 C   0  0  2  0  0  0  0  0  0  0  0  0
   -1.1622    2.6497    4.3430 C   0  0  2  0  0  0  0  0  0  0  0  0
   -1.0192    4.1006    4.8900 C   0  0  2  0  0  0  0  0  0  0  0  0
   -0.1991    4.9827    3.9239 C   0  0  0  0  0  0  0  0  0  0  0  0
    1.2992    5.0063    4.1782 C   0  0  2  0  0  0  0  0  0  0  0  0
    2.1701    4.1605    5.1151 C   0  0  2  0  0  0  0  0  0  0  0  0
    1.7487    3.1156    6.1439 C   0  0  1  0  0  0  0  0  0  0  0  0
    0.7014    3.8163    6.9675 C   0  0  2  0  0  0  0  0  0  0  0  0
   -0.5802    4.3050    6.3503 C   0  0  1  0  0  0  0  0  0  0  0  0
    0.5869    5.2616    6.6160 C   0  0  2  0  0  0  0  0  0  0  0  0
    1.6278    5.4999    5.5540 C   0  0  2  0  0  0  0  0  0  0  0  0
    3.4964   -1.5716    0.6145 H   0  0  0  0  0  0  0  0  0  0  0  0
    1.8339   -1.0306    0.2105 H   0  0  0  0  0  0  0  0  0  0  0  0
    1.0502   -0.6171    4.3998 H   0  0  0  0  0  0  0  0  0  0  0  0
   -1.3774    0.3219    3.1112 H   0  0  0  0  0  0  0  0  0  0  0  0
   -2.0972    0.9696    5.4179 H   0  0  0  0  0  0  0  0  0  0  0  0
   -0.3421    1.6140    7.1557 H   0  0  0  0  0  0  0  0  0  0  0  0
    0.1036    0.1023    6.4372 H   0  0  0  0  0  0  0  0  0  0  0  0
    2.1163    1.0253    6.0010 H   0  0  0  0  0  0  0  0  0  0  0  0
    2.1436    1.9052    3.5436 H   0  0  0  0  0  0  0  0  0  0  0  0
   -0.0660    2.2388    2.4063 H   0  0  0  0  0  0  0  0  0  0  0  0
   -2.0660    2.6066    3.7312 H   0  0  0  0  0  0  0  0  0  0  0  0
   -2.0231    4.5247    4.8588 H   0  0  0  0  0  0  0  0  0  0  0  0
   -0.3723    4.7089    2.8827 H   0  0  0  0  0  0  0  0  0  0  0  0
   -0.5333    6.0184    4.0326 H   0  0  0  0  0  0  0  0  0  0  0  0
    1.8630    5.4515    3.3649 H   0  0  0  0  0  0  0  0  0  0  0  0
    3.2259    4.1393    4.8707 H   0  0  0  0  0  0  0  0  0  0  0  0
    2.6070    2.9817    6.8070 H   0  0  0  0  0  0  0  0  0  0  0  0
    0.6980    3.5884    8.0298 H   0  0  0  0  0  0  0  0  0  0  0  0
   -1.4013    4.3203    7.0578 H   0  0  0  0  0  0  0  0  0  0  0  0
    0.4524    5.9886    7.4155 H   0  0  0  0  0  0  0  0  0  0  0  0
    2.3195    6.3343    5.6369 H   0  0  0  0  0  0  0  0  0  0  0  0
  1  2  1  0
  1 22  1  0
  1 23  1  0
  2  3  2  0
  2  4  1  0
  4  5  1  0
  5 10  1  0
  5  6  1  0
  5 24  1  1
  6 11  1  0
  6  7  1  0
  6 25  1  6
  7 12  1  0
  7  8  1  0
  7 26  1  1
  8  9  1  0
  8 27  1  0
  8 28  1  0
  9 17  1  0
  9 10  1  0
  9 29  1  1
 10 11  1  0
 10 30  1  6
 11 12  1  0
 11 31  1  6
 12 13  1  0
 12 32  1  6
 13 19  1  0
 13 14  1  0
 13 33  1  1
 14 15  1  0
 14 34  1  0
 14 35  1  0
 15 21  1  0
 15 16  1  0
 15 36  1  6
 16 21  1  0
 16 17  1  0
 16 37  1  6
 17 18  1  0
 17 38  1  1
 18 20  1  0
 18 19  1  0
 18 39  1  1
 19 20  1  0
 19 40  1  1
 20 21  1  0
 20 41  1  1
 21 42  1  6
M  END
>  <i_m_ct_stereo_status>  (260) 
1

>  <s_m_source_file>  (260) 
/var/tmp/pbs.5076255.sched01/tmpe6iyr0oq/80tt78e_gd.sdf

>  <i_m_source_file_index>  (260) 
27

>  <i_lp_mmshare_version>  (260) 
48012

>  <i_f3d_flags>  (260) 
0

>  <s_epik_input>  (260) 
W05IMl1DKD1PKU9bQ0BIXTFbQ0BASF0oW0NAQEhdMltDQEhdM1tDQEhdNFtDQEhdMTIpW0NASF0oW0NIMl00KVtDQEhdNVtDQEhdNltDQEBIXTdbQ0BIXTZbQ0BASF04W0NASF01W0NAQEhdOFtDQEhdM1tDSDJdNw==

>  <s_epik_cmdline>  (260) 
J2VwaWtfcHl0aG9uJywgJy1waHQnLCAnMi4wJywgJy1waCcsICc3LjAnLCAnLXRuJywgJzgnLCAnLW1hJywgJzIwMCcsICctaW1hZScsICc8aW5maWxlLm1hZT4nLCAnLW9tYWUnLCAnPG91dGZpbGUubWFlPic=

>  <r_lp_tautomer_probability>  (260) 
1

>  <r_epik_Ionization_Penalty>  (260) 
5.9452e-06

>  <r_epik_Ionization_Penalty_Charging>  (260) 
0

>  <r_epik_Ionization_Penalty_Neutral>  (260) 
5.9452e-06

>  <r_epik_State_Penalty>  (260) 
-0

>  <r_epik_Charging_Adjusted_Penalty>  (260) 
0

>  <i_epik_Tot_Q>  (260) 
0

>  <i_epik_Tot_abs_Q>  (260) 
0

>  <s_epik_Chemistry_Notes>  (260) 
This compound has an ester and may undergo hydrolysis at high or low pH.

>  <s_lp_Force_Field>  (260) 
OPLS3e

>  <r_lp_Energy>  (260) 
95.4092

>  <b_lp_Chiralities_Consistent>  (260) 
1

>  <s_lp_Variant>  (260) 
74:0-1

>  <s_i_glide_gridfile>  (260) 
pfpi4k_grid

>  <i_i_glide_lignum>  (260) 
27

>  <i_i_glide_rotatable_bonds>  (260) 
2

>  <r_i_docking_score>  (260) 
-3.28123

>  <r_i_glide_ligand_efficiency>  (260) 
-0.156249

>  <r_i_glide_ligand_efficiency_sa>  (260) 
-0.431079

>  <r_i_glide_ligand_efficiency_ln>  (260) 
-0.811277

>  <r_i_glide_gscore>  (260) 
-3.28123

>  <r_i_glide_lipo>  (260) 
0

>  <r_i_glide_hbond>  (260) 
-0.145747

>  <r_i_glide_metal>  (260) 
-0

>  <r_i_glide_rewards>  (260) 
-1.47706

>  <r_i_glide_evdw>  (260) 
-15.2816

>  <r_i_glide_ecoul>  (260) 
-5.3593

>  <r_i_glide_erotb>  (260) 
0

>  <r_i_glide_esite>  (260) 
-0.0904479

>  <r_i_glide_emodel>  (260) 
-25.995

>  <r_i_glide_energy>  (260) 
-20.6409

>  <r_i_glide_einternal>  (260) 
0.203979

>  <r_i_glide_intrahb_reward>  (260) 
-0

>  <i_i_glide_confnum>  (260) 
2

>  <i_i_glide_posenum>  (260) 
27

>  <r_i_glide_eff_state_penalty>  (260) 
0

>  <ligand_id>  (260) 
74

>  <original_smiles>  (260) 
NC(=O)OC1C2C3CC4C1C2C3C1CC2C3C4C4C1C4C23

>  <smiles>  (260) 
[H]N([H])C(=O)OC1([H])C2([H])C3([H])C([H])([H])C4([H])C1([H])C2([H])C3([H])C1([H])C([H])([H])C2([H])C3([H])C4([H])C4([H])C1([H])C4([H])C23[H]

$$$$
75:0:0
     RDKit          3D

 56 61  0  0  1  0  0  0  0  0999 V2000
    2.0228   -2.2498    4.4067 C   0  0  0  0  0  0  0  0  0  0  0  0
    2.4824   -2.6451    3.1245 O   0  0  0  0  0  0  0  0  0  0  0  0
    3.5564   -3.5847    3.1220 C   0  0  2  0  0  0  0  0  0  0  0  0
    4.6161   -3.1855    2.0943 C   0  0  2  0  0  0  0  0  0  0  0  0
    4.7509   -2.0294    0.9784 C   0  0  1  0  0  0  0  0  0  0  0  0
    4.2757   -0.6438    1.4218 C   0  0  0  0  0  0  0  0  0  0  0  0
    6.0051   -1.7876    0.0939 C   0  0  1  0  0  0  0  0  0  0  0  0
    6.9998   -2.7954    0.1332 O   0  0  0  0  0  0  0  0  0  0  0  0
    5.6458   -1.5271   -1.4058 C   0  0  0  0  0  0  0  0  0  0  0  0
    5.0813   -2.6681   -2.3027 C   0  0  2  0  0  0  0  0  0  0  0  0
    3.9166   -2.2066   -3.1490 C   0  0  0  0  0  0  0  0  0  0  0  0
    2.6509   -2.5918   -2.9072 C   0  0  0  0  0  0  0  0  0  0  0  0
    2.3830   -3.4477   -1.7436 C   0  0  0  0  0  0  0  0  0  0  0  0
    1.2380   -3.8536   -1.5177 O   0  0  0  0  0  0  0  0  0  0  0  0
    3.5395   -3.7879   -0.8574 C   0  0  2  0  0  0  0  0  0  0  0  0
    4.7669   -3.8673   -1.6062 O   0  0  0  0  0  0  0  0  0  0  0  0
    3.3438   -4.8719    0.2927 C   0  0  2  0  0  0  0  0  0  0  0  0
    2.2953   -5.0574    1.3652 C   0  0  1  0  0  0  0  0  0  0  0  0
    1.5211   -6.2313    1.1546 O   0  0  0  0  0  0  0  0  0  0  0  0
    2.9955   -5.0436    2.7754 C   0  0  2  0  0  0  0  0  0  0  0  0
    2.0499   -5.5435    3.8929 C   0  0  0  0  0  0  0  0  0  0  0  0
    4.0583   -6.0306    2.6988 O   0  0  0  0  0  0  0  0  0  0  0  0
    5.3380   -5.9412    2.0463 C   0  0  0  0  0  0  0  0  0  0  0  0
    6.3958   -5.7125    3.1494 C   0  0  0  0  0  0  0  0  0  0  0  0
    5.5546   -7.3568    1.4596 C   0  0  0  0  0  0  0  0  0  0  0  0
    5.5498   -4.9990    0.9582 O   0  0  0  0  0  0  0  0  0  0  0  0
    4.4464   -4.0992    0.9424 C   0  0  2  0  0  0  0  0  0  0  0  0
    3.7398   -2.8558    0.2798 C   0  0  1  0  0  0  0  0  0  0  0  0
    1.2196   -1.5206    4.2831 H   0  0  0  0  0  0  0  0  0  0  0  0
    2.8203   -1.7925    4.9927 H   0  0  0  0  0  0  0  0  0  0  0  0
    1.6218   -3.0827    4.9755 H   0  0  0  0  0  0  0  0  0  0  0  0
    4.0175   -3.6133    4.1111 H   0  0  0  0  0  0  0  0  0  0  0  0
    5.6247   -3.2178    2.5225 H   0  0  0  0  0  0  0  0  0  0  0  0
    4.1599    0.0437    0.5857 H   0  0  0  0  0  0  0  0  0  0  0  0
    4.9464   -0.1908    2.1518 H   0  0  0  0  0  0  0  0  0  0  0  0
    3.2889   -0.6946    1.8947 H   0  0  0  0  0  0  0  0  0  0  0  0
    6.5214   -0.8920    0.4450 H   0  0  0  0  0  0  0  0  0  0  0  0
    6.5895   -3.6085   -0.1052 H   0  0  0  0  0  0  0  0  0  0  0  0
    4.9864   -0.6596   -1.4669 H   0  0  0  0  0  0  0  0  0  0  0  0
    6.5476   -1.2435   -1.9094 H   0  0  0  0  0  0  0  0  0  0  0  0
    5.8638   -2.9551   -3.0090 H   0  0  0  0  0  0  0  0  0  0  0  0
    4.1360   -1.5491   -3.9839 H   0  0  0  0  0  0  0  0  0  0  0  0
    1.8159   -2.2829   -3.5106 H   0  0  0  0  0  0  0  0  0  0  0  0
    3.6885   -5.8240   -0.1395 H   0  0  0  0  0  0  0  0  0  0  0  0
    1.5937   -4.2312    1.3793 H   0  0  0  0  0  0  0  0  0  0  0  0
    2.1004   -6.9671    1.1964 H   0  0  0  0  0  0  0  0  0  0  0  0
    1.1294   -4.9664    3.9263 H   0  0  0  0  0  0  0  0  0  0  0  0
    2.5496   -5.4760    4.8620 H   0  0  0  0  0  0  0  0  0  0  0  0
    1.7685   -6.5852    3.7404 H   0  0  0  0  0  0  0  0  0  0  0  0
    6.1277   -4.8696    3.7852 H   0  0  0  0  0  0  0  0  0  0  0  0
    7.3788   -5.5406    2.7155 H   0  0  0  0  0  0  0  0  0  0  0  0
    6.4496   -6.5800    3.7983 H   0  0  0  0  0  0  0  0  0  0  0  0
    4.7768   -7.5934    0.7348 H   0  0  0  0  0  0  0  0  0  0  0  0
    5.4869   -8.0959    2.2534 H   0  0  0  0  0  0  0  0  0  0  0  0
    6.5299   -7.4396    0.9900 H   0  0  0  0  0  0  0  0  0  0  0  0
    2.7377   -2.5890    0.6954 H   0  0  0  0  0  0  0  0  0  0  0  0
  1  2  1  0
  1 29  1  0
  1 30  1  0
  1 31  1  0
  2  3  1  0
  3 20  1  0
  3  4  1  0
  3 32  1  1
  4 27  1  0
  4  5  1  0
  4 33  1  1
  5 28  1  0
  5  6  1  1
  5  7  1  0
  6 34  1  0
  6 35  1  0
  6 36  1  0
  7  8  1  0
  7  9  1  0
  7 37  1  1
  8 38  1  0
  9 10  1  0
  9 39  1  0
  9 40  1  0
 10 16  1  0
 10 11  1  0
 10 41  1  6
 11 12  2  0
 11 42  1  0
 12 13  1  0
 12 43  1  0
 13 14  2  0
 15 13  1  6
 15 28  1  0
 15 16  1  0
 15 17  1  0
 17 27  1  0
 17 18  1  0
 17 44  1  6
 18 19  1  0
 18 20  1  0
 18 45  1  1
 19 46  1  0
 20 21  1  1
 20 22  1  0
 21 47  1  0
 21 48  1  0
 21 49  1  0
 22 23  1  0
 23 24  1  0
 23 25  1  0
 23 26  1  0
 24 50  1  0
 24 51  1  0
 24 52  1  0
 25 53  1  0
 25 54  1  0
 25 55  1  0
 27 26  1  6
 27 28  1  0
 28 56  1  1
M  END
>  <i_m_ct_stereo_status>  (261) 
1

>  <s_m_source_file>  (261) 
/var/tmp/pbs.5076255.sched01/tmpe6iyr0oq/80tt78e_gd.sdf

>  <i_m_source_file_index>  (261) 
28

>  <i_lp_mmshare_version>  (261) 
48012

>  <i_f3d_flags>  (261) 
0

>  <s_epik_input>  (261) 
W0NIM11DKE8xKShbQ0gzXSlPW0NAXShbQ0gzXSkoW0NAQEhdMltPSF0pW0NASF0oT1tDSDNdKVtDQEBIXShbQ0BdMTNbQ0BASF0yW0NAXTQ1NilbQ0BdKFtDSDNdKShbQ0BIXTM2KVtDQEBIXShbT0hdKVtDSDJdW0NAQEhdKE81KVtDSF09W0NIXUM0PU8=

>  <s_epik_cmdline>  (261) 
J2VwaWtfcHl0aG9uJywgJy1waHQnLCAnMi4wJywgJy1waCcsICc3LjAnLCAnLXRuJywgJzgnLCAnLW1hJywgJzIwMCcsICctaW1hZScsICc8aW5maWxlLm1hZT4nLCAnLW9tYWUnLCAnPG91dGZpbGUubWFlPic=

>  <r_lp_tautomer_probability>  (261) 
1

>  <r_epik_Ionization_Penalty>  (261) 
6.31616e-07

>  <r_epik_Ionization_Penalty_Charging>  (261) 
0

>  <r_epik_Ionization_Penalty_Neutral>  (261) 
6.31616e-07

>  <r_epik_State_Penalty>  (261) 
-0

>  <r_epik_Charging_Adjusted_Penalty>  (261) 
0

>  <i_epik_Tot_Q>  (261) 
0

>  <i_epik_Tot_abs_Q>  (261) 
0

>  <s_lp_Force_Field>  (261) 
OPLS3e

>  <r_lp_Energy>  (261) 
155.97

>  <b_lp_Chiralities_Consistent>  (261) 
1

>  <s_lp_Variant>  (261) 
75:0-1

>  <s_i_glide_gridfile>  (261) 
pfpi4k_grid

>  <i_i_glide_lignum>  (261) 
28

>  <i_i_glide_rotatable_bonds>  (261) 
3

>  <r_i_docking_score>  (261) 
-3.33105

>  <r_i_glide_ligand_efficiency>  (261) 
-0.118966

>  <r_i_glide_ligand_efficiency_sa>  (261) 
-0.361251

>  <r_i_glide_ligand_efficiency_ln>  (261) 
-0.768904

>  <r_i_glide_gscore>  (261) 
-3.33105

>  <r_i_glide_lipo>  (261) 
-0.527951

>  <r_i_glide_hbond>  (261) 
-0.025681

>  <r_i_glide_metal>  (261) 
-0

>  <r_i_glide_rewards>  (261) 
-1.46181

>  <r_i_glide_evdw>  (261) 
-21.9137

>  <r_i_glide_ecoul>  (261) 
-1.46617

>  <r_i_glide_erotb>  (261) 
0

>  <r_i_glide_esite>  (261) 
0

>  <r_i_glide_emodel>  (261) 
-32.7131

>  <r_i_glide_energy>  (261) 
-23.3798

>  <r_i_glide_einternal>  (261) 
0.566606

>  <r_i_glide_intrahb_reward>  (261) 
-0.5

>  <i_i_glide_confnum>  (261) 
1

>  <i_i_glide_posenum>  (261) 
1

>  <r_i_glide_eff_state_penalty>  (261) 
0

>  <ligand_id>  (261) 
75

>  <original_smiles>  (261) 
COC1C2C3(C)C(O)CC4C=CC(=O)C5(O4)C4C(O)C1(C)OC(C)(C)OC42C53

>  <smiles>  (261) 
[H]OC1([H])C2([H])C34OC([H])(C([H])=C([H])C3=O)C([H])([H])C([H])(O[H])C3(C([H])([H])[H])C5([H])C([H])(OC([H])([H])[H])C1(C([H])([H])[H])OC(C([H])([H])[H])(C([H])([H])[H])OC25C43[H]

$$$$
75:0:1
     RDKit          3D

 56 61  0  0  1  0  0  0  0  0999 V2000
    1.8799   -2.5261    3.6988 C   0  0  0  0  0  0  0  0  0  0  0  0
    3.1458   -2.5370    3.0877 O   0  0  0  0  0  0  0  0  0  0  0  0
    3.8975   -3.7622    3.0704 C   0  0  2  0  0  0  0  0  0  0  0  0
    5.0622   -3.5994    2.0313 C   0  0  2  0  0  0  0  0  0  0  0  0
    5.4219   -2.4928    0.9179 C   0  0  1  0  0  0  0  0  0  0  0  0
    5.2550   -1.0387    1.3951 C   0  0  0  0  0  0  0  0  0  0  0  0
    6.6996   -2.5329    0.0191 C   0  0  1  0  0  0  0  0  0  0  0  0
    7.4607   -3.7234    0.0764 O   0  0  0  0  0  0  0  0  0  0  0  0
    6.4251   -2.1831   -1.4820 C   0  0  0  0  0  0  0  0  0  0  0  0
    5.5951   -3.1664   -2.3682 C   0  0  2  0  0  0  0  0  0  0  0  0
    4.5255   -2.4411   -3.1914 C   0  0  0  0  0  0  0  0  0  0  0  0
    3.2146   -2.5433   -2.9251 C   0  0  0  0  0  0  0  0  0  0  0  0
    2.7411   -3.3432   -1.7877 C   0  0  0  0  0  0  0  0  0  0  0  0
    1.5444   -3.4973   -1.5677 O   0  0  0  0  0  0  0  0  0  0  0  0
    3.8415   -3.9337   -0.9176 C   0  0  2  0  0  0  0  0  0  0  0  0
    5.0145   -4.2661   -1.6754 O   0  0  0  0  0  0  0  0  0  0  0  0
    3.4250   -4.9570    0.2265 C   0  0  2  0  0  0  0  0  0  0  0  0
    2.3383   -4.9120    1.3185 C   0  0  1  0  0  0  0  0  0  0  0  0
    1.3380   -5.8865    1.0759 O   0  0  0  0  0  0  0  0  0  0  0  0
    3.0258   -5.0807    2.7541 C   0  0  2  0  0  0  0  0  0  0  0  0
    2.0576   -5.5072    3.9131 C   0  0  0  0  0  0  0  0  0  0  0  0
    3.8604   -6.2692    2.6478 O   0  0  0  0  0  0  0  0  0  0  0  0
    5.1317   -6.4739    1.9774 C   0  0  0  0  0  0  0  0  0  0  0  0
    6.2217   -6.4823    3.0696 C   0  0  0  0  0  0  0  0  0  0  0  0
    5.0131   -7.8934    1.3758 C   0  0  0  0  0  0  0  0  0  0  0  0
    5.5430   -5.5930    0.8994 O   0  0  0  0  0  0  0  0  0  0  0  0
    4.6904   -4.4725    0.8776 C   0  0  2  0  0  0  0  0  0  0  0  0
    4.2285   -3.0803    0.2377 C   0  0  1  0  0  0  0  0  0  0  0  0
    1.3985   -1.5837    3.7232 H   0  0  0  0  0  0  0  0  0  0  0  0
    1.9490   -2.9301    4.7024 H   0  0  0  0  0  0  0  0  0  0  0  0
    1.1972   -3.1615    3.1096 H   0  0  0  0  0  0  0  0  0  0  0  0
    4.3472   -3.8985    4.0564 H   0  0  0  0  0  0  0  0  0  0  0  0
    6.0248   -3.8465    2.4887 H   0  0  0  0  0  0  0  0  0  0  0  0
    5.2851   -0.3315    0.5743 H   0  0  0  0  0  0  0  0  0  0  0  0
    6.0215   -0.7619    2.1164 H   0  0  0  0  0  0  0  0  0  0  0  0
    4.3019   -0.8688    1.8811 H   0  0  0  0  0  0  0  0  0  0  0  0
    7.3958   -1.7807    0.3852 H   0  0  0  0  0  0  0  0  0  0  0  0
    7.5947   -3.9443    0.9873 H   0  0  0  0  0  0  0  0  0  0  0  0
    5.9488   -1.2052   -1.5210 H   0  0  0  0  0  0  0  0  0  0  0  0
    7.3810   -2.0452   -1.9818 H   0  0  0  0  0  0  0  0  0  0  0  0
    6.2702   -3.6150   -3.0947 H   0  0  0  0  0  0  0  0  0  0  0  0
    4.8535   -1.8312   -4.0197 H   0  0  0  0  0  0  0  0  0  0  0  0
    2.4759   -2.0260   -3.5288 H   0  0  0  0  0  0  0  0  0  0  0  0
    3.5162   -5.9655   -0.2002 H   0  0  0  0  0  0  0  0  0  0  0  0
    1.8242   -3.9526    1.2531 H   0  0  0  0  0  0  0  0  0  0  0  0
    1.7733   -6.7305    1.0847 H   0  0  0  0  0  0  0  0  0  0  0  0
    1.1997   -4.8616    4.0794 H   0  0  0  0  0  0  0  0  0  0  0  0
    2.6155   -5.5266    4.8299 H   0  0  0  0  0  0  0  0  0  0  0  0
    1.6204   -6.4626    3.7146 H   0  0  0  0  0  0  0  0  0  0  0  0
    6.1479   -5.6066    3.7077 H   0  0  0  0  0  0  0  0  0  0  0  0
    7.2164   -6.5208    2.6222 H   0  0  0  0  0  0  0  0  0  0  0  0
    6.1042   -7.3498    3.7209 H   0  0  0  0  0  0  0  0  0  0  0  0
    4.1950   -7.9284    0.6574 H   0  0  0  0  0  0  0  0  0  0  0  0
    4.7921   -8.6193    2.1520 H   0  0  0  0  0  0  0  0  0  0  0  0
    5.9347   -8.1824    0.8799 H   0  0  0  0  0  0  0  0  0  0  0  0
    3.3341   -2.5866    0.6469 H   0  0  0  0  0  0  0  0  0  0  0  0
  1  2  1  0
  1 29  1  0
  1 30  1  0
  1 31  1  0
  2  3  1  0
  3 20  1  0
  3  4  1  0
  3 32  1  1
  4 27  1  0
  4  5  1  0
  4 33  1  1
  5 28  1  0
  5  6  1  1
  5  7  1  0
  6 34  1  0
  6 35  1  0
  6 36  1  0
  7  8  1  0
  7  9  1  0
  7 37  1  1
  8 38  1  0
  9 10  1  0
  9 39  1  0
  9 40  1  0
 10 16  1  0
 10 11  1  0
 10 41  1  6
 11 12  2  0
 11 42  1  0
 12 13  1  0
 12 43  1  0
 13 14  2  0
 15 13  1  6
 15 28  1  0
 15 16  1  0
 15 17  1  0
 17 27  1  0
 17 18  1  0
 17 44  1  6
 18 19  1  0
 18 20  1  0
 18 45  1  1
 19 46  1  0
 20 21  1  1
 20 22  1  0
 21 47  1  0
 21 48  1  0
 21 49  1  0
 22 23  1  0
 23 24  1  0
 23 25  1  0
 23 26  1  0
 24 50  1  0
 24 51  1  0
 24 52  1  0
 25 53  1  0
 25 54  1  0
 25 55  1  0
 27 26  1  6
 27 28  1  0
 28 56  1  1
M  END
>  <i_m_ct_stereo_status>  (262) 
1

>  <s_m_source_file>  (262) 
/var/tmp/pbs.5076255.sched01/tmpe6iyr0oq/80tt78e_gd.sdf

>  <i_m_source_file_index>  (262) 
28

>  <i_lp_mmshare_version>  (262) 
48012

>  <i_f3d_flags>  (262) 
0

>  <s_epik_input>  (262) 
W0NIM11DKE8xKShbQ0gzXSlPW0NAXShbQ0gzXSkoW0NAQEhdMltPSF0pW0NASF0oT1tDSDNdKVtDQEBIXShbQ0BdMTNbQ0BASF0yW0NAXTQ1NilbQ0BdKFtDSDNdKShbQ0BIXTM2KVtDQEBIXShbT0hdKVtDSDJdW0NAQEhdKE81KVtDSF09W0NIXUM0PU8=

>  <s_epik_cmdline>  (262) 
J2VwaWtfcHl0aG9uJywgJy1waHQnLCAnMi4wJywgJy1waCcsICc3LjAnLCAnLXRuJywgJzgnLCAnLW1hJywgJzIwMCcsICctaW1hZScsICc8aW5maWxlLm1hZT4nLCAnLW9tYWUnLCAnPG91dGZpbGUubWFlPic=

>  <r_lp_tautomer_probability>  (262) 
1

>  <r_epik_Ionization_Penalty>  (262) 
6.31616e-07

>  <r_epik_Ionization_Penalty_Charging>  (262) 
0

>  <r_epik_Ionization_Penalty_Neutral>  (262) 
6.31616e-07

>  <r_epik_State_Penalty>  (262) 
-0

>  <r_epik_Charging_Adjusted_Penalty>  (262) 
0

>  <i_epik_Tot_Q>  (262) 
0

>  <i_epik_Tot_abs_Q>  (262) 
0

>  <s_lp_Force_Field>  (262) 
OPLS3e

>  <r_lp_Energy>  (262) 
155.97

>  <b_lp_Chiralities_Consistent>  (262) 
1

>  <s_lp_Variant>  (262) 
75:0-1

>  <s_i_glide_gridfile>  (262) 
pfpi4k_grid

>  <i_i_glide_lignum>  (262) 
28

>  <i_i_glide_rotatable_bonds>  (262) 
3

>  <r_i_docking_score>  (262) 
-3.27659

>  <r_i_glide_ligand_efficiency>  (262) 
-0.117021

>  <r_i_glide_ligand_efficiency_sa>  (262) 
-0.355345

>  <r_i_glide_ligand_efficiency_ln>  (262) 
-0.756334

>  <r_i_glide_gscore>  (262) 
-3.27659

>  <r_i_glide_lipo>  (262) 
-0.699093

>  <r_i_glide_hbond>  (262) 
-0.0220871

>  <r_i_glide_metal>  (262) 
-0

>  <r_i_glide_rewards>  (262) 
-0.947074

>  <r_i_glide_evdw>  (262) 
-23.934

>  <r_i_glide_ecoul>  (262) 
-2.74426

>  <r_i_glide_erotb>  (262) 
0

>  <r_i_glide_esite>  (262) 
0

>  <r_i_glide_emodel>  (262) 
-25.2882

>  <r_i_glide_energy>  (262) 
-26.6782

>  <r_i_glide_einternal>  (262) 
10.269

>  <r_i_glide_intrahb_reward>  (262) 
-0

>  <i_i_glide_confnum>  (262) 
2

>  <i_i_glide_posenum>  (262) 
6

>  <r_i_glide_eff_state_penalty>  (262) 
0

>  <ligand_id>  (262) 
75

>  <original_smiles>  (262) 
COC1C2C3(C)C(O)CC4C=CC(=O)C5(O4)C4C(O)C1(C)OC(C)(C)OC42C53

>  <smiles>  (262) 
[H]OC1([H])C2([H])C34OC([H])(C([H])=C([H])C3=O)C([H])([H])C([H])(O[H])C3(C([H])([H])[H])C5([H])C([H])(OC([H])([H])[H])C1(C([H])([H])[H])OC(C([H])([H])[H])(C([H])([H])[H])OC25C43[H]

$$$$
75:0:2
     RDKit          3D

 56 61  0  0  1  0  0  0  0  0999 V2000
    1.9706   -2.4913    3.6483 C   0  0  0  0  0  0  0  0  0  0  0  0
    3.2216   -2.4432    2.9844 O   0  0  0  0  0  0  0  0  0  0  0  0
    4.0247   -3.6326    2.9845 C   0  0  2  0  0  0  0  0  0  0  0  0
    5.1369   -3.4522    1.8921 C   0  0  2  0  0  0  0  0  0  0  0  0
    5.3926   -2.3768    0.7236 C   0  0  1  0  0  0  0  0  0  0  0  0
    5.1683   -0.9144    1.1457 C   0  0  0  0  0  0  0  0  0  0  0  0
    6.6294   -2.3872   -0.2350 C   0  0  1  0  0  0  0  0  0  0  0  0
    7.4479   -3.5375   -0.1576 O   0  0  0  0  0  0  0  0  0  0  0  0
    6.2670   -2.1089   -1.7312 C   0  0  0  0  0  0  0  0  0  0  0  0
    5.4529   -3.1598   -2.5481 C   0  0  2  0  0  0  0  0  0  0  0  0
    4.3083   -2.5248   -3.3471 C   0  0  0  0  0  0  0  0  0  0  0  0
    3.0304   -2.6444   -3.0041 C   0  0  0  0  0  0  0  0  0  0  0  0
    2.6393   -3.4029   -1.8058 C   0  0  0  0  0  0  0  0  0  0  0  0
    1.4753   -3.6231   -1.5358 O   0  0  0  0  0  0  0  0  0  0  0  0
    3.8108   -3.9306   -0.9744 C   0  0  2  0  0  0  0  0  0  0  0  0
    4.9419   -4.2512   -1.7803 O   0  0  0  0  0  0  0  0  0  0  0  0
    3.4831   -4.9522    0.2004 C   0  0  2  0  0  0  0  0  0  0  0  0
    2.4533   -4.9288    1.3523 C   0  0  1  0  0  0  0  0  0  0  0  0
    1.4942   -5.9594    1.1919 O   0  0  0  0  0  0  0  0  0  0  0  0
    3.2109   -5.0036    2.7531 C   0  0  2  0  0  0  0  0  0  0  0  0
    2.3033   -5.4122    3.9723 C   0  0  0  0  0  0  0  0  0  0  0  0
    4.1084   -6.1526    2.6500 O   0  0  0  0  0  0  0  0  0  0  0  0
    5.3530   -6.3184    1.9349 C   0  0  0  0  0  0  0  0  0  0  0  0
    6.4884   -6.2285    2.9803 C   0  0  0  0  0  0  0  0  0  0  0  0
    5.2830   -7.7627    1.4007 C   0  0  0  0  0  0  0  0  0  0  0  0
    5.6565   -5.4636    0.8097 O   0  0  0  0  0  0  0  0  0  0  0  0
    4.7548   -4.3858    0.7858 C   0  0  2  0  0  0  0  0  0  0  0  0
    4.2068   -3.0446    0.1371 C   0  0  1  0  0  0  0  0  0  0  0  0
    1.4486   -1.5387    3.6619 H   0  0  0  0  0  0  0  0  0  0  0  0
    2.1042   -2.8283    4.6692 H   0  0  0  0  0  0  0  0  0  0  0  0
    1.3096   -3.2028    3.1642 H   0  0  0  0  0  0  0  0  0  0  0  0
    4.5231   -3.7043    3.9554 H   0  0  0  0  0  0  0  0  0  0  0  0
    6.1274   -3.6304    2.3021 H   0  0  0  0  0  0  0  0  0  0  0  0
    5.1245   -0.2353    0.2986 H   0  0  0  0  0  0  0  0  0  0  0  0
    5.9444   -0.5680    1.8241 H   0  0  0  0  0  0  0  0  0  0  0  0
    4.2268   -0.7713    1.6654 H   0  0  0  0  0  0  0  0  0  0  0  0
    7.3006   -1.5842    0.0741 H   0  0  0  0  0  0  0  0  0  0  0  0
    8.1499   -3.4536   -0.7884 H   0  0  0  0  0  0  0  0  0  0  0  0
    5.7434   -1.1529   -1.7882 H   0  0  0  0  0  0  0  0  0  0  0  0
    7.1919   -1.9378   -2.2818 H   0  0  0  0  0  0  0  0  0  0  0  0
    6.1203   -3.6072   -3.2770 H   0  0  0  0  0  0  0  0  0  0  0  0
    4.5797   -1.9485   -4.2266 H   0  0  0  0  0  0  0  0  0  0  0  0
    2.2187   -2.2195   -3.6181 H   0  0  0  0  0  0  0  0  0  0  0  0
    3.6252   -5.9669   -0.1811 H   0  0  0  0  0  0  0  0  0  0  0  0
    1.8931   -4.0055    1.2677 H   0  0  0  0  0  0  0  0  0  0  0  0
    1.9686   -6.7798    1.2248 H   0  0  0  0  0  0  0  0  0  0  0  0
    1.4332   -4.7729    4.1120 H   0  0  0  0  0  0  0  0  0  0  0  0
    2.9270   -5.3862    4.8769 H   0  0  0  0  0  0  0  0  0  0  0  0
    1.9187   -6.4292    3.8267 H   0  0  0  0  0  0  0  0  0  0  0  0
    6.3965   -5.3319    3.5882 H   0  0  0  0  0  0  0  0  0  0  0  0
    7.4621   -6.2326    2.4897 H   0  0  0  0  0  0  0  0  0  0  0  0
    6.4459   -7.0736    3.6725 H   0  0  0  0  0  0  0  0  0  0  0  0
    4.4406   -7.8737    0.7219 H   0  0  0  0  0  0  0  0  0  0  0  0
    5.1324   -8.4737    2.2170 H   0  0  0  0  0  0  0  0  0  0  0  0
    6.1983   -8.0285    0.8843 H   0  0  0  0  0  0  0  0  0  0  0  0
    3.3141   -2.5939    0.5504 H   0  0  0  0  0  0  0  0  0  0  0  0
  1  2  1  0
  1 29  1  0
  1 30  1  0
  1 31  1  0
  2  3  1  0
  3 20  1  0
  3  4  1  0
  3 32  1  1
  4 27  1  0
  4  5  1  0
  4 33  1  1
  5 28  1  0
  5  6  1  1
  5  7  1  0
  6 34  1  0
  6 35  1  0
  6 36  1  0
  7  8  1  0
  7  9  1  0
  7 37  1  1
  8 38  1  0
  9 10  1  0
  9 39  1  0
  9 40  1  0
 10 16  1  0
 10 11  1  0
 10 41  1  6
 11 12  2  0
 11 42  1  0
 12 13  1  0
 12 43  1  0
 13 14  2  0
 15 13  1  6
 15 28  1  0
 15 16  1  0
 15 17  1  0
 17 27  1  0
 17 18  1  0
 17 44  1  6
 18 19  1  0
 18 20  1  0
 18 45  1  1
 19 46  1  0
 20 21  1  1
 20 22  1  0
 21 47  1  0
 21 48  1  0
 21 49  1  0
 22 23  1  0
 23 24  1  0
 23 25  1  0
 23 26  1  0
 24 50  1  0
 24 51  1  0
 24 52  1  0
 25 53  1  0
 25 54  1  0
 25 55  1  0
 27 26  1  6
 27 28  1  0
 28 56  1  1
M  END
>  <i_m_ct_stereo_status>  (263) 
1

>  <s_m_source_file>  (263) 
/var/tmp/pbs.5076255.sched01/tmpe6iyr0oq/80tt78e_gd.sdf

>  <i_m_source_file_index>  (263) 
28

>  <i_lp_mmshare_version>  (263) 
48012

>  <i_f3d_flags>  (263) 
0

>  <s_epik_input>  (263) 
W0NIM11DKE8xKShbQ0gzXSlPW0NAXShbQ0gzXSkoW0NAQEhdMltPSF0pW0NASF0oT1tDSDNdKVtDQEBIXShbQ0BdMTNbQ0BASF0yW0NAXTQ1NilbQ0BdKFtDSDNdKShbQ0BIXTM2KVtDQEBIXShbT0hdKVtDSDJdW0NAQEhdKE81KVtDSF09W0NIXUM0PU8=

>  <s_epik_cmdline>  (263) 
J2VwaWtfcHl0aG9uJywgJy1waHQnLCAnMi4wJywgJy1waCcsICc3LjAnLCAnLXRuJywgJzgnLCAnLW1hJywgJzIwMCcsICctaW1hZScsICc8aW5maWxlLm1hZT4nLCAnLW9tYWUnLCAnPG91dGZpbGUubWFlPic=

>  <r_lp_tautomer_probability>  (263) 
1

>  <r_epik_Ionization_Penalty>  (263) 
6.31616e-07

>  <r_epik_Ionization_Penalty_Charging>  (263) 
0

>  <r_epik_Ionization_Penalty_Neutral>  (263) 
6.31616e-07

>  <r_epik_State_Penalty>  (263) 
-0

>  <r_epik_Charging_Adjusted_Penalty>  (263) 
0

>  <i_epik_Tot_Q>  (263) 
0

>  <i_epik_Tot_abs_Q>  (263) 
0

>  <s_lp_Force_Field>  (263) 
OPLS3e

>  <r_lp_Energy>  (263) 
155.97

>  <b_lp_Chiralities_Consistent>  (263) 
1

>  <s_lp_Variant>  (263) 
75:0-1

>  <s_i_glide_gridfile>  (263) 
pfpi4k_grid

>  <i_i_glide_lignum>  (263) 
28

>  <i_i_glide_rotatable_bonds>  (263) 
3

>  <r_i_docking_score>  (263) 
-3.18656

>  <r_i_glide_ligand_efficiency>  (263) 
-0.113806

>  <r_i_glide_ligand_efficiency_sa>  (263) 
-0.345581

>  <r_i_glide_ligand_efficiency_ln>  (263) 
-0.735551

>  <r_i_glide_gscore>  (263) 
-3.18656

>  <r_i_glide_lipo>  (263) 
-0.744221

>  <r_i_glide_hbond>  (263) 
-0.0247646

>  <r_i_glide_metal>  (263) 
-0

>  <r_i_glide_rewards>  (263) 
-0.96084

>  <r_i_glide_evdw>  (263) 
-24.5604

>  <r_i_glide_ecoul>  (263) 
-1.52474

>  <r_i_glide_erotb>  (263) 
0

>  <r_i_glide_esite>  (263) 
0

>  <r_i_glide_emodel>  (263) 
-24.3658

>  <r_i_glide_energy>  (263) 
-26.0852

>  <r_i_glide_einternal>  (263) 
9.29786

>  <r_i_glide_intrahb_reward>  (263) 
-0

>  <i_i_glide_confnum>  (263) 
1

>  <i_i_glide_posenum>  (263) 
9

>  <r_i_glide_eff_state_penalty>  (263) 
0

>  <ligand_id>  (263) 
75

>  <original_smiles>  (263) 
COC1C2C3(C)C(O)CC4C=CC(=O)C5(O4)C4C(O)C1(C)OC(C)(C)OC42C53

>  <smiles>  (263) 
[H]OC1([H])C2([H])C34OC([H])(C([H])=C([H])C3=O)C([H])([H])C([H])(O[H])C3(C([H])([H])[H])C5([H])C([H])(OC([H])([H])[H])C1(C([H])([H])[H])OC(C([H])([H])[H])(C([H])([H])[H])OC25C43[H]

$$$$
76:0:0
     RDKit          3D

 18 19  0  0  1  0  0  0  0  0999 V2000
   -5.2196   -8.6438   -6.4926 C   0  0  0  0  0  0  0  0  0  0  0  0
   -6.1270   -7.5151   -6.3291 N   0  0  0  0  0  0  0  0  0  0  0  0
   -7.2395   -7.4624   -7.1078 N   0  0  0  0  0  0  0  0  0  0  0  0
   -7.7969   -6.3594   -6.7437 C   0  0  0  0  0  0  0  0  0  0  0  0
   -9.0221   -5.7050   -7.1621 C   0  0  0  0  0  0  0  0  0  0  0  0
   -9.3913   -4.5370   -6.5867 C   0  0  0  0  0  0  0  0  0  0  0  0
   -8.5764   -3.9051   -5.5615 C   0  0  0  0  0  0  0  0  0  0  0  0
   -7.4332   -4.5044   -5.1706 C   0  0  0  0  0  0  0  0  0  0  0  0
   -7.0623   -5.7202   -5.7572 N   0  0  0  0  0  0  0  0  0  0  0  0
   -5.9869   -6.4643   -5.5053 C   0  0  0  0  0  0  0  0  0  0  0  0
   -5.0651   -6.2286   -4.7203 O   0  0  0  0  0  0  0  0  0  0  0  0
   -4.3492   -8.5700   -5.8388 H   0  0  0  0  0  0  0  0  0  0  0  0
   -4.8737   -8.6972   -7.5240 H   0  0  0  0  0  0  0  0  0  0  0  0
   -5.7383   -9.5736   -6.2642 H   0  0  0  0  0  0  0  0  0  0  0  0
   -9.6733   -6.1461   -7.9056 H   0  0  0  0  0  0  0  0  0  0  0  0
  -10.3182   -4.0721   -6.8871 H   0  0  0  0  0  0  0  0  0  0  0  0
   -8.8883   -2.9661   -5.1287 H   0  0  0  0  0  0  0  0  0  0  0  0
   -6.7534   -4.1066   -4.4284 H   0  0  0  0  0  0  0  0  0  0  0  0
  1  2  1  0
  1 12  1  0
  1 13  1  0
  1 14  1  0
  2 10  1  0
  2  3  1  0
  3  4  2  0
  4  9  1  0
  4  5  1  0
  5  6  2  0
  5 15  1  0
  6  7  1  0
  6 16  1  0
  7  8  2  0
  7 17  1  0
  8  9  1  0
  8 18  1  0
  9 10  1  0
 10 11  2  0
M  END
>  <i_m_ct_stereo_status>  (264) 
1

>  <s_m_source_file>  (264) 
/var/tmp/pbs.5076255.sched01/tmpe6iyr0oq/80tt78e_gd.sdf

>  <i_m_source_file_index>  (264) 
29

>  <i_lp_mmshare_version>  (264) 
48012

>  <i_f3d_flags>  (264) 
0

>  <s_epik_input>  (264) 
W0NIM11uKG4xKWMoPU8pbihjMTIpW2NIXVtjSF1bY0hdW2NIXTI=

>  <s_epik_cmdline>  (264) 
J2VwaWtfcHl0aG9uJywgJy1waHQnLCAnMi4wJywgJy1waCcsICc3LjAnLCAnLXRuJywgJzgnLCAnLW1hJywgJzIwMCcsICctaW1hZScsICc8aW5maWxlLm1hZT4nLCAnLW9tYWUnLCAnPG91dGZpbGUubWFlPic=

>  <r_lp_tautomer_probability>  (264) 
1

>  <r_epik_Ionization_Penalty>  (264) 
1.1099e-07

>  <r_epik_Ionization_Penalty_Charging>  (264) 
6.22176e-08

>  <r_epik_Ionization_Penalty_Neutral>  (264) 
4.87729e-08

>  <r_epik_State_Penalty>  (264) 
-0

>  <r_epik_Charging_Adjusted_Penalty>  (264) 
6.22176e-08

>  <i_epik_Tot_Q>  (264) 
0

>  <i_epik_Tot_abs_Q>  (264) 
0

>  <s_lp_Force_Field>  (264) 
OPLS3e

>  <r_lp_Energy>  (264) 
26.2585

>  <b_lp_Chiralities_Consistent>  (264) 
1

>  <s_lp_Variant>  (264) 
76:0-1

>  <s_i_glide_gridfile>  (264) 
pfpi4k_grid

>  <i_i_glide_lignum>  (264) 
29

>  <i_i_glide_rotatable_bonds>  (264) 
0

>  <r_i_docking_score>  (264) 
-7.79826

>  <r_i_glide_ligand_efficiency>  (264) 
-0.708933

>  <r_i_glide_ligand_efficiency_sa>  (264) 
-1.57665

>  <r_i_glide_ligand_efficiency_ln>  (264) 
-2.29503

>  <r_i_glide_gscore>  (264) 
-7.79826

>  <r_i_glide_lipo>  (264) 
-1.37066

>  <r_i_glide_hbond>  (264) 
-0.32

>  <r_i_glide_metal>  (264) 
-0

>  <r_i_glide_rewards>  (264) 
-4.69578

>  <r_i_glide_evdw>  (264) 
-21.9858

>  <r_i_glide_ecoul>  (264) 
-2.08356

>  <r_i_glide_erotb>  (264) 
0

>  <r_i_glide_esite>  (264) 
0

>  <r_i_glide_emodel>  (264) 
-35.6779

>  <r_i_glide_energy>  (264) 
-24.0693

>  <r_i_glide_einternal>  (264) 
0

>  <r_i_glide_intrahb_reward>  (264) 
-0

>  <i_i_glide_confnum>  (264) 
2

>  <i_i_glide_posenum>  (264) 
2

>  <r_i_glide_eff_state_penalty>  (264) 
0

>  <ligand_id>  (264) 
76

>  <original_smiles>  (264) 
Cn1nc2ccccn2c1=O

>  <smiles>  (264) 
[H]c1c([H])c([H])n2c(=O)n(C([H])([H])[H])nc2c1[H]

$$$$
76:0:1
     RDKit          3D

 18 19  0  0  1  0  0  0  0  0999 V2000
   -2.8846    2.6833    7.3821 C   0  0  0  0  0  0  0  0  0  0  0  0
   -2.1812    2.2257    6.1915 N   0  0  0  0  0  0  0  0  0  0  0  0
   -2.1806    3.0225    5.0921 N   0  0  0  0  0  0  0  0  0  0  0  0
   -1.4955    2.3366    4.2425 C   0  0  0  0  0  0  0  0  0  0  0  0
   -1.1021    2.5974    2.8807 C   0  0  0  0  0  0  0  0  0  0  0  0
   -0.3616    1.6898    2.2015 C   0  0  0  0  0  0  0  0  0  0  0  0
    0.0575    0.4393    2.8094 C   0  0  0  0  0  0  0  0  0  0  0  0
   -0.3084    0.1827    4.0796 C   0  0  0  0  0  0  0  0  0  0  0  0
   -1.0729    1.1294    4.7763 N   0  0  0  0  0  0  0  0  0  0  0  0
   -1.5239    1.0663    6.0236 C   0  0  0  0  0  0  0  0  0  0  0  0
   -1.3852    0.1468    6.8337 O   0  0  0  0  0  0  0  0  0  0  0  0
   -2.8232    1.9623    8.1971 H   0  0  0  0  0  0  0  0  0  0  0  0
   -3.9353    2.8536    7.1546 H   0  0  0  0  0  0  0  0  0  0  0  0
   -2.4561    3.6222    7.7290 H   0  0  0  0  0  0  0  0  0  0  0  0
   -1.3854    3.5111    2.3769 H   0  0  0  0  0  0  0  0  0  0  0  0
   -0.0808    1.9033    1.1801 H   0  0  0  0  0  0  0  0  0  0  0  0
    0.6393   -0.2690    2.2357 H   0  0  0  0  0  0  0  0  0  0  0  0
   -0.0574   -0.7205    4.6177 H   0  0  0  0  0  0  0  0  0  0  0  0
  1  2  1  0
  1 12  1  0
  1 13  1  0
  1 14  1  0
  2 10  1  0
  2  3  1  0
  3  4  2  0
  4  9  1  0
  4  5  1  0
  5  6  2  0
  5 15  1  0
  6  7  1  0
  6 16  1  0
  7  8  2  0
  7 17  1  0
  8  9  1  0
  8 18  1  0
  9 10  1  0
 10 11  2  0
M  END
>  <i_m_ct_stereo_status>  (265) 
1

>  <s_m_source_file>  (265) 
/var/tmp/pbs.5076255.sched01/tmpe6iyr0oq/80tt78e_gd.sdf

>  <i_m_source_file_index>  (265) 
29

>  <i_lp_mmshare_version>  (265) 
48012

>  <i_f3d_flags>  (265) 
0

>  <s_epik_input>  (265) 
W0NIM11uKG4xKWMoPU8pbihjMTIpW2NIXVtjSF1bY0hdW2NIXTI=

>  <s_epik_cmdline>  (265) 
J2VwaWtfcHl0aG9uJywgJy1waHQnLCAnMi4wJywgJy1waCcsICc3LjAnLCAnLXRuJywgJzgnLCAnLW1hJywgJzIwMCcsICctaW1hZScsICc8aW5maWxlLm1hZT4nLCAnLW9tYWUnLCAnPG91dGZpbGUubWFlPic=

>  <r_lp_tautomer_probability>  (265) 
1

>  <r_epik_Ionization_Penalty>  (265) 
1.1099e-07

>  <r_epik_Ionization_Penalty_Charging>  (265) 
6.22176e-08

>  <r_epik_Ionization_Penalty_Neutral>  (265) 
4.87729e-08

>  <r_epik_State_Penalty>  (265) 
-0

>  <r_epik_Charging_Adjusted_Penalty>  (265) 
6.22176e-08

>  <i_epik_Tot_Q>  (265) 
0

>  <i_epik_Tot_abs_Q>  (265) 
0

>  <s_lp_Force_Field>  (265) 
OPLS3e

>  <r_lp_Energy>  (265) 
26.2585

>  <b_lp_Chiralities_Consistent>  (265) 
1

>  <s_lp_Variant>  (265) 
76:0-1

>  <s_i_glide_gridfile>  (265) 
pfpi4k_grid

>  <i_i_glide_lignum>  (265) 
29

>  <i_i_glide_rotatable_bonds>  (265) 
0

>  <r_i_docking_score>  (265) 
-4.23868

>  <r_i_glide_ligand_efficiency>  (265) 
-0.385335

>  <r_i_glide_ligand_efficiency_sa>  (265) 
-0.856977

>  <r_i_glide_ligand_efficiency_ln>  (265) 
-1.24744

>  <r_i_glide_gscore>  (265) 
-4.23868

>  <r_i_glide_lipo>  (265) 
-0.204569

>  <r_i_glide_hbond>  (265) 
-0.15083

>  <r_i_glide_metal>  (265) 
-0

>  <r_i_glide_rewards>  (265) 
-2.2939

>  <r_i_glide_evdw>  (265) 
-13.2581

>  <r_i_glide_ecoul>  (265) 
-5.58357

>  <r_i_glide_erotb>  (265) 
0

>  <r_i_glide_esite>  (265) 
-0.088942

>  <r_i_glide_emodel>  (265) 
-25.1497

>  <r_i_glide_energy>  (265) 
-18.8417

>  <r_i_glide_einternal>  (265) 
0

>  <r_i_glide_intrahb_reward>  (265) 
-0

>  <i_i_glide_confnum>  (265) 
2

>  <i_i_glide_posenum>  (265) 
28

>  <r_i_glide_eff_state_penalty>  (265) 
0

>  <ligand_id>  (265) 
76

>  <original_smiles>  (265) 
Cn1nc2ccccn2c1=O

>  <smiles>  (265) 
[H]c1c([H])c([H])n2c(=O)n(C([H])([H])[H])nc2c1[H]

$$$$
76:0:2
     RDKit          3D

 18 19  0  0  1  0  0  0  0  0999 V2000
    3.6748   -3.8894    1.8514 C   0  0  0  0  0  0  0  0  0  0  0  0
    3.6592   -3.2621    0.5348 N   0  0  0  0  0  0  0  0  0  0  0  0
    2.9001   -3.8248   -0.4434 N   0  0  0  0  0  0  0  0  0  0  0  0
    3.1118   -3.0533   -1.4567 C   0  0  0  0  0  0  0  0  0  0  0  0
    2.6162   -3.0619   -2.8171 C   0  0  0  0  0  0  0  0  0  0  0  0
    3.0166   -2.1099   -3.6902 C   0  0  0  0  0  0  0  0  0  0  0  0
    3.9293   -1.0517   -3.2969 C   0  0  0  0  0  0  0  0  0  0  0  0
    4.3926   -1.0324   -2.0332 C   0  0  0  0  0  0  0  0  0  0  0  0
    3.9870   -2.0265   -1.1358 N   0  0  0  0  0  0  0  0  0  0  0  0
    4.3254   -2.1633    0.1417 C   0  0  0  0  0  0  0  0  0  0  0  0
    5.0850   -1.4507    0.8003 O   0  0  0  0  0  0  0  0  0  0  0  0
    4.3126   -3.3525    2.5546 H   0  0  0  0  0  0  0  0  0  0  0  0
    4.0399   -4.9133    1.7766 H   0  0  0  0  0  0  0  0  0  0  0  0
    2.6670   -3.9187    2.2632 H   0  0  0  0  0  0  0  0  0  0  0  0
    1.9384   -3.8332   -3.1560 H   0  0  0  0  0  0  0  0  0  0  0  0
    2.6343   -2.1376   -4.6970 H   0  0  0  0  0  0  0  0  0  0  0  0
    4.2108   -0.2868   -4.0059 H   0  0  0  0  0  0  0  0  0  0  0  0
    5.0565   -0.2772   -1.6347 H   0  0  0  0  0  0  0  0  0  0  0  0
  1  2  1  0
  1 12  1  0
  1 13  1  0
  1 14  1  0
  2 10  1  0
  2  3  1  0
  3  4  2  0
  4  9  1  0
  4  5  1  0
  5  6  2  0
  5 15  1  0
  6  7  1  0
  6 16  1  0
  7  8  2  0
  7 17  1  0
  8  9  1  0
  8 18  1  0
  9 10  1  0
 10 11  2  0
M  END
>  <i_m_ct_stereo_status>  (266) 
1

>  <s_m_source_file>  (266) 
/var/tmp/pbs.5076255.sched01/tmpe6iyr0oq/80tt78e_gd.sdf

>  <i_m_source_file_index>  (266) 
29

>  <i_lp_mmshare_version>  (266) 
48012

>  <i_f3d_flags>  (266) 
0

>  <s_epik_input>  (266) 
W0NIM11uKG4xKWMoPU8pbihjMTIpW2NIXVtjSF1bY0hdW2NIXTI=

>  <s_epik_cmdline>  (266) 
J2VwaWtfcHl0aG9uJywgJy1waHQnLCAnMi4wJywgJy1waCcsICc3LjAnLCAnLXRuJywgJzgnLCAnLW1hJywgJzIwMCcsICctaW1hZScsICc8aW5maWxlLm1hZT4nLCAnLW9tYWUnLCAnPG91dGZpbGUubWFlPic=

>  <r_lp_tautomer_probability>  (266) 
1

>  <r_epik_Ionization_Penalty>  (266) 
1.1099e-07

>  <r_epik_Ionization_Penalty_Charging>  (266) 
6.22176e-08

>  <r_epik_Ionization_Penalty_Neutral>  (266) 
4.87729e-08

>  <r_epik_State_Penalty>  (266) 
-0

>  <r_epik_Charging_Adjusted_Penalty>  (266) 
6.22176e-08

>  <i_epik_Tot_Q>  (266) 
0

>  <i_epik_Tot_abs_Q>  (266) 
0

>  <s_lp_Force_Field>  (266) 
OPLS3e

>  <r_lp_Energy>  (266) 
26.2585

>  <b_lp_Chiralities_Consistent>  (266) 
1

>  <s_lp_Variant>  (266) 
76:0-1

>  <s_i_glide_gridfile>  (266) 
pfpi4k_grid

>  <i_i_glide_lignum>  (266) 
29

>  <i_i_glide_rotatable_bonds>  (266) 
0

>  <r_i_docking_score>  (266) 
-3.86676

>  <r_i_glide_ligand_efficiency>  (266) 
-0.351524

>  <r_i_glide_ligand_efficiency_sa>  (266) 
-0.781782

>  <r_i_glide_ligand_efficiency_ln>  (266) 
-1.13799

>  <r_i_glide_gscore>  (266) 
-3.86676

>  <r_i_glide_lipo>  (266) 
-0.4185

>  <r_i_glide_hbond>  (266) 
0

>  <r_i_glide_metal>  (266) 
-0

>  <r_i_glide_rewards>  (266) 
-2.27139

>  <r_i_glide_evdw>  (266) 
-18.2231

>  <r_i_glide_ecoul>  (266) 
-1.40944

>  <r_i_glide_erotb>  (266) 
0

>  <r_i_glide_esite>  (266) 
-0.0543066

>  <r_i_glide_emodel>  (266) 
-25.3901

>  <r_i_glide_energy>  (266) 
-19.6325

>  <r_i_glide_einternal>  (266) 
0

>  <r_i_glide_intrahb_reward>  (266) 
-0

>  <i_i_glide_confnum>  (266) 
2

>  <i_i_glide_posenum>  (266) 
11

>  <r_i_glide_eff_state_penalty>  (266) 
0

>  <ligand_id>  (266) 
76

>  <original_smiles>  (266) 
Cn1nc2ccccn2c1=O

>  <smiles>  (266) 
[H]c1c([H])c([H])n2c(=O)n(C([H])([H])[H])nc2c1[H]

$$$$
77:0:0
     RDKit          3D

 48 53  0  0  1  0  0  0  0  0999 V2000
    1.4703   -3.8553   -1.8775 O   0  0  0  0  0  0  0  0  0  0  0  0
    2.6560   -3.3074   -2.1871 C   0  0  0  0  0  0  0  0  0  0  0  0
    2.7761   -2.7026   -3.5714 C   0  0  0  0  0  0  0  0  0  0  0  0
    4.2490   -2.3318   -3.4886 C   0  0  0  0  0  0  0  0  0  0  0  0
    4.8017   -2.6998   -2.3278 C   0  0  0  0  0  0  0  0  0  0  0  0
    6.1248   -2.6060   -1.9144 N   0  0  0  0  0  0  0  0  0  0  0  0
    6.5308   -3.2274   -0.7313 C   0  0  0  0  0  0  0  0  0  0  0  0
    7.7708   -3.3699   -0.2884 N   0  0  0  0  0  0  0  0  0  0  0  0
    7.5255   -4.1321    0.8272 C   0  0  0  0  0  0  0  0  0  0  0  0
    6.2530   -4.4357    1.0693 N   0  0  0  0  0  0  0  0  0  0  0  0
    5.6094   -3.8287    0.0419 N   0  0  0  0  0  0  0  0  0  0  0  0
    4.1581   -3.9067   -0.1349 C   0  0  1  0  0  0  0  0  0  0  0  0
    3.4750   -3.0951    0.9527 C   0  0  0  0  0  0  0  0  0  0  0  0
    3.5459   -1.7377    1.1292 C   0  0  0  0  0  0  0  0  0  0  0  0
    2.8455   -1.4103    2.2702 N   0  0  0  0  0  0  0  0  0  0  0  0
    2.6728   -0.1351    2.8624 C   0  0  0  0  0  0  0  0  0  0  0  0
    2.2839    0.9604    2.0655 C   0  0  0  0  0  0  0  0  0  0  0  0
    2.1155    2.2353    2.6418 C   0  0  0  0  0  0  0  0  0  0  0  0
    2.3397    2.4181    4.0182 C   0  0  0  0  0  0  0  0  0  0  0  0
    2.7266    1.3295    4.8216 C   0  0  0  0  0  0  0  0  0  0  0  0
    2.8892    0.0520    4.2460 C   0  0  0  0  0  0  0  0  0  0  0  0
    2.3125   -2.5166    2.8294 N   0  0  0  0  0  0  0  0  0  0  0  0
    2.6536   -3.5336    2.0414 C   0  0  0  0  0  0  0  0  0  0  0  0
    2.1692   -4.8879    2.3839 C   0  0  0  0  0  0  0  0  0  0  0  0
    1.8516   -5.2220    3.7270 C   0  0  0  0  0  0  0  0  0  0  0  0
    1.3962   -6.5161    4.0600 C   0  0  0  0  0  0  0  0  0  0  0  0
    1.2774   -7.4986    3.0563 C   0  0  0  0  0  0  0  0  0  0  0  0
    0.7250   -9.0839    3.4472 Cl  0  0  0  0  0  0  0  0  0  0  0  0
    1.5793   -7.1728    1.7208 C   0  0  0  0  0  0  0  0  0  0  0  0
    1.9899   -5.8716    1.3789 C   0  0  0  0  0  0  0  0  0  0  0  0
    3.8057   -3.3075   -1.4910 C   0  0  0  0  0  0  0  0  0  0  0  0
    2.1655   -1.8136   -3.6920 H   0  0  0  0  0  0  0  0  0  0  0  0
    2.5832   -3.4107   -4.3826 H   0  0  0  0  0  0  0  0  0  0  0  0
    4.7668   -1.8389   -4.3018 H   0  0  0  0  0  0  0  0  0  0  0  0
    8.3091   -4.4768    1.4872 H   0  0  0  0  0  0  0  0  0  0  0  0
    3.9208   -4.9615   -0.1525 H   0  0  0  0  0  0  0  0  0  0  0  0
    4.0601   -0.9758    0.5543 H   0  0  0  0  0  0  0  0  0  0  0  0
    2.1043    0.8168    1.0126 H   0  0  0  0  0  0  0  0  0  0  0  0
    1.8129    3.0672    2.0270 H   0  0  0  0  0  0  0  0  0  0  0  0
    2.2114    3.3950    4.4561 H   0  0  0  0  0  0  0  0  0  0  0  0
    2.8987    1.4710    5.8762 H   0  0  0  0  0  0  0  0  0  0  0  0
    3.1907   -0.7808    4.8606 H   0  0  0  0  0  0  0  0  0  0  0  0
    1.9397   -4.4803    4.5087 H   0  0  0  0  0  0  0  0  0  0  0  0
    1.1382   -6.7504    5.0800 H   0  0  0  0  0  0  0  0  0  0  0  0
    1.4880   -7.9196    0.9510 H   0  0  0  0  0  0  0  0  0  0  0  0
    2.1517   -5.6430    0.3396 H   0  0  0  0  0  0  0  0  0  0  0  0
    6.8347   -2.2839   -2.5546 H   0  0  0  0  0  0  0  0  0  0  0  0
    0.9782   -3.9380   -2.6877 H   0  0  0  0  0  0  0  0  0  0  0  0
  1  2  1  0
  1 48  1  0
  2  3  1  0
  2 31  2  0
  3  4  1  0
  3 32  1  0
  3 33  1  0
  4 34  1  0
  4  5  2  0
  5 31  1  0
  5  6  1  0
  6  7  1  0
  6 47  1  0
  7 11  1  0
  7  8  2  0
  8  9  1  0
  9 10  2  0
  9 35  1  0
 10 11  1  0
 11 12  1  0
 12 13  1  0
 12 36  1  6
 12 31  1  0
 13 23  1  0
 13 14  2  0
 14 15  1  0
 14 37  1  0
 15 16  1  0
 15 22  1  0
 16 21  1  0
 16 17  2  0
 17 18  1  0
 17 38  1  0
 18 19  2  0
 18 39  1  0
 19 20  1  0
 19 40  1  0
 20 21  2  0
 20 41  1  0
 21 42  1  0
 22 23  2  0
 23 24  1  0
 24 30  1  0
 24 25  2  0
 25 26  1  0
 25 43  1  0
 26 27  2  0
 26 44  1  0
 27 28  1  0
 27 29  1  0
 29 30  2  0
 29 45  1  0
 30 46  1  0
M  END
>  <i_m_ct_stereo_status>  (267) 
1

>  <s_m_source_file>  (267) 
/var/tmp/pbs.5076255.sched01/tmpe6iyr0oq/80tt78e_gd.sdf

>  <i_m_source_file_index>  (267) 
30

>  <i_lp_mmshare_version>  (267) 
48012

>  <i_f3d_flags>  (267) 
0

>  <s_epik_input>  (267) 
bjFbY0hdbmMoTjIpbjFbQ0BIXShbQ0BASF0oQz0yMylDKD1PKVtDSDJdW0NIMl0zKWM0W2NIXW4oLWM1W2NIXVtjSF1bY0hdW2NIXVtjSF01KW5jNC1jNltjSF1bY0hdYyhDbClbY0hdW2NIXTY=

>  <s_epik_cmdline>  (267) 
J2VwaWtfcHl0aG9uJywgJy1waHQnLCAnMi4wJywgJy1waCcsICc3LjAnLCAnLXRuJywgJzgnLCAnLW1hJywgJzIwMCcsICctaW1hZScsICc8aW5maWxlLm1hZT4nLCAnLW9tYWUnLCAnPG91dGZpbGUubWFlPic=

>  <r_lp_tautomer_probability>  (267) 
1

>  <r_epik_Ionization_Penalty>  (267) 
0.41063

>  <r_epik_Ionization_Penalty_Charging>  (267) 
9.11783e-11

>  <r_epik_Ionization_Penalty_Neutral>  (267) 
0.41063

>  <r_epik_State_Penalty>  (267) 
0.410545

>  <r_epik_Charging_Adjusted_Penalty>  (267) 
0.410545

>  <i_epik_Tot_Q>  (267) 
0

>  <i_epik_Tot_abs_Q>  (267) 
0

>  <s_epik_Chemistry_Notes>  (267) 
This compound has an imine and may undergo hydrolysis.

>  <s_lp_Force_Field>  (267) 
OPLS3e

>  <r_lp_Energy>  (267) 
32.3536

>  <b_lp_Chiralities_Consistent>  (267) 
1

>  <s_lp_Variant>  (267) 
77:0-1

>  <s_i_glide_gridfile>  (267) 
pfpi4k_grid

>  <i_i_glide_lignum>  (267) 
30

>  <i_i_glide_rotatable_bonds>  (267) 
4

>  <r_i_docking_score>  (267) 
-3.67815

>  <r_i_glide_ligand_efficiency>  (267) 
-0.11865

>  <r_i_glide_ligand_efficiency_sa>  (267) 
-0.372725

>  <r_i_glide_ligand_efficiency_ln>  (267) 
-0.829537

>  <r_i_glide_gscore>  (267) 
-3.67815

>  <r_i_glide_lipo>  (267) 
-0.584625

>  <r_i_glide_hbond>  (267) 
-0.32

>  <r_i_glide_metal>  (267) 
-0

>  <r_i_glide_rewards>  (267) 
-0.885322

>  <r_i_glide_evdw>  (267) 
-37.3326

>  <r_i_glide_ecoul>  (267) 
-2.12702

>  <r_i_glide_erotb>  (267) 
0.324046

>  <r_i_glide_esite>  (267) 
-0.0265717

>  <r_i_glide_emodel>  (267) 
-46.2564

>  <r_i_glide_energy>  (267) 
-39.4596

>  <r_i_glide_einternal>  (267) 
4.08372

>  <r_i_glide_intrahb_reward>  (267) 
-0

>  <i_i_glide_confnum>  (267) 
3

>  <i_i_glide_posenum>  (267) 
25

>  <r_i_glide_eff_state_penalty>  (267) 
0

>  <ligand_id>  (267) 
77

>  <original_smiles>  (267) 
O=C1CCC2=Nc3ncnn3C(c3cn(-c4ccccc4)nc3-c3ccc(Cl)cc3)C12

>  <smiles>  (267) 
[H]OC1=C2C(=C([H])C1([H])[H])N([H])c1nc([H])nn1C2([H])c1c(-c2c([H])c([H])c(Cl)c([H])c2[H])nn(-c2c([H])c([H])c([H])c([H])c2[H])c1[H]

$$$$
77:0:1
     RDKit          3D

 48 53  0  0  1  0  0  0  0  0999 V2000
    1.4899   -3.8347   -1.8888 O   0  0  0  0  0  0  0  0  0  0  0  0
    2.6642   -3.2689   -2.1919 C   0  0  0  0  0  0  0  0  0  0  0  0
    2.7813   -2.6300   -3.5593 C   0  0  0  0  0  0  0  0  0  0  0  0
    4.2618   -2.2851   -3.4782 C   0  0  0  0  0  0  0  0  0  0  0  0
    4.8194   -2.6870   -2.3317 C   0  0  0  0  0  0  0  0  0  0  0  0
    6.1449   -2.6355   -1.9235 N   0  0  0  0  0  0  0  0  0  0  0  0
    6.5542   -3.2942   -0.7640 C   0  0  0  0  0  0  0  0  0  0  0  0
    7.7890   -3.4686   -0.3282 N   0  0  0  0  0  0  0  0  0  0  0  0
    7.5411   -4.2610    0.7641 C   0  0  0  0  0  0  0  0  0  0  0  0
    6.2606   -4.5515    1.0023 N   0  0  0  0  0  0  0  0  0  0  0  0
    5.6273   -3.8992   -0.0001 N   0  0  0  0  0  0  0  0  0  0  0  0
    4.1800   -3.9351   -0.1810 C   0  0  1  0  0  0  0  0  0  0  0  0
    3.5030   -3.1637    0.9434 C   0  0  0  0  0  0  0  0  0  0  0  0
    3.3969   -1.7930    1.0344 C   0  0  0  0  0  0  0  0  0  0  0  0
    2.7985   -1.4891    2.2346 N   0  0  0  0  0  0  0  0  0  0  0  0
    2.5149   -0.2084    2.7833 C   0  0  0  0  0  0  0  0  0  0  0  0
    2.6517    0.0262    4.1711 C   0  0  0  0  0  0  0  0  0  0  0  0
    2.3738    1.3020    4.7078 C   0  0  0  0  0  0  0  0  0  0  0  0
    1.9549    2.3460    3.8616 C   0  0  0  0  0  0  0  0  0  0  0  0
    1.8131    2.1180    2.4816 C   0  0  0  0  0  0  0  0  0  0  0  0
    2.0937    0.8436    1.9438 C   0  0  0  0  0  0  0  0  0  0  0  0
    2.5017   -2.6168    2.9147 N   0  0  0  0  0  0  0  0  0  0  0  0
    2.8968   -3.6297    2.1537 C   0  0  0  0  0  0  0  0  0  0  0  0
    2.6717   -5.0060    2.6502 C   0  0  0  0  0  0  0  0  0  0  0  0
    2.6052   -5.2738    4.0401 C   0  0  0  0  0  0  0  0  0  0  0  0
    2.4006   -6.5934    4.5074 C   0  0  0  0  0  0  0  0  0  0  0  0
    2.2912   -7.6611    3.5934 C   0  0  0  0  0  0  0  0  0  0  0  0
    2.0402   -9.2704    4.1464 Cl  0  0  0  0  0  0  0  0  0  0  0  0
    2.3499   -7.4044    2.2147 C   0  0  0  0  0  0  0  0  0  0  0  0
    2.4960   -6.0834    1.7466 C   0  0  0  0  0  0  0  0  0  0  0  0
    3.8194   -3.2908   -1.5074 C   0  0  0  0  0  0  0  0  0  0  0  0
    2.2041   -1.7144   -3.6417 H   0  0  0  0  0  0  0  0  0  0  0  0
    2.5662   -3.3098   -4.3895 H   0  0  0  0  0  0  0  0  0  0  0  0
    4.7805   -1.7817   -4.2776 H   0  0  0  0  0  0  0  0  0  0  0  0
    8.3238   -4.6422    1.4072 H   0  0  0  0  0  0  0  0  0  0  0  0
    3.9220   -4.9874   -0.2800 H   0  0  0  0  0  0  0  0  0  0  0  0
    3.7182   -1.0203    0.3540 H   0  0  0  0  0  0  0  0  0  0  0  0
    2.9794   -0.7696    4.8214 H   0  0  0  0  0  0  0  0  0  0  0  0
    2.4828    1.4751    5.7657 H   0  0  0  0  0  0  0  0  0  0  0  0
    1.7348    3.3216    4.2665 H   0  0  0  0  0  0  0  0  0  0  0  0
    1.4862    2.9138    1.8301 H   0  0  0  0  0  0  0  0  0  0  0  0
    1.9678    0.6659    0.8871 H   0  0  0  0  0  0  0  0  0  0  0  0
    2.6917   -4.4736    4.7560 H   0  0  0  0  0  0  0  0  0  0  0  0
    2.3241   -6.7847    5.5680 H   0  0  0  0  0  0  0  0  0  0  0  0
    2.2661   -8.2031    1.4988 H   0  0  0  0  0  0  0  0  0  0  0  0
    2.4427   -5.9362    0.6756 H   0  0  0  0  0  0  0  0  0  0  0  0
    6.8600   -2.3099   -2.5582 H   0  0  0  0  0  0  0  0  0  0  0  0
    0.9806   -3.8750   -2.6901 H   0  0  0  0  0  0  0  0  0  0  0  0
  1  2  1  0
  1 48  1  0
  2  3  1  0
  2 31  2  0
  3  4  1  0
  3 32  1  0
  3 33  1  0
  4 34  1  0
  4  5  2  0
  5 31  1  0
  5  6  1  0
  6  7  1  0
  6 47  1  0
  7 11  1  0
  7  8  2  0
  8  9  1  0
  9 10  2  0
  9 35  1  0
 10 11  1  0
 11 12  1  0
 12 13  1  0
 12 36  1  6
 12 31  1  0
 13 23  1  0
 13 14  2  0
 14 15  1  0
 14 37  1  0
 15 16  1  0
 15 22  1  0
 16 21  1  0
 16 17  2  0
 17 18  1  0
 17 38  1  0
 18 19  2  0
 18 39  1  0
 19 20  1  0
 19 40  1  0
 20 21  2  0
 20 41  1  0
 21 42  1  0
 22 23  2  0
 23 24  1  0
 24 30  1  0
 24 25  2  0
 25 26  1  0
 25 43  1  0
 26 27  2  0
 26 44  1  0
 27 28  1  0
 27 29  1  0
 29 30  2  0
 29 45  1  0
 30 46  1  0
M  END
>  <i_m_ct_stereo_status>  (268) 
1

>  <s_m_source_file>  (268) 
/var/tmp/pbs.5076255.sched01/tmpe6iyr0oq/80tt78e_gd.sdf

>  <i_m_source_file_index>  (268) 
30

>  <i_lp_mmshare_version>  (268) 
48012

>  <i_f3d_flags>  (268) 
0

>  <s_epik_input>  (268) 
bjFbY0hdbmMoTjIpbjFbQ0BIXShbQ0BASF0oQz0yMylDKD1PKVtDSDJdW0NIMl0zKWM0W2NIXW4oLWM1W2NIXVtjSF1bY0hdW2NIXVtjSF01KW5jNC1jNltjSF1bY0hdYyhDbClbY0hdW2NIXTY=

>  <s_epik_cmdline>  (268) 
J2VwaWtfcHl0aG9uJywgJy1waHQnLCAnMi4wJywgJy1waCcsICc3LjAnLCAnLXRuJywgJzgnLCAnLW1hJywgJzIwMCcsICctaW1hZScsICc8aW5maWxlLm1hZT4nLCAnLW9tYWUnLCAnPG91dGZpbGUubWFlPic=

>  <r_lp_tautomer_probability>  (268) 
1

>  <r_epik_Ionization_Penalty>  (268) 
0.41063

>  <r_epik_Ionization_Penalty_Charging>  (268) 
9.11783e-11

>  <r_epik_Ionization_Penalty_Neutral>  (268) 
0.41063

>  <r_epik_State_Penalty>  (268) 
0.410545

>  <r_epik_Charging_Adjusted_Penalty>  (268) 
0.410545

>  <i_epik_Tot_Q>  (268) 
0

>  <i_epik_Tot_abs_Q>  (268) 
0

>  <s_epik_Chemistry_Notes>  (268) 
This compound has an imine and may undergo hydrolysis.

>  <s_lp_Force_Field>  (268) 
OPLS3e

>  <r_lp_Energy>  (268) 
32.3536

>  <b_lp_Chiralities_Consistent>  (268) 
1

>  <s_lp_Variant>  (268) 
77:0-1

>  <s_i_glide_gridfile>  (268) 
pfpi4k_grid

>  <i_i_glide_lignum>  (268) 
30

>  <i_i_glide_rotatable_bonds>  (268) 
4

>  <r_i_docking_score>  (268) 
-3.62412

>  <r_i_glide_ligand_efficiency>  (268) 
-0.116907

>  <r_i_glide_ligand_efficiency_sa>  (268) 
-0.36725

>  <r_i_glide_ligand_efficiency_ln>  (268) 
-0.81735

>  <r_i_glide_gscore>  (268) 
-3.62412

>  <r_i_glide_lipo>  (268) 
-0.566113

>  <r_i_glide_hbond>  (268) 
-0.316417

>  <r_i_glide_metal>  (268) 
-0

>  <r_i_glide_rewards>  (268) 
-0.923572

>  <r_i_glide_evdw>  (268) 
-35.4694

>  <r_i_glide_ecoul>  (268) 
-2.2829

>  <r_i_glide_erotb>  (268) 
0.324046

>  <r_i_glide_esite>  (268) 
-0.0261548

>  <r_i_glide_emodel>  (268) 
-44.7635

>  <r_i_glide_energy>  (268) 
-37.7523

>  <r_i_glide_einternal>  (268) 
3.37554

>  <r_i_glide_intrahb_reward>  (268) 
-0

>  <i_i_glide_confnum>  (268) 
2

>  <i_i_glide_posenum>  (268) 
33

>  <r_i_glide_eff_state_penalty>  (268) 
0

>  <ligand_id>  (268) 
77

>  <original_smiles>  (268) 
O=C1CCC2=Nc3ncnn3C(c3cn(-c4ccccc4)nc3-c3ccc(Cl)cc3)C12

>  <smiles>  (268) 
[H]OC1=C2C(=C([H])C1([H])[H])N([H])c1nc([H])nn1C2([H])c1c(-c2c([H])c([H])c(Cl)c([H])c2[H])nn(-c2c([H])c([H])c([H])c([H])c2[H])c1[H]

$$$$
77:0:2
     RDKit          3D

 48 53  0  0  1  0  0  0  0  0999 V2000
    1.4793   -3.7056   -1.8319 O   0  0  0  0  0  0  0  0  0  0  0  0
    2.7458   -3.2804   -1.8076 C   0  0  0  0  0  0  0  0  0  0  0  0
    3.1556   -2.3289   -2.9121 C   0  0  0  0  0  0  0  0  0  0  0  0
    4.6291   -2.2292   -2.5235 C   0  0  0  0  0  0  0  0  0  0  0  0
    4.9300   -2.9862   -1.4552 C   0  0  0  0  0  0  0  0  0  0  0  0
    6.1586   -3.2241   -0.8615 N   0  0  0  0  0  0  0  0  0  0  0  0
    6.2823   -4.2251    0.1090 C   0  0  0  0  0  0  0  0  0  0  0  0
    7.4082   -4.6476    0.6579 N   0  0  0  0  0  0  0  0  0  0  0  0
    6.9088   -5.6273    1.4693 C   0  0  0  0  0  0  0  0  0  0  0  0
    5.5884   -5.7847    1.4554 N   0  0  0  0  0  0  0  0  0  0  0  0
    5.1851   -4.8640    0.5351 N   0  0  0  0  0  0  0  0  0  0  0  0
    3.7789   -4.6337    0.1593 C   0  0  1  0  0  0  0  0  0  0  0  0
    3.0155   -4.0856    1.3420 C   0  0  0  0  0  0  0  0  0  0  0  0
    2.9248   -2.7683    1.7095 C   0  0  0  0  0  0  0  0  0  0  0  0
    2.1803   -2.6888    2.8682 N   0  0  0  0  0  0  0  0  0  0  0  0
    1.8502   -1.5366    3.6360 C   0  0  0  0  0  0  0  0  0  0  0  0
    1.5367   -1.6578    5.0093 C   0  0  0  0  0  0  0  0  0  0  0  0
    1.2209   -0.5169    5.7740 C   0  0  0  0  0  0  0  0  0  0  0  0
    1.2122    0.7521    5.1687 C   0  0  0  0  0  0  0  0  0  0  0  0
    1.5182    0.8830    3.8035 C   0  0  0  0  0  0  0  0  0  0  0  0
    1.8347   -0.2573    3.0393 C   0  0  0  0  0  0  0  0  0  0  0  0
    1.7678   -3.9195    3.2437 N   0  0  0  0  0  0  0  0  0  0  0  0
    2.2394   -4.7706    2.3358 C   0  0  0  0  0  0  0  0  0  0  0  0
    1.9177   -6.2151    2.4854 C   0  0  0  0  0  0  0  0  0  0  0  0
    0.7991   -6.6362    3.2549 C   0  0  0  0  0  0  0  0  0  0  0  0
    0.4911   -8.0131    3.3918 C   0  0  0  0  0  0  0  0  0  0  0  0
    1.3038   -8.9841    2.7700 C   0  0  0  0  0  0  0  0  0  0  0  0
    0.9466  -10.6624    2.9398 Cl  0  0  0  0  0  0  0  0  0  0  0  0
    2.4115   -8.5785    2.0098 C   0  0  0  0  0  0  0  0  0  0  0  0
    2.7046   -7.2154    1.8653 C   0  0  0  0  0  0  0  0  0  0  0  0
    3.7404   -3.6322   -0.9855 C   0  0  0  0  0  0  0  0  0  0  0  0
    2.6516   -1.3631   -2.8437 H   0  0  0  0  0  0  0  0  0  0  0  0
    3.0379   -2.7374   -3.9212 H   0  0  0  0  0  0  0  0  0  0  0  0
    5.3406   -1.6399   -3.0772 H   0  0  0  0  0  0  0  0  0  0  0  0
    7.5442   -6.2505    2.0862 H   0  0  0  0  0  0  0  0  0  0  0  0
    3.3475   -5.5408   -0.2569 H   0  0  0  0  0  0  0  0  0  0  0  0
    3.3514   -1.8852    1.2426 H   0  0  0  0  0  0  0  0  0  0  0  0
    1.5515   -2.6227    5.4893 H   0  0  0  0  0  0  0  0  0  0  0  0
    0.9953   -0.6169    6.8241 H   0  0  0  0  0  0  0  0  0  0  0  0
    0.9724    1.6280    5.7498 H   0  0  0  0  0  0  0  0  0  0  0  0
    1.5138    1.8524    3.3330 H   0  0  0  0  0  0  0  0  0  0  0  0
    2.0592   -0.1434    1.9911 H   0  0  0  0  0  0  0  0  0  0  0  0
    0.1706   -5.9071    3.7511 H   0  0  0  0  0  0  0  0  0  0  0  0
   -0.3624   -8.3277    3.9770 H   0  0  0  0  0  0  0  0  0  0  0  0
    3.0519   -9.2957    1.5268 H   0  0  0  0  0  0  0  0  0  0  0  0
    3.5614   -6.9894    1.2630 H   0  0  0  0  0  0  0  0  0  0  0  0
    7.0012   -2.8177   -1.2258 H   0  0  0  0  0  0  0  0  0  0  0  0
    1.0891   -3.3721   -2.6279 H   0  0  0  0  0  0  0  0  0  0  0  0
  1  2  1  0
  1 48  1  0
  2  3  1  0
  2 31  2  0
  3  4  1  0
  3 32  1  0
  3 33  1  0
  4 34  1  0
  4  5  2  0
  5 31  1  0
  5  6  1  0
  6  7  1  0
  6 47  1  0
  7 11  1  0
  7  8  2  0
  8  9  1  0
  9 10  2  0
  9 35  1  0
 10 11  1  0
 11 12  1  0
 12 13  1  0
 12 36  1  6
 12 31  1  0
 13 23  1  0
 13 14  2  0
 14 15  1  0
 14 37  1  0
 15 16  1  0
 15 22  1  0
 16 21  1  0
 16 17  2  0
 17 18  1  0
 17 38  1  0
 18 19  2  0
 18 39  1  0
 19 20  1  0
 19 40  1  0
 20 21  2  0
 20 41  1  0
 21 42  1  0
 22 23  2  0
 23 24  1  0
 24 30  1  0
 24 25  2  0
 25 26  1  0
 25 43  1  0
 26 27  2  0
 26 44  1  0
 27 28  1  0
 27 29  1  0
 29 30  2  0
 29 45  1  0
 30 46  1  0
M  END
>  <i_m_ct_stereo_status>  (269) 
1

>  <s_m_source_file>  (269) 
/var/tmp/pbs.5076255.sched01/tmpe6iyr0oq/80tt78e_gd.sdf

>  <i_m_source_file_index>  (269) 
30

>  <i_lp_mmshare_version>  (269) 
48012

>  <i_f3d_flags>  (269) 
0

>  <s_epik_input>  (269) 
bjFbY0hdbmMoTjIpbjFbQ0BIXShbQ0BASF0oQz0yMylDKD1PKVtDSDJdW0NIMl0zKWM0W2NIXW4oLWM1W2NIXVtjSF1bY0hdW2NIXVtjSF01KW5jNC1jNltjSF1bY0hdYyhDbClbY0hdW2NIXTY=

>  <s_epik_cmdline>  (269) 
J2VwaWtfcHl0aG9uJywgJy1waHQnLCAnMi4wJywgJy1waCcsICc3LjAnLCAnLXRuJywgJzgnLCAnLW1hJywgJzIwMCcsICctaW1hZScsICc8aW5maWxlLm1hZT4nLCAnLW9tYWUnLCAnPG91dGZpbGUubWFlPic=

>  <r_lp_tautomer_probability>  (269) 
1

>  <r_epik_Ionization_Penalty>  (269) 
0.41063

>  <r_epik_Ionization_Penalty_Charging>  (269) 
9.11783e-11

>  <r_epik_Ionization_Penalty_Neutral>  (269) 
0.41063

>  <r_epik_State_Penalty>  (269) 
0.410545

>  <r_epik_Charging_Adjusted_Penalty>  (269) 
0.410545

>  <i_epik_Tot_Q>  (269) 
0

>  <i_epik_Tot_abs_Q>  (269) 
0

>  <s_epik_Chemistry_Notes>  (269) 
This compound has an imine and may undergo hydrolysis.

>  <s_lp_Force_Field>  (269) 
OPLS3e

>  <r_lp_Energy>  (269) 
32.3536

>  <b_lp_Chiralities_Consistent>  (269) 
1

>  <s_lp_Variant>  (269) 
77:0-1

>  <s_i_glide_gridfile>  (269) 
pfpi4k_grid

>  <i_i_glide_lignum>  (269) 
30

>  <i_i_glide_rotatable_bonds>  (269) 
4

>  <r_i_docking_score>  (269) 
-2.62802

>  <r_i_glide_ligand_efficiency>  (269) 
-0.0847747

>  <r_i_glide_ligand_efficiency_sa>  (269) 
-0.26631

>  <r_i_glide_ligand_efficiency_ln>  (269) 
-0.592698

>  <r_i_glide_gscore>  (269) 
-2.62802

>  <r_i_glide_lipo>  (269) 
-0.346504

>  <r_i_glide_hbond>  (269) 
-0.0611899

>  <r_i_glide_metal>  (269) 
-0

>  <r_i_glide_rewards>  (269) 
-0.817343

>  <r_i_glide_evdw>  (269) 
-33.8948

>  <r_i_glide_ecoul>  (269) 
-0.187645

>  <r_i_glide_erotb>  (269) 
0.324046

>  <r_i_glide_esite>  (269) 
-0.0041403

>  <r_i_glide_emodel>  (269) 
-39.0046

>  <r_i_glide_energy>  (269) 
-34.0824

>  <r_i_glide_einternal>  (269) 
2.60525

>  <r_i_glide_intrahb_reward>  (269) 
-0

>  <i_i_glide_confnum>  (269) 
2

>  <i_i_glide_posenum>  (269) 
37

>  <r_i_glide_eff_state_penalty>  (269) 
0

>  <ligand_id>  (269) 
77

>  <original_smiles>  (269) 
O=C1CCC2=Nc3ncnn3C(c3cn(-c4ccccc4)nc3-c3ccc(Cl)cc3)C12

>  <smiles>  (269) 
[H]OC1=C2C(=C([H])C1([H])[H])N([H])c1nc([H])nn1C2([H])c1c(-c2c([H])c([H])c(Cl)c([H])c2[H])nn(-c2c([H])c([H])c([H])c([H])c2[H])c1[H]

$$$$
77:1:0
     RDKit          3D

 47 52  0  0  1  0  0  0  0  0999 V2000
    6.7454   -2.2326   -1.4029 O   0  0  0  0  0  0  0  0  0  0  0  0
    7.1451   -3.0303   -0.5080 C   0  0  0  0  0  0  0  0  0  0  0  0
    8.5340   -2.7063   -0.0320 C   0  0  0  0  0  0  0  0  0  0  0  0
    8.7823   -3.8754    0.8848 C   0  0  0  0  0  0  0  0  0  0  0  0
    7.7247   -4.6724    0.9644 C   0  0  0  0  0  0  0  0  0  0  0  0
    7.6193   -5.8944    1.6113 N   0  0  0  0  0  0  0  0  0  0  0  0
    6.5108   -6.7020    1.4014 C   0  0  0  0  0  0  0  0  0  0  0  0
    6.3270   -7.9387    1.8315 N   0  0  0  0  0  0  0  0  0  0  0  0
    5.1195   -8.2164    1.2680 C   0  0  0  0  0  0  0  0  0  0  0  0
    4.5785   -7.2448    0.5401 N   0  0  0  0  0  0  0  0  0  0  0  0
    5.5007   -6.2538    0.6297 N   0  0  0  0  0  0  0  0  0  0  0  0
    5.3262   -4.9146    0.0020 C   0  0  1  0  0  0  0  0  0  0  0  0
    4.2278   -4.1427    0.6912 C   0  0  0  0  0  0  0  0  0  0  0  0
    3.7674   -4.3409    1.9652 C   0  0  0  0  0  0  0  0  0  0  0  0
    2.7713   -3.4236    2.2236 N   0  0  0  0  0  0  0  0  0  0  0  0
    2.0001   -3.2511    3.4069 C   0  0  0  0  0  0  0  0  0  0  0  0
    2.0140   -4.2403    4.4147 C   0  0  0  0  0  0  0  0  0  0  0  0
    1.2648   -4.0703    5.5928 C   0  0  0  0  0  0  0  0  0  0  0  0
    0.4896   -2.9123    5.7727 C   0  0  0  0  0  0  0  0  0  0  0  0
    0.4630   -1.9242    4.7729 C   0  0  0  0  0  0  0  0  0  0  0  0
    1.2136   -2.0924    3.5946 C   0  0  0  0  0  0  0  0  0  0  0  0
    2.5897   -2.6370    1.1476 N   0  0  0  0  0  0  0  0  0  0  0  0
    3.4284   -3.0636    0.2144 C   0  0  0  0  0  0  0  0  0  0  0  0
    3.4384   -2.3917   -1.0947 C   0  0  0  0  0  0  0  0  0  0  0  0
    4.1639   -1.1952   -1.2542 C   0  0  0  0  0  0  0  0  0  0  0  0
    4.2178   -0.5623   -2.5027 C   0  0  0  0  0  0  0  0  0  0  0  0
    3.4930   -1.0847   -3.5854 C   0  0  0  0  0  0  0  0  0  0  0  0
    3.4986   -0.2235   -5.0896 Cl  0  0  0  0  0  0  0  0  0  0  0  0
    2.7561   -2.2736   -3.4401 C   0  0  0  0  0  0  0  0  0  0  0  0
    2.7291   -2.9290   -2.1942 C   0  0  0  0  0  0  0  0  0  0  0  0
    6.6512   -4.1369    0.1349 C   0  0  0  0  0  0  0  0  0  0  0  0
    8.5578   -1.7560    0.4965 H   0  0  0  0  0  0  0  0  0  0  0  0
    9.2084   -2.6949   -0.8818 H   0  0  0  0  0  0  0  0  0  0  0  0
    9.7344   -4.0093    1.3775 H   0  0  0  0  0  0  0  0  0  0  0  0
    4.6387   -9.1698    1.3717 H   0  0  0  0  0  0  0  0  0  0  0  0
    5.1212   -5.0752   -1.0514 H   0  0  0  0  0  0  0  0  0  0  0  0
    4.0774   -5.0725    2.7011 H   0  0  0  0  0  0  0  0  0  0  0  0
    2.5976   -5.1413    4.3039 H   0  0  0  0  0  0  0  0  0  0  0  0
    1.2944   -4.8302    6.3582 H   0  0  0  0  0  0  0  0  0  0  0  0
   -0.0799   -2.7832    6.6829 H   0  0  0  0  0  0  0  0  0  0  0  0
   -0.1278   -1.0298    4.9079 H   0  0  0  0  0  0  0  0  0  0  0  0
    1.1857   -1.3195    2.8393 H   0  0  0  0  0  0  0  0  0  0  0  0
    4.6527   -0.7454   -0.4007 H   0  0  0  0  0  0  0  0  0  0  0  0
    4.7767    0.3467   -2.6282 H   0  0  0  0  0  0  0  0  0  0  0  0
    2.2036   -2.6791   -4.2694 H   0  0  0  0  0  0  0  0  0  0  0  0
    2.1623   -3.8418   -2.0695 H   0  0  0  0  0  0  0  0  0  0  0  0
    8.4064   -6.2761    2.1114 H   0  0  0  0  0  0  0  0  0  0  0  0
  1  2  1  0
  2  3  1  0
  2 31  2  0
  3  4  1  0
  3 32  1  0
  3 33  1  0
  4 34  1  0
  4  5  2  0
  5 31  1  0
  5  6  1  0
  6  7  1  0
  6 47  1  0
  7 11  1  0
  7  8  2  0
  8  9  1  0
  9 10  2  0
  9 35  1  0
 10 11  1  0
 11 12  1  0
 12 13  1  0
 12 36  1  6
 12 31  1  0
 13 23  1  0
 13 14  2  0
 14 15  1  0
 14 37  1  0
 15 16  1  0
 15 22  1  0
 16 21  1  0
 16 17  2  0
 17 18  1  0
 17 38  1  0
 18 19  2  0
 18 39  1  0
 19 20  1  0
 19 40  1  0
 20 21  2  0
 20 41  1  0
 21 42  1  0
 22 23  2  0
 23 24  1  0
 24 30  1  0
 24 25  2  0
 25 26  1  0
 25 43  1  0
 26 27  2  0
 26 44  1  0
 27 28  1  0
 27 29  1  0
 29 30  2  0
 29 45  1  0
 30 46  1  0
M  CHG  1   1  -1
M  END
>  <i_m_ct_stereo_status>  (270) 
1

>  <s_m_source_file>  (270) 
/var/tmp/pbs.5076255.sched01/tmpe6iyr0oq/80tt78e_gd.sdf

>  <i_m_source_file_index>  (270) 
31

>  <i_lp_mmshare_version>  (270) 
48012

>  <i_f3d_flags>  (270) 
0

>  <s_epik_input>  (270) 
bjFbY0hdbmMoTjIpbjFbQ0BIXShbQ0BASF0oQz0yMylDKD1PKVtDSDJdW0NIMl0zKWM0W2NIXW4oLWM1W2NIXVtjSF1bY0hdW2NIXVtjSF01KW5jNC1jNltjSF1bY0hdYyhDbClbY0hdW2NIXTY=

>  <s_epik_cmdline>  (270) 
J2VwaWtfcHl0aG9uJywgJy1waHQnLCAnMi4wJywgJy1waCcsICc3LjAnLCAnLXRuJywgJzgnLCAnLW1hJywgJzIwMCcsICctaW1hZScsICc8aW5maWxlLm1hZT4nLCAnLW9tYWUnLCAnPG91dGZpbGUubWFlPic=

>  <r_lp_tautomer_probability>  (270) 
1

>  <r_epik_Ionization_Penalty>  (270) 
0.410807

>  <r_epik_Ionization_Penalty_Charging>  (270) 
0.410807

>  <r_epik_Ionization_Penalty_Neutral>  (270) 
6.3748e-07

>  <r_epik_State_Penalty>  (270) 
0.410815

>  <r_epik_Charging_Adjusted_Penalty>  (270) 
0.821621

>  <i_epik_Tot_Q>  (270) 
-1

>  <i_epik_Tot_abs_Q>  (270) 
1

>  <s_epik_Chemistry_Notes>  (270) 
This compound has an imine and may undergo hydrolysis.

>  <s_lp_Force_Field>  (270) 
OPLS3e

>  <r_lp_Energy>  (270) 
32.3915

>  <b_lp_Chiralities_Consistent>  (270) 
1

>  <s_lp_Variant>  (270) 
77:0-2

>  <s_i_glide_gridfile>  (270) 
pfpi4k_grid

>  <i_i_glide_lignum>  (270) 
31

>  <i_i_glide_rotatable_bonds>  (270) 
3

>  <r_i_docking_score>  (270) 
-3.72317

>  <r_i_glide_ligand_efficiency>  (270) 
-0.120102

>  <r_i_glide_ligand_efficiency_sa>  (270) 
-0.377287

>  <r_i_glide_ligand_efficiency_ln>  (270) 
-0.83969

>  <r_i_glide_gscore>  (270) 
-3.72317

>  <r_i_glide_lipo>  (270) 
-1.09464

>  <r_i_glide_hbond>  (270) 
-0.2

>  <r_i_glide_metal>  (270) 
-0

>  <r_i_glide_rewards>  (270) 
-0.844358

>  <r_i_glide_evdw>  (270) 
-37.9072

>  <r_i_glide_ecoul>  (270) 
-0.0783322

>  <r_i_glide_erotb>  (270) 
0.325429

>  <r_i_glide_esite>  (270) 
-0.00248944

>  <r_i_glide_emodel>  (270) 
-46.2273

>  <r_i_glide_energy>  (270) 
-37.9856

>  <r_i_glide_einternal>  (270) 
2.89664

>  <r_i_glide_intrahb_reward>  (270) 
-0

>  <i_i_glide_confnum>  (270) 
3

>  <i_i_glide_posenum>  (270) 
40

>  <r_i_glide_eff_state_penalty>  (270) 
0

>  <ligand_id>  (270) 
77

>  <original_smiles>  (270) 
O=C1CCC2=Nc3ncnn3C(c3cn(-c4ccccc4)nc3-c3ccc(Cl)cc3)C12

>  <smiles>  (270) 
[H]C1=C2C(=C([O-])C1([H])[H])C([H])(c1c(-c3c([H])c([H])c(Cl)c([H])c3[H])nn(-c3c([H])c([H])c([H])c([H])c3[H])c1[H])n1nc([H])nc1N2[H]

$$$$
77:1:1
     RDKit          3D

 47 52  0  0  1  0  0  0  0  0999 V2000
    1.4125   -3.8452   -1.5375 O   0  0  0  0  0  0  0  0  0  0  0  0
    2.5741   -3.4065   -1.7342 C   0  0  0  0  0  0  0  0  0  0  0  0
    2.7673   -2.6723   -3.0655 C   0  0  0  0  0  0  0  0  0  0  0  0
    4.2528   -2.3653   -2.9766 C   0  0  0  0  0  0  0  0  0  0  0  0
    4.7848   -2.8308   -1.8475 C   0  0  0  0  0  0  0  0  0  0  0  0
    6.1090   -2.8525   -1.4231 N   0  0  0  0  0  0  0  0  0  0  0  0
    6.4723   -3.5869   -0.2941 C   0  0  0  0  0  0  0  0  0  0  0  0
    7.7038   -3.8555    0.1281 N   0  0  0  0  0  0  0  0  0  0  0  0
    7.3988   -4.6951    1.1775 C   0  0  0  0  0  0  0  0  0  0  0  0
    6.1002   -4.9288    1.3931 N   0  0  0  0  0  0  0  0  0  0  0  0
    5.5137   -4.1795    0.4396 N   0  0  0  0  0  0  0  0  0  0  0  0
    4.0773   -4.1692    0.2417 C   0  0  1  0  0  0  0  0  0  0  0  0
    3.3839   -3.4311    1.3720 C   0  0  0  0  0  0  0  0  0  0  0  0
    3.4907   -2.0843    1.6220 C   0  0  0  0  0  0  0  0  0  0  0  0
    2.7401   -1.7852    2.7404 N   0  0  0  0  0  0  0  0  0  0  0  0
    2.5600   -0.5257    3.3822 C   0  0  0  0  0  0  0  0  0  0  0  0
    2.1494   -0.4568    4.7368 C   0  0  0  0  0  0  0  0  0  0  0  0
    1.9698    0.7925    5.3671 C   0  0  0  0  0  0  0  0  0  0  0  0
    2.1969    1.9819    4.6497 C   0  0  0  0  0  0  0  0  0  0  0  0
    2.6089    1.9239    3.3047 C   0  0  0  0  0  0  0  0  0  0  0  0
    2.7906    0.6758    2.6739 C   0  0  0  0  0  0  0  0  0  0  0  0
    2.1612   -2.9067    3.2259 N   0  0  0  0  0  0  0  0  0  0  0  0
    2.5156   -3.8982    2.4116 C   0  0  0  0  0  0  0  0  0  0  0  0
    1.9774   -5.2515    2.6840 C   0  0  0  0  0  0  0  0  0  0  0  0
    1.8310   -6.2045    1.6482 C   0  0  0  0  0  0  0  0  0  0  0  0
    1.4092   -7.5129    1.9265 C   0  0  0  0  0  0  0  0  0  0  0  0
    1.0286   -7.8766    3.2298 C   0  0  0  0  0  0  0  0  0  0  0  0
    0.4312   -9.4686    3.5292 Cl  0  0  0  0  0  0  0  0  0  0  0  0
    1.0943   -6.9224    4.2687 C   0  0  0  0  0  0  0  0  0  0  0  0
    1.5839   -5.6201    4.0007 C   0  0  0  0  0  0  0  0  0  0  0  0
    3.7663   -3.4522   -1.0462 C   0  0  0  0  0  0  0  0  0  0  0  0
    2.2030   -1.7416   -3.1124 H   0  0  0  0  0  0  0  0  0  0  0  0
    2.5468   -3.2937   -3.9452 H   0  0  0  0  0  0  0  0  0  0  0  0
    4.7877   -1.8613   -3.7604 H   0  0  0  0  0  0  0  0  0  0  0  0
    8.1470   -5.1524    1.8171 H   0  0  0  0  0  0  0  0  0  0  0  0
    3.8095   -5.2093    0.0966 H   0  0  0  0  0  0  0  0  0  0  0  0
    4.0532   -1.3279    1.0925 H   0  0  0  0  0  0  0  0  0  0  0  0
    1.9787   -1.3621    5.3016 H   0  0  0  0  0  0  0  0  0  0  0  0
    1.6589    0.8331    6.3996 H   0  0  0  0  0  0  0  0  0  0  0  0
    2.0551    2.9394    5.1267 H   0  0  0  0  0  0  0  0  0  0  0  0
    2.7813    2.8311    2.7475 H   0  0  0  0  0  0  0  0  0  0  0  0
    3.0982    0.6529    1.6401 H   0  0  0  0  0  0  0  0  0  0  0  0
    2.0131   -5.9600    0.6104 H   0  0  0  0  0  0  0  0  0  0  0  0
    1.3575   -8.2267    1.1213 H   0  0  0  0  0  0  0  0  0  0  0  0
    0.7755   -7.1885    5.2662 H   0  0  0  0  0  0  0  0  0  0  0  0
    1.6358   -4.9036    4.8125 H   0  0  0  0  0  0  0  0  0  0  0  0
    6.8362   -2.5202   -2.0322 H   0  0  0  0  0  0  0  0  0  0  0  0
  1  2  1  0
  2  3  1  0
  2 31  2  0
  3  4  1  0
  3 32  1  0
  3 33  1  0
  4 34  1  0
  4  5  2  0
  5 31  1  0
  5  6  1  0
  6  7  1  0
  6 47  1  0
  7 11  1  0
  7  8  2  0
  8  9  1  0
  9 10  2  0
  9 35  1  0
 10 11  1  0
 11 12  1  0
 12 13  1  0
 12 36  1  6
 12 31  1  0
 13 23  1  0
 13 14  2  0
 14 15  1  0
 14 37  1  0
 15 16  1  0
 15 22  1  0
 16 21  1  0
 16 17  2  0
 17 18  1  0
 17 38  1  0
 18 19  2  0
 18 39  1  0
 19 20  1  0
 19 40  1  0
 20 21  2  0
 20 41  1  0
 21 42  1  0
 22 23  2  0
 23 24  1  0
 24 30  1  0
 24 25  2  0
 25 26  1  0
 25 43  1  0
 26 27  2  0
 26 44  1  0
 27 28  1  0
 27 29  1  0
 29 30  2  0
 29 45  1  0
 30 46  1  0
M  CHG  1   1  -1
M  END
>  <i_m_ct_stereo_status>  (271) 
1

>  <s_m_source_file>  (271) 
/var/tmp/pbs.5076255.sched01/tmpe6iyr0oq/80tt78e_gd.sdf

>  <i_m_source_file_index>  (271) 
31

>  <i_lp_mmshare_version>  (271) 
48012

>  <i_f3d_flags>  (271) 
0

>  <s_epik_input>  (271) 
bjFbY0hdbmMoTjIpbjFbQ0BIXShbQ0BASF0oQz0yMylDKD1PKVtDSDJdW0NIMl0zKWM0W2NIXW4oLWM1W2NIXVtjSF1bY0hdW2NIXVtjSF01KW5jNC1jNltjSF1bY0hdYyhDbClbY0hdW2NIXTY=

>  <s_epik_cmdline>  (271) 
J2VwaWtfcHl0aG9uJywgJy1waHQnLCAnMi4wJywgJy1waCcsICc3LjAnLCAnLXRuJywgJzgnLCAnLW1hJywgJzIwMCcsICctaW1hZScsICc8aW5maWxlLm1hZT4nLCAnLW9tYWUnLCAnPG91dGZpbGUubWFlPic=

>  <r_lp_tautomer_probability>  (271) 
1

>  <r_epik_Ionization_Penalty>  (271) 
0.410807

>  <r_epik_Ionization_Penalty_Charging>  (271) 
0.410807

>  <r_epik_Ionization_Penalty_Neutral>  (271) 
6.3748e-07

>  <r_epik_State_Penalty>  (271) 
0.410815

>  <r_epik_Charging_Adjusted_Penalty>  (271) 
0.821621

>  <i_epik_Tot_Q>  (271) 
-1

>  <i_epik_Tot_abs_Q>  (271) 
1

>  <s_epik_Chemistry_Notes>  (271) 
This compound has an imine and may undergo hydrolysis.

>  <s_lp_Force_Field>  (271) 
OPLS3e

>  <r_lp_Energy>  (271) 
32.3915

>  <b_lp_Chiralities_Consistent>  (271) 
1

>  <s_lp_Variant>  (271) 
77:0-2

>  <s_i_glide_gridfile>  (271) 
pfpi4k_grid

>  <i_i_glide_lignum>  (271) 
31

>  <i_i_glide_rotatable_bonds>  (271) 
3

>  <r_i_docking_score>  (271) 
-2.26669

>  <r_i_glide_ligand_efficiency>  (271) 
-0.0731191

>  <r_i_glide_ligand_efficiency_sa>  (271) 
-0.229695

>  <r_i_glide_ligand_efficiency_ln>  (271) 
-0.511208

>  <r_i_glide_gscore>  (271) 
-2.26669

>  <r_i_glide_lipo>  (271) 
-0.40547

>  <r_i_glide_hbond>  (271) 
-0.0177497

>  <r_i_glide_metal>  (271) 
-0

>  <r_i_glide_rewards>  (271) 
-0.877273

>  <r_i_glide_evdw>  (271) 
-34.5305

>  <r_i_glide_ecoul>  (271) 
2.93469

>  <r_i_glide_erotb>  (271) 
0.325429

>  <r_i_glide_esite>  (271) 
-0.00530686

>  <r_i_glide_emodel>  (271) 
-37.1313

>  <r_i_glide_energy>  (271) 
-31.5958

>  <r_i_glide_einternal>  (271) 
0.358937

>  <r_i_glide_intrahb_reward>  (271) 
-0

>  <i_i_glide_confnum>  (271) 
2

>  <i_i_glide_posenum>  (271) 
18

>  <r_i_glide_eff_state_penalty>  (271) 
0

>  <ligand_id>  (271) 
77

>  <original_smiles>  (271) 
O=C1CCC2=Nc3ncnn3C(c3cn(-c4ccccc4)nc3-c3ccc(Cl)cc3)C12

>  <smiles>  (271) 
[H]C1=C2C(=C([O-])C1([H])[H])C([H])(c1c(-c3c([H])c([H])c(Cl)c([H])c3[H])nn(-c3c([H])c([H])c([H])c([H])c3[H])c1[H])n1nc([H])nc1N2[H]

$$$$
77:1:2
     RDKit          3D

 47 52  0  0  1  0  0  0  0  0999 V2000
    6.7047   -6.0664    4.0385 O   0  0  0  0  0  0  0  0  0  0  0  0
    6.8323   -5.7075    2.8446 C   0  0  0  0  0  0  0  0  0  0  0  0
    7.7797   -6.5889    2.0451 C   0  0  0  0  0  0  0  0  0  0  0  0
    7.7533   -5.8653    0.7249 C   0  0  0  0  0  0  0  0  0  0  0  0
    6.9671   -4.8021    0.7531 C   0  0  0  0  0  0  0  0  0  0  0  0
    6.7558   -3.8613   -0.2607 N   0  0  0  0  0  0  0  0  0  0  0  0
    6.0478   -2.7031    0.0166 C   0  0  0  0  0  0  0  0  0  0  0  0
    5.9041   -1.6594   -0.7844 N   0  0  0  0  0  0  0  0  0  0  0  0
    5.2416   -0.8292    0.0785 C   0  0  0  0  0  0  0  0  0  0  0  0
    5.0861   -1.2639    1.3108 N   0  0  0  0  0  0  0  0  0  0  0  0
    5.5251   -2.5445    1.2448 N   0  0  0  0  0  0  0  0  0  0  0  0
    5.4218   -3.5030    2.3507 C   0  0  1  0  0  0  0  0  0  0  0  0
    3.9980   -4.0037    2.5962 C   0  0  0  0  0  0  0  0  0  0  0  0
    3.5897   -5.3133    2.6299 C   0  0  0  0  0  0  0  0  0  0  0  0
    2.2352   -5.3493    2.8612 N   0  0  0  0  0  0  0  0  0  0  0  0
    1.3669   -6.4645    2.9821 C   0  0  0  0  0  0  0  0  0  0  0  0
    0.1685   -6.3594    3.7211 C   0  0  0  0  0  0  0  0  0  0  0  0
   -0.6985   -7.4640    3.8365 C   0  0  0  0  0  0  0  0  0  0  0  0
   -0.3665   -8.6813    3.2166 C   0  0  0  0  0  0  0  0  0  0  0  0
    0.8214   -8.7888    2.4807 C   0  0  0  0  0  0  0  0  0  0  0  0
    1.6912   -7.6888    2.3613 C   0  0  0  0  0  0  0  0  0  0  0  0
    1.7647   -4.0928    3.0036 N   0  0  0  0  0  0  0  0  0  0  0  0
    2.7997   -3.2699    2.8958 C   0  0  0  0  0  0  0  0  0  0  0  0
    2.5614   -1.8207    3.0427 C   0  0  0  0  0  0  0  0  0  0  0  0
    1.3817   -1.2331    2.5329 C   0  0  0  0  0  0  0  0  0  0  0  0
    1.1998    0.1591    2.5674 C   0  0  0  0  0  0  0  0  0  0  0  0
    2.1958    0.9875    3.1120 C   0  0  0  0  0  0  0  0  0  0  0  0
    2.0035    2.6945    3.1329 Cl  0  0  0  0  0  0  0  0  0  0  0  0
    3.3714    0.4098    3.6206 C   0  0  0  0  0  0  0  0  0  0  0  0
    3.5390   -0.9836    3.6264 C   0  0  0  0  0  0  0  0  0  0  0  0
    6.3478   -4.6766    2.0429 C   0  0  0  0  0  0  0  0  0  0  0  0
    7.3912   -7.6001    1.9544 H   0  0  0  0  0  0  0  0  0  0  0  0
    8.7817   -6.5913    2.4732 H   0  0  0  0  0  0  0  0  0  0  0  0
    8.3471   -6.2004   -0.1036 H   0  0  0  0  0  0  0  0  0  0  0  0
    4.8600    0.1352   -0.2053 H   0  0  0  0  0  0  0  0  0  0  0  0
    5.8140   -3.0291    3.2430 H   0  0  0  0  0  0  0  0  0  0  0  0
    4.1541   -6.2321    2.5182 H   0  0  0  0  0  0  0  0  0  0  0  0
   -0.0873   -5.4312    4.2134 H   0  0  0  0  0  0  0  0  0  0  0  0
   -1.6123   -7.3793    4.4058 H   0  0  0  0  0  0  0  0  0  0  0  0
   -1.0250   -9.5324    3.3111 H   0  0  0  0  0  0  0  0  0  0  0  0
    1.0832   -9.7273    2.0070 H   0  0  0  0  0  0  0  0  0  0  0  0
    2.5972   -7.7864    1.7866 H   0  0  0  0  0  0  0  0  0  0  0  0
    0.6336   -1.8488    2.0576 H   0  0  0  0  0  0  0  0  0  0  0  0
    0.2949    0.5915    2.1704 H   0  0  0  0  0  0  0  0  0  0  0  0
    4.1870    1.0329    3.9443 H   0  0  0  0  0  0  0  0  0  0  0  0
    4.4520   -1.4053    4.0091 H   0  0  0  0  0  0  0  0  0  0  0  0
    7.2203   -3.9243   -1.1599 H   0  0  0  0  0  0  0  0  0  0  0  0
  1  2  1  0
  2  3  1  0
  2 31  2  0
  3  4  1  0
  3 32  1  0
  3 33  1  0
  4 34  1  0
  4  5  2  0
  5 31  1  0
  5  6  1  0
  6  7  1  0
  6 47  1  0
  7 11  1  0
  7  8  2  0
  8  9  1  0
  9 10  2  0
  9 35  1  0
 10 11  1  0
 11 12  1  0
 12 13  1  0
 12 36  1  1
 12 31  1  0
 13 23  1  0
 13 14  2  0
 14 15  1  0
 14 37  1  0
 15 16  1  0
 15 22  1  0
 16 21  1  0
 16 17  2  0
 17 18  1  0
 17 38  1  0
 18 19  2  0
 18 39  1  0
 19 20  1  0
 19 40  1  0
 20 21  2  0
 20 41  1  0
 21 42  1  0
 22 23  2  0
 23 24  1  0
 24 30  1  0
 24 25  2  0
 25 26  1  0
 25 43  1  0
 26 27  2  0
 26 44  1  0
 27 28  1  0
 27 29  1  0
 29 30  2  0
 29 45  1  0
 30 46  1  0
M  CHG  1   1  -1
M  END
>  <i_m_ct_stereo_status>  (272) 
1

>  <s_m_source_file>  (272) 
/var/tmp/pbs.5076255.sched01/tmpe6iyr0oq/80tt78e_gd.sdf

>  <i_m_source_file_index>  (272) 
31

>  <i_lp_mmshare_version>  (272) 
48012

>  <i_f3d_flags>  (272) 
0

>  <s_epik_input>  (272) 
bjFbY0hdbmMoTjIpbjFbQ0BIXShbQ0BASF0oQz0yMylDKD1PKVtDSDJdW0NIMl0zKWM0W2NIXW4oLWM1W2NIXVtjSF1bY0hdW2NIXVtjSF01KW5jNC1jNltjSF1bY0hdYyhDbClbY0hdW2NIXTY=

>  <s_epik_cmdline>  (272) 
J2VwaWtfcHl0aG9uJywgJy1waHQnLCAnMi4wJywgJy1waCcsICc3LjAnLCAnLXRuJywgJzgnLCAnLW1hJywgJzIwMCcsICctaW1hZScsICc8aW5maWxlLm1hZT4nLCAnLW9tYWUnLCAnPG91dGZpbGUubWFlPic=

>  <r_lp_tautomer_probability>  (272) 
1

>  <r_epik_Ionization_Penalty>  (272) 
0.410807

>  <r_epik_Ionization_Penalty_Charging>  (272) 
0.410807

>  <r_epik_Ionization_Penalty_Neutral>  (272) 
6.3748e-07

>  <r_epik_State_Penalty>  (272) 
0.410815

>  <r_epik_Charging_Adjusted_Penalty>  (272) 
0.821621

>  <i_epik_Tot_Q>  (272) 
-1

>  <i_epik_Tot_abs_Q>  (272) 
1

>  <s_epik_Chemistry_Notes>  (272) 
This compound has an imine and may undergo hydrolysis.

>  <s_lp_Force_Field>  (272) 
OPLS3e

>  <r_lp_Energy>  (272) 
32.3915

>  <b_lp_Chiralities_Consistent>  (272) 
1

>  <s_lp_Variant>  (272) 
77:0-2

>  <s_i_glide_gridfile>  (272) 
pfpi4k_grid

>  <i_i_glide_lignum>  (272) 
31

>  <i_i_glide_rotatable_bonds>  (272) 
3

>  <r_i_docking_score>  (272) 
-2.24773

>  <r_i_glide_ligand_efficiency>  (272) 
-0.0725073

>  <r_i_glide_ligand_efficiency_sa>  (272) 
-0.227773

>  <r_i_glide_ligand_efficiency_ln>  (272) 
-0.506931

>  <r_i_glide_gscore>  (272) 
-2.24773

>  <r_i_glide_lipo>  (272) 
-0.241263

>  <r_i_glide_hbond>  (272) 
-0.0366825

>  <r_i_glide_metal>  (272) 
-0

>  <r_i_glide_rewards>  (272) 
-0.688064

>  <r_i_glide_evdw>  (272) 
-30.5237

>  <r_i_glide_ecoul>  (272) 
-0.490863

>  <r_i_glide_erotb>  (272) 
0.325429

>  <r_i_glide_esite>  (272) 
-0.00732917

>  <r_i_glide_emodel>  (272) 
-34.8158

>  <r_i_glide_energy>  (272) 
-31.0146

>  <r_i_glide_einternal>  (272) 
2.30815

>  <r_i_glide_intrahb_reward>  (272) 
-0

>  <i_i_glide_confnum>  (272) 
3

>  <i_i_glide_posenum>  (272) 
28

>  <r_i_glide_eff_state_penalty>  (272) 
0

>  <ligand_id>  (272) 
77

>  <original_smiles>  (272) 
O=C1CCC2=Nc3ncnn3C(c3cn(-c4ccccc4)nc3-c3ccc(Cl)cc3)C12

>  <smiles>  (272) 
[H]C1=C2C(=C([O-])C1([H])[H])C([H])(c1c(-c3c([H])c([H])c(Cl)c([H])c3[H])nn(-c3c([H])c([H])c([H])c([H])c3[H])c1[H])n1nc([H])nc1N2[H]

$$$$
78:0:0
     RDKit          3D

 64 70  0  0  1  0  0  0  0  0999 V2000
    0.4046    0.1192    7.0611 C   0  0  0  0  0  0  0  0  0  0  0  0
    0.2209    1.5314    6.9556 O   0  0  0  0  0  0  0  0  0  0  0  0
    0.3420    2.1578    5.6638 C   0  0  1  0  0  0  0  0  0  0  0  0
    1.8176    1.8564    5.0707 C   0  0  1  0  0  0  0  0  0  0  0  0
    1.8783    1.3921    3.7404 O   0  0  0  0  0  0  0  0  0  0  0  0
    2.9274    3.0100    5.3164 C   0  0  1  0  0  0  0  0  0  0  0  0
    4.1667    2.5111    4.8833 O   0  0  0  0  0  0  0  0  0  0  0  0
    2.5507    4.0899    4.4691 O   0  0  0  0  0  0  0  0  0  0  0  0
    2.4393    5.4795    4.8175 C   0  0  0  0  0  0  0  0  0  0  0  0
    3.9080    5.9882    4.7012 C   0  0  0  0  0  0  0  0  0  0  0  0
    1.7788    6.2180    3.6214 C   0  0  0  0  0  0  0  0  0  0  0  0
    1.5514    5.7273    6.1382 C   0  0  2  0  0  0  0  0  0  0  0  0
    2.4631    6.3891    7.2230 C   0  0  0  0  0  0  0  0  0  0  0  0
    3.8328    5.7227    7.6072 C   0  0  0  0  0  0  0  0  0  0  0  0
    4.0358    4.2040    7.4112 C   0  0  0  0  0  0  0  0  0  0  0  0
    3.1623    3.3482    6.8169 C   0  0  0  0  0  0  0  0  0  0  0  0
    2.1994    2.8483    7.6267 O   0  0  0  0  0  0  0  0  0  0  0  0
    1.2905    3.8858    7.9223 C   0  0  2  0  0  0  0  0  0  0  0  0
    0.0718    3.5378    8.5447 O   0  0  0  0  0  0  0  0  0  0  0  0
   -0.6535    4.3476    7.5971 C   0  0  2  0  0  0  0  0  0  0  0  0
   -1.1228    5.6009    8.3406 C   0  0  0  0  0  0  0  0  0  0  0  0
   -1.8820    3.2800    7.4018 C   0  0  0  0  0  0  0  0  0  0  0  0
   -2.1930    2.4698    6.0655 C   0  0  2  0  0  0  0  0  0  0  0  0
   -1.9732    1.0507    5.8257 O   0  0  0  0  0  0  0  0  0  0  0  0
   -1.0681    1.9174    5.1191 C   0  0  2  0  0  0  0  0  0  0  0  0
   -1.1736    2.4902    3.6982 C   0  0  1  0  0  0  0  0  0  0  0  0
   -0.8743    1.4797    2.5686 C   0  0  0  0  0  0  0  0  0  0  0  0
   -2.4935    2.9225    3.3833 O   0  0  0  0  0  0  0  0  0  0  0  0
   -0.2010    3.7390    3.8535 C   0  0  1  0  0  0  0  0  0  0  0  0
   -0.8443    4.9141    3.3564 O   0  0  0  0  0  0  0  0  0  0  0  0
    0.1630    3.6465    5.4139 C   0  0  2  0  0  0  0  0  0  0  0  0
    0.6351    4.4933    6.6183 C   0  0  1  0  0  0  0  0  0  0  0  0
   -0.1575   -0.2407    7.9228 H   0  0  0  0  0  0  0  0  0  0  0  0
    1.4483   -0.1365    7.2367 H   0  0  0  0  0  0  0  0  0  0  0  0
    0.0554   -0.4210    6.1809 H   0  0  0  0  0  0  0  0  0  0  0  0
    2.2343    1.0048    5.5996 H   0  0  0  0  0  0  0  0  0  0  0  0
    1.6582    2.1076    3.1557 H   0  0  0  0  0  0  0  0  0  0  0  0
    4.0995    2.3587    3.9503 H   0  0  0  0  0  0  0  0  0  0  0  0
    4.0298    7.0121    5.0537 H   0  0  0  0  0  0  0  0  0  0  0  0
    4.2313    5.9819    3.6585 H   0  0  0  0  0  0  0  0  0  0  0  0
    4.6367    5.3458    5.1878 H   0  0  0  0  0  0  0  0  0  0  0  0
    0.7855    6.6014    3.8380 H   0  0  0  0  0  0  0  0  0  0  0  0
    1.7142    5.5777    2.7406 H   0  0  0  0  0  0  0  0  0  0  0  0
    2.3327    7.1050    3.3111 H   0  0  0  0  0  0  0  0  0  0  0  0
    0.8454    6.5245    5.9247 H   0  0  0  0  0  0  0  0  0  0  0  0
    2.6889    7.4060    6.8978 H   0  0  0  0  0  0  0  0  0  0  0  0
    1.8847    6.5763    8.1256 H   0  0  0  0  0  0  0  0  0  0  0  0
    4.6633    6.2662    7.1557 H   0  0  0  0  0  0  0  0  0  0  0  0
    3.9940    5.9323    8.6666 H   0  0  0  0  0  0  0  0  0  0  0  0
    4.1597    3.9128    8.4456 H   0  0  0  0  0  0  0  0  0  0  0  0
    1.7452    4.5568    8.6386 H   0  0  0  0  0  0  0  0  0  0  0  0
   -1.7147    6.2462    7.6936 H   0  0  0  0  0  0  0  0  0  0  0  0
   -0.2840    6.1926    8.7027 H   0  0  0  0  0  0  0  0  0  0  0  0
   -1.7298    5.3345    9.2074 H   0  0  0  0  0  0  0  0  0  0  0  0
   -1.9112    2.5619    8.2236 H   0  0  0  0  0  0  0  0  0  0  0  0
   -2.7992    3.8483    7.5645 H   0  0  0  0  0  0  0  0  0  0  0  0
   -3.1439    2.7886    5.6566 H   0  0  0  0  0  0  0  0  0  0  0  0
   -0.2049    0.6800    2.8684 H   0  0  0  0  0  0  0  0  0  0  0  0
   -0.4628    1.9724    1.6856 H   0  0  0  0  0  0  0  0  0  0  0  0
   -1.7750    0.9624    2.2349 H   0  0  0  0  0  0  0  0  0  0  0  0
   -3.0047    2.1525    3.1711 H   0  0  0  0  0  0  0  0  0  0  0  0
    0.6532    3.5874    3.1997 H   0  0  0  0  0  0  0  0  0  0  0  0
   -0.6661    4.9250    2.4160 H   0  0  0  0  0  0  0  0  0  0  0  0
   -0.7989    4.1381    5.4445 H   0  0  0  0  0  0  0  0  0  0  0  0
  1  2  1  0
  1 33  1  0
  1 34  1  0
  1 35  1  0
  3  2  1  1
  3 25  1  0
  3 31  1  0
  3  4  1  0
  4  5  1  0
  4  6  1  0
  4 36  1  1
  5 37  1  0
  6 16  1  0
  6  7  1  6
  6  8  1  0
  7 38  1  0
  8  9  1  0
  9 10  1  0
  9 11  1  0
  9 12  1  0
 10 39  1  0
 10 40  1  0
 10 41  1  0
 11 42  1  0
 11 43  1  0
 11 44  1  0
 12 32  1  0
 12 13  1  0
 12 45  1  6
 13 14  1  0
 13 46  1  0
 13 47  1  0
 14 15  1  0
 14 48  1  0
 14 49  1  0
 15 16  2  3
 15 50  1  0
 16 17  1  0
 17 18  1  0
 18 32  1  0
 18 19  1  0
 18 51  1  1
 19 20  1  0
 32 20  1  1
 20 21  1  1
 20 22  1  0
 21 52  1  0
 21 53  1  0
 21 54  1  0
 22 23  1  0
 22 55  1  0
 22 56  1  0
 23 25  1  0
 23 24  1  0
 23 57  1  6
 25 24  1  6
 25 26  1  0
 26 27  1  0
 26 28  1  6
 26 29  1  0
 27 58  1  0
 27 59  1  0
 27 60  1  0
 28 61  1  0
 29 30  1  0
 29 31  1  0
 29 62  1  6
 30 63  1  0
 31 32  1  0
 31 64  1  1
M  END
>  <i_m_ct_stereo_status>  (273) 
1

>  <s_m_source_file>  (273) 
/var/tmp/pbs.5076255.sched01/tmpe6iyr0oq/80tt78e_gd.sdf

>  <i_m_source_file_index>  (273) 
32

>  <i_lp_mmshare_version>  (273) 
48012

>  <i_f3d_flags>  (273) 
0

>  <s_epik_input>  (273) 
W0NIM11PW0NAQF0xKFtDQF0yMzQpW0NASF0oW0NASF0oW09IXSlbQ0BdNChbQ0gzXSlbT0hdKVtDQF01NltDQEBIXTdDKFtDSDNdKShbQ0gzXSlPW0NAXShbT0hdKShbQ0BASF0xW09IXSlcQyg9W0NIXVxbQ0gyXVtDSDJdNylPW0NAQEhdNU9bQ0BdNihbQ0gzXSlbQ0gyXVtDQEBIXTJPMw==

>  <s_epik_cmdline>  (273) 
J2VwaWtfcHl0aG9uJywgJy1waHQnLCAnMi4wJywgJy1waCcsICc3LjAnLCAnLXRuJywgJzgnLCAnLW1hJywgJzIwMCcsICctaW1hZScsICc8aW5maWxlLm1hZT4nLCAnLW9tYWUnLCAnPG91dGZpbGUubWFlPic=

>  <r_epik_Ionization_Penalty>  (273) 
0.000402353

>  <r_epik_Ionization_Penalty_Charging>  (273) 
0

>  <r_epik_Ionization_Penalty_Neutral>  (273) 
0.000402353

>  <r_epik_State_Penalty>  (273) 
0.000182615

>  <r_epik_Charging_Adjusted_Penalty>  (273) 
0.000182615

>  <i_epik_Tot_Q>  (273) 
0

>  <i_epik_Tot_abs_Q>  (273) 
0

>  <s_epik_Chemistry_Notes>  (273) 
This compound contains an acetal/aminal-like group ( X-CH(R)-Y where X, Y are N, S, or O) that may be acid/base labile, releasing an aldehyde.

>  <s_lp_Force_Field>  (273) 
OPLS3e

>  <r_lp_Energy>  (273) 
281.383

>  <b_lp_Chiralities_Consistent>  (273) 
1

>  <s_lp_Variant>  (273) 
78:0-1

>  <s_i_glide_gridfile>  (273) 
pfpi4k_grid

>  <i_i_glide_lignum>  (273) 
32

>  <i_i_glide_rotatable_bonds>  (273) 
5

>  <r_i_docking_score>  (273) 
-2.75657

>  <r_i_glide_ligand_efficiency>  (273) 
-0.0861429

>  <r_i_glide_ligand_efficiency_sa>  (273) 
-0.273487

>  <r_i_glide_ligand_efficiency_ln>  (273) 
-0.617272

>  <r_i_glide_gscore>  (273) 
-2.75657

>  <r_i_glide_lipo>  (273) 
-0.111261

>  <r_i_glide_hbond>  (273) 
0

>  <r_i_glide_metal>  (273) 
-0

>  <r_i_glide_rewards>  (273) 
-0.323899

>  <r_i_glide_evdw>  (273) 
-17.9547

>  <r_i_glide_ecoul>  (273) 
-9.48698

>  <r_i_glide_erotb>  (273) 
0

>  <r_i_glide_esite>  (273) 
-0.000633025

>  <r_i_glide_emodel>  (273) 
-31.9738

>  <r_i_glide_energy>  (273) 
-27.4417

>  <r_i_glide_einternal>  (273) 
1.32264

>  <r_i_glide_intrahb_reward>  (273) 
-0

>  <i_i_glide_confnum>  (273) 
1

>  <i_i_glide_posenum>  (273) 
33

>  <r_i_glide_eff_state_penalty>  (273) 
0

>  <ligand_id>  (273) 
78

>  <original_smiles>  (273) 
COC12C(O)C3(O)OC(C)(C)C4CCC=C3OC3OC5(C)CC6OC61C(C)(O)C(O)C2C345

>  <smiles>  (273) 
[H]OC12OC(C([H])([H])[H])(C([H])([H])[H])C3([H])C([H])([H])C([H])([H])C([H])=C1OC1([H])OC4(C([H])([H])[H])C([H])([H])C5([H])OC56C(O[H])(C([H])([H])[H])C([H])(O[H])C([H])(C6(OC([H])([H])[H])C2([H])O[H])C134

$$$$
78:0:1
     RDKit          3D

 64 70  0  0  1  0  0  0  0  0999 V2000
    4.3175   -0.5494    4.3939 C   0  0  0  0  0  0  0  0  0  0  0  0
    3.4599    0.2652    5.1929 O   0  0  0  0  0  0  0  0  0  0  0  0
    2.0371    0.1302    5.0406 C   0  0  1  0  0  0  0  0  0  0  0  0
    1.6360    0.4663    3.5059 C   0  0  1  0  0  0  0  0  0  0  0  0
    0.8162   -0.4776    2.8562 O   0  0  0  0  0  0  0  0  0  0  0  0
    1.1375    1.9864    3.2041 C   0  0  1  0  0  0  0  0  0  0  0  0
    0.9789    2.1144    1.8049 O   0  0  0  0  0  0  0  0  0  0  0  0
   -0.1391    2.1011    3.8205 O   0  0  0  0  0  0  0  0  0  0  0  0
   -0.6080    3.1460    4.6828 C   0  0  0  0  0  0  0  0  0  0  0  0
   -1.0552    4.2483    3.6802 C   0  0  0  0  0  0  0  0  0  0  0  0
   -1.9845    2.7131    5.2628 C   0  0  0  0  0  0  0  0  0  0  0  0
    0.4009    3.4576    5.8972 C   0  0  2  0  0  0  0  0  0  0  0  0
    0.8958    4.9365    5.7525 C   0  0  0  0  0  0  0  0  0  0  0  0
    1.5169    5.4271    4.3938 C   0  0  0  0  0  0  0  0  0  0  0  0
    2.1842    4.4146    3.4367 C   0  0  0  0  0  0  0  0  0  0  0  0
    2.1963    3.0663    3.5788 C   0  0  0  0  0  0  0  0  0  0  0  0
    3.1901    2.5771    4.3616 O   0  0  0  0  0  0  0  0  0  0  0  0
    2.9137    2.9247    5.7045 C   0  0  2  0  0  0  0  0  0  0  0  0
    3.6863    2.3182    6.7223 O   0  0  0  0  0  0  0  0  0  0  0  0
    2.4850    2.0021    7.4525 C   0  0  2  0  0  0  0  0  0  0  0  0
    2.4198    2.9434    8.6609 C   0  0  0  0  0  0  0  0  0  0  0  0
    2.9637    0.4995    7.9109 C   0  0  0  0  0  0  0  0  0  0  0  0
    2.3063   -0.8664    7.4199 C   0  0  2  0  0  0  0  0  0  0  0  0
    2.8691   -1.8368    6.4859 O   0  0  0  0  0  0  0  0  0  0  0  0
    1.7705   -1.0732    5.9574 C   0  0  2  0  0  0  0  0  0  0  0  0
    0.2811   -1.4201    5.9316 C   0  0  1  0  0  0  0  0  0  0  0  0
   -0.1136   -2.4891    4.8916 C   0  0  0  0  0  0  0  0  0  0  0  0
   -0.1716   -2.0020    7.1538 O   0  0  0  0  0  0  0  0  0  0  0  0
   -0.3137    0.0424    5.7546 C   0  0  1  0  0  0  0  0  0  0  0  0
   -1.3068    0.2884    6.7519 O   0  0  0  0  0  0  0  0  0  0  0  0
    1.0208    0.9285    5.8311 C   0  0  2  0  0  0  0  0  0  0  0  0
    1.5297    2.3452    6.1836 C   0  0  1  0  0  0  0  0  0  0  0  0
    5.2578   -0.6895    4.9288 H   0  0  0  0  0  0  0  0  0  0  0  0
    4.5592   -0.0677    3.4478 H   0  0  0  0  0  0  0  0  0  0  0  0
    3.8965   -1.5341    4.1900 H   0  0  0  0  0  0  0  0  0  0  0  0
    2.5290    0.3772    2.8983 H   0  0  0  0  0  0  0  0  0  0  0  0
    0.8005   -0.2413    1.9349 H   0  0  0  0  0  0  0  0  0  0  0  0
    0.6692    3.0024    1.5903 H   0  0  0  0  0  0  0  0  0  0  0  0
   -1.3258    5.1765    4.1746 H   0  0  0  0  0  0  0  0  0  0  0  0
   -1.9264    3.9249    3.1043 H   0  0  0  0  0  0  0  0  0  0  0  0
   -0.3234    4.4562    2.9064 H   0  0  0  0  0  0  0  0  0  0  0  0
   -1.9784    2.5606    6.3361 H   0  0  0  0  0  0  0  0  0  0  0  0
   -2.3499    1.8133    4.7651 H   0  0  0  0  0  0  0  0  0  0  0  0
   -2.7614    3.4653    5.1271 H   0  0  0  0  0  0  0  0  0  0  0  0
   -0.1754    3.5087    6.8179 H   0  0  0  0  0  0  0  0  0  0  0  0
    0.0553    5.5968    5.9708 H   0  0  0  0  0  0  0  0  0  0  0  0
    1.5721    5.1787    6.5711 H   0  0  0  0  0  0  0  0  0  0  0  0
    0.8041    6.0380    3.8387 H   0  0  0  0  0  0  0  0  0  0  0  0
    2.2729    6.1725    4.6492 H   0  0  0  0  0  0  0  0  0  0  0  0
    3.2003    4.7837    3.4700 H   0  0  0  0  0  0  0  0  0  0  0  0
    3.1152    3.9773    5.8408 H   0  0  0  0  0  0  0  0  0  0  0  0
    1.5536    2.7198    9.2865 H   0  0  0  0  0  0  0  0  0  0  0  0
    2.3451    3.9867    8.3536 H   0  0  0  0  0  0  0  0  0  0  0  0
    3.3150    2.8528    9.2792 H   0  0  0  0  0  0  0  0  0  0  0  0
    4.0456    0.3880    7.8119 H   0  0  0  0  0  0  0  0  0  0  0  0
    2.8255    0.4606    8.9925 H   0  0  0  0  0  0  0  0  0  0  0  0
    1.8509   -1.3845    8.2592 H   0  0  0  0  0  0  0  0  0  0  0  0
    0.5467   -2.5175    4.0296 H   0  0  0  0  0  0  0  0  0  0  0  0
   -1.1321   -2.3294    4.5425 H   0  0  0  0  0  0  0  0  0  0  0  0
   -0.0690   -3.5010    5.2969 H   0  0  0  0  0  0  0  0  0  0  0  0
    0.3140   -2.8062    7.2767 H   0  0  0  0  0  0  0  0  0  0  0  0
   -0.8138    0.0801    4.7884 H   0  0  0  0  0  0  0  0  0  0  0  0
   -1.6307    1.1625    6.6056 H   0  0  0  0  0  0  0  0  0  0  0  0
    0.8306    0.7474    6.8769 H   0  0  0  0  0  0  0  0  0  0  0  0
  1  2  1  0
  1 33  1  0
  1 34  1  0
  1 35  1  0
  3  2  1  1
  3 25  1  0
  3 31  1  0
  3  4  1  0
  4  5  1  0
  4  6  1  0
  4 36  1  6
  5 37  1  0
  6 16  1  0
  6  7  1  6
  6  8  1  0
  7 38  1  0
  8  9  1  0
  9 10  1  0
  9 11  1  0
  9 12  1  0
 10 39  1  0
 10 40  1  0
 10 41  1  0
 11 42  1  0
 11 43  1  0
 11 44  1  0
 12 32  1  0
 12 13  1  0
 12 45  1  1
 13 14  1  0
 13 46  1  0
 13 47  1  0
 14 15  1  0
 14 48  1  0
 14 49  1  0
 15 16  2  3
 15 50  1  0
 16 17  1  0
 17 18  1  0
 18 32  1  0
 18 19  1  0
 18 51  1  6
 19 20  1  0
 32 20  1  1
 20 21  1  1
 20 22  1  0
 21 52  1  0
 21 53  1  0
 21 54  1  0
 22 23  1  0
 22 55  1  0
 22 56  1  0
 23 25  1  0
 23 24  1  0
 23 57  1  1
 25 24  1  6
 25 26  1  0
 26 27  1  0
 26 28  1  1
 26 29  1  0
 27 58  1  0
 27 59  1  0
 27 60  1  0
 28 61  1  0
 29 30  1  0
 29 31  1  0
 29 62  1  6
 30 63  1  0
 31 32  1  0
 31 64  1  1
M  END
>  <i_m_ct_stereo_status>  (274) 
1

>  <s_m_source_file>  (274) 
/var/tmp/pbs.5076255.sched01/tmpe6iyr0oq/80tt78e_gd.sdf

>  <i_m_source_file_index>  (274) 
32

>  <i_lp_mmshare_version>  (274) 
48012

>  <i_f3d_flags>  (274) 
0

>  <s_epik_input>  (274) 
W0NIM11PW0NAQF0xKFtDQF0yMzQpW0NASF0oW0NASF0oW09IXSlbQ0BdNChbQ0gzXSlbT0hdKVtDQF01NltDQEBIXTdDKFtDSDNdKShbQ0gzXSlPW0NAXShbT0hdKShbQ0BASF0xW09IXSlcQyg9W0NIXVxbQ0gyXVtDSDJdNylPW0NAQEhdNU9bQ0BdNihbQ0gzXSlbQ0gyXVtDQEBIXTJPMw==

>  <s_epik_cmdline>  (274) 
J2VwaWtfcHl0aG9uJywgJy1waHQnLCAnMi4wJywgJy1waCcsICc3LjAnLCAnLXRuJywgJzgnLCAnLW1hJywgJzIwMCcsICctaW1hZScsICc8aW5maWxlLm1hZT4nLCAnLW9tYWUnLCAnPG91dGZpbGUubWFlPic=

>  <r_epik_Ionization_Penalty>  (274) 
0.000402353

>  <r_epik_Ionization_Penalty_Charging>  (274) 
0

>  <r_epik_Ionization_Penalty_Neutral>  (274) 
0.000402353

>  <r_epik_State_Penalty>  (274) 
0.000182615

>  <r_epik_Charging_Adjusted_Penalty>  (274) 
0.000182615

>  <i_epik_Tot_Q>  (274) 
0

>  <i_epik_Tot_abs_Q>  (274) 
0

>  <s_epik_Chemistry_Notes>  (274) 
This compound contains an acetal/aminal-like group ( X-CH(R)-Y where X, Y are N, S, or O) that may be acid/base labile, releasing an aldehyde.

>  <s_lp_Force_Field>  (274) 
OPLS3e

>  <r_lp_Energy>  (274) 
281.383

>  <b_lp_Chiralities_Consistent>  (274) 
1

>  <s_lp_Variant>  (274) 
78:0-1

>  <s_i_glide_gridfile>  (274) 
pfpi4k_grid

>  <i_i_glide_lignum>  (274) 
32

>  <i_i_glide_rotatable_bonds>  (274) 
5

>  <r_i_docking_score>  (274) 
-2.3999

>  <r_i_glide_ligand_efficiency>  (274) 
-0.0749969

>  <r_i_glide_ligand_efficiency_sa>  (274) 
-0.2381

>  <r_i_glide_ligand_efficiency_ln>  (274) 
-0.537403

>  <r_i_glide_gscore>  (274) 
-2.3999

>  <r_i_glide_lipo>  (274) 
-0.0457665

>  <r_i_glide_hbond>  (274) 
0

>  <r_i_glide_metal>  (274) 
-0

>  <r_i_glide_rewards>  (274) 
-0.323899

>  <r_i_glide_evdw>  (274) 
-14.8394

>  <r_i_glide_ecoul>  (274) 
-8.32856

>  <r_i_glide_erotb>  (274) 
0

>  <r_i_glide_esite>  (274) 
-0.0389823

>  <r_i_glide_emodel>  (274) 
-27.3464

>  <r_i_glide_energy>  (274) 
-23.168

>  <r_i_glide_einternal>  (274) 
0.793441

>  <r_i_glide_intrahb_reward>  (274) 
-0

>  <i_i_glide_confnum>  (274) 
2

>  <i_i_glide_posenum>  (274) 
11

>  <r_i_glide_eff_state_penalty>  (274) 
0

>  <ligand_id>  (274) 
78

>  <original_smiles>  (274) 
COC12C(O)C3(O)OC(C)(C)C4CCC=C3OC3OC5(C)CC6OC61C(C)(O)C(O)C2C345

>  <smiles>  (274) 
[H]OC12OC(C([H])([H])[H])(C([H])([H])[H])C3([H])C([H])([H])C([H])([H])C([H])=C1OC1([H])OC4(C([H])([H])[H])C([H])([H])C5([H])OC56C(O[H])(C([H])([H])[H])C([H])(O[H])C([H])(C6(OC([H])([H])[H])C2([H])O[H])C134

$$$$
78:0:2
     RDKit          3D

 64 70  0  0  1  0  0  0  0  0999 V2000
    0.1273   -1.1324    6.3137 C   0  0  0  0  0  0  0  0  0  0  0  0
    0.2397    0.2026    6.8043 O   0  0  0  0  0  0  0  0  0  0  0  0
    0.3371    1.2791    5.8546 C   0  0  1  0  0  0  0  0  0  0  0  0
    1.6351    1.0467    4.9121 C   0  0  1  0  0  0  0  0  0  0  0  0
    1.4298    1.1714    3.5225 O   0  0  0  0  0  0  0  0  0  0  0  0
    2.9913    1.8271    5.3520 C   0  0  1  0  0  0  0  0  0  0  0  0
    4.0352    1.3994    4.5099 O   0  0  0  0  0  0  0  0  0  0  0  0
    2.7434    3.2024    5.0963 O   0  0  0  0  0  0  0  0  0  0  0  0
    2.9835    4.3174    5.9685 C   0  0  0  0  0  0  0  0  0  0  0  0
    4.5034    4.6024    5.7711 C   0  0  0  0  0  0  0  0  0  0  0  0
    2.3623    5.5790    5.3043 C   0  0  0  0  0  0  0  0  0  0  0  0
    2.3326    4.1176    7.4280 C   0  0  2  0  0  0  0  0  0  0  0  0
    3.4894    4.1239    8.4807 C   0  0  0  0  0  0  0  0  0  0  0  0
    4.7208    3.1638    8.2993 C   0  0  0  0  0  0  0  0  0  0  0  0
    4.5711    1.8554    7.4905 C   0  0  0  0  0  0  0  0  0  0  0  0
    3.4735    1.4639    6.7939 C   0  0  0  0  0  0  0  0  0  0  0  0
    2.5250    0.8208    7.5166 O   0  0  0  0  0  0  0  0  0  0  0  0
    1.9013    1.7584    8.3692 C   0  0  2  0  0  0  0  0  0  0  0  0
    0.7164    1.3652    9.0353 O   0  0  0  0  0  0  0  0  0  0  0  0
    0.0740    2.5943    8.6432 C   0  0  2  0  0  0  0  0  0  0  0  0
   -0.0294    3.4892    9.8809 C   0  0  0  0  0  0  0  0  0  0  0  0
   -1.3751    1.9136    8.2972 C   0  0  0  0  0  0  0  0  0  0  0  0
   -2.0124    1.7850    6.8411 C   0  0  2  0  0  0  0  0  0  0  0  0
   -2.1380    0.5752    6.0495 O   0  0  0  0  0  0  0  0  0  0  0  0
   -1.1533    1.5047    5.5545 C   0  0  2  0  0  0  0  0  0  0  0  0
   -1.2955    2.6284    4.5167 C   0  0  1  0  0  0  0  0  0  0  0  0
   -1.3596    2.1520    3.0487 C   0  0  0  0  0  0  0  0  0  0  0  0
   -2.5172    3.3449    4.6540 O   0  0  0  0  0  0  0  0  0  0  0  0
   -0.0655    3.5351    4.9495 C   0  0  1  0  0  0  0  0  0  0  0  0
   -0.4908    4.8844    5.1478 O   0  0  0  0  0  0  0  0  0  0  0  0
    0.4632    2.7434    6.2392 C   0  0  2  0  0  0  0  0  0  0  0  0
    1.2392    2.9415    7.5624 C   0  0  1  0  0  0  0  0  0  0  0  0
   -0.3927   -1.7333    7.0592 H   0  0  0  0  0  0  0  0  0  0  0  0
    1.1072   -1.5846    6.1687 H   0  0  0  0  0  0  0  0  0  0  0  0
   -0.4315   -1.1950    5.3788 H   0  0  0  0  0  0  0  0  0  0  0  0
    1.9241    0.0019    4.9789 H   0  0  0  0  0  0  0  0  0  0  0  0
    1.2380    2.0753    3.3146 H   0  0  0  0  0  0  0  0  0  0  0  0
    3.7885    1.6173    3.6202 H   0  0  0  0  0  0  0  0  0  0  0  0
    4.8862    5.3540    6.4607 H   0  0  0  0  0  0  0  0  0  0  0  0
    4.6888    4.9860    4.7682 H   0  0  0  0  0  0  0  0  0  0  0  0
    5.1285    3.7157    5.8131 H   0  0  0  0  0  0  0  0  0  0  0  0
    1.5262    5.9954    5.8573 H   0  0  0  0  0  0  0  0  0  0  0  0
    2.0530    5.3794    4.2775 H   0  0  0  0  0  0  0  0  0  0  0  0
    3.0590    6.4162    5.2476 H   0  0  0  0  0  0  0  0  0  0  0  0
    1.7920    5.0247    7.6868 H   0  0  0  0  0  0  0  0  0  0  0  0
    3.8891    5.1382    8.5360 H   0  0  0  0  0  0  0  0  0  0  0  0
    3.0773    4.0012    9.4800 H   0  0  0  0  0  0  0  0  0  0  0  0
    5.5873    3.7154    7.9368 H   0  0  0  0  0  0  0  0  0  0  0  0
    5.0502    2.8875    9.3034 H   0  0  0  0  0  0  0  0  0  0  0  0
    4.7494    1.1436    8.2866 H   0  0  0  0  0  0  0  0  0  0  0  0
    2.5730    1.9934    9.1836 H   0  0  0  0  0  0  0  0  0  0  0  0
   -0.5588    4.4158    9.6501 H   0  0  0  0  0  0  0  0  0  0  0  0
    0.9518    3.7547   10.2712 H   0  0  0  0  0  0  0  0  0  0  0  0
   -0.5707    2.9834   10.6825 H   0  0  0  0  0  0  0  0  0  0  0  0
   -1.4545    0.9378    8.7672 H   0  0  0  0  0  0  0  0  0  0  0  0
   -2.1198    2.4961    8.8424 H   0  0  0  0  0  0  0  0  0  0  0  0
   -2.9266    2.3686    6.7789 H   0  0  0  0  0  0  0  0  0  0  0  0
   -0.8487    1.2113    2.8714 H   0  0  0  0  0  0  0  0  0  0  0  0
   -0.9596    2.9052    2.3674 H   0  0  0  0  0  0  0  0  0  0  0  0
   -2.3819    1.9658    2.7200 H   0  0  0  0  0  0  0  0  0  0  0  0
   -3.2141    2.7917    4.3380 H   0  0  0  0  0  0  0  0  0  0  0  0
    0.6406    3.5506    4.1226 H   0  0  0  0  0  0  0  0  0  0  0  0
    0.2841    5.4214    5.1770 H   0  0  0  0  0  0  0  0  0  0  0  0
   -0.3573    3.3050    6.6540 H   0  0  0  0  0  0  0  0  0  0  0  0
  1  2  1  0
  1 33  1  0
  1 34  1  0
  1 35  1  0
  3  2  1  1
  3 25  1  0
  3 31  1  0
  3  4  1  0
  4  5  1  0
  4  6  1  0
  4 36  1  6
  5 37  1  0
  6 16  1  0
  6  7  1  6
  6  8  1  0
  7 38  1  0
  8  9  1  0
  9 10  1  0
  9 11  1  0
  9 12  1  0
 10 39  1  0
 10 40  1  0
 10 41  1  0
 11 42  1  0
 11 43  1  0
 11 44  1  0
 12 32  1  0
 12 13  1  0
 12 45  1  1
 13 14  1  0
 13 46  1  0
 13 47  1  0
 14 15  1  0
 14 48  1  0
 14 49  1  0
 15 16  2  3
 15 50  1  0
 16 17  1  0
 17 18  1  0
 18 32  1  0
 18 19  1  0
 18 51  1  1
 19 20  1  0
 32 20  1  1
 20 21  1  1
 20 22  1  0
 21 52  1  0
 21 53  1  0
 21 54  1  0
 22 23  1  0
 22 55  1  0
 22 56  1  0
 23 25  1  0
 23 24  1  0
 23 57  1  6
 25 24  1  6
 25 26  1  0
 26 27  1  0
 26 28  1  1
 26 29  1  0
 27 58  1  0
 27 59  1  0
 27 60  1  0
 28 61  1  0
 29 30  1  0
 29 31  1  0
 29 62  1  6
 30 63  1  0
 31 32  1  0
 31 64  1  1
M  END
>  <i_m_ct_stereo_status>  (275) 
1

>  <s_m_source_file>  (275) 
/var/tmp/pbs.5076255.sched01/tmpe6iyr0oq/80tt78e_gd.sdf

>  <i_m_source_file_index>  (275) 
32

>  <i_lp_mmshare_version>  (275) 
48012

>  <i_f3d_flags>  (275) 
0

>  <s_epik_input>  (275) 
W0NIM11PW0NAQF0xKFtDQF0yMzQpW0NASF0oW0NASF0oW09IXSlbQ0BdNChbQ0gzXSlbT0hdKVtDQF01NltDQEBIXTdDKFtDSDNdKShbQ0gzXSlPW0NAXShbT0hdKShbQ0BASF0xW09IXSlcQyg9W0NIXVxbQ0gyXVtDSDJdNylPW0NAQEhdNU9bQ0BdNihbQ0gzXSlbQ0gyXVtDQEBIXTJPMw==

>  <s_epik_cmdline>  (275) 
J2VwaWtfcHl0aG9uJywgJy1waHQnLCAnMi4wJywgJy1waCcsICc3LjAnLCAnLXRuJywgJzgnLCAnLW1hJywgJzIwMCcsICctaW1hZScsICc8aW5maWxlLm1hZT4nLCAnLW9tYWUnLCAnPG91dGZpbGUubWFlPic=

>  <r_epik_Ionization_Penalty>  (275) 
0.000402353

>  <r_epik_Ionization_Penalty_Charging>  (275) 
0

>  <r_epik_Ionization_Penalty_Neutral>  (275) 
0.000402353

>  <r_epik_State_Penalty>  (275) 
0.000182615

>  <r_epik_Charging_Adjusted_Penalty>  (275) 
0.000182615

>  <i_epik_Tot_Q>  (275) 
0

>  <i_epik_Tot_abs_Q>  (275) 
0

>  <s_epik_Chemistry_Notes>  (275) 
This compound contains an acetal/aminal-like group ( X-CH(R)-Y where X, Y are N, S, or O) that may be acid/base labile, releasing an aldehyde.

>  <s_lp_Force_Field>  (275) 
OPLS3e

>  <r_lp_Energy>  (275) 
281.383

>  <b_lp_Chiralities_Consistent>  (275) 
1

>  <s_lp_Variant>  (275) 
78:0-1

>  <s_i_glide_gridfile>  (275) 
pfpi4k_grid

>  <i_i_glide_lignum>  (275) 
32

>  <i_i_glide_rotatable_bonds>  (275) 
5

>  <r_i_docking_score>  (275) 
-2.03324

>  <r_i_glide_ligand_efficiency>  (275) 
-0.0635387

>  <r_i_glide_ligand_efficiency_sa>  (275) 
-0.201723

>  <r_i_glide_ligand_efficiency_ln>  (275) 
-0.455298

>  <r_i_glide_gscore>  (275) 
-2.03324

>  <r_i_glide_lipo>  (275) 
-4.88294e-05

>  <r_i_glide_hbond>  (275) 
-0.101585

>  <r_i_glide_metal>  (275) 
-0

>  <r_i_glide_rewards>  (275) 
-0.323899

>  <r_i_glide_evdw>  (275) 
-15.8863

>  <r_i_glide_ecoul>  (275) 
-5.42191

>  <r_i_glide_erotb>  (275) 
0

>  <r_i_glide_esite>  (275) 
-0.000103539

>  <r_i_glide_emodel>  (275) 
-24.7774

>  <r_i_glide_energy>  (275) 
-21.3082

>  <r_i_glide_einternal>  (275) 
0.753539

>  <r_i_glide_intrahb_reward>  (275) 
-0

>  <i_i_glide_confnum>  (275) 
1

>  <i_i_glide_posenum>  (275) 
4

>  <r_i_glide_eff_state_penalty>  (275) 
0

>  <ligand_id>  (275) 
78

>  <original_smiles>  (275) 
COC12C(O)C3(O)OC(C)(C)C4CCC=C3OC3OC5(C)CC6OC61C(C)(O)C(O)C2C345

>  <smiles>  (275) 
[H]OC12OC(C([H])([H])[H])(C([H])([H])[H])C3([H])C([H])([H])C([H])([H])C([H])=C1OC1([H])OC4(C([H])([H])[H])C([H])([H])C5([H])OC56C(O[H])(C([H])([H])[H])C([H])(O[H])C([H])(C6(OC([H])([H])[H])C2([H])O[H])C134

$$$$
80:0:0
     RDKit          3D

 56 60  0  0  1  0  0  0  0  0999 V2000
    1.9019    1.3488    6.2497 C   0  0  0  0  0  0  0  0  0  0  0  0
    0.8128    1.2143    5.1514 C   0  0  2  0  0  0  0  0  0  0  0  0
    1.3075    0.4379    4.0618 O   0  0  0  0  0  0  0  0  0  0  0  0
    2.3607    0.9678    3.3072 C   0  0  1  0  0  0  0  0  0  0  0  0
    2.7834    0.1238    2.2947 O   0  0  0  0  0  0  0  0  0  0  0  0
    3.1049   -1.2167    2.6640 C   0  0  2  0  0  0  0  0  0  0  0  0
    4.3798   -1.3759    3.5615 C   0  0  0  0  0  0  0  0  0  0  0  0
    5.1902   -2.6824    3.2985 C   0  0  2  0  0  0  0  0  0  0  0  0
    6.0411   -2.6122    1.9963 C   0  0  0  0  0  0  0  0  0  0  0  0
    5.0298   -2.8473    0.8773 C   0  0  1  0  0  0  0  0  0  0  0  0
    5.3772   -3.9291   -0.1085 C   0  0  0  0  0  0  0  0  0  0  0  0
    4.4220   -4.8660   -0.1853 C   0  0  0  0  0  0  0  0  0  0  0  0
    3.2560   -4.6290    0.7314 C   0  0  0  0  0  0  0  0  0  0  0  0
    3.7852   -3.4403    1.5451 C   0  0  1  0  0  0  0  0  0  0  0  0
    4.1822   -3.8053    2.9796 C   0  0  1  0  0  0  0  0  0  0  0  0
    4.8566   -5.0509    3.0744 O   0  0  0  0  0  0  0  0  0  0  0  0
    3.1828   -2.0305    1.3795 C   0  0  2  0  0  0  0  0  0  0  0  0
    4.2148   -1.6747    0.2830 C   0  0  0  0  0  0  0  0  0  0  0  0
    4.8823   -0.3066    0.3318 C   0  0  0  0  0  0  0  0  0  0  0  0
    3.6903   -1.7903   -1.1572 C   0  0  0  0  0  0  0  0  0  0  0  0
    1.9231    2.3264    2.6677 C   0  0  1  0  0  0  0  0  0  0  0  0
    0.9294    2.1407    1.6689 O   0  0  0  0  0  0  0  0  0  0  0  0
    1.3719    3.2571    3.7760 C   0  0  1  0  0  0  0  0  0  0  0  0
    0.9630    4.5192    3.2964 O   0  0  0  0  0  0  0  0  0  0  0  0
    0.2867    2.5710    4.6341 C   0  0  1  0  0  0  0  0  0  0  0  0
   -0.8843    2.3520    3.8775 O   0  0  0  0  0  0  0  0  0  0  0  0
    1.5281    1.8799    7.1235 H   0  0  0  0  0  0  0  0  0  0  0  0
    2.7831    1.9016    5.9310 H   0  0  0  0  0  0  0  0  0  0  0  0
    2.2534    0.3639    6.5543 H   0  0  0  0  0  0  0  0  0  0  0  0
   -0.0303    0.6649    5.5770 H   0  0  0  0  0  0  0  0  0  0  0  0
    3.2467    1.0898    3.9307 H   0  0  0  0  0  0  0  0  0  0  0  0
    2.2722   -1.6394    3.2261 H   0  0  0  0  0  0  0  0  0  0  0  0
    5.0347   -0.5063    3.4796 H   0  0  0  0  0  0  0  0  0  0  0  0
    4.0432   -1.3871    4.6005 H   0  0  0  0  0  0  0  0  0  0  0  0
    5.8149   -2.9152    4.1508 H   0  0  0  0  0  0  0  0  0  0  0  0
    6.5782   -1.6725    1.8963 H   0  0  0  0  0  0  0  0  0  0  0  0
    6.7901   -3.3976    1.9720 H   0  0  0  0  0  0  0  0  0  0  0  0
    6.2435   -3.9237   -0.7368 H   0  0  0  0  0  0  0  0  0  0  0  0
    4.4686   -5.6724   -0.8828 H   0  0  0  0  0  0  0  0  0  0  0  0
    2.3762   -4.3839    0.1322 H   0  0  0  0  0  0  0  0  0  0  0  0
    3.0372   -5.5323    1.3084 H   0  0  0  0  0  0  0  0  0  0  0  0
    3.3275   -3.8201    3.6596 H   0  0  0  0  0  0  0  0  0  0  0  0
    5.5566   -5.0541    2.4404 H   0  0  0  0  0  0  0  0  0  0  0  0
    2.1950   -2.1079    0.9124 H   0  0  0  0  0  0  0  0  0  0  0  0
    4.2125    0.5064    0.0540 H   0  0  0  0  0  0  0  0  0  0  0  0
    5.7581   -0.2749   -0.3186 H   0  0  0  0  0  0  0  0  0  0  0  0
    5.2201   -0.0489    1.3318 H   0  0  0  0  0  0  0  0  0  0  0  0
    3.0230   -0.9621   -1.4051 H   0  0  0  0  0  0  0  0  0  0  0  0
    3.1101   -2.6938   -1.3241 H   0  0  0  0  0  0  0  0  0  0  0  0
    4.5010   -1.7757   -1.8844 H   0  0  0  0  0  0  0  0  0  0  0  0
    2.8206    2.7591    2.2266 H   0  0  0  0  0  0  0  0  0  0  0  0
    0.6726    3.0032    1.2699 H   0  0  0  0  0  0  0  0  0  0  0  0
    2.1903    3.5018    4.4490 H   0  0  0  0  0  0  0  0  0  0  0  0
    0.5956    4.4208    2.3992 H   0  0  0  0  0  0  0  0  0  0  0  0
   -0.0050    3.2016    5.4798 H   0  0  0  0  0  0  0  0  0  0  0  0
   -0.5912    2.0754    3.0160 H   0  0  0  0  0  0  0  0  0  0  0  0
  1  2  1  0
  1 27  1  0
  1 28  1  0
  1 29  1  0
  2 25  1  0
  2  3  1  0
  2 30  1  1
  3  4  1  0
  4  5  1  0
  4 21  1  0
  4 31  1  1
  5  6  1  0
  6 17  1  0
  6  7  1  0
  6 32  1  1
  7  8  1  0
  7 33  1  0
  7 34  1  0
  8 15  1  0
  8  9  1  0
  8 35  1  1
 10  9  1  1
  9 36  1  0
  9 37  1  0
 10 14  1  0
 10 18  1  0
 10 11  1  0
 11 12  2  0
 11 38  1  0
 12 13  1  0
 12 39  1  0
 14 13  1  6
 13 40  1  0
 13 41  1  0
 14 15  1  0
 14 17  1  0
 15 16  1  0
 15 42  1  1
 16 43  1  0
 17 18  1  0
 17 44  1  6
 18 19  1  0
 18 20  1  0
 19 45  1  0
 19 46  1  0
 19 47  1  0
 20 48  1  0
 20 49  1  0
 20 50  1  0
 21 22  1  0
 21 23  1  0
 21 51  1  6
 22 52  1  0
 23 24  1  0
 23 25  1  0
 23 53  1  1
 24 54  1  0
 25 26  1  0
 25 55  1  1
 26 56  1  0
M  END
>  <i_m_ct_stereo_status>  (276) 
1

>  <s_m_source_file>  (276) 
/var/tmp/pbs.5076255.sched01/tmpe6iyr0oq/80tt78e_gd.sdf

>  <i_m_source_file_index>  (276) 
34

>  <i_lp_mmshare_version>  (276) 
48012

>  <i_f3d_flags>  (276) 
0

>  <s_epik_input>  (276) 
W09IXVtDQEBIXTFbQ0BIXShbT0hdKVtDQEhdKFtPSF0pW0NAQEhdKE9bQ0BIXTFbQ0gzXSlPW0NASF0oW0NIMl1bQ0BIXShbQ0gyXTIpW0NAQEhdM1tPSF0pW0NAQEhdKEM0KFtDSDNdKVtDSDNdKVtDQF0zKFtDQF0yNDUpW0NIMl1bQ0hdPVtDSF01

>  <s_epik_cmdline>  (276) 
J2VwaWtfcHl0aG9uJywgJy1waHQnLCAnMi4wJywgJy1waCcsICc3LjAnLCAnLXRuJywgJzgnLCAnLW1hJywgJzIwMCcsICctaW1hZScsICc8aW5maWxlLm1hZT4nLCAnLW9tYWUnLCAnPG91dGZpbGUubWFlPic=

>  <r_lp_tautomer_probability>  (276) 
1

>  <r_epik_Ionization_Penalty>  (276) 
2.20255e-06

>  <r_epik_Ionization_Penalty_Charging>  (276) 
0

>  <r_epik_Ionization_Penalty_Neutral>  (276) 
2.20255e-06

>  <r_epik_State_Penalty>  (276) 
-0

>  <r_epik_Charging_Adjusted_Penalty>  (276) 
0

>  <i_epik_Tot_Q>  (276) 
0

>  <i_epik_Tot_abs_Q>  (276) 
0

>  <s_epik_Chemistry_Notes>  (276) 
This compound contains an acetal/aminal-like group ( X-CH(R)-Y where X, Y are N, S, or O) that may be acid/base labile, releasing an aldehyde.

>  <s_lp_Force_Field>  (276) 
OPLS3e

>  <r_lp_Energy>  (276) 
58.3776

>  <b_lp_Chiralities_Consistent>  (276) 
1

>  <s_lp_Variant>  (276) 
80:0-1

>  <s_i_glide_gridfile>  (276) 
pfpi4k_grid

>  <i_i_glide_lignum>  (276) 
34

>  <i_i_glide_rotatable_bonds>  (276) 
6

>  <r_i_docking_score>  (276) 
-3.67191

>  <r_i_glide_ligand_efficiency>  (276) 
-0.141227

>  <r_i_glide_ligand_efficiency_sa>  (276) 
-0.418385

>  <r_i_glide_ligand_efficiency_ln>  (276) 
-0.862336

>  <r_i_glide_gscore>  (276) 
-3.67191

>  <r_i_glide_lipo>  (276) 
-0.370833

>  <r_i_glide_hbond>  (276) 
0

>  <r_i_glide_metal>  (276) 
-0

>  <r_i_glide_rewards>  (276) 
-1.41058

>  <r_i_glide_evdw>  (276) 
-14.75

>  <r_i_glide_ecoul>  (276) 
-9.55879

>  <r_i_glide_erotb>  (276) 
0.286668

>  <r_i_glide_esite>  (276) 
-0.00584978

>  <r_i_glide_emodel>  (276) 
-35.2915

>  <r_i_glide_energy>  (276) 
-24.3088

>  <r_i_glide_einternal>  (276) 
1.927

>  <r_i_glide_intrahb_reward>  (276) 
-0.5

>  <i_i_glide_confnum>  (276) 
3

>  <i_i_glide_posenum>  (276) 
2

>  <r_i_glide_eff_state_penalty>  (276) 
0

>  <ligand_id>  (276) 
80

>  <original_smiles>  (276) 
CC1OC(OC2CC3CC45C=CCC4(C3O)C2C5(C)C)C(O)C(O)C1O

>  <smiles>  (276) 
[H]OC1([H])C([H])(OC2([H])C([H])([H])C3([H])C([H])([H])C45C([H])=C([H])C([H])([H])C4(C3([H])O[H])C2([H])C5(C([H])([H])[H])C([H])([H])[H])OC([H])(C([H])([H])[H])C([H])(O[H])C1([H])O[H]

$$$$
80:0:1
     RDKit          3D

 56 60  0  0  1  0  0  0  0  0999 V2000
    3.6683   -1.1843    2.4259 C   0  0  0  0  0  0  0  0  0  0  0  0
    3.1745   -1.7212    1.0668 C   0  0  2  0  0  0  0  0  0  0  0  0
    2.9938   -3.1387    1.0934 O   0  0  0  0  0  0  0  0  0  0  0  0
    4.1398   -3.9207    1.2698 C   0  0  1  0  0  0  0  0  0  0  0  0
    3.8477   -5.2880    1.3240 O   0  0  0  0  0  0  0  0  0  0  0  0
    2.8818   -5.6983    2.2910 C   0  0  2  0  0  0  0  0  0  0  0  0
    3.2159   -5.3806    3.7905 C   0  0  0  0  0  0  0  0  0  0  0  0
    2.6787   -6.4536    4.8047 C   0  0  2  0  0  0  0  0  0  0  0  0
    3.5423   -7.7355    4.8103 C   0  0  0  0  0  0  0  0  0  0  0  0
    3.0984   -8.4875    3.5557 C   0  0  1  0  0  0  0  0  0  0  0  0
    2.6828   -9.9342    3.7814 C   0  0  0  0  0  0  0  0  0  0  0  0
    1.4575  -10.1951    3.3596 C   0  0  0  0  0  0  0  0  0  0  0  0
    0.7522   -8.9827    2.7859 C   0  0  0  0  0  0  0  0  0  0  0  0
    1.7594   -7.8701    3.1220 C   0  0  1  0  0  0  0  0  0  0  0  0
    1.3192   -6.9556    4.2880 C   0  0  1  0  0  0  0  0  0  0  0  0
    0.6804   -7.6338    5.3487 O   0  0  0  0  0  0  0  0  0  0  0  0
    2.6014   -7.1753    2.0211 C   0  0  2  0  0  0  0  0  0  0  0  0
    3.7337   -8.2122    2.1741 C   0  0  0  0  0  0  0  0  0  0  0  0
    5.1933   -7.7190    2.1954 C   0  0  0  0  0  0  0  0  0  0  0  0
    3.7467   -9.3156    1.1215 C   0  0  0  0  0  0  0  0  0  0  0  0
    5.1259   -3.6755    0.1064 C   0  0  1  0  0  0  0  0  0  0  0  0
    4.6424   -4.1814   -1.1207 O   0  0  0  0  0  0  0  0  0  0  0  0
    5.3921   -2.1592   -0.0375 C   0  0  1  0  0  0  0  0  0  0  0  0
    6.2055   -1.8848   -1.1610 O   0  0  0  0  0  0  0  0  0  0  0  0
    4.0864   -1.3456   -0.1174 C   0  0  1  0  0  0  0  0  0  0  0  0
    3.4094   -1.5629   -1.3464 O   0  0  0  0  0  0  0  0  0  0  0  0
    3.6993   -0.0935    2.4386 H   0  0  0  0  0  0  0  0  0  0  0  0
    4.6643   -1.5284    2.7027 H   0  0  0  0  0  0  0  0  0  0  0  0
    3.0006   -1.4924    3.2257 H   0  0  0  0  0  0  0  0  0  0  0  0
    2.1917   -1.2915    0.8847 H   0  0  0  0  0  0  0  0  0  0  0  0
    4.6263   -3.6812    2.2165 H   0  0  0  0  0  0  0  0  0  0  0  0
    1.9520   -5.1741    2.0653 H   0  0  0  0  0  0  0  0  0  0  0  0
    4.2867   -5.2519    3.9548 H   0  0  0  0  0  0  0  0  0  0  0  0
    2.7609   -4.4174    4.0381 H   0  0  0  0  0  0  0  0  0  0  0  0
    2.6054   -6.0140    5.8113 H   0  0  0  0  0  0  0  0  0  0  0  0
    4.6139   -7.5301    4.8429 H   0  0  0  0  0  0  0  0  0  0  0  0
    3.3276   -8.3421    5.7115 H   0  0  0  0  0  0  0  0  0  0  0  0
    3.3450  -10.6862    4.1776 H   0  0  0  0  0  0  0  0  0  0  0  0
    0.9808  -11.1605    3.3507 H   0  0  0  0  0  0  0  0  0  0  0  0
    0.6189   -9.0832    1.7062 H   0  0  0  0  0  0  0  0  0  0  0  0
   -0.2390   -8.8394    3.2330 H   0  0  0  0  0  0  0  0  0  0  0  0
    0.6561   -6.1501    3.9406 H   0  0  0  0  0  0  0  0  0  0  0  0
    0.1447   -8.3292    4.9816 H   0  0  0  0  0  0  0  0  0  0  0  0
    2.1258   -7.3144    1.0618 H   0  0  0  0  0  0  0  0  0  0  0  0
    5.5241   -7.4067    1.2070 H   0  0  0  0  0  0  0  0  0  0  0  0
    5.8777   -8.4926    2.5403 H   0  0  0  0  0  0  0  0  0  0  0  0
    5.3378   -6.8606    2.8454 H   0  0  0  0  0  0  0  0  0  0  0  0
    4.0958   -8.9549    0.1617 H   0  0  0  0  0  0  0  0  0  0  0  0
    2.7505   -9.7383    0.9417 H   0  0  0  0  0  0  0  0  0  0  0  0
    4.3986  -10.1423    1.4107 H   0  0  0  0  0  0  0  0  0  0  0  0
    6.0551   -4.2052    0.3294 H   0  0  0  0  0  0  0  0  0  0  0  0
    3.8111   -3.7510   -1.3101 H   0  0  0  0  0  0  0  0  0  0  0  0
    5.9467   -1.8207    0.8422 H   0  0  0  0  0  0  0  0  0  0  0  0
    5.7369   -2.2347   -1.9028 H   0  0  0  0  0  0  0  0  0  0  0  0
    4.2915   -0.2686   -0.0896 H   0  0  0  0  0  0  0  0  0  0  0  0
    2.4790   -1.3773   -1.2238 H   0  0  0  0  0  0  0  0  0  0  0  0
  1  2  1  0
  1 27  1  0
  1 28  1  0
  1 29  1  0
  2 25  1  0
  2  3  1  0
  2 30  1  6
  3  4  1  0
  4  5  1  0
  4 21  1  0
  4 31  1  1
  5  6  1  0
  6 17  1  0
  6  7  1  0
  6 32  1  6
  7  8  1  0
  7 33  1  0
  7 34  1  0
  8 15  1  0
  8  9  1  0
  8 35  1  1
 10  9  1  1
  9 36  1  0
  9 37  1  0
 10 14  1  0
 10 18  1  0
 10 11  1  0
 11 12  2  0
 11 38  1  0
 12 13  1  0
 12 39  1  0
 14 13  1  6
 13 40  1  0
 13 41  1  0
 14 15  1  0
 14 17  1  0
 15 16  1  0
 15 42  1  6
 16 43  1  0
 17 18  1  0
 17 44  1  6
 18 19  1  0
 18 20  1  0
 19 45  1  0
 19 46  1  0
 19 47  1  0
 20 48  1  0
 20 49  1  0
 20 50  1  0
 21 22  1  0
 21 23  1  0
 21 51  1  1
 22 52  1  0
 23 24  1  0
 23 25  1  0
 23 53  1  1
 24 54  1  0
 25 26  1  0
 25 55  1  1
 26 56  1  0
M  END
>  <i_m_ct_stereo_status>  (277) 
1

>  <s_m_source_file>  (277) 
/var/tmp/pbs.5076255.sched01/tmpe6iyr0oq/80tt78e_gd.sdf

>  <i_m_source_file_index>  (277) 
34

>  <i_lp_mmshare_version>  (277) 
48012

>  <i_f3d_flags>  (277) 
0

>  <s_epik_input>  (277) 
W09IXVtDQEBIXTFbQ0BIXShbT0hdKVtDQEhdKFtPSF0pW0NAQEhdKE9bQ0BIXTFbQ0gzXSlPW0NASF0oW0NIMl1bQ0BIXShbQ0gyXTIpW0NAQEhdM1tPSF0pW0NAQEhdKEM0KFtDSDNdKVtDSDNdKVtDQF0zKFtDQF0yNDUpW0NIMl1bQ0hdPVtDSF01

>  <s_epik_cmdline>  (277) 
J2VwaWtfcHl0aG9uJywgJy1waHQnLCAnMi4wJywgJy1waCcsICc3LjAnLCAnLXRuJywgJzgnLCAnLW1hJywgJzIwMCcsICctaW1hZScsICc8aW5maWxlLm1hZT4nLCAnLW9tYWUnLCAnPG91dGZpbGUubWFlPic=

>  <r_lp_tautomer_probability>  (277) 
1

>  <r_epik_Ionization_Penalty>  (277) 
2.20255e-06

>  <r_epik_Ionization_Penalty_Charging>  (277) 
0

>  <r_epik_Ionization_Penalty_Neutral>  (277) 
2.20255e-06

>  <r_epik_State_Penalty>  (277) 
-0

>  <r_epik_Charging_Adjusted_Penalty>  (277) 
0

>  <i_epik_Tot_Q>  (277) 
0

>  <i_epik_Tot_abs_Q>  (277) 
0

>  <s_epik_Chemistry_Notes>  (277) 
This compound contains an acetal/aminal-like group ( X-CH(R)-Y where X, Y are N, S, or O) that may be acid/base labile, releasing an aldehyde.

>  <s_lp_Force_Field>  (277) 
OPLS3e

>  <r_lp_Energy>  (277) 
58.3776

>  <b_lp_Chiralities_Consistent>  (277) 
1

>  <s_lp_Variant>  (277) 
80:0-1

>  <s_i_glide_gridfile>  (277) 
pfpi4k_grid

>  <i_i_glide_lignum>  (277) 
34

>  <i_i_glide_rotatable_bonds>  (277) 
6

>  <r_i_docking_score>  (277) 
-3.09779

>  <r_i_glide_ligand_efficiency>  (277) 
-0.119146

>  <r_i_glide_ligand_efficiency_sa>  (277) 
-0.352968

>  <r_i_glide_ligand_efficiency_ln>  (277) 
-0.727505

>  <r_i_glide_gscore>  (277) 
-3.09779

>  <r_i_glide_lipo>  (277) 
-0.148883

>  <r_i_glide_hbond>  (277) 
0

>  <r_i_glide_metal>  (277) 
-0

>  <r_i_glide_rewards>  (277) 
-1.4312

>  <r_i_glide_evdw>  (277) 
-19.4787

>  <r_i_glide_ecoul>  (277) 
-5.53623

>  <r_i_glide_erotb>  (277) 
0.286668

>  <r_i_glide_esite>  (277) 
0

>  <r_i_glide_emodel>  (277) 
-35.1129

>  <r_i_glide_energy>  (277) 
-25.015

>  <r_i_glide_einternal>  (277) 
1.81023

>  <r_i_glide_intrahb_reward>  (277) 
-0.5

>  <i_i_glide_confnum>  (277) 
3

>  <i_i_glide_posenum>  (277) 
6

>  <r_i_glide_eff_state_penalty>  (277) 
0

>  <ligand_id>  (277) 
80

>  <original_smiles>  (277) 
CC1OC(OC2CC3CC45C=CCC4(C3O)C2C5(C)C)C(O)C(O)C1O

>  <smiles>  (277) 
[H]OC1([H])C([H])(OC2([H])C([H])([H])C3([H])C([H])([H])C45C([H])=C([H])C([H])([H])C4(C3([H])O[H])C2([H])C5(C([H])([H])[H])C([H])([H])[H])OC([H])(C([H])([H])[H])C([H])(O[H])C1([H])O[H]

$$$$
80:0:2
     RDKit          3D

 56 60  0  0  1  0  0  0  0  0999 V2000
    3.7209   -0.9941    2.4864 C   0  0  0  0  0  0  0  0  0  0  0  0
    3.1741   -1.5103    1.1363 C   0  0  2  0  0  0  0  0  0  0  0  0
    2.9185   -2.9144    1.1922 O   0  0  0  0  0  0  0  0  0  0  0  0
    4.0167   -3.7550    1.3897 C   0  0  1  0  0  0  0  0  0  0  0  0
    3.6554   -5.0916    1.4688 O   0  0  0  0  0  0  0  0  0  0  0  0
    2.6005   -5.4295    2.3671 C   0  0  2  0  0  0  0  0  0  0  0  0
    2.8376   -5.0785    3.8778 C   0  0  0  0  0  0  0  0  0  0  0  0
    2.1685   -6.0810    4.8813 C   0  0  2  0  0  0  0  0  0  0  0  0
    2.9454   -7.4256    4.9986 C   0  0  0  0  0  0  0  0  0  0  0  0
    2.5475   -8.2007    3.7440 C   0  0  1  0  0  0  0  0  0  0  0  0
    2.0215   -9.6051    3.9573 C   0  0  0  0  0  0  0  0  0  0  0  0
    0.8098   -9.7842    3.4190 C   0  0  0  0  0  0  0  0  0  0  0  0
    0.2429   -8.5454    2.7802 C   0  0  0  0  0  0  0  0  0  0  0  0
    1.2988   -7.5070    3.1898 C   0  0  1  0  0  0  0  0  0  0  0  0
    0.8222   -6.5223    4.2708 C   0  0  1  0  0  0  0  0  0  0  0  0
    0.0412   -7.1375    5.2844 O   0  0  0  0  0  0  0  0  0  0  0  0
    2.2484   -6.8986    2.1359 C   0  0  2  0  0  0  0  0  0  0  0  0
    3.3101   -7.9979    2.4030 C   0  0  0  0  0  0  0  0  0  0  0  0
    4.7791   -7.5763    2.5211 C   0  0  0  0  0  0  0  0  0  0  0  0
    3.3225   -9.1318    1.3749 C   0  0  0  0  0  0  0  0  0  0  0  0
    5.0145   -3.5830    0.2169 C   0  0  1  0  0  0  0  0  0  0  0  0
    4.4856   -4.0735   -0.9976 O   0  0  0  0  0  0  0  0  0  0  0  0
    5.3637   -2.0800    0.0390 C   0  0  1  0  0  0  0  0  0  0  0  0
    6.1925   -1.8760   -1.0961 O   0  0  0  0  0  0  0  0  0  0  0  0
    4.0959   -1.2023   -0.0574 C   0  0  1  0  0  0  0  0  0  0  0  0
    3.4138   -1.4344   -1.2782 O   0  0  0  0  0  0  0  0  0  0  0  0
    3.8422    0.0880    2.4781 H   0  0  0  0  0  0  0  0  0  0  0  0
    4.6937   -1.4082    2.7481 H   0  0  0  0  0  0  0  0  0  0  0  0
    3.0458   -1.2532    3.2983 H   0  0  0  0  0  0  0  0  0  0  0  0
    2.2196   -1.0182    0.9642 H   0  0  0  0  0  0  0  0  0  0  0  0
    4.5060   -3.5343    2.3328 H   0  0  0  0  0  0  0  0  0  0  0  0
    1.7192   -4.8602    2.0632 H   0  0  0  0  0  0  0  0  0  0  0  0
    3.9009   -4.9879    4.1162 H   0  0  0  0  0  0  0  0  0  0  0  0
    2.4143   -4.0857    4.0585 H   0  0  0  0  0  0  0  0  0  0  0  0
    2.0517   -5.6096    5.8586 H   0  0  0  0  0  0  0  0  0  0  0  0
    4.0178   -7.2735    5.0939 H   0  0  0  0  0  0  0  0  0  0  0  0
    2.6379   -7.9672    5.8972 H   0  0  0  0  0  0  0  0  0  0  0  0
    2.5957  -10.3926    4.4144 H   0  0  0  0  0  0  0  0  0  0  0  0
    0.2870  -10.7343    3.4071 H   0  0  0  0  0  0  0  0  0  0  0  0
    0.1852   -8.6838    1.7012 H   0  0  0  0  0  0  0  0  0  0  0  0
   -0.7620   -8.3435    3.1498 H   0  0  0  0  0  0  0  0  0  0  0  0
    0.2508   -5.6877    3.8570 H   0  0  0  0  0  0  0  0  0  0  0  0
    0.4976   -7.9159    5.5655 H   0  0  0  0  0  0  0  0  0  0  0  0
    1.8397   -7.0311    1.1347 H   0  0  0  0  0  0  0  0  0  0  0  0
    5.2038   -7.3046    1.5527 H   0  0  0  0  0  0  0  0  0  0  0  0
    5.3903   -8.3738    2.9472 H   0  0  0  0  0  0  0  0  0  0  0  0
    4.9153   -6.7061    3.1583 H   0  0  0  0  0  0  0  0  0  0  0  0
    3.7844   -8.8146    0.4434 H   0  0  0  0  0  0  0  0  0  0  0  0
    2.3299   -9.4863    1.1233 H   0  0  0  0  0  0  0  0  0  0  0  0
    3.8914   -9.9876    1.7290 H   0  0  0  0  0  0  0  0  0  0  0  0
    5.9185   -4.1566    0.4462 H   0  0  0  0  0  0  0  0  0  0  0  0
    3.6735   -3.6136   -1.1595 H   0  0  0  0  0  0  0  0  0  0  0  0
    5.9440   -1.7500    0.8999 H   0  0  0  0  0  0  0  0  0  0  0  0
    5.7133   -2.2553   -1.8181 H   0  0  0  0  0  0  0  0  0  0  0  0
    4.3583   -0.1421   -0.0510 H   0  0  0  0  0  0  0  0  0  0  0  0
    2.4792   -1.2612   -1.1420 H   0  0  0  0  0  0  0  0  0  0  0  0
  1  2  1  0
  1 27  1  0
  1 28  1  0
  1 29  1  0
  2 25  1  0
  2  3  1  0
  2 30  1  6
  3  4  1  0
  4  5  1  0
  4 21  1  0
  4 31  1  1
  5  6  1  0
  6 17  1  0
  6  7  1  0
  6 32  1  6
  7  8  1  0
  7 33  1  0
  7 34  1  0
  8 15  1  0
  8  9  1  0
  8 35  1  1
 10  9  1  1
  9 36  1  0
  9 37  1  0
 10 14  1  0
 10 18  1  0
 10 11  1  0
 11 12  2  0
 11 38  1  0
 12 13  1  0
 12 39  1  0
 14 13  1  6
 13 40  1  0
 13 41  1  0
 14 15  1  0
 14 17  1  0
 15 16  1  0
 15 42  1  6
 16 43  1  0
 17 18  1  0
 17 44  1  6
 18 19  1  0
 18 20  1  0
 19 45  1  0
 19 46  1  0
 19 47  1  0
 20 48  1  0
 20 49  1  0
 20 50  1  0
 21 22  1  0
 21 23  1  0
 21 51  1  1
 22 52  1  0
 23 24  1  0
 23 25  1  0
 23 53  1  1
 24 54  1  0
 25 26  1  0
 25 55  1  6
 26 56  1  0
M  END
>  <i_m_ct_stereo_status>  (278) 
1

>  <s_m_source_file>  (278) 
/var/tmp/pbs.5076255.sched01/tmpe6iyr0oq/80tt78e_gd.sdf

>  <i_m_source_file_index>  (278) 
34

>  <i_lp_mmshare_version>  (278) 
48012

>  <i_f3d_flags>  (278) 
0

>  <s_epik_input>  (278) 
W09IXVtDQEBIXTFbQ0BIXShbT0hdKVtDQEhdKFtPSF0pW0NAQEhdKE9bQ0BIXTFbQ0gzXSlPW0NASF0oW0NIMl1bQ0BIXShbQ0gyXTIpW0NAQEhdM1tPSF0pW0NAQEhdKEM0KFtDSDNdKVtDSDNdKVtDQF0zKFtDQF0yNDUpW0NIMl1bQ0hdPVtDSF01

>  <s_epik_cmdline>  (278) 
J2VwaWtfcHl0aG9uJywgJy1waHQnLCAnMi4wJywgJy1waCcsICc3LjAnLCAnLXRuJywgJzgnLCAnLW1hJywgJzIwMCcsICctaW1hZScsICc8aW5maWxlLm1hZT4nLCAnLW9tYWUnLCAnPG91dGZpbGUubWFlPic=

>  <r_lp_tautomer_probability>  (278) 
1

>  <r_epik_Ionization_Penalty>  (278) 
2.20255e-06

>  <r_epik_Ionization_Penalty_Charging>  (278) 
0

>  <r_epik_Ionization_Penalty_Neutral>  (278) 
2.20255e-06

>  <r_epik_State_Penalty>  (278) 
-0

>  <r_epik_Charging_Adjusted_Penalty>  (278) 
0

>  <i_epik_Tot_Q>  (278) 
0

>  <i_epik_Tot_abs_Q>  (278) 
0

>  <s_epik_Chemistry_Notes>  (278) 
This compound contains an acetal/aminal-like group ( X-CH(R)-Y where X, Y are N, S, or O) that may be acid/base labile, releasing an aldehyde.

>  <s_lp_Force_Field>  (278) 
OPLS3e

>  <r_lp_Energy>  (278) 
58.3776

>  <b_lp_Chiralities_Consistent>  (278) 
1

>  <s_lp_Variant>  (278) 
80:0-1

>  <s_i_glide_gridfile>  (278) 
pfpi4k_grid

>  <i_i_glide_lignum>  (278) 
34

>  <i_i_glide_rotatable_bonds>  (278) 
6

>  <r_i_docking_score>  (278) 
-3.05127

>  <r_i_glide_ligand_efficiency>  (278) 
-0.117356

>  <r_i_glide_ligand_efficiency_sa>  (278) 
-0.347668

>  <r_i_glide_ligand_efficiency_ln>  (278) 
-0.71658

>  <r_i_glide_gscore>  (278) 
-3.05127

>  <r_i_glide_lipo>  (278) 
-0.0508758

>  <r_i_glide_hbond>  (278) 
0

>  <r_i_glide_metal>  (278) 
-0

>  <r_i_glide_rewards>  (278) 
-1.42525

>  <r_i_glide_evdw>  (278) 
-19.9861

>  <r_i_glide_ecoul>  (278) 
-5.75004

>  <r_i_glide_erotb>  (278) 
0.286668

>  <r_i_glide_esite>  (278) 
0

>  <r_i_glide_emodel>  (278) 
-35.932

>  <r_i_glide_energy>  (278) 
-25.7362

>  <r_i_glide_einternal>  (278) 
1.74272

>  <r_i_glide_intrahb_reward>  (278) 
-0.5

>  <i_i_glide_confnum>  (278) 
1

>  <i_i_glide_posenum>  (278) 
1

>  <r_i_glide_eff_state_penalty>  (278) 
0

>  <ligand_id>  (278) 
80

>  <original_smiles>  (278) 
CC1OC(OC2CC3CC45C=CCC4(C3O)C2C5(C)C)C(O)C(O)C1O

>  <smiles>  (278) 
[H]OC1([H])C([H])(OC2([H])C([H])([H])C3([H])C([H])([H])C45C([H])=C([H])C([H])([H])C4(C3([H])O[H])C2([H])C5(C([H])([H])[H])C([H])([H])[H])OC([H])(C([H])([H])[H])C([H])(O[H])C1([H])O[H]

$$$$
81:0:0
     RDKit          3D

 48 51  0  0  1  0  0  0  0  0999 V2000
    5.0813   -3.6818   -2.3911 C   0  0  0  0  0  0  0  0  0  0  0  0
    5.8437   -2.6161   -1.6171 C   0  0  1  0  0  0  0  0  0  0  0  0
    7.2121   -2.7064   -1.9237 O   0  0  0  0  0  0  0  0  0  0  0  0
    5.2540   -1.1977   -1.6983 C   0  0  0  0  0  0  0  0  0  0  0  0
    5.4373   -1.0466   -0.1851 C   0  0  1  0  0  0  0  0  0  0  0  0
    4.3154   -0.3889    0.5826 C   0  0  0  0  0  0  0  0  0  0  0  0
    4.4572   -0.4514    2.1044 C   0  0  0  0  0  0  0  0  0  0  0  0
    5.5323   -0.7902    2.6022 O   0  0  0  0  0  0  0  0  0  0  0  0
    3.3595   -0.1652    2.8388 N   0  0  0  0  0  0  0  0  0  0  0  0
    2.1937    0.5187    2.2516 C   0  0  0  0  0  0  0  0  0  0  0  0
    2.1247    1.9582    2.8444 C   0  0  0  0  0  0  0  0  0  0  0  0
    2.2678    2.0765    4.3936 C   0  0  0  0  0  0  0  0  0  0  0  0
    3.4065    1.1697    4.9083 C   0  0  0  0  0  0  0  0  0  0  0  0
    3.3064   -0.2575    4.3178 C   0  0  1  0  0  0  0  0  0  0  0  0
    2.1310   -1.0651    4.8987 C   0  0  0  0  0  0  0  0  0  0  0  0
    2.2826   -2.2104    5.7176 C   0  0  0  0  0  0  0  0  0  0  0  0
    1.1507   -2.7136    6.1841 N   0  0  0  0  0  0  0  0  0  0  0  0
    0.1929   -1.9105    5.6514 N   0  0  0  0  0  0  0  0  0  0  0  0
   -1.1501   -2.0249    5.8542 C   0  0  0  0  0  0  0  0  0  0  0  0
   -1.9969   -1.1802    5.3607 N   0  0  0  0  0  0  0  0  0  0  0  0
   -1.5063   -0.1676    4.5694 C   0  0  0  0  0  0  0  0  0  0  0  0
   -0.1770    0.0124    4.2765 C   0  0  0  0  0  0  0  0  0  0  0  0
    0.7525   -0.8814    4.8464 C   0  0  0  0  0  0  0  0  0  0  0  0
    5.5584   -2.5713   -0.1075 C   0  0  0  0  0  0  0  0  0  0  0  0
    4.0211   -3.6480   -2.1564 H   0  0  0  0  0  0  0  0  0  0  0  0
    5.4206   -4.6720   -2.1201 H   0  0  0  0  0  0  0  0  0  0  0  0
    5.1766   -3.5533   -3.4661 H   0  0  0  0  0  0  0  0  0  0  0  0
    7.2865   -3.0169   -2.8302 H   0  0  0  0  0  0  0  0  0  0  0  0
    5.8136   -0.4699   -2.2925 H   0  0  0  0  0  0  0  0  0  0  0  0
    4.2040   -1.1825   -1.9855 H   0  0  0  0  0  0  0  0  0  0  0  0
    6.4052   -0.5838    0.0368 H   0  0  0  0  0  0  0  0  0  0  0  0
    4.2207    0.6537    0.2891 H   0  0  0  0  0  0  0  0  0  0  0  0
    3.3847   -0.8922    0.2996 H   0  0  0  0  0  0  0  0  0  0  0  0
    2.2003    0.6451    1.1702 H   0  0  0  0  0  0  0  0  0  0  0  0
    1.3318   -0.1414    2.3800 H   0  0  0  0  0  0  0  0  0  0  0  0
    2.9435    2.5152    2.4106 H   0  0  0  0  0  0  0  0  0  0  0  0
    1.2265    2.4564    2.4971 H   0  0  0  0  0  0  0  0  0  0  0  0
    2.4616    3.1283    4.6782 H   0  0  0  0  0  0  0  0  0  0  0  0
    1.3536    1.7868    4.9353 H   0  0  0  0  0  0  0  0  0  0  0  0
    4.3653    1.6073    4.6260 H   0  0  0  0  0  0  0  0  0  0  0  0
    3.3967    1.1269    5.9983 H   0  0  0  0  0  0  0  0  0  0  0  0
    4.2076   -0.7683    4.6742 H   0  0  0  0  0  0  0  0  0  0  0  0
    3.2175   -2.6797    6.0389 H   0  0  0  0  0  0  0  0  0  0  0  0
   -1.4775   -2.8683    6.4859 H   0  0  0  0  0  0  0  0  0  0  0  0
   -2.2453    0.5153    4.1518 H   0  0  0  0  0  0  0  0  0  0  0  0
    0.0990    0.8475    3.6377 H   0  0  0  0  0  0  0  0  0  0  0  0
    4.6160   -3.0528    0.1724 H   0  0  0  0  0  0  0  0  0  0  0  0
    6.3780   -2.9151    0.5302 H   0  0  0  0  0  0  0  0  0  0  0  0
  1  2  1  0
  1 25  1  0
  1 26  1  0
  1 27  1  0
  2 24  1  0
  2  3  1  1
  2  4  1  0
  3 28  1  0
  4  5  1  0
  4 29  1  0
  4 30  1  0
  5  6  1  0
  5 24  1  0
  5 31  1  6
  6  7  1  0
  6 32  1  0
  6 33  1  0
  7  8  2  0
  7  9  1  0
  9 14  1  0
  9 10  1  0
 10 11  1  0
 10 34  1  0
 10 35  1  0
 11 12  1  0
 11 36  1  0
 11 37  1  0
 12 13  1  0
 12 38  1  0
 12 39  1  0
 13 14  1  0
 13 40  1  0
 13 41  1  0
 14 15  1  0
 14 42  1  1
 15 23  2  0
 15 16  1  0
 16 17  2  0
 16 43  1  0
 17 18  1  0
 18 23  1  0
 18 19  1  0
 19 20  2  0
 19 44  1  0
 20 21  1  0
 21 22  2  0
 21 45  1  0
 22 23  1  0
 22 46  1  0
 24 47  1  0
 24 48  1  0
M  END
>  <i_m_ct_stereo_status>  (279) 
1

>  <s_m_source_file>  (279) 
/var/tmp/pbs.5076255.sched01/tmpe6iyr0oq/80tt78e_gd.sdf

>  <i_m_source_file_index>  (279) 
35

>  <i_lp_mmshare_version>  (279) 
48012

>  <i_f3d_flags>  (279) 
0

>  <s_epik_input>  (279) 
W0NIM11bQ0BAXTEoW09IXSlbQ0gyXVtDQEhdKFtDSDJdMSlbQ0gyXUMoPU8pTjJbQ0gyXVtDSDJdW0NIMl1bQ0gyXVtDQEhdMmMoW2NIXW4zKWMobjM0KVtjSF1bY0hdbltjSF00

>  <s_epik_cmdline>  (279) 
J2VwaWtfcHl0aG9uJywgJy1waHQnLCAnMi4wJywgJy1waCcsICc3LjAnLCAnLXRuJywgJzgnLCAnLW1hJywgJzIwMCcsICctaW1hZScsICc8aW5maWxlLm1hZT4nLCAnLW9tYWUnLCAnPG91dGZpbGUubWFlPic=

>  <r_lp_tautomer_probability>  (279) 
1

>  <r_epik_Ionization_Penalty>  (279) 
6.91141e-07

>  <r_epik_Ionization_Penalty_Charging>  (279) 
0

>  <r_epik_Ionization_Penalty_Neutral>  (279) 
6.91141e-07

>  <r_epik_State_Penalty>  (279) 
-0

>  <r_epik_Charging_Adjusted_Penalty>  (279) 
0

>  <i_epik_Tot_Q>  (279) 
0

>  <i_epik_Tot_abs_Q>  (279) 
0

>  <s_lp_Force_Field>  (279) 
OPLS3e

>  <r_lp_Energy>  (279) 
37.6279

>  <b_lp_Chiralities_Consistent>  (279) 
1

>  <s_lp_Variant>  (279) 
81:0-1

>  <s_i_glide_gridfile>  (279) 
pfpi4k_grid

>  <i_i_glide_lignum>  (279) 
35

>  <i_i_glide_rotatable_bonds>  (279) 
5

>  <r_i_docking_score>  (279) 
-3.36744

>  <r_i_glide_ligand_efficiency>  (279) 
-0.14031

>  <r_i_glide_ligand_efficiency_sa>  (279) 
-0.404725

>  <r_i_glide_ligand_efficiency_ln>  (279) 
-0.805984

>  <r_i_glide_gscore>  (279) 
-3.36744

>  <r_i_glide_lipo>  (279) 
-0.212424

>  <r_i_glide_hbond>  (279) 
-0.363561

>  <r_i_glide_metal>  (279) 
-0

>  <r_i_glide_rewards>  (279) 
-1.30911

>  <r_i_glide_evdw>  (279) 
-24.1524

>  <r_i_glide_ecoul>  (279) 
-6.05825

>  <r_i_glide_erotb>  (279) 
0.696551

>  <r_i_glide_esite>  (279) 
-0.0625471

>  <r_i_glide_emodel>  (279) 
-32.5757

>  <r_i_glide_energy>  (279) 
-30.2106

>  <r_i_glide_einternal>  (279) 
5.16056

>  <r_i_glide_intrahb_reward>  (279) 
-0

>  <i_i_glide_confnum>  (279) 
5

>  <i_i_glide_posenum>  (279) 
14

>  <r_i_glide_eff_state_penalty>  (279) 
0

>  <ligand_id>  (279) 
81

>  <original_smiles>  (279) 
CC1(O)CC(CC(=O)N2CCCCC2c2cnn3cnccc23)C1

>  <smiles>  (279) 
[H]OC1(C([H])([H])[H])C([H])([H])C([H])(C([H])([H])C(=O)N2C([H])([H])C([H])([H])C([H])([H])C([H])([H])C2([H])c2c([H])nn3c([H])nc([H])c([H])c23)C1([H])[H]

$$$$
81:0:1
     RDKit          3D

 48 51  0  0  1  0  0  0  0  0999 V2000
    4.9864   -9.6102    3.2686 C   0  0  0  0  0  0  0  0  0  0  0  0
    5.1329   -9.0294    1.8808 C   0  0  1  0  0  0  0  0  0  0  0  0
    5.8253   -9.9791    1.0892 O   0  0  0  0  0  0  0  0  0  0  0  0
    3.8521   -8.4844    1.2368 C   0  0  0  0  0  0  0  0  0  0  0  0
    4.5956   -7.2138    0.8121 C   0  0  1  0  0  0  0  0  0  0  0  0
    3.8536   -5.8942    0.9617 C   0  0  0  0  0  0  0  0  0  0  0  0
    4.7487   -4.6379    0.9004 C   0  0  0  0  0  0  0  0  0  0  0  0
    5.9133   -4.7215    1.2876 O   0  0  0  0  0  0  0  0  0  0  0  0
    4.2129   -3.4483    0.5378 N   0  0  0  0  0  0  0  0  0  0  0  0
    3.0205   -3.3385   -0.3237 C   0  0  0  0  0  0  0  0  0  0  0  0
    3.4767   -2.9473   -1.7464 C   0  0  0  0  0  0  0  0  0  0  0  0
    4.3228   -1.6574   -1.7673 C   0  0  0  0  0  0  0  0  0  0  0  0
    5.4536   -1.7302   -0.7050 C   0  0  0  0  0  0  0  0  0  0  0  0
    4.9562   -2.1682    0.7030 C   0  0  1  0  0  0  0  0  0  0  0  0
    4.1997   -1.0654    1.4328 C   0  0  0  0  0  0  0  0  0  0  0  0
    3.0622   -0.3481    0.9822 C   0  0  0  0  0  0  0  0  0  0  0  0
    2.6208    0.5998    1.7719 N   0  0  0  0  0  0  0  0  0  0  0  0
    3.4652    0.5288    2.8302 N   0  0  0  0  0  0  0  0  0  0  0  0
    3.4168    1.3292    3.9368 C   0  0  0  0  0  0  0  0  0  0  0  0
    4.2660    1.1922    4.9118 N   0  0  0  0  0  0  0  0  0  0  0  0
    5.2430    0.2291    4.7715 C   0  0  0  0  0  0  0  0  0  0  0  0
    5.3846   -0.6126    3.6865 C   0  0  0  0  0  0  0  0  0  0  0  0
    4.4413   -0.4732    2.6497 C   0  0  0  0  0  0  0  0  0  0  0  0
    5.6902   -7.5974    1.8068 C   0  0  0  0  0  0  0  0  0  0  0  0
    4.4547   -8.9107    3.9097 H   0  0  0  0  0  0  0  0  0  0  0  0
    5.9598   -9.7799    3.7140 H   0  0  0  0  0  0  0  0  0  0  0  0
    4.4243  -10.5398    3.2579 H   0  0  0  0  0  0  0  0  0  0  0  0
    5.2125  -10.6907    0.8957 H   0  0  0  0  0  0  0  0  0  0  0  0
    3.4440   -9.0746    0.4130 H   0  0  0  0  0  0  0  0  0  0  0  0
    3.0736   -8.2559    1.9695 H   0  0  0  0  0  0  0  0  0  0  0  0
    4.9694   -7.3388   -0.2078 H   0  0  0  0  0  0  0  0  0  0  0  0
    3.0698   -5.9242    0.2271 H   0  0  0  0  0  0  0  0  0  0  0  0
    3.3739   -5.8611    1.9423 H   0  0  0  0  0  0  0  0  0  0  0  0
    2.4257   -4.2337   -0.4253 H   0  0  0  0  0  0  0  0  0  0  0  0
    2.3191   -2.6238    0.1030 H   0  0  0  0  0  0  0  0  0  0  0  0
    4.0577   -3.7716   -2.1598 H   0  0  0  0  0  0  0  0  0  0  0  0
    2.6007   -2.8343   -2.3830 H   0  0  0  0  0  0  0  0  0  0  0  0
    4.7551   -1.5031   -2.7642 H   0  0  0  0  0  0  0  0  0  0  0  0
    3.6815   -0.7985   -1.5763 H   0  0  0  0  0  0  0  0  0  0  0  0
    6.1921   -2.4643   -1.0365 H   0  0  0  0  0  0  0  0  0  0  0  0
    5.9799   -0.7742   -0.6307 H   0  0  0  0  0  0  0  0  0  0  0  0
    5.8663   -2.3293    1.2877 H   0  0  0  0  0  0  0  0  0  0  0  0
    2.5798   -0.4831    0.0421 H   0  0  0  0  0  0  0  0  0  0  0  0
    2.6180    2.0719    3.9370 H   0  0  0  0  0  0  0  0  0  0  0  0
    5.9289    0.1618    5.6127 H   0  0  0  0  0  0  0  0  0  0  0  0
    6.1693   -1.3513    3.6020 H   0  0  0  0  0  0  0  0  0  0  0  0
    5.5779   -7.0566    2.7568 H   0  0  0  0  0  0  0  0  0  0  0  0
    6.7107   -7.5065    1.4161 H   0  0  0  0  0  0  0  0  0  0  0  0
  1  2  1  0
  1 25  1  0
  1 26  1  0
  1 27  1  0
  2 24  1  0
  2  3  1  6
  2  4  1  0
  3 28  1  0
  4  5  1  0
  4 29  1  0
  4 30  1  0
  5  6  1  0
  5 24  1  0
  5 31  1  6
  6  7  1  0
  6 32  1  0
  6 33  1  0
  7  8  2  0
  7  9  1  0
  9 14  1  0
  9 10  1  0
 10 11  1  0
 10 34  1  0
 10 35  1  0
 11 12  1  0
 11 36  1  0
 11 37  1  0
 12 13  1  0
 12 38  1  0
 12 39  1  0
 13 14  1  0
 13 40  1  0
 13 41  1  0
 14 15  1  0
 14 42  1  1
 15 23  2  0
 15 16  1  0
 16 17  2  0
 16 43  1  0
 17 18  1  0
 18 23  1  0
 18 19  1  0
 19 20  2  0
 19 44  1  0
 20 21  1  0
 21 22  2  0
 21 45  1  0
 22 23  1  0
 22 46  1  0
 24 47  1  0
 24 48  1  0
M  END
>  <i_m_ct_stereo_status>  (280) 
1

>  <s_m_source_file>  (280) 
/var/tmp/pbs.5076255.sched01/tmpe6iyr0oq/80tt78e_gd.sdf

>  <i_m_source_file_index>  (280) 
35

>  <i_lp_mmshare_version>  (280) 
48012

>  <i_f3d_flags>  (280) 
0

>  <s_epik_input>  (280) 
W0NIM11bQ0BAXTEoW09IXSlbQ0gyXVtDQEhdKFtDSDJdMSlbQ0gyXUMoPU8pTjJbQ0gyXVtDSDJdW0NIMl1bQ0gyXVtDQEhdMmMoW2NIXW4zKWMobjM0KVtjSF1bY0hdbltjSF00

>  <s_epik_cmdline>  (280) 
J2VwaWtfcHl0aG9uJywgJy1waHQnLCAnMi4wJywgJy1waCcsICc3LjAnLCAnLXRuJywgJzgnLCAnLW1hJywgJzIwMCcsICctaW1hZScsICc8aW5maWxlLm1hZT4nLCAnLW9tYWUnLCAnPG91dGZpbGUubWFlPic=

>  <r_lp_tautomer_probability>  (280) 
1

>  <r_epik_Ionization_Penalty>  (280) 
6.91141e-07

>  <r_epik_Ionization_Penalty_Charging>  (280) 
0

>  <r_epik_Ionization_Penalty_Neutral>  (280) 
6.91141e-07

>  <r_epik_State_Penalty>  (280) 
-0

>  <r_epik_Charging_Adjusted_Penalty>  (280) 
0

>  <i_epik_Tot_Q>  (280) 
0

>  <i_epik_Tot_abs_Q>  (280) 
0

>  <s_lp_Force_Field>  (280) 
OPLS3e

>  <r_lp_Energy>  (280) 
37.6279

>  <b_lp_Chiralities_Consistent>  (280) 
1

>  <s_lp_Variant>  (280) 
81:0-1

>  <s_i_glide_gridfile>  (280) 
pfpi4k_grid

>  <i_i_glide_lignum>  (280) 
35

>  <i_i_glide_rotatable_bonds>  (280) 
5

>  <r_i_docking_score>  (280) 
-3.17798

>  <r_i_glide_ligand_efficiency>  (280) 
-0.132416

>  <r_i_glide_ligand_efficiency_sa>  (280) 
-0.381953

>  <r_i_glide_ligand_efficiency_ln>  (280) 
-0.760635

>  <r_i_glide_gscore>  (280) 
-3.17798

>  <r_i_glide_lipo>  (280) 
-0.554554

>  <r_i_glide_hbond>  (280) 
-0.16

>  <r_i_glide_metal>  (280) 
-0

>  <r_i_glide_rewards>  (280) 
-1.27777

>  <r_i_glide_evdw>  (280) 
-21.602

>  <r_i_glide_ecoul>  (280) 
-5.30288

>  <r_i_glide_erotb>  (280) 
0.696551

>  <r_i_glide_esite>  (280) 
-0.00667501

>  <r_i_glide_emodel>  (280) 
-30.7202

>  <r_i_glide_energy>  (280) 
-26.9048

>  <r_i_glide_einternal>  (280) 
3.88929

>  <r_i_glide_intrahb_reward>  (280) 
-0

>  <i_i_glide_confnum>  (280) 
6

>  <i_i_glide_posenum>  (280) 
1

>  <r_i_glide_eff_state_penalty>  (280) 
0

>  <ligand_id>  (280) 
81

>  <original_smiles>  (280) 
CC1(O)CC(CC(=O)N2CCCCC2c2cnn3cnccc23)C1

>  <smiles>  (280) 
[H]OC1(C([H])([H])[H])C([H])([H])C([H])(C([H])([H])C(=O)N2C([H])([H])C([H])([H])C([H])([H])C([H])([H])C2([H])c2c([H])nn3c([H])nc([H])c([H])c23)C1([H])[H]

$$$$
81:0:2
     RDKit          3D

 48 51  0  0  1  0  0  0  0  0999 V2000
    5.3249   -3.5226   -1.5099 C   0  0  0  0  0  0  0  0  0  0  0  0
    5.8338   -2.3212   -0.7366 C   0  0  1  0  0  0  0  0  0  0  0  0
    7.2388   -2.3091   -0.8647 O   0  0  0  0  0  0  0  0  0  0  0  0
    5.1970   -0.9651   -1.0542 C   0  0  0  0  0  0  0  0  0  0  0  0
    5.0718   -0.6639    0.4438 C   0  0  1  0  0  0  0  0  0  0  0  0
    3.7607   -0.0605    0.9069 C   0  0  0  0  0  0  0  0  0  0  0  0
    3.5446   -0.0348    2.4196 C   0  0  0  0  0  0  0  0  0  0  0  0
    4.5296   -0.1483    3.1530 O   0  0  0  0  0  0  0  0  0  0  0  0
    2.2908    0.1589    2.8986 N   0  0  0  0  0  0  0  0  0  0  0  0
    1.1035    0.3771    2.0483 C   0  0  0  0  0  0  0  0  0  0  0  0
    0.7020    1.8536    2.1185 C   0  0  0  0  0  0  0  0  0  0  0  0
    0.4356    2.2752    3.5625 C   0  0  0  0  0  0  0  0  0  0  0  0
    1.6238    1.8812    4.4831 C   0  0  0  0  0  0  0  0  0  0  0  0
    2.0103    0.3873    4.3348 C   0  0  1  0  0  0  0  0  0  0  0  0
    0.9874   -0.5502    4.9556 C   0  0  0  0  0  0  0  0  0  0  0  0
   -0.2129   -0.1754    5.6389 C   0  0  0  0  0  0  0  0  0  0  0  0
   -0.9386   -1.1724    6.0806 N   0  0  0  0  0  0  0  0  0  0  0  0
   -0.1901   -2.2636    5.7647 N   0  0  0  0  0  0  0  0  0  0  0  0
   -0.4977   -3.5496    6.0763 C   0  0  0  0  0  0  0  0  0  0  0  0
    0.2671   -4.5344    5.7341 N   0  0  0  0  0  0  0  0  0  0  0  0
    1.4359   -4.2375    5.0624 C   0  0  0  0  0  0  0  0  0  0  0  0
    1.8457   -2.9805    4.7130 C   0  0  0  0  0  0  0  0  0  0  0  0
    0.9897   -1.9083    5.0759 C   0  0  0  0  0  0  0  0  0  0  0  0
    5.2996   -2.1536    0.6965 C   0  0  0  0  0  0  0  0  0  0  0  0
    4.2401   -3.5539   -1.4781 H   0  0  0  0  0  0  0  0  0  0  0  0
    5.6782   -4.4557   -1.0804 H   0  0  0  0  0  0  0  0  0  0  0  0
    5.6165   -3.4749   -2.5551 H   0  0  0  0  0  0  0  0  0  0  0  0
    7.5443   -3.0953   -0.4414 H   0  0  0  0  0  0  0  0  0  0  0  0
    5.8162   -0.2566   -1.6094 H   0  0  0  0  0  0  0  0  0  0  0  0
    4.2208   -1.0755   -1.5338 H   0  0  0  0  0  0  0  0  0  0  0  0
    5.9528   -0.0963    0.7672 H   0  0  0  0  0  0  0  0  0  0  0  0
    3.6652    0.9413    0.5142 H   0  0  0  0  0  0  0  0  0  0  0  0
    2.9939   -0.6713    0.4371 H   0  0  0  0  0  0  0  0  0  0  0  0
    1.2187    0.1930    0.9877 H   0  0  0  0  0  0  0  0  0  0  0  0
    0.2926   -0.2883    2.3542 H   0  0  0  0  0  0  0  0  0  0  0  0
    1.4945    2.4780    1.6994 H   0  0  0  0  0  0  0  0  0  0  0  0
   -0.1885    2.0230    1.5127 H   0  0  0  0  0  0  0  0  0  0  0  0
    0.2353    3.3496    3.6322 H   0  0  0  0  0  0  0  0  0  0  0  0
   -0.4853    1.7739    3.8453 H   0  0  0  0  0  0  0  0  0  0  0  0
    2.4921    2.4892    4.2071 H   0  0  0  0  0  0  0  0  0  0  0  0
    1.4223    2.1300    5.5303 H   0  0  0  0  0  0  0  0  0  0  0  0
    2.9185    0.2653    4.9286 H   0  0  0  0  0  0  0  0  0  0  0  0
   -0.5622    0.8251    5.8373 H   0  0  0  0  0  0  0  0  0  0  0  0
   -1.4386   -3.6989    6.6073 H   0  0  0  0  0  0  0  0  0  0  0  0
    2.0339   -5.1067    4.8148 H   0  0  0  0  0  0  0  0  0  0  0  0
    2.7867   -2.7877    4.2008 H   0  0  0  0  0  0  0  0  0  0  0  0
    4.3507   -2.6818    0.8505 H   0  0  0  0  0  0  0  0  0  0  0  0
    5.9885   -2.3644    1.5169 H   0  0  0  0  0  0  0  0  0  0  0  0
  1  2  1  0
  1 25  1  0
  1 26  1  0
  1 27  1  0
  2 24  1  0
  2  3  1  1
  2  4  1  0
  3 28  1  0
  4  5  1  0
  4 29  1  0
  4 30  1  0
  5  6  1  0
  5 24  1  0
  5 31  1  1
  6  7  1  0
  6 32  1  0
  6 33  1  0
  7  8  2  0
  7  9  1  0
  9 14  1  0
  9 10  1  0
 10 11  1  0
 10 34  1  0
 10 35  1  0
 11 12  1  0
 11 36  1  0
 11 37  1  0
 12 13  1  0
 12 38  1  0
 12 39  1  0
 13 14  1  0
 13 40  1  0
 13 41  1  0
 14 15  1  0
 14 42  1  1
 15 23  2  0
 15 16  1  0
 16 17  2  0
 16 43  1  0
 17 18  1  0
 18 23  1  0
 18 19  1  0
 19 20  2  0
 19 44  1  0
 20 21  1  0
 21 22  2  0
 21 45  1  0
 22 23  1  0
 22 46  1  0
 24 47  1  0
 24 48  1  0
M  END
>  <i_m_ct_stereo_status>  (281) 
1

>  <s_m_source_file>  (281) 
/var/tmp/pbs.5076255.sched01/tmpe6iyr0oq/80tt78e_gd.sdf

>  <i_m_source_file_index>  (281) 
35

>  <i_lp_mmshare_version>  (281) 
48012

>  <i_f3d_flags>  (281) 
0

>  <s_epik_input>  (281) 
W0NIM11bQ0BAXTEoW09IXSlbQ0gyXVtDQEhdKFtDSDJdMSlbQ0gyXUMoPU8pTjJbQ0gyXVtDSDJdW0NIMl1bQ0gyXVtDQEhdMmMoW2NIXW4zKWMobjM0KVtjSF1bY0hdbltjSF00

>  <s_epik_cmdline>  (281) 
J2VwaWtfcHl0aG9uJywgJy1waHQnLCAnMi4wJywgJy1waCcsICc3LjAnLCAnLXRuJywgJzgnLCAnLW1hJywgJzIwMCcsICctaW1hZScsICc8aW5maWxlLm1hZT4nLCAnLW9tYWUnLCAnPG91dGZpbGUubWFlPic=

>  <r_lp_tautomer_probability>  (281) 
1

>  <r_epik_Ionization_Penalty>  (281) 
6.91141e-07

>  <r_epik_Ionization_Penalty_Charging>  (281) 
0

>  <r_epik_Ionization_Penalty_Neutral>  (281) 
6.91141e-07

>  <r_epik_State_Penalty>  (281) 
-0

>  <r_epik_Charging_Adjusted_Penalty>  (281) 
0

>  <i_epik_Tot_Q>  (281) 
0

>  <i_epik_Tot_abs_Q>  (281) 
0

>  <s_lp_Force_Field>  (281) 
OPLS3e

>  <r_lp_Energy>  (281) 
37.6279

>  <b_lp_Chiralities_Consistent>  (281) 
1

>  <s_lp_Variant>  (281) 
81:0-1

>  <s_i_glide_gridfile>  (281) 
pfpi4k_grid

>  <i_i_glide_lignum>  (281) 
35

>  <i_i_glide_rotatable_bonds>  (281) 
5

>  <r_i_docking_score>  (281) 
-2.82034

>  <r_i_glide_ligand_efficiency>  (281) 
-0.117514

>  <r_i_glide_ligand_efficiency_sa>  (281) 
-0.33897

>  <r_i_glide_ligand_efficiency_ln>  (281) 
-0.675038

>  <r_i_glide_gscore>  (281) 
-2.82034

>  <r_i_glide_lipo>  (281) 
-0.284305

>  <r_i_glide_hbond>  (281) 
-0.16

>  <r_i_glide_metal>  (281) 
-0

>  <r_i_glide_rewards>  (281) 
-1.19668

>  <r_i_glide_evdw>  (281) 
-22.043

>  <r_i_glide_ecoul>  (281) 
-4.84035

>  <r_i_glide_erotb>  (281) 
0.696551

>  <r_i_glide_esite>  (281) 
-0.0477054

>  <r_i_glide_emodel>  (281) 
-30.4696

>  <r_i_glide_energy>  (281) 
-26.8833

>  <r_i_glide_einternal>  (281) 
2.67316

>  <r_i_glide_intrahb_reward>  (281) 
-0

>  <i_i_glide_confnum>  (281) 
5

>  <i_i_glide_posenum>  (281) 
3

>  <r_i_glide_eff_state_penalty>  (281) 
0

>  <ligand_id>  (281) 
81

>  <original_smiles>  (281) 
CC1(O)CC(CC(=O)N2CCCCC2c2cnn3cnccc23)C1

>  <smiles>  (281) 
[H]OC1(C([H])([H])[H])C([H])([H])C([H])(C([H])([H])C(=O)N2C([H])([H])C([H])([H])C([H])([H])C([H])([H])C2([H])c2c([H])nn3c([H])nc([H])c([H])c23)C1([H])[H]

$$$$
82:0:0
     RDKit          3D

 44 48  0  0  1  0  0  0  0  0999 V2000
    8.0644   -4.6633    0.4008 C   0  0  0  0  0  0  0  0  0  0  0  0
    6.6486   -4.4845    0.6851 N   0  0  0  0  0  0  0  0  0  0  0  0
    6.1065   -5.1084    1.7873 C   0  0  0  0  0  0  0  0  0  0  0  0
    5.3474   -4.2713    2.5051 C   0  0  0  0  0  0  0  0  0  0  0  0
    5.4000   -4.4002    4.0243 C   0  0  0  0  0  0  0  0  0  0  0  0
    4.1886   -4.9201    4.5689 N   0  0  0  0  0  0  0  0  0  0  0  0
    4.1137   -6.1474    5.1284 N   0  0  0  0  0  0  0  0  0  0  0  0
    2.8668   -6.3200    5.4526 N   0  0  0  0  0  0  0  0  0  0  0  0
    2.1012   -5.2211    5.1072 N   0  0  0  0  0  0  0  0  0  0  0  0
    2.9746   -4.3908    4.5588 C   0  0  0  0  0  0  0  0  0  0  0  0
    2.6883   -3.0365    3.9915 C   0  0  0  0  0  0  0  0  0  0  0  0
    3.3204   -2.6037    2.6030 C   0  0  0  0  0  0  0  0  0  0  0  0
    2.1474   -1.8837    1.8781 C   0  0  0  0  0  0  0  0  0  0  0  0
    4.3179   -1.4341    2.8475 C   0  0  0  0  0  0  0  0  0  0  0  0
    4.0763   -3.7600    1.7544 C   0  0  2  0  0  0  0  0  0  0  0  0
    3.2494   -5.0637    1.4936 C   0  0  0  0  0  0  0  0  0  0  0  0
    2.0194   -5.0501    1.4556 O   0  0  0  0  0  0  0  0  0  0  0  0
    4.0154   -6.3221    1.2970 C   0  0  0  0  0  0  0  0  0  0  0  0
    5.3655   -6.3252    1.4413 C   0  0  0  0  0  0  0  0  0  0  0  0
    4.5364   -3.3208    0.3164 C   0  0  0  0  0  0  0  0  0  0  0  0
    3.6547   -2.7456   -0.6350 C   0  0  0  0  0  0  0  0  0  0  0  0
    4.0951   -2.3470   -1.9083 C   0  0  0  0  0  0  0  0  0  0  0  0
    5.4282   -2.5666   -2.2820 C   0  0  0  0  0  0  0  0  0  0  0  0
    6.3049   -3.2201   -1.4038 C   0  0  0  0  0  0  0  0  0  0  0  0
    5.8578   -3.6457   -0.1305 C   0  0  0  0  0  0  0  0  0  0  0  0
    8.5837   -4.9641    1.3089 H   0  0  0  0  0  0  0  0  0  0  0  0
    8.5379   -3.7504    0.0463 H   0  0  0  0  0  0  0  0  0  0  0  0
    8.2219   -5.4675   -0.3146 H   0  0  0  0  0  0  0  0  0  0  0  0
    6.2238   -5.0601    4.3029 H   0  0  0  0  0  0  0  0  0  0  0  0
    5.6092   -3.4450    4.5021 H   0  0  0  0  0  0  0  0  0  0  0  0
    1.5996   -3.0123    3.9183 H   0  0  0  0  0  0  0  0  0  0  0  0
    2.9319   -2.3052    4.7648 H   0  0  0  0  0  0  0  0  0  0  0  0
    2.4800   -1.2060    1.0920 H   0  0  0  0  0  0  0  0  0  0  0  0
    1.5844   -1.2395    2.5572 H   0  0  0  0  0  0  0  0  0  0  0  0
    1.4255   -2.5786    1.4626 H   0  0  0  0  0  0  0  0  0  0  0  0
    4.7293   -1.0607    1.9088 H   0  0  0  0  0  0  0  0  0  0  0  0
    5.1654   -1.6969    3.4714 H   0  0  0  0  0  0  0  0  0  0  0  0
    3.8317   -0.5864    3.3349 H   0  0  0  0  0  0  0  0  0  0  0  0
    3.4619   -7.2186    1.0545 H   0  0  0  0  0  0  0  0  0  0  0  0
    5.9071   -7.2504    1.3027 H   0  0  0  0  0  0  0  0  0  0  0  0
    2.6034   -2.6249   -0.4444 H   0  0  0  0  0  0  0  0  0  0  0  0
    3.4026   -1.8940   -2.6039 H   0  0  0  0  0  0  0  0  0  0  0  0
    5.7664   -2.2811   -3.2639 H   0  0  0  0  0  0  0  0  0  0  0  0
    7.2974   -3.4528   -1.7616 H   0  0  0  0  0  0  0  0  0  0  0  0
  1  2  1  0
  1 26  1  0
  1 27  1  0
  1 28  1  0
  2 25  1  0
  2  3  1  0
  3 19  1  0
  3  4  2  0
  4 15  1  0
  4  5  1  0
  5  6  1  0
  5 29  1  0
  5 30  1  0
  6 10  1  0
  6  7  1  0
  7  8  2  0
  8  9  1  0
  9 10  2  0
 10 11  1  0
 11 12  1  0
 11 31  1  0
 11 32  1  0
 12 13  1  0
 12 14  1  0
 15 12  1  1
 13 33  1  0
 13 34  1  0
 13 35  1  0
 14 36  1  0
 14 37  1  0
 14 38  1  0
 15 16  1  0
 15 20  1  0
 16 17  2  0
 16 18  1  0
 18 19  2  0
 18 39  1  0
 19 40  1  0
 20 25  2  0
 20 21  1  0
 21 22  2  0
 21 41  1  0
 22 23  1  0
 22 42  1  0
 23 24  2  0
 23 43  1  0
 24 25  1  0
 24 44  1  0
M  END
>  <i_m_ct_stereo_status>  (282) 
1

>  <s_m_source_file>  (282) 
/var/tmp/pbs.5076255.sched01/tmpe6iyr0oq/80tt78e_gd.sdf

>  <i_m_source_file_index>  (282) 
36

>  <i_lp_mmshare_version>  (282) 
48012

>  <i_f3d_flags>  (282) 
0

>  <s_epik_input>  (282) 
W2NIXTFbY0hdW2NIXVtjSF1jMmMxTihbQ0gzXSlDKFtDSF09W0NIXUMzPU8pPUMoW0NAQF0yMzQpW0NIMl1uNWMobm5uNSlbQ0gyXUM0KFtDSDNdKVtDSDNd

>  <s_epik_cmdline>  (282) 
J2VwaWtfcHl0aG9uJywgJy1waHQnLCAnMi4wJywgJy1waCcsICc3LjAnLCAnLXRuJywgJzgnLCAnLW1hJywgJzIwMCcsICctaW1hZScsICc8aW5maWxlLm1hZT4nLCAnLW9tYWUnLCAnPG91dGZpbGUubWFlPic=

>  <r_lp_tautomer_probability>  (282) 
1

>  <r_epik_Ionization_Penalty>  (282) 
8.06667e-08

>  <r_epik_Ionization_Penalty_Charging>  (282) 
5.39389e-15

>  <r_epik_Ionization_Penalty_Neutral>  (282) 
8.06667e-08

>  <r_epik_State_Penalty>  (282) 
-0

>  <r_epik_Charging_Adjusted_Penalty>  (282) 
5.39389e-15

>  <i_epik_Tot_Q>  (282) 
0

>  <i_epik_Tot_abs_Q>  (282) 
0

>  <s_epik_Chemistry_Notes>  (282) 
This compound has an imine and may undergo hydrolysis.

>  <s_lp_Force_Field>  (282) 
OPLS3e

>  <r_lp_Energy>  (282) 
128.368

>  <b_lp_Chiralities_Consistent>  (282) 
1

>  <s_lp_Variant>  (282) 
82:0-1

>  <s_i_glide_gridfile>  (282) 
pfpi4k_grid

>  <i_i_glide_lignum>  (282) 
36

>  <i_i_glide_rotatable_bonds>  (282) 
0

>  <r_i_docking_score>  (282) 
-3.15101

>  <r_i_glide_ligand_efficiency>  (282) 
-0.12604

>  <r_i_glide_ligand_efficiency_sa>  (282) 
-0.368544

>  <r_i_glide_ligand_efficiency_ln>  (282) 
-0.746883

>  <r_i_glide_gscore>  (282) 
-3.15101

>  <r_i_glide_lipo>  (282) 
-0.711104

>  <r_i_glide_hbond>  (282) 
-0.0297292

>  <r_i_glide_metal>  (282) 
-0

>  <r_i_glide_rewards>  (282) 
-1.30022

>  <r_i_glide_evdw>  (282) 
-19.7992

>  <r_i_glide_ecoul>  (282) 
-0.799873

>  <r_i_glide_erotb>  (282) 
0

>  <r_i_glide_esite>  (282) 
-1.4643e-05

>  <r_i_glide_emodel>  (282) 
-24.6723

>  <r_i_glide_energy>  (282) 
-20.599

>  <r_i_glide_einternal>  (282) 
0

>  <r_i_glide_intrahb_reward>  (282) 
-0

>  <i_i_glide_confnum>  (282) 
2

>  <i_i_glide_posenum>  (282) 
1

>  <r_i_glide_eff_state_penalty>  (282) 
0

>  <ligand_id>  (282) 
82

>  <original_smiles>  (282) 
CN1C2=C3Cn4nnnc4CC(C)(C)C3(C(=O)C=C2)c2ccccc21

>  <smiles>  (282) 
[H]C1=C([H])C2=C3C([H])([H])n4nnnc4C([H])([H])C(C([H])([H])[H])(C([H])([H])[H])C3(C1=O)c1c([H])c([H])c([H])c([H])c1N2C([H])([H])[H]

$$$$
82:0:1
     RDKit          3D

 44 48  0  0  1  0  0  0  0  0999 V2000
    6.1709   -0.9662    1.5868 C   0  0  0  0  0  0  0  0  0  0  0  0
    5.1373   -1.9744    1.7688 N   0  0  0  0  0  0  0  0  0  0  0  0
    5.4195   -3.2906    1.4706 C   0  0  0  0  0  0  0  0  0  0  0  0
    5.0108   -4.1186    2.4385 C   0  0  0  0  0  0  0  0  0  0  0  0
    5.9011   -5.3159    2.7567 C   0  0  0  0  0  0  0  0  0  0  0  0
    5.3120   -6.5507    2.3472 N   0  0  0  0  0  0  0  0  0  0  0  0
    5.8077   -7.2855    1.3240 N   0  0  0  0  0  0  0  0  0  0  0  0
    4.9995   -8.2989    1.1828 N   0  0  0  0  0  0  0  0  0  0  0  0
    3.9556   -8.2335    2.0897 N   0  0  0  0  0  0  0  0  0  0  0  0
    4.2044   -7.1306    2.7793 C   0  0  0  0  0  0  0  0  0  0  0  0
    3.3754   -6.5674    3.8970 C   0  0  0  0  0  0  0  0  0  0  0  0
    3.0530   -5.0155    3.9450 C   0  0  0  0  0  0  0  0  0  0  0  0
    1.5491   -4.9664    4.3470 C   0  0  0  0  0  0  0  0  0  0  0  0
    3.7534   -4.3947    5.1882 C   0  0  0  0  0  0  0  0  0  0  0  0
    3.4615   -4.1466    2.6418 C   0  0  2  0  0  0  0  0  0  0  0  0
    2.9143   -4.6928    1.2846 C   0  0  0  0  0  0  0  0  0  0  0  0
    1.8831   -5.3668    1.2414 O   0  0  0  0  0  0  0  0  0  0  0  0
    3.6938   -4.3507    0.0635 C   0  0  0  0  0  0  0  0  0  0  0  0
    4.8764   -3.6931    0.1701 C   0  0  0  0  0  0  0  0  0  0  0  0
    2.9727   -2.6493    2.6660 C   0  0  0  0  0  0  0  0  0  0  0  0
    1.6234   -2.2774    2.8952 C   0  0  0  0  0  0  0  0  0  0  0  0
    1.2202   -0.9321    2.9328 C   0  0  0  0  0  0  0  0  0  0  0  0
    2.1526    0.0846    2.6865 C   0  0  0  0  0  0  0  0  0  0  0  0
    3.4712   -0.2528    2.3441 C   0  0  0  0  0  0  0  0  0  0  0  0
    3.8775   -1.6057    2.2882 C   0  0  0  0  0  0  0  0  0  0  0  0
    7.1472   -1.4474    1.5828 H   0  0  0  0  0  0  0  0  0  0  0  0
    6.1855   -0.2405    2.3992 H   0  0  0  0  0  0  0  0  0  0  0  0
    6.0560   -0.4537    0.6313 H   0  0  0  0  0  0  0  0  0  0  0  0
    6.8605   -5.1957    2.2530 H   0  0  0  0  0  0  0  0  0  0  0  0
    6.1262   -5.3771    3.8176 H   0  0  0  0  0  0  0  0  0  0  0  0
    2.4435   -7.1311    3.8369 H   0  0  0  0  0  0  0  0  0  0  0  0
    3.8347   -6.8908    4.8318 H   0  0  0  0  0  0  0  0  0  0  0  0
    1.2624   -4.0149    4.7920 H   0  0  0  0  0  0  0  0  0  0  0  0
    1.3240   -5.6945    5.1297 H   0  0  0  0  0  0  0  0  0  0  0  0
    0.8740   -5.1904    3.5218 H   0  0  0  0  0  0  0  0  0  0  0  0
    3.5124   -3.3367    5.2955 H   0  0  0  0  0  0  0  0  0  0  0  0
    4.8351   -4.4603    5.1632 H   0  0  0  0  0  0  0  0  0  0  0  0
    3.4406   -4.8848    6.1119 H   0  0  0  0  0  0  0  0  0  0  0  0
    3.2993   -4.6445   -0.8997 H   0  0  0  0  0  0  0  0  0  0  0  0
    5.4307   -3.4569   -0.7268 H   0  0  0  0  0  0  0  0  0  0  0  0
    0.8450   -3.0107    3.0011 H   0  0  0  0  0  0  0  0  0  0  0  0
    0.1875   -0.6794    3.1235 H   0  0  0  0  0  0  0  0  0  0  0  0
    1.8414    1.1200    2.7032 H   0  0  0  0  0  0  0  0  0  0  0  0
    4.1420    0.5455    2.0739 H   0  0  0  0  0  0  0  0  0  0  0  0
  1  2  1  0
  1 26  1  0
  1 27  1  0
  1 28  1  0
  2 25  1  0
  2  3  1  0
  3 19  1  0
  3  4  2  0
  4 15  1  0
  4  5  1  0
  5  6  1  0
  5 29  1  0
  5 30  1  0
  6 10  1  0
  6  7  1  0
  7  8  2  0
  8  9  1  0
  9 10  2  0
 10 11  1  0
 11 12  1  0
 11 31  1  0
 11 32  1  0
 12 13  1  0
 12 14  1  0
 15 12  1  1
 13 33  1  0
 13 34  1  0
 13 35  1  0
 14 36  1  0
 14 37  1  0
 14 38  1  0
 15 16  1  0
 15 20  1  0
 16 17  2  0
 16 18  1  0
 18 19  2  0
 18 39  1  0
 19 40  1  0
 20 25  2  0
 20 21  1  0
 21 22  2  0
 21 41  1  0
 22 23  1  0
 22 42  1  0
 23 24  2  0
 23 43  1  0
 24 25  1  0
 24 44  1  0
M  END
>  <i_m_ct_stereo_status>  (283) 
1

>  <s_m_source_file>  (283) 
/var/tmp/pbs.5076255.sched01/tmpe6iyr0oq/80tt78e_gd.sdf

>  <i_m_source_file_index>  (283) 
36

>  <i_lp_mmshare_version>  (283) 
48012

>  <i_f3d_flags>  (283) 
0

>  <s_epik_input>  (283) 
W2NIXTFbY0hdW2NIXVtjSF1jMmMxTihbQ0gzXSlDKFtDSF09W0NIXUMzPU8pPUMoW0NAQF0yMzQpW0NIMl1uNWMobm5uNSlbQ0gyXUM0KFtDSDNdKVtDSDNd

>  <s_epik_cmdline>  (283) 
J2VwaWtfcHl0aG9uJywgJy1waHQnLCAnMi4wJywgJy1waCcsICc3LjAnLCAnLXRuJywgJzgnLCAnLW1hJywgJzIwMCcsICctaW1hZScsICc8aW5maWxlLm1hZT4nLCAnLW9tYWUnLCAnPG91dGZpbGUubWFlPic=

>  <r_lp_tautomer_probability>  (283) 
1

>  <r_epik_Ionization_Penalty>  (283) 
8.06667e-08

>  <r_epik_Ionization_Penalty_Charging>  (283) 
5.39389e-15

>  <r_epik_Ionization_Penalty_Neutral>  (283) 
8.06667e-08

>  <r_epik_State_Penalty>  (283) 
-0

>  <r_epik_Charging_Adjusted_Penalty>  (283) 
5.39389e-15

>  <i_epik_Tot_Q>  (283) 
0

>  <i_epik_Tot_abs_Q>  (283) 
0

>  <s_epik_Chemistry_Notes>  (283) 
This compound has an imine and may undergo hydrolysis.

>  <s_lp_Force_Field>  (283) 
OPLS3e

>  <r_lp_Energy>  (283) 
128.368

>  <b_lp_Chiralities_Consistent>  (283) 
1

>  <s_lp_Variant>  (283) 
82:0-1

>  <s_i_glide_gridfile>  (283) 
pfpi4k_grid

>  <i_i_glide_lignum>  (283) 
36

>  <i_i_glide_rotatable_bonds>  (283) 
0

>  <r_i_docking_score>  (283) 
-3.00315

>  <r_i_glide_ligand_efficiency>  (283) 
-0.120126

>  <r_i_glide_ligand_efficiency_sa>  (283) 
-0.35125

>  <r_i_glide_ligand_efficiency_ln>  (283) 
-0.711836

>  <r_i_glide_gscore>  (283) 
-3.00315

>  <r_i_glide_lipo>  (283) 
-0.252691

>  <r_i_glide_hbond>  (283) 
-0.0674448

>  <r_i_glide_metal>  (283) 
-0

>  <r_i_glide_rewards>  (283) 
-1.23708

>  <r_i_glide_evdw>  (283) 
-19.9324

>  <r_i_glide_ecoul>  (283) 
-2.88803

>  <r_i_glide_erotb>  (283) 
0

>  <r_i_glide_esite>  (283) 
-0.016104

>  <r_i_glide_emodel>  (283) 
-26.7205

>  <r_i_glide_energy>  (283) 
-22.8204

>  <r_i_glide_einternal>  (283) 
0

>  <r_i_glide_intrahb_reward>  (283) 
-0

>  <i_i_glide_confnum>  (283) 
1

>  <i_i_glide_posenum>  (283) 
9

>  <r_i_glide_eff_state_penalty>  (283) 
0

>  <ligand_id>  (283) 
82

>  <original_smiles>  (283) 
CN1C2=C3Cn4nnnc4CC(C)(C)C3(C(=O)C=C2)c2ccccc21

>  <smiles>  (283) 
[H]C1=C([H])C2=C3C([H])([H])n4nnnc4C([H])([H])C(C([H])([H])[H])(C([H])([H])[H])C3(C1=O)c1c([H])c([H])c([H])c([H])c1N2C([H])([H])[H]

$$$$
82:0:2
     RDKit          3D

 44 48  0  0  1  0  0  0  0  0999 V2000
    6.3422   -2.7896    1.0802 C   0  0  0  0  0  0  0  0  0  0  0  0
    5.1253   -3.4344    1.5547 N   0  0  0  0  0  0  0  0  0  0  0  0
    5.0364   -4.8091    1.5290 C   0  0  0  0  0  0  0  0  0  0  0  0
    4.5676   -5.2992    2.6830 C   0  0  0  0  0  0  0  0  0  0  0  0
    5.1736   -6.6045    3.1862 C   0  0  0  0  0  0  0  0  0  0  0  0
    4.2560   -7.6944    3.1022 N   0  0  0  0  0  0  0  0  0  0  0  0
    4.4202   -8.7116    2.2282 N   0  0  0  0  0  0  0  0  0  0  0  0
    3.3782   -9.4805    2.3694 N   0  0  0  0  0  0  0  0  0  0  0  0
    2.5118   -8.9755    3.3234 N   0  0  0  0  0  0  0  0  0  0  0  0
    3.1064   -7.8681    3.7368 C   0  0  0  0  0  0  0  0  0  0  0  0
    2.5916   -6.9013    4.7611 C   0  0  0  0  0  0  0  0  0  0  0  0
    2.6613   -5.3395    4.4908 C   0  0  0  0  0  0  0  0  0  0  0  0
    1.2793   -4.8176    4.9842 C   0  0  0  0  0  0  0  0  0  0  0  0
    3.6458   -4.6972    5.5117 C   0  0  0  0  0  0  0  0  0  0  0  0
    3.0974   -4.8780    3.0027 C   0  0  2  0  0  0  0  0  0  0  0  0
    2.2631   -5.5097    1.8414 C   0  0  0  0  0  0  0  0  0  0  0  0
    1.0939   -5.8559    2.0126 O   0  0  0  0  0  0  0  0  0  0  0  0
    2.9400   -5.6340    0.5224 C   0  0  0  0  0  0  0  0  0  0  0  0
    4.2487   -5.2998    0.3945 C   0  0  0  0  0  0  0  0  0  0  0  0
    2.9940   -3.3290    2.7333 C   0  0  0  0  0  0  0  0  0  0  0  0
    1.8144   -2.5788    2.9736 C   0  0  0  0  0  0  0  0  0  0  0  0
    1.7558   -1.1932    2.7453 C   0  0  0  0  0  0  0  0  0  0  0  0
    2.8685   -0.5235    2.2153 C   0  0  0  0  0  0  0  0  0  0  0  0
    4.0133   -1.2541    1.8594 C   0  0  0  0  0  0  0  0  0  0  0  0
    4.0696   -2.6521    2.0717 C   0  0  0  0  0  0  0  0  0  0  0  0
    7.1675   -3.5020    1.1205 H   0  0  0  0  0  0  0  0  0  0  0  0
    6.6295   -1.9391    1.6970 H   0  0  0  0  0  0  0  0  0  0  0  0
    6.2356   -2.4706    0.0428 H   0  0  0  0  0  0  0  0  0  0  0  0
    6.0623   -6.8418    2.6004 H   0  0  0  0  0  0  0  0  0  0  0  0
    5.5112   -6.5200    4.2154 H   0  0  0  0  0  0  0  0  0  0  0  0
    1.5515   -7.1999    4.8969 H   0  0  0  0  0  0  0  0  0  0  0  0
    3.0742   -7.1470    5.7087 H   0  0  0  0  0  0  0  0  0  0  0  0
    1.2914   -3.7562    5.2285 H   0  0  0  0  0  0  0  0  0  0  0  0
    0.9847   -5.2948    5.9219 H   0  0  0  0  0  0  0  0  0  0  0  0
    0.4704   -5.0103    4.2808 H   0  0  0  0  0  0  0  0  0  0  0  0
    3.6827   -3.6128    5.4028 H   0  0  0  0  0  0  0  0  0  0  0  0
    4.6682   -5.0475    5.4195 H   0  0  0  0  0  0  0  0  0  0  0  0
    3.3483   -4.9008    6.5421 H   0  0  0  0  0  0  0  0  0  0  0  0
    2.3675   -5.9959   -0.3207 H   0  0  0  0  0  0  0  0  0  0  0  0
    4.7220   -5.3983   -0.5717 H   0  0  0  0  0  0  0  0  0  0  0  0
    0.9002   -3.0466    3.2945 H   0  0  0  0  0  0  0  0  0  0  0  0
    0.8473   -0.6454    2.9518 H   0  0  0  0  0  0  0  0  0  0  0  0
    2.8217    0.5407    2.0293 H   0  0  0  0  0  0  0  0  0  0  0  0
    4.8163   -0.7245    1.3702 H   0  0  0  0  0  0  0  0  0  0  0  0
  1  2  1  0
  1 26  1  0
  1 27  1  0
  1 28  1  0
  2 25  1  0
  2  3  1  0
  3 19  1  0
  3  4  2  0
  4 15  1  0
  4  5  1  0
  5  6  1  0
  5 29  1  0
  5 30  1  0
  6 10  1  0
  6  7  1  0
  7  8  2  0
  8  9  1  0
  9 10  2  0
 10 11  1  0
 11 12  1  0
 11 31  1  0
 11 32  1  0
 12 13  1  0
 12 14  1  0
 15 12  1  1
 13 33  1  0
 13 34  1  0
 13 35  1  0
 14 36  1  0
 14 37  1  0
 14 38  1  0
 15 16  1  0
 15 20  1  0
 16 17  2  0
 16 18  1  0
 18 19  2  0
 18 39  1  0
 19 40  1  0
 20 25  2  0
 20 21  1  0
 21 22  2  0
 21 41  1  0
 22 23  1  0
 22 42  1  0
 23 24  2  0
 23 43  1  0
 24 25  1  0
 24 44  1  0
M  END
>  <i_m_ct_stereo_status>  (284) 
1

>  <s_m_source_file>  (284) 
/var/tmp/pbs.5076255.sched01/tmpe6iyr0oq/80tt78e_gd.sdf

>  <i_m_source_file_index>  (284) 
36

>  <i_lp_mmshare_version>  (284) 
48012

>  <i_f3d_flags>  (284) 
0

>  <s_epik_input>  (284) 
W2NIXTFbY0hdW2NIXVtjSF1jMmMxTihbQ0gzXSlDKFtDSF09W0NIXUMzPU8pPUMoW0NAQF0yMzQpW0NIMl1uNWMobm5uNSlbQ0gyXUM0KFtDSDNdKVtDSDNd

>  <s_epik_cmdline>  (284) 
J2VwaWtfcHl0aG9uJywgJy1waHQnLCAnMi4wJywgJy1waCcsICc3LjAnLCAnLXRuJywgJzgnLCAnLW1hJywgJzIwMCcsICctaW1hZScsICc8aW5maWxlLm1hZT4nLCAnLW9tYWUnLCAnPG91dGZpbGUubWFlPic=

>  <r_lp_tautomer_probability>  (284) 
1

>  <r_epik_Ionization_Penalty>  (284) 
8.06667e-08

>  <r_epik_Ionization_Penalty_Charging>  (284) 
5.39389e-15

>  <r_epik_Ionization_Penalty_Neutral>  (284) 
8.06667e-08

>  <r_epik_State_Penalty>  (284) 
-0

>  <r_epik_Charging_Adjusted_Penalty>  (284) 
5.39389e-15

>  <i_epik_Tot_Q>  (284) 
0

>  <i_epik_Tot_abs_Q>  (284) 
0

>  <s_epik_Chemistry_Notes>  (284) 
This compound has an imine and may undergo hydrolysis.

>  <s_lp_Force_Field>  (284) 
OPLS3e

>  <r_lp_Energy>  (284) 
128.368

>  <b_lp_Chiralities_Consistent>  (284) 
1

>  <s_lp_Variant>  (284) 
82:0-1

>  <s_i_glide_gridfile>  (284) 
pfpi4k_grid

>  <i_i_glide_lignum>  (284) 
36

>  <i_i_glide_rotatable_bonds>  (284) 
0

>  <r_i_docking_score>  (284) 
-2.68195

>  <r_i_glide_ligand_efficiency>  (284) 
-0.107278

>  <r_i_glide_ligand_efficiency_sa>  (284) 
-0.313683

>  <r_i_glide_ligand_efficiency_ln>  (284) 
-0.635704

>  <r_i_glide_gscore>  (284) 
-2.68195

>  <r_i_glide_lipo>  (284) 
-0.17392

>  <r_i_glide_hbond>  (284) 
-0.091542

>  <r_i_glide_metal>  (284) 
-0

>  <r_i_glide_rewards>  (284) 
-1.18781

>  <r_i_glide_evdw>  (284) 
-18.9542

>  <r_i_glide_ecoul>  (284) 
-1.34183

>  <r_i_glide_erotb>  (284) 
0

>  <r_i_glide_esite>  (284) 
-0.0797026

>  <r_i_glide_emodel>  (284) 
-23.746

>  <r_i_glide_energy>  (284) 
-20.296

>  <r_i_glide_einternal>  (284) 
0

>  <r_i_glide_intrahb_reward>  (284) 
-0

>  <i_i_glide_confnum>  (284) 
2

>  <i_i_glide_posenum>  (284) 
21

>  <r_i_glide_eff_state_penalty>  (284) 
0

>  <ligand_id>  (284) 
82

>  <original_smiles>  (284) 
CN1C2=C3Cn4nnnc4CC(C)(C)C3(C(=O)C=C2)c2ccccc21

>  <smiles>  (284) 
[H]C1=C([H])C2=C3C([H])([H])n4nnnc4C([H])([H])C(C([H])([H])[H])(C([H])([H])[H])C3(C1=O)c1c([H])c([H])c([H])c([H])c1N2C([H])([H])[H]

$$$$
84:0:0
     RDKit          3D

 45 47  0  0  1  0  0  0  0  0999 V2000
    3.5792  -12.3282    4.7153 C   0  0  0  0  0  0  0  0  0  0  0  0
    2.6144  -11.1872    4.7947 N   0  0  2  0  0  0  0  0  0  0  0  0
    1.2161  -11.5906    4.4724 C   0  0  0  0  0  0  0  0  0  0  0  0
    0.4558  -10.2813    4.2275 C   0  0  0  0  0  0  0  0  0  0  0  0
    1.5134   -9.2445    3.8297 C   0  0  0  0  0  0  0  0  0  0  0  0
    2.8801   -9.9972    3.9252 C   0  0  2  0  0  0  0  0  0  0  0  0
    3.3661  -10.4441    2.5167 C   0  0  0  0  0  0  0  0  0  0  0  0
    3.6548   -9.2688    1.5807 C   0  0  0  0  0  0  0  0  0  0  0  0
    4.6539   -8.3828    2.1655 N   0  0  0  0  0  0  0  0  0  0  0  0
    4.9569   -7.2879    1.2606 C   0  0  0  0  0  0  0  0  0  0  0  0
    6.3732   -6.8384    1.4112 C   0  0  0  0  0  0  0  0  0  0  0  0
    7.5386   -7.5375    1.3626 C   0  0  0  0  0  0  0  0  0  0  0  0
    8.5830   -6.6785    1.5155 N   0  0  0  0  0  0  0  0  0  0  0  0
    8.0725   -5.4030    1.6640 C   0  0  0  0  0  0  0  0  0  0  0  0
    6.7354   -5.5218    1.6002 N   0  0  0  0  0  0  0  0  0  0  0  0
    5.8247   -4.3746    1.7167 C   0  0  0  0  0  0  0  0  0  0  0  0
    4.2261   -7.8962    3.4877 C   0  0  0  0  0  0  0  0  0  0  0  0
    3.9716   -9.0526    4.4959 C   0  0  1  0  0  0  0  0  0  0  0  0
    3.5537   -8.4759    5.7198 O   0  0  0  0  0  0  0  0  0  0  0  0
    3.6555  -12.7729    3.7115 H   0  0  0  0  0  0  0  0  0  0  0  0
    3.2545  -13.1169    5.3975 H   0  0  0  0  0  0  0  0  0  0  0  0
    4.5836  -12.0170    5.0279 H   0  0  0  0  0  0  0  0  0  0  0  0
    1.2232  -12.1820    3.5562 H   0  0  0  0  0  0  0  0  0  0  0  0
    0.7899  -12.1845    5.2795 H   0  0  0  0  0  0  0  0  0  0  0  0
   -0.3001  -10.4077    3.4432 H   0  0  0  0  0  0  0  0  0  0  0  0
   -0.0468   -9.9444    5.1429 H   0  0  0  0  0  0  0  0  0  0  0  0
    1.2879   -8.8542    2.8223 H   0  0  0  0  0  0  0  0  0  0  0  0
    1.4460   -8.4076    4.5440 H   0  0  0  0  0  0  0  0  0  0  0  0
    4.2975  -11.0247    2.5689 H   0  0  0  0  0  0  0  0  0  0  0  0
    2.6176  -11.0910    2.0675 H   0  0  0  0  0  0  0  0  0  0  0  0
    4.0366   -9.6803    0.6424 H   0  0  0  0  0  0  0  0  0  0  0  0
    2.7432   -8.7213    1.3281 H   0  0  0  0  0  0  0  0  0  0  0  0
    4.8301   -7.6003    0.2222 H   0  0  0  0  0  0  0  0  0  0  0  0
    4.2608   -6.4652    1.4273 H   0  0  0  0  0  0  0  0  0  0  0  0
    7.7103   -8.6105    1.2148 H   0  0  0  0  0  0  0  0  0  0  0  0
    8.6334   -4.5102    1.7925 H   0  0  0  0  0  0  0  0  0  0  0  0
    6.3980   -3.4422    1.7470 H   0  0  0  0  0  0  0  0  0  0  0  0
    5.2415   -4.4939    2.6396 H   0  0  0  0  0  0  0  0  0  0  0  0
    5.1497   -4.3708    0.8493 H   0  0  0  0  0  0  0  0  0  0  0  0
    4.9517   -7.1778    3.8922 H   0  0  0  0  0  0  0  0  0  0  0  0
    3.2975   -7.3331    3.3692 H   0  0  0  0  0  0  0  0  0  0  0  0
    4.9167   -9.5739    4.6634 H   0  0  0  0  0  0  0  0  0  0  0  0
    3.2164   -9.1267    6.3228 H   0  0  0  0  0  0  0  0  0  0  0  0
    2.5566  -10.8713    5.7558 H   0  0  0  0  0  0  0  0  0  0  0  0
    9.5546   -6.9439    1.5053 H   0  0  0  0  0  0  0  0  0  0  0  0
  1  2  1  0
  1 20  1  0
  1 21  1  0
  1 22  1  0
  2  6  1  0
  2  3  1  0
  2 44  1  1
  3  4  1  0
  3 23  1  0
  3 24  1  0
  4  5  1  0
  4 25  1  0
  4 26  1  0
  6  5  1  6
  5 27  1  0
  5 28  1  0
  6 18  1  0
  6  7  1  0
  7  8  1  0
  7 29  1  0
  7 30  1  0
  8  9  1  0
  8 31  1  0
  8 32  1  0
  9 10  1  0
  9 17  1  0
 10 11  1  0
 10 33  1  0
 10 34  1  0
 11 15  1  0
 11 12  2  0
 12 13  1  0
 12 35  1  0
 13 14  2  0
 13 45  1  0
 14 15  1  0
 14 36  1  0
 15 16  1  0
 16 37  1  0
 16 38  1  0
 16 39  1  0
 17 18  1  0
 17 40  1  0
 17 41  1  0
 18 19  1  0
 18 42  1  1
 19 43  1  0
M  CHG  2   2   1  13   1
M  END
>  <i_m_ct_stereo_status>  (285) 
1

>  <s_m_source_file>  (285) 
/var/tmp/pbs.5076255.sched01/tmpe6iyr0oq/80tt78e_gd.sdf

>  <i_m_source_file_index>  (285) 
38

>  <i_lp_mmshare_version>  (285) 
48012

>  <i_f3d_flags>  (285) 
0

>  <s_epik_input>  (285) 
W0NIMl0xW0NIMl1bQ0gyXU4oW0NIM10pW0NAQF0xMltDSDJdW0NIMl1OKFtDSDJdW0NASF0yW09IXSlbQ0gyXWMzW2NIXW5bY0hdbjNbQ0gzXQ==

>  <s_epik_cmdline>  (285) 
J2VwaWtfcHl0aG9uJywgJy1waHQnLCAnMi4wJywgJy1waCcsICc3LjAnLCAnLXRuJywgJzgnLCAnLW1hJywgJzIwMCcsICctaW1hZScsICc8aW5maWxlLm1hZT4nLCAnLW9tYWUnLCAnPG91dGZpbGUubWFlPic=

>  <r_lp_tautomer_probability>  (285) 
1

>  <r_epik_Ionization_Penalty>  (285) 
0.346486

>  <r_epik_Ionization_Penalty_Charging>  (285) 
0.00975191

>  <r_epik_Ionization_Penalty_Neutral>  (285) 
0.336734

>  <r_epik_State_Penalty>  (285) 
0.341889

>  <r_epik_Charging_Adjusted_Penalty>  (285) 
0.351641

>  <i_epik_Tot_Q>  (285) 
2

>  <i_epik_Tot_abs_Q>  (285) 
2

>  <s_lp_Force_Field>  (285) 
OPLS3e

>  <r_lp_Energy>  (285) 
40.0733

>  <b_lp_Chiralities_Consistent>  (285) 
1

>  <s_lp_Variant>  (285) 
84:0-1

>  <s_i_glide_gridfile>  (285) 
pfpi4k_grid

>  <i_i_glide_lignum>  (285) 
38

>  <i_i_glide_rotatable_bonds>  (285) 
3

>  <r_i_docking_score>  (285) 
-3.9817

>  <r_i_glide_ligand_efficiency>  (285) 
-0.209563

>  <r_i_glide_ligand_efficiency_sa>  (285) 
-0.559199

>  <r_i_glide_ligand_efficiency_ln>  (285) 
-1.00945

>  <r_i_glide_gscore>  (285) 
-3.9817

>  <r_i_glide_lipo>  (285) 
-0.27208

>  <r_i_glide_hbond>  (285) 
-0.2

>  <r_i_glide_metal>  (285) 
-0

>  <r_i_glide_rewards>  (285) 
-1.81217

>  <r_i_glide_evdw>  (285) 
-14.3389

>  <r_i_glide_ecoul>  (285) 
-9.07308

>  <r_i_glide_erotb>  (285) 
0.50206

>  <r_i_glide_esite>  (285) 
-0.121599

>  <r_i_glide_emodel>  (285) 
-30.6079

>  <r_i_glide_energy>  (285) 
-23.412

>  <r_i_glide_einternal>  (285) 
3.86539

>  <r_i_glide_intrahb_reward>  (285) 
-0

>  <i_i_glide_confnum>  (285) 
5

>  <i_i_glide_posenum>  (285) 
40

>  <r_i_glide_eff_state_penalty>  (285) 
0

>  <ligand_id>  (285) 
84

>  <original_smiles>  (285) 
CN1CCCC12CCN(Cc1cncn1C)CC2O

>  <smiles>  (285) 
[H]OC1([H])C([H])([H])N(C([H])([H])c2c([H])[n+]([H])c([H])n2C([H])([H])[H])C([H])([H])C([H])([H])C12C([H])([H])C([H])([H])C([H])([H])[N+]2([H])C([H])([H])[H]

$$$$
84:0:1
     RDKit          3D

 45 47  0  0  1  0  0  0  0  0999 V2000
   -0.7459   -9.3118    2.8595 C   0  0  0  0  0  0  0  0  0  0  0  0
    0.5489   -9.5513    3.6007 N   0  0  2  0  0  0  0  0  0  0  0  0
    0.3998   -9.4280    5.0700 C   0  0  0  0  0  0  0  0  0  0  0  0
    1.8141   -9.3204    5.6410 C   0  0  0  0  0  0  0  0  0  0  0  0
    2.6760   -8.8090    4.4886 C   0  0  0  0  0  0  0  0  0  0  0  0
    1.7218   -8.6844    3.2540 C   0  0  2  0  0  0  0  0  0  0  0  0
    1.2680   -7.2116    3.0496 C   0  0  0  0  0  0  0  0  0  0  0  0
    2.4297   -6.2923    2.6869 C   0  0  0  0  0  0  0  0  0  0  0  0
    3.0934   -6.7730    1.4673 N   0  0  0  0  0  0  0  0  0  0  0  0
    4.1788   -5.8725    1.0930 C   0  0  0  0  0  0  0  0  0  0  0  0
    3.6881   -4.4675    0.8085 C   0  0  0  0  0  0  0  0  0  0  0  0
    2.7539   -4.0152   -0.0739 C   0  0  0  0  0  0  0  0  0  0  0  0
    2.6335   -2.6536    0.0789 N   0  0  0  0  0  0  0  0  0  0  0  0
    3.5088   -2.2544    1.0529 C   0  0  0  0  0  0  0  0  0  0  0  0
    4.1346   -3.3614    1.4934 N   0  0  0  0  0  0  0  0  0  0  0  0
    5.1304   -3.3139    2.5764 C   0  0  0  0  0  0  0  0  0  0  0  0
    3.5961   -8.1473    1.6542 C   0  0  0  0  0  0  0  0  0  0  0  0
    2.4569   -9.1470    1.9634 C   0  0  1  0  0  0  0  0  0  0  0  0
    3.0019  -10.4492    2.1648 O   0  0  0  0  0  0  0  0  0  0  0  0
   -1.1473   -8.2993    2.9942 H   0  0  0  0  0  0  0  0  0  0  0  0
   -1.5177   -9.9910    3.2364 H   0  0  0  0  0  0  0  0  0  0  0  0
   -0.6317   -9.4935    1.7954 H   0  0  0  0  0  0  0  0  0  0  0  0
   -0.1459   -8.5020    5.2790 H   0  0  0  0  0  0  0  0  0  0  0  0
   -0.1641  -10.2730    5.4994 H   0  0  0  0  0  0  0  0  0  0  0  0
    1.8427   -8.6429    6.4907 H   0  0  0  0  0  0  0  0  0  0  0  0
    2.1646  -10.3091    5.9532 H   0  0  0  0  0  0  0  0  0  0  0  0
    3.1687   -7.8658    4.7744 H   0  0  0  0  0  0  0  0  0  0  0  0
    3.4687   -9.5541    4.3447 H   0  0  0  0  0  0  0  0  0  0  0  0
    0.5480   -7.1164    2.2279 H   0  0  0  0  0  0  0  0  0  0  0  0
    0.7779   -6.8238    3.9370 H   0  0  0  0  0  0  0  0  0  0  0  0
    1.9982   -5.2949    2.5329 H   0  0  0  0  0  0  0  0  0  0  0  0
    3.1374   -6.1940    3.5188 H   0  0  0  0  0  0  0  0  0  0  0  0
    4.9310   -5.8271    1.8846 H   0  0  0  0  0  0  0  0  0  0  0  0
    4.6743   -6.2400    0.1914 H   0  0  0  0  0  0  0  0  0  0  0  0
    2.1336   -4.5666   -0.7924 H   0  0  0  0  0  0  0  0  0  0  0  0
    3.6391   -1.2475    1.3976 H   0  0  0  0  0  0  0  0  0  0  0  0
    5.1852   -2.3045    2.9809 H   0  0  0  0  0  0  0  0  0  0  0  0
    6.0901   -3.6114    2.1550 H   0  0  0  0  0  0  0  0  0  0  0  0
    4.8268   -4.0131    3.3581 H   0  0  0  0  0  0  0  0  0  0  0  0
    4.1618   -8.4649    0.7716 H   0  0  0  0  0  0  0  0  0  0  0  0
    4.3074   -8.1584    2.4800 H   0  0  0  0  0  0  0  0  0  0  0  0
    1.7978   -9.1776    1.0844 H   0  0  0  0  0  0  0  0  0  0  0  0
    3.4079  -10.8198    1.3859 H   0  0  0  0  0  0  0  0  0  0  0  0
    0.8810  -10.5120    3.4422 H   0  0  0  0  0  0  0  0  0  0  0  0
    2.0014   -2.0114   -0.3889 H   0  0  0  0  0  0  0  0  0  0  0  0
  1  2  1  0
  1 20  1  0
  1 21  1  0
  1 22  1  0
  2  6  1  0
  2  3  1  0
  2 44  1  1
  3  4  1  0
  3 23  1  0
  3 24  1  0
  4  5  1  0
  4 25  1  0
  4 26  1  0
  6  5  1  1
  5 27  1  0
  5 28  1  0
  6 18  1  0
  6  7  1  0
  7  8  1  0
  7 29  1  0
  7 30  1  0
  8  9  1  0
  8 31  1  0
  8 32  1  0
  9 10  1  0
  9 17  1  0
 10 11  1  0
 10 33  1  0
 10 34  1  0
 11 15  1  0
 11 12  2  0
 12 13  1  0
 12 35  1  0
 13 14  2  0
 13 45  1  0
 14 15  1  0
 14 36  1  0
 15 16  1  0
 16 37  1  0
 16 38  1  0
 16 39  1  0
 17 18  1  0
 17 40  1  0
 17 41  1  0
 18 19  1  0
 18 42  1  6
 19 43  1  0
M  CHG  2   2   1  13   1
M  END
>  <i_m_ct_stereo_status>  (286) 
1

>  <s_m_source_file>  (286) 
/var/tmp/pbs.5076255.sched01/tmpe6iyr0oq/80tt78e_gd.sdf

>  <i_m_source_file_index>  (286) 
38

>  <i_lp_mmshare_version>  (286) 
48012

>  <i_f3d_flags>  (286) 
0

>  <s_epik_input>  (286) 
W0NIMl0xW0NIMl1bQ0gyXU4oW0NIM10pW0NAQF0xMltDSDJdW0NIMl1OKFtDSDJdW0NASF0yW09IXSlbQ0gyXWMzW2NIXW5bY0hdbjNbQ0gzXQ==

>  <s_epik_cmdline>  (286) 
J2VwaWtfcHl0aG9uJywgJy1waHQnLCAnMi4wJywgJy1waCcsICc3LjAnLCAnLXRuJywgJzgnLCAnLW1hJywgJzIwMCcsICctaW1hZScsICc8aW5maWxlLm1hZT4nLCAnLW9tYWUnLCAnPG91dGZpbGUubWFlPic=

>  <r_lp_tautomer_probability>  (286) 
1

>  <r_epik_Ionization_Penalty>  (286) 
0.346486

>  <r_epik_Ionization_Penalty_Charging>  (286) 
0.00975191

>  <r_epik_Ionization_Penalty_Neutral>  (286) 
0.336734

>  <r_epik_State_Penalty>  (286) 
0.341889

>  <r_epik_Charging_Adjusted_Penalty>  (286) 
0.351641

>  <i_epik_Tot_Q>  (286) 
2

>  <i_epik_Tot_abs_Q>  (286) 
2

>  <s_lp_Force_Field>  (286) 
OPLS3e

>  <r_lp_Energy>  (286) 
40.0733

>  <b_lp_Chiralities_Consistent>  (286) 
1

>  <s_lp_Variant>  (286) 
84:0-1

>  <s_i_glide_gridfile>  (286) 
pfpi4k_grid

>  <i_i_glide_lignum>  (286) 
38

>  <i_i_glide_rotatable_bonds>  (286) 
3

>  <r_i_docking_score>  (286) 
-3.96063

>  <r_i_glide_ligand_efficiency>  (286) 
-0.208454

>  <r_i_glide_ligand_efficiency_sa>  (286) 
-0.55624

>  <r_i_glide_ligand_efficiency_ln>  (286) 
-1.00411

>  <r_i_glide_gscore>  (286) 
-3.96063

>  <r_i_glide_lipo>  (286) 
-0.119611

>  <r_i_glide_hbond>  (286) 
-0.36

>  <r_i_glide_metal>  (286) 
-0

>  <r_i_glide_rewards>  (286) 
-1.60456

>  <r_i_glide_evdw>  (286) 
-12.9316

>  <r_i_glide_ecoul>  (286) 
-10.7997

>  <r_i_glide_erotb>  (286) 
0.50206

>  <r_i_glide_esite>  (286) 
-0.111989

>  <r_i_glide_emodel>  (286) 
-32.6109

>  <r_i_glide_energy>  (286) 
-23.7313

>  <r_i_glide_einternal>  (286) 
0.785008

>  <r_i_glide_intrahb_reward>  (286) 
-0

>  <i_i_glide_confnum>  (286) 
5

>  <i_i_glide_posenum>  (286) 
1

>  <r_i_glide_eff_state_penalty>  (286) 
0

>  <ligand_id>  (286) 
84

>  <original_smiles>  (286) 
CN1CCCC12CCN(Cc1cncn1C)CC2O

>  <smiles>  (286) 
[H]OC1([H])C([H])([H])N(C([H])([H])c2c([H])[n+]([H])c([H])n2C([H])([H])[H])C([H])([H])C([H])([H])C12C([H])([H])C([H])([H])C([H])([H])[N+]2([H])C([H])([H])[H]

$$$$
84:0:2
     RDKit          3D

 45 47  0  0  1  0  0  0  0  0999 V2000
    1.4069  -10.3780    2.5855 C   0  0  0  0  0  0  0  0  0  0  0  0
    0.5739   -9.3816    3.3505 N   0  0  2  0  0  0  0  0  0  0  0  0
   -0.8435   -9.3738    2.9518 C   0  0  0  0  0  0  0  0  0  0  0  0
   -1.4684   -8.1239    3.5604 C   0  0  0  0  0  0  0  0  0  0  0  0
   -0.2977   -7.1573    3.7268 C   0  0  0  0  0  0  0  0  0  0  0  0
    0.9771   -7.9425    3.2716 C   0  0  2  0  0  0  0  0  0  0  0  0
    1.3602   -7.5700    1.8089 C   0  0  0  0  0  0  0  0  0  0  0  0
    1.7714   -6.1105    1.6708 C   0  0  0  0  0  0  0  0  0  0  0  0
    2.8915   -5.8054    2.5608 N   0  0  0  0  0  0  0  0  0  0  0  0
    3.3261   -4.4260    2.3956 C   0  0  0  0  0  0  0  0  0  0  0  0
    3.8116   -4.1452    0.9933 C   0  0  0  0  0  0  0  0  0  0  0  0
    4.4244   -4.9476    0.0843 C   0  0  0  0  0  0  0  0  0  0  0  0
    4.6236   -4.2170   -1.0559 N   0  0  0  0  0  0  0  0  0  0  0  0
    4.1421   -2.9611   -0.8671 C   0  0  0  0  0  0  0  0  0  0  0  0
    3.6494   -2.9276    0.3831 N   0  0  0  0  0  0  0  0  0  0  0  0
    3.0270   -1.7146    0.9318 C   0  0  0  0  0  0  0  0  0  0  0  0
    2.5420   -6.0922    3.9611 C   0  0  0  0  0  0  0  0  0  0  0  0
    2.1780   -7.5855    4.1754 C   0  0  1  0  0  0  0  0  0  0  0  0
    1.8491   -7.7619    5.5455 O   0  0  0  0  0  0  0  0  0  0  0  0
    1.4186  -10.1908    1.5044 H   0  0  0  0  0  0  0  0  0  0  0  0
    0.9972  -11.3857    2.7315 H   0  0  0  0  0  0  0  0  0  0  0  0
    2.4407  -10.3888    2.9284 H   0  0  0  0  0  0  0  0  0  0  0  0
   -0.9355   -9.3763    1.8643 H   0  0  0  0  0  0  0  0  0  0  0  0
   -1.3728  -10.2476    3.2952 H   0  0  0  0  0  0  0  0  0  0  0  0
   -2.2473   -7.7378    2.9021 H   0  0  0  0  0  0  0  0  0  0  0  0
   -1.9031   -8.3489    4.5427 H   0  0  0  0  0  0  0  0  0  0  0  0
   -0.4989   -6.2566    3.1311 H   0  0  0  0  0  0  0  0  0  0  0  0
   -0.2571   -6.8728    4.7896 H   0  0  0  0  0  0  0  0  0  0  0  0
    2.2177   -8.1548    1.4526 H   0  0  0  0  0  0  0  0  0  0  0  0
    0.5491   -7.7743    1.1151 H   0  0  0  0  0  0  0  0  0  0  0  0
    2.0496   -5.9751    0.6205 H   0  0  0  0  0  0  0  0  0  0  0  0
    0.9333   -5.4370    1.8575 H   0  0  0  0  0  0  0  0  0  0  0  0
    2.5063   -3.7422    2.6227 H   0  0  0  0  0  0  0  0  0  0  0  0
    4.1488   -4.2037    3.0749 H   0  0  0  0  0  0  0  0  0  0  0  0
    4.7094   -6.0013    0.1477 H   0  0  0  0  0  0  0  0  0  0  0  0
    4.1294   -2.1694   -1.5866 H   0  0  0  0  0  0  0  0  0  0  0  0
    2.9745   -0.9430    0.1570 H   0  0  0  0  0  0  0  0  0  0  0  0
    3.6504   -1.3748    1.7656 H   0  0  0  0  0  0  0  0  0  0  0  0
    2.0161   -1.9623    1.2819 H   0  0  0  0  0  0  0  0  0  0  0  0
    3.3589   -5.7861    4.6248 H   0  0  0  0  0  0  0  0  0  0  0  0
    1.6932   -5.4710    4.2480 H   0  0  0  0  0  0  0  0  0  0  0  0
    3.0672   -8.1874    3.9506 H   0  0  0  0  0  0  0  0  0  0  0  0
    1.6147   -8.6552    5.7490 H   0  0  0  0  0  0  0  0  0  0  0  0
    0.5724   -9.6393    4.3440 H   0  0  0  0  0  0  0  0  0  0  0  0
    5.0080   -4.5574   -1.9174 H   0  0  0  0  0  0  0  0  0  0  0  0
  1  2  1  0
  1 20  1  0
  1 21  1  0
  1 22  1  0
  2  6  1  0
  2  3  1  0
  2 44  1  1
  3  4  1  0
  3 23  1  0
  3 24  1  0
  4  5  1  0
  4 25  1  0
  4 26  1  0
  6  5  1  1
  5 27  1  0
  5 28  1  0
  6 18  1  0
  6  7  1  0
  7  8  1  0
  7 29  1  0
  7 30  1  0
  8  9  1  0
  8 31  1  0
  8 32  1  0
  9 10  1  0
  9 17  1  0
 10 11  1  0
 10 33  1  0
 10 34  1  0
 11 15  1  0
 11 12  2  0
 12 13  1  0
 12 35  1  0
 13 14  2  0
 13 45  1  0
 14 15  1  0
 14 36  1  0
 15 16  1  0
 16 37  1  0
 16 38  1  0
 16 39  1  0
 17 18  1  0
 17 40  1  0
 17 41  1  0
 18 19  1  0
 18 42  1  6
 19 43  1  0
M  CHG  2   2   1  13   1
M  END
>  <i_m_ct_stereo_status>  (287) 
1

>  <s_m_source_file>  (287) 
/var/tmp/pbs.5076255.sched01/tmpe6iyr0oq/80tt78e_gd.sdf

>  <i_m_source_file_index>  (287) 
38

>  <i_lp_mmshare_version>  (287) 
48012

>  <i_f3d_flags>  (287) 
0

>  <s_epik_input>  (287) 
W0NIMl0xW0NIMl1bQ0gyXU4oW0NIM10pW0NAQF0xMltDSDJdW0NIMl1OKFtDSDJdW0NASF0yW09IXSlbQ0gyXWMzW2NIXW5bY0hdbjNbQ0gzXQ==

>  <s_epik_cmdline>  (287) 
J2VwaWtfcHl0aG9uJywgJy1waHQnLCAnMi4wJywgJy1waCcsICc3LjAnLCAnLXRuJywgJzgnLCAnLW1hJywgJzIwMCcsICctaW1hZScsICc8aW5maWxlLm1hZT4nLCAnLW9tYWUnLCAnPG91dGZpbGUubWFlPic=

>  <r_lp_tautomer_probability>  (287) 
1

>  <r_epik_Ionization_Penalty>  (287) 
0.346486

>  <r_epik_Ionization_Penalty_Charging>  (287) 
0.00975191

>  <r_epik_Ionization_Penalty_Neutral>  (287) 
0.336734

>  <r_epik_State_Penalty>  (287) 
0.341889

>  <r_epik_Charging_Adjusted_Penalty>  (287) 
0.351641

>  <i_epik_Tot_Q>  (287) 
2

>  <i_epik_Tot_abs_Q>  (287) 
2

>  <s_lp_Force_Field>  (287) 
OPLS3e

>  <r_lp_Energy>  (287) 
40.0733

>  <b_lp_Chiralities_Consistent>  (287) 
1

>  <s_lp_Variant>  (287) 
84:0-1

>  <s_i_glide_gridfile>  (287) 
pfpi4k_grid

>  <i_i_glide_lignum>  (287) 
38

>  <i_i_glide_rotatable_bonds>  (287) 
3

>  <r_i_docking_score>  (287) 
-2.94905

>  <r_i_glide_ligand_efficiency>  (287) 
-0.155213

>  <r_i_glide_ligand_efficiency_sa>  (287) 
-0.414171

>  <r_i_glide_ligand_efficiency_ln>  (287) 
-0.747648

>  <r_i_glide_gscore>  (287) 
-2.94905

>  <r_i_glide_lipo>  (287) 
-0.165684

>  <r_i_glide_hbond>  (287) 
0

>  <r_i_glide_metal>  (287) 
-0

>  <r_i_glide_rewards>  (287) 
-1.59285

>  <r_i_glide_evdw>  (287) 
-16.7385

>  <r_i_glide_ecoul>  (287) 
-5.2996

>  <r_i_glide_erotb>  (287) 
0.50206

>  <r_i_glide_esite>  (287) 
-0.0607165

>  <r_i_glide_emodel>  (287) 
-28.229

>  <r_i_glide_energy>  (287) 
-22.0381

>  <r_i_glide_einternal>  (287) 
0.830614

>  <r_i_glide_intrahb_reward>  (287) 
-0

>  <i_i_glide_confnum>  (287) 
5

>  <i_i_glide_posenum>  (287) 
12

>  <r_i_glide_eff_state_penalty>  (287) 
0

>  <ligand_id>  (287) 
84

>  <original_smiles>  (287) 
CN1CCCC12CCN(Cc1cncn1C)CC2O

>  <smiles>  (287) 
[H]OC1([H])C([H])([H])N(C([H])([H])c2c([H])[n+]([H])c([H])n2C([H])([H])[H])C([H])([H])C([H])([H])C12C([H])([H])C([H])([H])C([H])([H])[N+]2([H])C([H])([H])[H]

$$$$
84:1:0
     RDKit          3D

 44 46  0  0  1  0  0  0  0  0999 V2000
    3.1359   -1.1578   -1.7863 C   0  0  0  0  0  0  0  0  0  0  0  0
    4.3478   -2.0219   -1.8247 N   0  0  2  0  0  0  0  0  0  0  0  0
    4.5569   -2.5805   -3.1924 C   0  0  0  0  0  0  0  0  0  0  0  0
    5.5620   -3.7044   -3.0196 C   0  0  0  0  0  0  0  0  0  0  0  0
    5.4337   -4.1458   -1.5619 C   0  0  0  0  0  0  0  0  0  0  0  0
    4.3867   -3.1974   -0.9081 C   0  0  2  0  0  0  0  0  0  0  0  0
    2.9965   -3.8884   -0.8109 C   0  0  0  0  0  0  0  0  0  0  0  0
    3.0209   -5.1010    0.1149 C   0  0  0  0  0  0  0  0  0  0  0  0
    3.4619   -4.7189    1.4573 N   0  0  0  0  0  0  0  0  0  0  0  0
    3.4260   -5.8638    2.3576 C   0  0  0  0  0  0  0  0  0  0  0  0
    2.0470   -6.4290    2.5198 C   0  0  0  0  0  0  0  0  0  0  0  0
    0.8740   -5.7742    2.8798 C   0  0  0  0  0  0  0  0  0  0  0  0
   -0.1865   -6.6582    2.8190 N   0  0  0  0  0  0  0  0  0  0  0  0
    0.3657   -7.8153    2.4945 C   0  0  0  0  0  0  0  0  0  0  0  0
    1.7068   -7.7431    2.2797 N   0  0  0  0  0  0  0  0  0  0  0  0
    2.5736   -8.8338    1.8799 C   0  0  0  0  0  0  0  0  0  0  0  0
    4.7914   -4.0955    1.4136 C   0  0  0  0  0  0  0  0  0  0  0  0
    4.8155   -2.8131    0.5356 C   0  0  1  0  0  0  0  0  0  0  0  0
    6.1090   -2.2124    0.5175 O   0  0  0  0  0  0  0  0  0  0  0  0
    2.2566   -1.7345   -2.0661 H   0  0  0  0  0  0  0  0  0  0  0  0
    3.2061   -0.3381   -2.5050 H   0  0  0  0  0  0  0  0  0  0  0  0
    3.0119   -0.7345   -0.7887 H   0  0  0  0  0  0  0  0  0  0  0  0
    3.6147   -3.0039   -3.5423 H   0  0  0  0  0  0  0  0  0  0  0  0
    4.8645   -1.8012   -3.8943 H   0  0  0  0  0  0  0  0  0  0  0  0
    5.3343   -4.5265   -3.6940 H   0  0  0  0  0  0  0  0  0  0  0  0
    6.5769   -3.3465   -3.1958 H   0  0  0  0  0  0  0  0  0  0  0  0
    5.1732   -5.2122   -1.5038 H   0  0  0  0  0  0  0  0  0  0  0  0
    6.4328   -4.0437   -1.1159 H   0  0  0  0  0  0  0  0  0  0  0  0
    2.2217   -3.2270   -0.4051 H   0  0  0  0  0  0  0  0  0  0  0  0
    2.6384   -4.2011   -1.7874 H   0  0  0  0  0  0  0  0  0  0  0  0
    2.0008   -5.5062    0.1353 H   0  0  0  0  0  0  0  0  0  0  0  0
    3.6420   -5.9089   -0.2831 H   0  0  0  0  0  0  0  0  0  0  0  0
    4.1012   -6.6427    1.9826 H   0  0  0  0  0  0  0  0  0  0  0  0
    3.8019   -5.5658    3.3363 H   0  0  0  0  0  0  0  0  0  0  0  0
    0.7361   -4.7486    3.1177 H   0  0  0  0  0  0  0  0  0  0  0  0
   -0.1769   -8.7371    2.3878 H   0  0  0  0  0  0  0  0  0  0  0  0
    2.0293   -9.7742    1.8555 H   0  0  0  0  0  0  0  0  0  0  0  0
    3.4000   -8.9193    2.5864 H   0  0  0  0  0  0  0  0  0  0  0  0
    2.9790   -8.6348    0.8849 H   0  0  0  0  0  0  0  0  0  0  0  0
    5.1301   -3.8648    2.4272 H   0  0  0  0  0  0  0  0  0  0  0  0
    5.5057   -4.8152    1.0218 H   0  0  0  0  0  0  0  0  0  0  0  0
    4.1303   -2.0775    0.9774 H   0  0  0  0  0  0  0  0  0  0  0  0
    6.4339   -2.0955    1.4121 H   0  0  0  0  0  0  0  0  0  0  0  0
    5.1913   -1.5014   -1.6096 H   0  0  0  0  0  0  0  0  0  0  0  0
  1  2  1  0
  1 20  1  0
  1 21  1  0
  1 22  1  0
  2  6  1  0
  2  3  1  0
  2 44  1  1
  3  4  1  0
  3 23  1  0
  3 24  1  0
  4  5  1  0
  4 25  1  0
  4 26  1  0
  6  5  1  6
  5 27  1  0
  5 28  1  0
  6 18  1  0
  6  7  1  0
  7  8  1  0
  7 29  1  0
  7 30  1  0
  8  9  1  0
  8 31  1  0
  8 32  1  0
  9 10  1  0
  9 17  1  0
 10 11  1  0
 10 33  1  0
 10 34  1  0
 11 15  1  0
 11 12  2  0
 12 13  1  0
 12 35  1  0
 13 14  2  0
 14 15  1  0
 14 36  1  0
 15 16  1  0
 16 37  1  0
 16 38  1  0
 16 39  1  0
 17 18  1  0
 17 40  1  0
 17 41  1  0
 18 19  1  0
 18 42  1  1
 19 43  1  0
M  CHG  1   2   1
M  END
>  <i_m_ct_stereo_status>  (288) 
1

>  <s_m_source_file>  (288) 
/var/tmp/pbs.5076255.sched01/tmpe6iyr0oq/80tt78e_gd.sdf

>  <i_m_source_file_index>  (288) 
39

>  <i_lp_mmshare_version>  (288) 
48012

>  <i_f3d_flags>  (288) 
0

>  <s_epik_input>  (288) 
W0NIMl0xW0NIMl1bQ0gyXU4oW0NIM10pW0NAQF0xMltDSDJdW0NIMl1OKFtDSDJdW0NASF0yW09IXSlbQ0gyXWMzW2NIXW5bY0hdbjNbQ0gzXQ==

>  <s_epik_cmdline>  (288) 
J2VwaWtfcHl0aG9uJywgJy1waHQnLCAnMi4wJywgJy1waCcsICc3LjAnLCAnLXRuJywgJzgnLCAnLW1hJywgJzIwMCcsICctaW1hZScsICc8aW5maWxlLm1hZT4nLCAnLW9tYWUnLCAnPG91dGZpbGUubWFlPic=

>  <r_lp_tautomer_probability>  (288) 
1

>  <r_epik_Ionization_Penalty>  (288) 
0.545391

>  <r_epik_Ionization_Penalty_Charging>  (288) 
0.512197

>  <r_epik_Ionization_Penalty_Neutral>  (288) 
0.0331938

>  <r_epik_State_Penalty>  (288) 
0.525707

>  <r_epik_Charging_Adjusted_Penalty>  (288) 
1.0379

>  <i_epik_Tot_Q>  (288) 
1

>  <i_epik_Tot_abs_Q>  (288) 
1

>  <s_lp_Force_Field>  (288) 
OPLS3e

>  <r_lp_Energy>  (288) 
31.4661

>  <b_lp_Chiralities_Consistent>  (288) 
1

>  <s_lp_Variant>  (288) 
84:0-2

>  <s_i_glide_gridfile>  (288) 
pfpi4k_grid

>  <i_i_glide_lignum>  (288) 
39

>  <i_i_glide_rotatable_bonds>  (288) 
3

>  <r_i_docking_score>  (288) 
-3.40784

>  <r_i_glide_ligand_efficiency>  (288) 
-0.17936

>  <r_i_glide_ligand_efficiency_sa>  (288) 
-0.478604

>  <r_i_glide_ligand_efficiency_ln>  (288) 
-0.86396

>  <r_i_glide_gscore>  (288) 
-3.40784

>  <r_i_glide_lipo>  (288) 
-0.288323

>  <r_i_glide_hbond>  (288) 
-0.16

>  <r_i_glide_metal>  (288) 
-0

>  <r_i_glide_rewards>  (288) 
-1.59972

>  <r_i_glide_evdw>  (288) 
-16.3331

>  <r_i_glide_ecoul>  (288) 
-6.39989

>  <r_i_glide_erotb>  (288) 
0.505357

>  <r_i_glide_esite>  (288) 
-0.0885108

>  <r_i_glide_emodel>  (288) 
-28.0012

>  <r_i_glide_energy>  (288) 
-22.733

>  <r_i_glide_einternal>  (288) 
0.542399

>  <r_i_glide_intrahb_reward>  (288) 
-0

>  <i_i_glide_confnum>  (288) 
4

>  <i_i_glide_posenum>  (288) 
14

>  <r_i_glide_eff_state_penalty>  (288) 
0

>  <ligand_id>  (288) 
84

>  <original_smiles>  (288) 
CN1CCCC12CCN(Cc1cncn1C)CC2O

>  <smiles>  (288) 
[H]OC1([H])C([H])([H])N(C([H])([H])c2c([H])nc([H])n2C([H])([H])[H])C([H])([H])C([H])([H])C12C([H])([H])C([H])([H])C([H])([H])[N+]2([H])C([H])([H])[H]

$$$$
84:1:1
     RDKit          3D

 44 46  0  0  1  0  0  0  0  0999 V2000
   -1.0289   -8.4636    3.2019 C   0  0  0  0  0  0  0  0  0  0  0  0
   -0.2771   -9.3180    4.1711 N   0  0  2  0  0  0  0  0  0  0  0  0
   -0.4765   -8.8932    5.5933 C   0  0  0  0  0  0  0  0  0  0  0  0
    0.5826   -9.6235    6.4033 C   0  0  0  0  0  0  0  0  0  0  0  0
    1.6992   -9.9527    5.4110 C   0  0  0  0  0  0  0  0  0  0  0  0
    1.1960   -9.4280    4.0351 C   0  0  2  0  0  0  0  0  0  0  0  0
    1.8095   -8.0550    3.6768 C   0  0  0  0  0  0  0  0  0  0  0  0
    3.3196   -8.1354    3.4888 C   0  0  0  0  0  0  0  0  0  0  0  0
    3.6728   -9.1160    2.4589 N   0  0  0  0  0  0  0  0  0  0  0  0
    5.1049   -9.1374    2.2239 C   0  0  0  0  0  0  0  0  0  0  0  0
    5.6340   -7.8243    1.7114 C   0  0  0  0  0  0  0  0  0  0  0  0
    5.0258   -6.8999    0.8681 C   0  0  0  0  0  0  0  0  0  0  0  0
    5.8654   -5.8168    0.6851 N   0  0  0  0  0  0  0  0  0  0  0  0
    6.9292   -6.1137    1.3940 C   0  0  0  0  0  0  0  0  0  0  0  0
    6.8566   -7.3085    2.0472 N   0  0  0  0  0  0  0  0  0  0  0  0
    7.8691   -7.8756    2.9137 C   0  0  0  0  0  0  0  0  0  0  0  0
    3.1477  -10.4344    2.8270 C   0  0  0  0  0  0  0  0  0  0  0  0
    1.6044  -10.4292    2.9358 C   0  0  1  0  0  0  0  0  0  0  0  0
    1.1011  -11.7150    3.2781 O   0  0  0  0  0  0  0  0  0  0  0  0
   -0.6961   -7.4311    3.2274 H   0  0  0  0  0  0  0  0  0  0  0  0
   -2.0880   -8.4764    3.4516 H   0  0  0  0  0  0  0  0  0  0  0  0
   -0.9225   -8.8275    2.1823 H   0  0  0  0  0  0  0  0  0  0  0  0
   -0.3317   -7.8196    5.6632 H   0  0  0  0  0  0  0  0  0  0  0  0
   -1.4798   -9.1137    5.9279 H   0  0  0  0  0  0  0  0  0  0  0  0
    0.9457   -9.0132    7.2300 H   0  0  0  0  0  0  0  0  0  0  0  0
    0.1802  -10.5546    6.8029 H   0  0  0  0  0  0  0  0  0  0  0  0
    2.6453   -9.4891    5.7305 H   0  0  0  0  0  0  0  0  0  0  0  0
    1.8420  -11.0495    5.4025 H   0  0  0  0  0  0  0  0  0  0  0  0
    1.3953   -7.6641    2.7354 H   0  0  0  0  0  0  0  0  0  0  0  0
    1.5870   -7.3183    4.4457 H   0  0  0  0  0  0  0  0  0  0  0  0
    3.6648   -7.1348    3.2069 H   0  0  0  0  0  0  0  0  0  0  0  0
    3.8257   -8.3804    4.4219 H   0  0  0  0  0  0  0  0  0  0  0  0
    5.5994   -9.3918    3.1627 H   0  0  0  0  0  0  0  0  0  0  0  0
    5.3481   -9.9305    1.5154 H   0  0  0  0  0  0  0  0  0  0  0  0
    4.0657   -6.9454    0.4122 H   0  0  0  0  0  0  0  0  0  0  0  0
    7.7958   -5.4841    1.4725 H   0  0  0  0  0  0  0  0  0  0  0  0
    8.7659   -7.2691    2.9080 H   0  0  0  0  0  0  0  0  0  0  0  0
    8.1195   -8.8750    2.5674 H   0  0  0  0  0  0  0  0  0  0  0  0
    7.4888   -7.9368    3.9323 H   0  0  0  0  0  0  0  0  0  0  0  0
    3.4767  -11.2174    2.1605 H   0  0  0  0  0  0  0  0  0  0  0  0
    3.5793  -10.7461    3.7695 H   0  0  0  0  0  0  0  0  0  0  0  0
    1.1720  -10.1835    1.9623 H   0  0  0  0  0  0  0  0  0  0  0  0
    1.5208  -12.0280    4.0710 H   0  0  0  0  0  0  0  0  0  0  0  0
   -0.6642  -10.2646    4.1373 H   0  0  0  0  0  0  0  0  0  0  0  0
  1  2  1  0
  1 20  1  0
  1 21  1  0
  1 22  1  0
  2  6  1  0
  2  3  1  0
  2 44  1  1
  3  4  1  0
  3 23  1  0
  3 24  1  0
  4  5  1  0
  4 25  1  0
  4 26  1  0
  6  5  1  1
  5 27  1  0
  5 28  1  0
  6 18  1  0
  6  7  1  0
  7  8  1  0
  7 29  1  0
  7 30  1  0
  8  9  1  0
  8 31  1  0
  8 32  1  0
  9 10  1  0
  9 17  1  0
 10 11  1  0
 10 33  1  0
 10 34  1  0
 11 15  1  0
 11 12  2  0
 12 13  1  0
 12 35  1  0
 13 14  2  0
 14 15  1  0
 14 36  1  0
 15 16  1  0
 16 37  1  0
 16 38  1  0
 16 39  1  0
 17 18  1  0
 17 40  1  0
 17 41  1  0
 18 19  1  0
 18 42  1  6
 19 43  1  0
M  CHG  1   2   1
M  END
>  <i_m_ct_stereo_status>  (289) 
1

>  <s_m_source_file>  (289) 
/var/tmp/pbs.5076255.sched01/tmpe6iyr0oq/80tt78e_gd.sdf

>  <i_m_source_file_index>  (289) 
39

>  <i_lp_mmshare_version>  (289) 
48012

>  <i_f3d_flags>  (289) 
0

>  <s_epik_input>  (289) 
W0NIMl0xW0NIMl1bQ0gyXU4oW0NIM10pW0NAQF0xMltDSDJdW0NIMl1OKFtDSDJdW0NASF0yW09IXSlbQ0gyXWMzW2NIXW5bY0hdbjNbQ0gzXQ==

>  <s_epik_cmdline>  (289) 
J2VwaWtfcHl0aG9uJywgJy1waHQnLCAnMi4wJywgJy1waCcsICc3LjAnLCAnLXRuJywgJzgnLCAnLW1hJywgJzIwMCcsICctaW1hZScsICc8aW5maWxlLm1hZT4nLCAnLW9tYWUnLCAnPG91dGZpbGUubWFlPic=

>  <r_lp_tautomer_probability>  (289) 
1

>  <r_epik_Ionization_Penalty>  (289) 
0.545391

>  <r_epik_Ionization_Penalty_Charging>  (289) 
0.512197

>  <r_epik_Ionization_Penalty_Neutral>  (289) 
0.0331938

>  <r_epik_State_Penalty>  (289) 
0.525707

>  <r_epik_Charging_Adjusted_Penalty>  (289) 
1.0379

>  <i_epik_Tot_Q>  (289) 
1

>  <i_epik_Tot_abs_Q>  (289) 
1

>  <s_lp_Force_Field>  (289) 
OPLS3e

>  <r_lp_Energy>  (289) 
31.4661

>  <b_lp_Chiralities_Consistent>  (289) 
1

>  <s_lp_Variant>  (289) 
84:0-2

>  <s_i_glide_gridfile>  (289) 
pfpi4k_grid

>  <i_i_glide_lignum>  (289) 
39

>  <i_i_glide_rotatable_bonds>  (289) 
3

>  <r_i_docking_score>  (289) 
-3.19367

>  <r_i_glide_ligand_efficiency>  (289) 
-0.168088

>  <r_i_glide_ligand_efficiency_sa>  (289) 
-0.448527

>  <r_i_glide_ligand_efficiency_ln>  (289) 
-0.809665

>  <r_i_glide_gscore>  (289) 
-3.19367

>  <r_i_glide_lipo>  (289) 
-0.276385

>  <r_i_glide_hbond>  (289) 
-0.122933

>  <r_i_glide_metal>  (289) 
-0

>  <r_i_glide_rewards>  (289) 
-1.79166

>  <r_i_glide_evdw>  (289) 
-16.7472

>  <r_i_glide_ecoul>  (289) 
-3.89724

>  <r_i_glide_erotb>  (289) 
0.505357

>  <r_i_glide_esite>  (289) 
-0.0861127

>  <r_i_glide_emodel>  (289) 
-25.26

>  <r_i_glide_energy>  (289) 
-20.6444

>  <r_i_glide_einternal>  (289) 
0.1914

>  <r_i_glide_intrahb_reward>  (289) 
-0

>  <i_i_glide_confnum>  (289) 
4

>  <i_i_glide_posenum>  (289) 
12

>  <r_i_glide_eff_state_penalty>  (289) 
0

>  <ligand_id>  (289) 
84

>  <original_smiles>  (289) 
CN1CCCC12CCN(Cc1cncn1C)CC2O

>  <smiles>  (289) 
[H]OC1([H])C([H])([H])N(C([H])([H])c2c([H])nc([H])n2C([H])([H])[H])C([H])([H])C([H])([H])C12C([H])([H])C([H])([H])C([H])([H])[N+]2([H])C([H])([H])[H]

$$$$
84:1:2
     RDKit          3D

 44 46  0  0  1  0  0  0  0  0999 V2000
    1.1739  -10.5015    2.7814 C   0  0  0  0  0  0  0  0  0  0  0  0
    0.3277   -9.4798    3.4709 N   0  0  2  0  0  0  0  0  0  0  0  0
   -1.0591   -9.4037    2.9021 C   0  0  0  0  0  0  0  0  0  0  0  0
   -1.6691   -8.1255    3.4416 C   0  0  0  0  0  0  0  0  0  0  0  0
   -0.4851   -7.2211    3.7533 C   0  0  0  0  0  0  0  0  0  0  0  0
    0.7875   -8.0604    3.4461 C   0  0  2  0  0  0  0  0  0  0  0  0
    1.3609   -7.7033    2.0512 C   0  0  0  0  0  0  0  0  0  0  0  0
    1.8690   -6.2680    1.9788 C   0  0  0  0  0  0  0  0  0  0  0  0
    2.8713   -6.0154    3.0148 N   0  0  0  0  0  0  0  0  0  0  0  0
    3.3869   -4.6617    2.9027 C   0  0  0  0  0  0  0  0  0  0  0  0
    4.1262   -4.4317    1.6188 C   0  0  0  0  0  0  0  0  0  0  0  0
    5.1402   -5.1905    1.0397 C   0  0  0  0  0  0  0  0  0  0  0  0
    5.5184   -4.6153   -0.1605 N   0  0  0  0  0  0  0  0  0  0  0  0
    4.7440   -3.5566   -0.2844 C   0  0  0  0  0  0  0  0  0  0  0  0
    3.8702   -3.3788    0.7614 N   0  0  0  0  0  0  0  0  0  0  0  0
    2.9152   -2.3154    0.8984 C   0  0  0  0  0  0  0  0  0  0  0  0
    2.3328   -6.2933    4.3471 C   0  0  0  0  0  0  0  0  0  0  0  0
    1.8759   -7.7691    4.5038 C   0  0  1  0  0  0  0  0  0  0  0  0
    1.3727   -7.9513    5.8248 O   0  0  0  0  0  0  0  0  0  0  0  0
    1.2987  -10.2469    1.7292 H   0  0  0  0  0  0  0  0  0  0  0  0
    0.7100  -11.4890    2.8594 H   0  0  0  0  0  0  0  0  0  0  0  0
    2.1573  -10.5681    3.2374 H   0  0  0  0  0  0  0  0  0  0  0  0
   -1.0060   -9.3876    1.8186 H   0  0  0  0  0  0  0  0  0  0  0  0
   -1.6505  -10.2481    3.2051 H   0  0  0  0  0  0  0  0  0  0  0  0
   -2.3542   -7.6889    2.7194 H   0  0  0  0  0  0  0  0  0  0  0  0
   -2.1962   -8.3282    4.3743 H   0  0  0  0  0  0  0  0  0  0  0  0
   -0.5557   -6.2898    3.1732 H   0  0  0  0  0  0  0  0  0  0  0  0
   -0.5646   -6.9383    4.8103 H   0  0  0  0  0  0  0  0  0  0  0  0
    2.2240   -8.3313    1.7881 H   0  0  0  0  0  0  0  0  0  0  0  0
    0.6249   -7.8571    1.2596 H   0  0  0  0  0  0  0  0  0  0  0  0
    2.2973   -6.1243    0.9829 H   0  0  0  0  0  0  0  0  0  0  0  0
    1.0479   -5.5568    2.0612 H   0  0  0  0  0  0  0  0  0  0  0  0
    2.5583   -3.9545    2.9876 H   0  0  0  0  0  0  0  0  0  0  0  0
    4.0565   -4.4572    3.7381 H   0  0  0  0  0  0  0  0  0  0  0  0
    5.5899   -6.0857    1.3957 H   0  0  0  0  0  0  0  0  0  0  0  0
    4.7722   -2.8795   -1.1076 H   0  0  0  0  0  0  0  0  0  0  0  0
    3.0131   -1.5910    0.0911 H   0  0  0  0  0  0  0  0  0  0  0  0
    3.0709   -1.8004    1.8501 H   0  0  0  0  0  0  0  0  0  0  0  0
    1.9001   -2.7195    0.8769 H   0  0  0  0  0  0  0  0  0  0  0  0
    3.0756   -6.0472    5.1130 H   0  0  0  0  0  0  0  0  0  0  0  0
    1.4906   -5.6318    4.5383 H   0  0  0  0  0  0  0  0  0  0  0  0
    2.7530   -8.4195    4.3824 H   0  0  0  0  0  0  0  0  0  0  0  0
    1.1214   -8.8462    5.9787 H   0  0  0  0  0  0  0  0  0  0  0  0
    0.1925   -9.7555    4.4363 H   0  0  0  0  0  0  0  0  0  0  0  0
  1  2  1  0
  1 20  1  0
  1 21  1  0
  1 22  1  0
  2  6  1  0
  2  3  1  0
  2 44  1  1
  3  4  1  0
  3 23  1  0
  3 24  1  0
  4  5  1  0
  4 25  1  0
  4 26  1  0
  6  5  1  1
  5 27  1  0
  5 28  1  0
  6 18  1  0
  6  7  1  0
  7  8  1  0
  7 29  1  0
  7 30  1  0
  8  9  1  0
  8 31  1  0
  8 32  1  0
  9 10  1  0
  9 17  1  0
 10 11  1  0
 10 33  1  0
 10 34  1  0
 11 15  1  0
 11 12  2  0
 12 13  1  0
 12 35  1  0
 13 14  2  0
 14 15  1  0
 14 36  1  0
 15 16  1  0
 16 37  1  0
 16 38  1  0
 16 39  1  0
 17 18  1  0
 17 40  1  0
 17 41  1  0
 18 19  1  0
 18 42  1  6
 19 43  1  0
M  CHG  1   2   1
M  END
>  <i_m_ct_stereo_status>  (290) 
1

>  <s_m_source_file>  (290) 
/var/tmp/pbs.5076255.sched01/tmpe6iyr0oq/80tt78e_gd.sdf

>  <i_m_source_file_index>  (290) 
39

>  <i_lp_mmshare_version>  (290) 
48012

>  <i_f3d_flags>  (290) 
0

>  <s_epik_input>  (290) 
W0NIMl0xW0NIMl1bQ0gyXU4oW0NIM10pW0NAQF0xMltDSDJdW0NIMl1OKFtDSDJdW0NASF0yW09IXSlbQ0gyXWMzW2NIXW5bY0hdbjNbQ0gzXQ==

>  <s_epik_cmdline>  (290) 
J2VwaWtfcHl0aG9uJywgJy1waHQnLCAnMi4wJywgJy1waCcsICc3LjAnLCAnLXRuJywgJzgnLCAnLW1hJywgJzIwMCcsICctaW1hZScsICc8aW5maWxlLm1hZT4nLCAnLW9tYWUnLCAnPG91dGZpbGUubWFlPic=

>  <r_lp_tautomer_probability>  (290) 
1

>  <r_epik_Ionization_Penalty>  (290) 
0.545391

>  <r_epik_Ionization_Penalty_Charging>  (290) 
0.512197

>  <r_epik_Ionization_Penalty_Neutral>  (290) 
0.0331938

>  <r_epik_State_Penalty>  (290) 
0.525707

>  <r_epik_Charging_Adjusted_Penalty>  (290) 
1.0379

>  <i_epik_Tot_Q>  (290) 
1

>  <i_epik_Tot_abs_Q>  (290) 
1

>  <s_lp_Force_Field>  (290) 
OPLS3e

>  <r_lp_Energy>  (290) 
31.4661

>  <b_lp_Chiralities_Consistent>  (290) 
1

>  <s_lp_Variant>  (290) 
84:0-2

>  <s_i_glide_gridfile>  (290) 
pfpi4k_grid

>  <i_i_glide_lignum>  (290) 
39

>  <i_i_glide_rotatable_bonds>  (290) 
3

>  <r_i_docking_score>  (290) 
-2.80284

>  <r_i_glide_ligand_efficiency>  (290) 
-0.147518

>  <r_i_glide_ligand_efficiency_sa>  (290) 
-0.393637

>  <r_i_glide_ligand_efficiency_ln>  (290) 
-0.710579

>  <r_i_glide_gscore>  (290) 
-2.80284

>  <r_i_glide_lipo>  (290) 
-0.239212

>  <r_i_glide_hbond>  (290) 
0

>  <r_i_glide_metal>  (290) 
-0

>  <r_i_glide_rewards>  (290) 
-1.66183

>  <r_i_glide_evdw>  (290) 
-16.7106

>  <r_i_glide_ecoul>  (290) 
-3.61019

>  <r_i_glide_erotb>  (290) 
0.505357

>  <r_i_glide_esite>  (290) 
-0.0300926

>  <r_i_glide_emodel>  (290) 
-24.4733

>  <r_i_glide_energy>  (290) 
-20.3208

>  <r_i_glide_einternal>  (290) 
0.394012

>  <r_i_glide_intrahb_reward>  (290) 
-0

>  <i_i_glide_confnum>  (290) 
4

>  <i_i_glide_posenum>  (290) 
28

>  <r_i_glide_eff_state_penalty>  (290) 
0

>  <ligand_id>  (290) 
84

>  <original_smiles>  (290) 
CN1CCCC12CCN(Cc1cncn1C)CC2O

>  <smiles>  (290) 
[H]OC1([H])C([H])([H])N(C([H])([H])c2c([H])nc([H])n2C([H])([H])[H])C([H])([H])C([H])([H])C12C([H])([H])C([H])([H])C([H])([H])[N+]2([H])C([H])([H])[H]

$$$$
84:2:0
     RDKit          3D

 45 47  0  0  1  0  0  0  0  0999 V2000
    3.2225   -3.4776    4.0232 C   0  0  0  0  0  0  0  0  0  0  0  0
    3.5185   -4.8176    3.4351 N   0  0  2  0  0  0  0  0  0  0  0  0
    4.5325   -5.5990    4.2029 C   0  0  0  0  0  0  0  0  0  0  0  0
    4.9359   -6.7563    3.2683 C   0  0  0  0  0  0  0  0  0  0  0  0
    4.5482   -6.3155    1.8491 C   0  0  0  0  0  0  0  0  0  0  0  0
    4.0058   -4.8702    2.0336 C   0  0  2  0  0  0  0  0  0  0  0  0
    5.1927   -3.8863    1.8143 C   0  0  0  0  0  0  0  0  0  0  0  0
    5.6751   -3.8736    0.3646 C   0  0  0  0  0  0  0  0  0  0  0  0
    4.5571   -3.5167   -0.5356 N   0  0  1  0  0  0  0  0  0  0  0  0
    5.0311   -3.4175   -1.9333 C   0  0  0  0  0  0  0  0  0  0  0  0
    4.3542   -2.2821   -2.6251 C   0  0  0  0  0  0  0  0  0  0  0  0
    4.6145   -0.9532   -2.5856 C   0  0  0  0  0  0  0  0  0  0  0  0
    3.8084   -0.2386   -3.4346 N   0  0  0  0  0  0  0  0  0  0  0  0
    3.0623   -1.1904   -3.9250 C   0  0  0  0  0  0  0  0  0  0  0  0
    3.2855   -2.4246   -3.5156 N   0  0  0  0  0  0  0  0  0  0  0  0
    2.6165   -3.6600   -3.9161 C   0  0  0  0  0  0  0  0  0  0  0  0
    3.4203   -4.4691   -0.4089 C   0  0  0  0  0  0  0  0  0  0  0  0
    2.8793   -4.5191    1.0257 C   0  0  1  0  0  0  0  0  0  0  0  0
    1.8240   -5.4643    1.1131 O   0  0  0  0  0  0  0  0  0  0  0  0
    4.0955   -2.8073    4.0045 H   0  0  0  0  0  0  0  0  0  0  0  0
    2.9020   -3.5973    5.0645 H   0  0  0  0  0  0  0  0  0  0  0  0
    2.4000   -2.9855    3.4807 H   0  0  0  0  0  0  0  0  0  0  0  0
    5.3955   -4.9402    4.3642 H   0  0  0  0  0  0  0  0  0  0  0  0
    4.1600   -5.9392    5.1688 H   0  0  0  0  0  0  0  0  0  0  0  0
    6.0147   -6.9292    3.3258 H   0  0  0  0  0  0  0  0  0  0  0  0
    4.4173   -7.6878    3.5258 H   0  0  0  0  0  0  0  0  0  0  0  0
    5.4049   -6.3668    1.1702 H   0  0  0  0  0  0  0  0  0  0  0  0
    3.7871   -7.0056    1.4647 H   0  0  0  0  0  0  0  0  0  0  0  0
    4.9159   -2.8687    2.0847 H   0  0  0  0  0  0  0  0  0  0  0  0
    6.0344   -4.1611    2.4500 H   0  0  0  0  0  0  0  0  0  0  0  0
    6.4705   -3.1256    0.2868 H   0  0  0  0  0  0  0  0  0  0  0  0
    6.0873   -4.8478    0.0772 H   0  0  0  0  0  0  0  0  0  0  0  0
    6.1049   -3.2119   -1.9310 H   0  0  0  0  0  0  0  0  0  0  0  0
    4.9000   -4.3699   -2.4474 H   0  0  0  0  0  0  0  0  0  0  0  0
    5.3865   -0.4249   -2.0068 H   0  0  0  0  0  0  0  0  0  0  0  0
    2.2406   -1.0002   -4.6382 H   0  0  0  0  0  0  0  0  0  0  0  0
    1.8530   -3.4457   -4.6668 H   0  0  0  0  0  0  0  0  0  0  0  0
    2.1158   -4.1159   -3.0622 H   0  0  0  0  0  0  0  0  0  0  0  0
    3.3484   -4.3636   -4.3270 H   0  0  0  0  0  0  0  0  0  0  0  0
    2.6008   -4.1804   -1.0608 H   0  0  0  0  0  0  0  0  0  0  0  0
    3.7496   -5.4655   -0.7057 H   0  0  0  0  0  0  0  0  0  0  0  0
    2.4323   -3.5510    1.2557 H   0  0  0  0  0  0  0  0  0  0  0  0
    2.1562   -6.3381    0.9174 H   0  0  0  0  0  0  0  0  0  0  0  0
    2.6542   -5.3450    3.4430 H   0  0  0  0  0  0  0  0  0  0  0  0
    4.2067   -2.6089   -0.2552 H   0  0  0  0  0  0  0  0  0  0  0  0
  1  2  1  0
  1 20  1  0
  1 21  1  0
  1 22  1  0
  2  6  1  0
  2  3  1  0
  2 44  1  6
  3  4  1  0
  3 23  1  0
  3 24  1  0
  4  5  1  0
  4 25  1  0
  4 26  1  0
  6  5  1  6
  5 27  1  0
  5 28  1  0
  6 18  1  0
  6  7  1  0
  7  8  1  0
  7 29  1  0
  7 30  1  0
  8  9  1  0
  8 31  1  0
  8 32  1  0
  9 10  1  0
  9 17  1  0
  9 45  1  1
 10 11  1  0
 10 33  1  0
 10 34  1  0
 11 15  1  0
 11 12  2  0
 12 13  1  0
 12 35  1  0
 13 14  2  0
 14 15  1  0
 14 36  1  0
 15 16  1  0
 16 37  1  0
 16 38  1  0
 16 39  1  0
 17 18  1  0
 17 40  1  0
 17 41  1  0
 18 19  1  0
 18 42  1  1
 19 43  1  0
M  CHG  2   2   1   9   1
M  END
>  <i_m_ct_stereo_status>  (291) 
1

>  <s_m_source_file>  (291) 
/var/tmp/pbs.5076255.sched01/tmpe6iyr0oq/80tt78e_gd.sdf

>  <i_m_source_file_index>  (291) 
40

>  <i_lp_mmshare_version>  (291) 
48012

>  <i_f3d_flags>  (291) 
0

>  <s_epik_input>  (291) 
W0NIMl0xW0NIMl1bQ0gyXU4oW0NIM10pW0NAQF0xMltDSDJdW0NIMl1OKFtDSDJdW0NASF0yW09IXSlbQ0gyXWMzW2NIXW5bY0hdbjNbQ0gzXQ==

>  <s_epik_cmdline>  (291) 
J2VwaWtfcHl0aG9uJywgJy1waHQnLCAnMi4wJywgJy1waCcsICc3LjAnLCAnLXRuJywgJzgnLCAnLW1hJywgJzIwMCcsICctaW1hZScsICc8aW5maWxlLm1hZT4nLCAnLW9tYWUnLCAnPG91dGZpbGUubWFlPic=

>  <r_epik_Ionization_Penalty>  (291) 
2.05533

>  <r_epik_Ionization_Penalty_Charging>  (291) 
2.05194

>  <r_epik_Ionization_Penalty_Neutral>  (291) 
0.00339553

>  <r_epik_State_Penalty>  (291) 
2.32998

>  <r_epik_Charging_Adjusted_Penalty>  (291) 
4.38192

>  <i_epik_Tot_Q>  (291) 
2

>  <i_epik_Tot_abs_Q>  (291) 
2

>  <s_lp_Force_Field>  (291) 
OPLS3e

>  <r_lp_Energy>  (291) 
39.5076

>  <b_lp_Chiralities_Consistent>  (291) 
1

>  <s_lp_Variant>  (291) 
84:0-3

>  <s_i_glide_gridfile>  (291) 
pfpi4k_grid

>  <i_i_glide_lignum>  (291) 
40

>  <i_i_glide_rotatable_bonds>  (291) 
3

>  <r_i_docking_score>  (291) 
-4.15202

>  <r_i_glide_ligand_efficiency>  (291) 
-0.218527

>  <r_i_glide_ligand_efficiency_sa>  (291) 
-0.583119

>  <r_i_glide_ligand_efficiency_ln>  (291) 
-1.05263

>  <r_i_glide_gscore>  (291) 
-4.15202

>  <r_i_glide_lipo>  (291) 
-0.421764

>  <r_i_glide_hbond>  (291) 
-0.0872358

>  <r_i_glide_metal>  (291) 
-0

>  <r_i_glide_rewards>  (291) 
-2.05945

>  <r_i_glide_evdw>  (291) 
-20.3066

>  <r_i_glide_ecoul>  (291) 
-7.13535

>  <r_i_glide_erotb>  (291) 
0.50206

>  <r_i_glide_esite>  (291) 
0

>  <r_i_glide_emodel>  (291) 
-36.4071

>  <r_i_glide_energy>  (291) 
-27.4419

>  <r_i_glide_einternal>  (291) 
1.73621

>  <r_i_glide_intrahb_reward>  (291) 
-0

>  <i_i_glide_confnum>  (291) 
4

>  <i_i_glide_posenum>  (291) 
3

>  <r_i_glide_eff_state_penalty>  (291) 
0

>  <ligand_id>  (291) 
84

>  <original_smiles>  (291) 
CN1CCCC12CCN(Cc1cncn1C)CC2O

>  <smiles>  (291) 
[H]OC1([H])C([H])([H])[N+]([H])(C([H])([H])c2c([H])nc([H])n2C([H])([H])[H])C([H])([H])C([H])([H])C12C([H])([H])C([H])([H])C([H])([H])[N+]2([H])C([H])([H])[H]

$$$$
84:2:1
     RDKit          3D

 45 47  0  0  1  0  0  0  0  0999 V2000
    2.8303   -2.0198   -2.8947 C   0  0  0  0  0  0  0  0  0  0  0  0
    3.6691   -1.6553   -1.6967 N   0  0  2  0  0  0  0  0  0  0  0  0
    4.9720   -1.0602   -2.0076 C   0  0  0  0  0  0  0  0  0  0  0  0
    5.7819   -1.1236   -0.6892 C   0  0  0  0  0  0  0  0  0  0  0  0
    5.0988   -2.1484    0.1916 C   0  0  0  0  0  0  0  0  0  0  0  0
    3.9945   -2.7402   -0.7166 C   0  0  2  0  0  0  0  0  0  0  0  0
    4.5873   -3.9800   -1.4542 C   0  0  0  0  0  0  0  0  0  0  0  0
    4.8431   -5.1753   -0.5162 C   0  0  0  0  0  0  0  0  0  0  0  0
    3.5834   -5.4839    0.2502 N   0  0  1  0  0  0  0  0  0  0  0  0
    3.7560   -6.6721    1.0883 C   0  0  0  0  0  0  0  0  0  0  0  0
    2.4790   -7.1784    1.6981 C   0  0  0  0  0  0  0  0  0  0  0  0
    1.3350   -6.5549    2.2294 C   0  0  0  0  0  0  0  0  0  0  0  0
    0.4161   -7.4788    2.6419 N   0  0  0  0  0  0  0  0  0  0  0  0
    1.0122   -8.6508    2.4297 C   0  0  0  0  0  0  0  0  0  0  0  0
    2.2190   -8.5377    1.8851 N   0  0  0  0  0  0  0  0  0  0  0  0
    3.0917   -9.6584    1.5404 C   0  0  0  0  0  0  0  0  0  0  0  0
    3.1210   -4.3034    0.9910 C   0  0  0  0  0  0  0  0  0  0  0  0
    2.7478   -3.1666    0.0892 C   0  0  1  0  0  0  0  0  0  0  0  0
    2.2208   -2.1120    0.8715 O   0  0  0  0  0  0  0  0  0  0  0  0
    3.2823   -2.7827   -3.5413 H   0  0  0  0  0  0  0  0  0  0  0  0
    2.7005   -1.1312   -3.5204 H   0  0  0  0  0  0  0  0  0  0  0  0
    1.8352   -2.3659   -2.5955 H   0  0  0  0  0  0  0  0  0  0  0  0
    5.4363   -1.7209   -2.7504 H   0  0  0  0  0  0  0  0  0  0  0  0
    4.9087   -0.0522   -2.4518 H   0  0  0  0  0  0  0  0  0  0  0  0
    6.7982   -1.4658   -0.8608 H   0  0  0  0  0  0  0  0  0  0  0  0
    5.7736   -0.1698   -0.1653 H   0  0  0  0  0  0  0  0  0  0  0  0
    5.8286   -2.8849    0.5294 H   0  0  0  0  0  0  0  0  0  0  0  0
    4.6993   -1.6890    1.0918 H   0  0  0  0  0  0  0  0  0  0  0  0
    3.8836   -4.2530   -2.2315 H   0  0  0  0  0  0  0  0  0  0  0  0
    5.5447   -3.7537   -1.9578 H   0  0  0  0  0  0  0  0  0  0  0  0
    5.1981   -6.0214   -1.1216 H   0  0  0  0  0  0  0  0  0  0  0  0
    5.6300   -4.9596    0.2159 H   0  0  0  0  0  0  0  0  0  0  0  0
    4.2335   -7.4518    0.4812 H   0  0  0  0  0  0  0  0  0  0  0  0
    4.5140   -6.4469    1.8475 H   0  0  0  0  0  0  0  0  0  0  0  0
    1.0334   -5.5414    2.3689 H   0  0  0  0  0  0  0  0  0  0  0  0
    0.5253   -9.5931    2.6826 H   0  0  0  0  0  0  0  0  0  0  0  0
    2.5739  -10.5910    1.7948 H   0  0  0  0  0  0  0  0  0  0  0  0
    4.0218   -9.6151    2.1156 H   0  0  0  0  0  0  0  0  0  0  0  0
    3.3091   -9.6625    0.4666 H   0  0  0  0  0  0  0  0  0  0  0  0
    2.1870   -4.4297    1.4950 H   0  0  0  0  0  0  0  0  0  0  0  0
    3.8790   -4.0054    1.7297 H   0  0  0  0  0  0  0  0  0  0  0  0
    1.9520   -3.4910   -0.5876 H   0  0  0  0  0  0  0  0  0  0  0  0
    1.6678   -1.5374    0.3495 H   0  0  0  0  0  0  0  0  0  0  0  0
    3.1340   -0.9774   -1.1554 H   0  0  0  0  0  0  0  0  0  0  0  0
    2.9285   -5.7353   -0.4950 H   0  0  0  0  0  0  0  0  0  0  0  0
  1  2  1  0
  1 20  1  0
  1 21  1  0
  1 22  1  0
  2  6  1  0
  2  3  1  0
  2 44  1  1
  3  4  1  0
  3 23  1  0
  3 24  1  0
  4  5  1  0
  4 25  1  0
  4 26  1  0
  6  5  1  1
  5 27  1  0
  5 28  1  0
  6 18  1  0
  6  7  1  0
  7  8  1  0
  7 29  1  0
  7 30  1  0
  8  9  1  0
  8 31  1  0
  8 32  1  0
  9 10  1  0
  9 17  1  0
  9 45  1  6
 10 11  1  0
 10 33  1  0
 10 34  1  0
 11 15  1  0
 11 12  2  0
 12 13  1  0
 12 35  1  0
 13 14  2  0
 14 15  1  0
 14 36  1  0
 15 16  1  0
 16 37  1  0
 16 38  1  0
 16 39  1  0
 17 18  1  0
 17 40  1  0
 17 41  1  0
 18 19  1  0
 18 42  1  6
 19 43  1  0
M  CHG  2   2   1   9   1
M  END
>  <i_m_ct_stereo_status>  (292) 
1

>  <s_m_source_file>  (292) 
/var/tmp/pbs.5076255.sched01/tmpe6iyr0oq/80tt78e_gd.sdf

>  <i_m_source_file_index>  (292) 
40

>  <i_lp_mmshare_version>  (292) 
48012

>  <i_f3d_flags>  (292) 
0

>  <s_epik_input>  (292) 
W0NIMl0xW0NIMl1bQ0gyXU4oW0NIM10pW0NAQF0xMltDSDJdW0NIMl1OKFtDSDJdW0NASF0yW09IXSlbQ0gyXWMzW2NIXW5bY0hdbjNbQ0gzXQ==

>  <s_epik_cmdline>  (292) 
J2VwaWtfcHl0aG9uJywgJy1waHQnLCAnMi4wJywgJy1waCcsICc3LjAnLCAnLXRuJywgJzgnLCAnLW1hJywgJzIwMCcsICctaW1hZScsICc8aW5maWxlLm1hZT4nLCAnLW9tYWUnLCAnPG91dGZpbGUubWFlPic=

>  <r_epik_Ionization_Penalty>  (292) 
2.05533

>  <r_epik_Ionization_Penalty_Charging>  (292) 
2.05194

>  <r_epik_Ionization_Penalty_Neutral>  (292) 
0.00339553

>  <r_epik_State_Penalty>  (292) 
2.32998

>  <r_epik_Charging_Adjusted_Penalty>  (292) 
4.38192

>  <i_epik_Tot_Q>  (292) 
2

>  <i_epik_Tot_abs_Q>  (292) 
2

>  <s_lp_Force_Field>  (292) 
OPLS3e

>  <r_lp_Energy>  (292) 
39.5076

>  <b_lp_Chiralities_Consistent>  (292) 
1

>  <s_lp_Variant>  (292) 
84:0-3

>  <s_i_glide_gridfile>  (292) 
pfpi4k_grid

>  <i_i_glide_lignum>  (292) 
40

>  <i_i_glide_rotatable_bonds>  (292) 
3

>  <r_i_docking_score>  (292) 
-4.12465

>  <r_i_glide_ligand_efficiency>  (292) 
-0.217087

>  <r_i_glide_ligand_efficiency_sa>  (292) 
-0.579276

>  <r_i_glide_ligand_efficiency_ln>  (292) 
-1.04569

>  <r_i_glide_gscore>  (292) 
-4.12465

>  <r_i_glide_lipo>  (292) 
-0.0901584

>  <r_i_glide_hbond>  (292) 
-0.161594

>  <r_i_glide_metal>  (292) 
-0

>  <r_i_glide_rewards>  (292) 
-1.59285

>  <r_i_glide_evdw>  (292) 
-16.8653

>  <r_i_glide_ecoul>  (292) 
-11.2004

>  <r_i_glide_erotb>  (292) 
0.351442

>  <r_i_glide_esite>  (292) 
-0.108172

>  <r_i_glide_emodel>  (292) 
-34.4806

>  <r_i_glide_energy>  (292) 
-28.0657

>  <r_i_glide_einternal>  (292) 
3.21341

>  <r_i_glide_intrahb_reward>  (292) 
-0

>  <i_i_glide_confnum>  (292) 
1

>  <i_i_glide_posenum>  (292) 
2

>  <r_i_glide_eff_state_penalty>  (292) 
0

>  <ligand_id>  (292) 
84

>  <original_smiles>  (292) 
CN1CCCC12CCN(Cc1cncn1C)CC2O

>  <smiles>  (292) 
[H]OC1([H])C([H])([H])[N+]([H])(C([H])([H])c2c([H])nc([H])n2C([H])([H])[H])C([H])([H])C([H])([H])C12C([H])([H])C([H])([H])C([H])([H])[N+]2([H])C([H])([H])[H]

$$$$
84:2:2
     RDKit          3D

 45 47  0  0  1  0  0  0  0  0999 V2000
    2.1357    4.9428    2.7012 C   0  0  0  0  0  0  0  0  0  0  0  0
    1.2674    3.9310    3.4044 N   0  0  2  0  0  0  0  0  0  0  0  0
    0.9217    4.2932    4.8053 C   0  0  0  0  0  0  0  0  0  0  0  0
    0.3274    3.0155    5.4184 C   0  0  0  0  0  0  0  0  0  0  0  0
    0.7869    1.8553    4.5248 C   0  0  0  0  0  0  0  0  0  0  0  0
    1.7225    2.5110    3.4782 C   0  0  2  0  0  0  0  0  0  0  0  0
    3.1592    2.4289    4.0069 C   0  0  0  0  0  0  0  0  0  0  0  0
    3.7396    1.0074    4.0100 C   0  0  0  0  0  0  0  0  0  0  0  0
    3.6547    0.4168    2.6577 N   0  0  1  0  0  0  0  0  0  0  0  0
    4.2775   -0.9191    2.6413 C   0  0  0  0  0  0  0  0  0  0  0  0
    4.6912   -1.3097    1.2611 C   0  0  0  0  0  0  0  0  0  0  0  0
    5.8216   -0.9449    0.5736 C   0  0  0  0  0  0  0  0  0  0  0  0
    5.8126   -1.5379   -0.6768 N   0  0  0  0  0  0  0  0  0  0  0  0
    4.6827   -2.2336   -0.6861 C   0  0  0  0  0  0  0  0  0  0  0  0
    3.9487   -2.1499    0.4411 N   0  0  0  0  0  0  0  0  0  0  0  0
    2.6798   -2.8138    0.7197 C   0  0  0  0  0  0  0  0  0  0  0  0
    2.2607    0.4125    2.1339 C   0  0  0  0  0  0  0  0  0  0  0  0
    1.6609    1.8272    2.0973 C   0  0  1  0  0  0  0  0  0  0  0  0
    0.3152    1.7428    1.6526 O   0  0  0  0  0  0  0  0  0  0  0  0
    3.1290    5.0457    3.1307 H   0  0  0  0  0  0  0  0  0  0  0  0
    1.6543    5.9241    2.7299 H   0  0  0  0  0  0  0  0  0  0  0  0
    2.2387    4.6682    1.6619 H   0  0  0  0  0  0  0  0  0  0  0  0
    1.8674    4.5519    5.2992 H   0  0  0  0  0  0  0  0  0  0  0  0
    0.2500    5.1719    4.8582 H   0  0  0  0  0  0  0  0  0  0  0  0
    0.7306    2.8706    6.4033 H   0  0  0  0  0  0  0  0  0  0  0  0
   -0.7610    3.0511    5.4570 H   0  0  0  0  0  0  0  0  0  0  0  0
    1.2922    1.0706    5.1084 H   0  0  0  0  0  0  0  0  0  0  0  0
   -0.1001    1.3941    4.0554 H   0  0  0  0  0  0  0  0  0  0  0  0
    3.7681    3.0602    3.3589 H   0  0  0  0  0  0  0  0  0  0  0  0
    3.2756    2.8367    5.0207 H   0  0  0  0  0  0  0  0  0  0  0  0
    4.7974    1.0739    4.3221 H   0  0  0  0  0  0  0  0  0  0  0  0
    3.1998    0.3820    4.7354 H   0  0  0  0  0  0  0  0  0  0  0  0
    5.1710   -0.9261    3.2741 H   0  0  0  0  0  0  0  0  0  0  0  0
    3.5928   -1.6597    3.0763 H   0  0  0  0  0  0  0  0  0  0  0  0
    6.6125   -0.3122    0.8823 H   0  0  0  0  0  0  0  0  0  0  0  0
    4.3577   -2.8356   -1.5210 H   0  0  0  0  0  0  0  0  0  0  0  0
    2.3980   -3.4337   -0.1259 H   0  0  0  0  0  0  0  0  0  0  0  0
    1.8863   -2.0842    0.8775 H   0  0  0  0  0  0  0  0  0  0  0  0
    2.7743   -3.4376    1.6108 H   0  0  0  0  0  0  0  0  0  0  0  0
    2.2233    0.0315    1.1063 H   0  0  0  0  0  0  0  0  0  0  0  0
    1.6179   -0.2289    2.7404 H   0  0  0  0  0  0  0  0  0  0  0  0
    2.2078    2.3844    1.3282 H   0  0  0  0  0  0  0  0  0  0  0  0
    0.0720    2.5811    1.2565 H   0  0  0  0  0  0  0  0  0  0  0  0
    0.3733    3.9016    2.9057 H   0  0  0  0  0  0  0  0  0  0  0  0
    4.1818    1.0295    2.0438 H   0  0  0  0  0  0  0  0  0  0  0  0
  1  2  1  0
  1 20  1  0
  1 21  1  0
  1 22  1  0
  2  6  1  0
  2  3  1  0
  2 44  1  6
  3  4  1  0
  3 23  1  0
  3 24  1  0
  4  5  1  0
  4 25  1  0
  4 26  1  0
  6  5  1  1
  5 27  1  0
  5 28  1  0
  6 18  1  0
  6  7  1  0
  7  8  1  0
  7 29  1  0
  7 30  1  0
  8  9  1  0
  8 31  1  0
  8 32  1  0
  9 10  1  0
  9 17  1  0
  9 45  1  6
 10 11  1  0
 10 33  1  0
 10 34  1  0
 11 15  1  0
 11 12  2  0
 12 13  1  0
 12 35  1  0
 13 14  2  0
 14 15  1  0
 14 36  1  0
 15 16  1  0
 16 37  1  0
 16 38  1  0
 16 39  1  0
 17 18  1  0
 17 40  1  0
 17 41  1  0
 18 19  1  0
 18 42  1  6
 19 43  1  0
M  CHG  2   2   1   9   1
M  END
>  <i_m_ct_stereo_status>  (293) 
1

>  <s_m_source_file>  (293) 
/var/tmp/pbs.5076255.sched01/tmpe6iyr0oq/80tt78e_gd.sdf

>  <i_m_source_file_index>  (293) 
40

>  <i_lp_mmshare_version>  (293) 
48012

>  <i_f3d_flags>  (293) 
0

>  <s_epik_input>  (293) 
W0NIMl0xW0NIMl1bQ0gyXU4oW0NIM10pW0NAQF0xMltDSDJdW0NIMl1OKFtDSDJdW0NASF0yW09IXSlbQ0gyXWMzW2NIXW5bY0hdbjNbQ0gzXQ==

>  <s_epik_cmdline>  (293) 
J2VwaWtfcHl0aG9uJywgJy1waHQnLCAnMi4wJywgJy1waCcsICc3LjAnLCAnLXRuJywgJzgnLCAnLW1hJywgJzIwMCcsICctaW1hZScsICc8aW5maWxlLm1hZT4nLCAnLW9tYWUnLCAnPG91dGZpbGUubWFlPic=

>  <r_epik_Ionization_Penalty>  (293) 
2.05533

>  <r_epik_Ionization_Penalty_Charging>  (293) 
2.05194

>  <r_epik_Ionization_Penalty_Neutral>  (293) 
0.00339553

>  <r_epik_State_Penalty>  (293) 
2.32998

>  <r_epik_Charging_Adjusted_Penalty>  (293) 
4.38192

>  <i_epik_Tot_Q>  (293) 
2

>  <i_epik_Tot_abs_Q>  (293) 
2

>  <s_lp_Force_Field>  (293) 
OPLS3e

>  <r_lp_Energy>  (293) 
39.5076

>  <b_lp_Chiralities_Consistent>  (293) 
1

>  <s_lp_Variant>  (293) 
84:0-3

>  <s_i_glide_gridfile>  (293) 
pfpi4k_grid

>  <i_i_glide_lignum>  (293) 
40

>  <i_i_glide_rotatable_bonds>  (293) 
3

>  <r_i_docking_score>  (293) 
-3.89432

>  <r_i_glide_ligand_efficiency>  (293) 
-0.204964

>  <r_i_glide_ligand_efficiency_sa>  (293) 
-0.546926

>  <r_i_glide_ligand_efficiency_ln>  (293) 
-0.987293

>  <r_i_glide_gscore>  (293) 
-3.89432

>  <r_i_glide_lipo>  (293) 
-0.200233

>  <r_i_glide_hbond>  (293) 
-0.231806

>  <r_i_glide_metal>  (293) 
-0

>  <r_i_glide_rewards>  (293) 
-1.59285

>  <r_i_glide_evdw>  (293) 
-16.4366

>  <r_i_glide_ecoul>  (293) 
-9.5117

>  <r_i_glide_erotb>  (293) 
0.50206

>  <r_i_glide_esite>  (293) 
-0.122905

>  <r_i_glide_emodel>  (293) 
-34.6261

>  <r_i_glide_energy>  (293) 
-25.9483

>  <r_i_glide_einternal>  (293) 
0.766364

>  <r_i_glide_intrahb_reward>  (293) 
-0

>  <i_i_glide_confnum>  (293) 
2

>  <i_i_glide_posenum>  (293) 
6

>  <r_i_glide_eff_state_penalty>  (293) 
0

>  <ligand_id>  (293) 
84

>  <original_smiles>  (293) 
CN1CCCC12CCN(Cc1cncn1C)CC2O

>  <smiles>  (293) 
[H]OC1([H])C([H])([H])[N+]([H])(C([H])([H])c2c([H])nc([H])n2C([H])([H])[H])C([H])([H])C([H])([H])C12C([H])([H])C([H])([H])C([H])([H])[N+]2([H])C([H])([H])[H]

$$$$
85:0:0
     RDKit          3D

 47 52  0  0  1  0  0  0  0  0999 V2000
    8.9450   -5.2167    1.4954 C   0  0  0  0  0  0  0  0  0  0  0  0
    7.6742   -4.6990    0.8539 C   0  0  0  0  0  0  0  0  0  0  0  0
    7.7096   -3.4884    0.1316 C   0  0  0  0  0  0  0  0  0  0  0  0
    6.5336   -3.0236   -0.4468 C   0  0  0  0  0  0  0  0  0  0  0  0
    6.4509   -1.8542   -1.1570 O   0  0  0  0  0  0  0  0  0  0  0  0
    5.1766   -1.7610   -1.5735 C   0  0  0  0  0  0  0  0  0  0  0  0
    4.9435   -0.6518   -2.3061 O   0  0  0  0  0  0  0  0  0  0  0  0
    4.3880   -2.8256   -1.1700 C   0  0  0  0  0  0  0  0  0  0  0  0
    2.9296   -2.9226   -1.5293 C   0  0  0  0  0  0  0  0  0  0  0  0
    5.2733   -3.6945   -0.4062 C   0  0  0  0  0  0  0  0  0  0  0  0
    5.2690   -4.9447    0.3291 C   0  0  0  0  0  0  0  0  0  0  0  0
    6.4574   -5.4050    0.9735 C   0  0  0  0  0  0  0  0  0  0  0  0
    6.5033   -6.5689    1.7308 O   0  0  0  0  0  0  0  0  0  0  0  0
    5.2615   -7.0808    2.2326 C   0  0  2  0  0  0  0  0  0  0  0  0
    4.2636   -7.1596    1.0508 C   0  0  0  0  0  0  0  0  0  0  0  0
    4.0370   -5.7815    0.4516 C   0  0  0  0  0  0  0  0  0  0  0  0
    2.9033   -5.4388    0.1180 O   0  0  0  0  0  0  0  0  0  0  0  0
    4.7586   -6.1742    3.4266 C   0  0  1  0  0  0  0  0  0  0  0  0
    3.2770   -6.4549    3.8423 C   0  0  0  0  0  0  0  0  0  0  0  0
    3.1824   -7.5487    4.7675 O   0  0  0  0  0  0  0  0  0  0  0  0
    4.2301   -8.5328    4.7177 C   0  0  1  0  0  0  0  0  0  0  0  0
    4.3529   -9.1977    3.3315 C   0  0  0  0  0  0  0  0  0  0  0  0
    5.5871   -8.5264    2.7008 C   0  0  2  0  0  0  0  0  0  0  0  0
    6.5240   -8.5249    3.9199 C   0  0  0  0  0  0  0  0  0  0  0  0
    5.6365   -7.9024    4.9941 C   0  0  1  0  0  0  0  0  0  0  0  0
    5.5965   -6.3827    4.7130 C   0  0  0  0  0  0  0  0  0  0  0  0
    9.7712   -4.5253    1.3369 H   0  0  0  0  0  0  0  0  0  0  0  0
    9.2342   -6.1869    1.0782 H   0  0  0  0  0  0  0  0  0  0  0  0
    8.8285   -5.3299    2.5778 H   0  0  0  0  0  0  0  0  0  0  0  0
    8.6260   -2.9276    0.0411 H   0  0  0  0  0  0  0  0  0  0  0  0
    2.6706   -3.8675   -2.0038 H   0  0  0  0  0  0  0  0  0  0  0  0
    2.6593   -2.1620   -2.2609 H   0  0  0  0  0  0  0  0  0  0  0  0
    2.2690   -2.7749   -0.6681 H   0  0  0  0  0  0  0  0  0  0  0  0
    4.6327   -7.8664    0.3067 H   0  0  0  0  0  0  0  0  0  0  0  0
    3.2919   -7.5232    1.3829 H   0  0  0  0  0  0  0  0  0  0  0  0
    4.8357   -5.1210    3.1552 H   0  0  0  0  0  0  0  0  0  0  0  0
    2.8679   -5.5522    4.3185 H   0  0  0  0  0  0  0  0  0  0  0  0
    2.6415   -6.6317    2.9737 H   0  0  0  0  0  0  0  0  0  0  0  0
    3.9971   -9.2970    5.4608 H   0  0  0  0  0  0  0  0  0  0  0  0
    4.5350  -10.2636    3.4438 H   0  0  0  0  0  0  0  0  0  0  0  0
    3.4398   -9.1094    2.7533 H   0  0  0  0  0  0  0  0  0  0  0  0
    6.0079   -9.1191    1.9161 H   0  0  0  0  0  0  0  0  0  0  0  0
    6.7962   -9.5359    4.2165 H   0  0  0  0  0  0  0  0  0  0  0  0
    7.4461   -7.9685    3.7742 H   0  0  0  0  0  0  0  0  0  0  0  0
    5.9820   -8.0960    6.0143 H   0  0  0  0  0  0  0  0  0  0  0  0
    6.6106   -5.9854    4.6001 H   0  0  0  0  0  0  0  0  0  0  0  0
    5.1567   -5.8364    5.5579 H   0  0  0  0  0  0  0  0  0  0  0  0
  1  2  1  0
  1 27  1  0
  1 28  1  0
  1 29  1  0
  2 12  2  0
  2  3  1  0
  3  4  2  0
  3 30  1  0
  4 10  1  0
  4  5  1  0
  5  6  1  0
  6  7  1  0
  6  8  2  0
  8  9  1  0
  8 10  1  0
  9 31  1  0
  9 32  1  0
  9 33  1  0
 10 11  2  0
 11 16  1  0
 11 12  1  0
 12 13  1  0
 14 13  1  6
 14 23  1  0
 14 15  1  0
 14 18  1  0
 15 16  1  0
 15 34  1  0
 15 35  1  0
 16 17  2  0
 18 26  1  0
 18 19  1  0
 18 36  1  6
 19 20  1  0
 19 37  1  0
 19 38  1  0
 20 21  1  0
 21 25  1  0
 21 22  1  0
 21 39  1  1
 22 23  1  0
 22 40  1  0
 22 41  1  0
 23 24  1  0
 23 42  1  6
 24 25  1  0
 24 43  1  0
 24 44  1  0
 25 26  1  0
 25 45  1  1
 26 46  1  0
 26 47  1  0
M  CHG  1   7  -1
M  END
>  <i_m_ct_stereo_status>  (294) 
1

>  <s_m_source_file>  (294) 
/var/tmp/pbs.5076255.sched01/tmpbvzcvm50/120d7_yi5_y.sdf

>  <i_m_source_file_index>  (294) 
1

>  <i_lp_mmshare_version>  (294) 
48012

>  <i_f3d_flags>  (294) 
0

>  <s_epik_input>  (294) 
W0NIM11jMWMoW09IXSlvYyhbY0hdYzJbQ0gzXSljMWMoQyg9TylbQ0gyXTMpYzJPW0NAQF0zNFtDQEhdNVtDSDJdT1tDQEBIXTZbQ0BIXShbQ0gyXTUpW0NIMl1bQ0BIXTRbQ0gyXTY=

>  <s_epik_cmdline>  (294) 
J2VwaWtfcHl0aG9uJywgJy1waHQnLCAnMi4wJywgJy1waCcsICc3LjAnLCAnLXRuJywgJzgnLCAnLW1hJywgJzIwMCcsICctaW1hZScsICc8aW5maWxlLm1hZT4nLCAnLW9tYWUnLCAnPG91dGZpbGUubWFlPic=

>  <r_lp_tautomer_probability>  (294) 
0.99995

>  <r_epik_Ionization_Penalty>  (294) 
0.0218988

>  <r_epik_Ionization_Penalty_Charging>  (294) 
0.0218988

>  <r_epik_Ionization_Penalty_Neutral>  (294) 
1.35292e-11

>  <r_epik_State_Penalty>  (294) 
0.0176382

>  <r_epik_Charging_Adjusted_Penalty>  (294) 
0.039537

>  <i_epik_Tot_Q>  (294) 
-1

>  <i_epik_Tot_abs_Q>  (294) 
1

>  <s_lp_Force_Field>  (294) 
OPLS3e

>  <r_lp_Energy>  (294) 
33.3609

>  <b_lp_Chiralities_Consistent>  (294) 
1

>  <s_lp_Variant>  (294) 
85:0-1

>  <s_i_glide_gridfile>  (294) 
pfpi4k_grid

>  <i_i_glide_lignum>  (294) 
1

>  <i_i_glide_rotatable_bonds>  (294) 
0

>  <r_i_docking_score>  (294) 
-3.4927

>  <r_i_glide_ligand_efficiency>  (294) 
-0.134335

>  <r_i_glide_ligand_efficiency_sa>  (294) 
-0.397966

>  <r_i_glide_ligand_efficiency_ln>  (294) 
-0.820249

>  <r_i_glide_gscore>  (294) 
-3.4927

>  <r_i_glide_lipo>  (294) 
-0.761667

>  <r_i_glide_hbond>  (294) 
-0.16

>  <r_i_glide_metal>  (294) 
-0

>  <r_i_glide_rewards>  (294) 
-1.10004

>  <r_i_glide_evdw>  (294) 
-21.4443

>  <r_i_glide_ecoul>  (294) 
-2.65854

>  <r_i_glide_erotb>  (294) 
0

>  <r_i_glide_esite>  (294) 
0

>  <r_i_glide_emodel>  (294) 
-31.5831

>  <r_i_glide_energy>  (294) 
-24.1028

>  <r_i_glide_einternal>  (294) 
0

>  <r_i_glide_intrahb_reward>  (294) 
-0

>  <i_i_glide_confnum>  (294) 
3

>  <i_i_glide_posenum>  (294) 
2

>  <r_i_glide_eff_state_penalty>  (294) 
0

>  <ligand_id>  (294) 
85

>  <original_smiles>  (294) 
Cc1cc2oc(O)c(C)c2c2c1OC1(CC2=O)C2COC3CC1CC3C2

>  <smiles>  (294) 
[H]c1c(C([H])([H])[H])c2c(c3c(C([H])([H])[H])c([O-])oc13)C(=O)C([H])([H])C1(O2)C2([H])C([H])([H])OC3([H])C([H])([H])C1([H])C([H])([H])C3([H])C2([H])[H]

$$$$
85:0:1
     RDKit          3D

 47 52  0  0  1  0  0  0  0  0999 V2000
    6.5922   -8.4877    2.9462 C   0  0  0  0  0  0  0  0  0  0  0  0
    5.9391   -7.3506    2.1768 C   0  0  0  0  0  0  0  0  0  0  0  0
    6.7335   -6.3338    1.6206 C   0  0  0  0  0  0  0  0  0  0  0  0
    6.1238   -5.2911    0.9221 C   0  0  0  0  0  0  0  0  0  0  0  0
    6.8136   -4.2468    0.3663 O   0  0  0  0  0  0  0  0  0  0  0  0
    5.8694   -3.4795   -0.2339 C   0  0  0  0  0  0  0  0  0  0  0  0
    6.4098   -2.4070   -0.8429 O   0  0  0  0  0  0  0  0  0  0  0  0
    4.5858   -3.9631   -0.0955 C   0  0  0  0  0  0  0  0  0  0  0  0
    3.3814   -3.2814   -0.6849 C   0  0  0  0  0  0  0  0  0  0  0  0
    4.7126   -5.2044    0.6974 C   0  0  0  0  0  0  0  0  0  0  0  0
    3.9176   -6.2516    1.2526 C   0  0  0  0  0  0  0  0  0  0  0  0
    4.5298   -7.2909    2.0242 C   0  0  0  0  0  0  0  0  0  0  0  0
    3.8121   -8.3096    2.6429 O   0  0  0  0  0  0  0  0  0  0  0  0
    2.4182   -8.0976    2.8682 C   0  0  2  0  0  0  0  0  0  0  0  0
    1.7829   -7.6095    1.5559 C   0  0  0  0  0  0  0  0  0  0  0  0
    2.4415   -6.3216    1.0719 C   0  0  0  0  0  0  0  0  0  0  0  0
    1.7434   -5.4489    0.5702 O   0  0  0  0  0  0  0  0  0  0  0  0
    2.2308   -7.0822    4.0803 C   0  0  1  0  0  0  0  0  0  0  0  0
    0.7825   -6.5262    4.2267 C   0  0  0  0  0  0  0  0  0  0  0  0
   -0.0604   -7.4201    4.9815 O   0  0  0  0  0  0  0  0  0  0  0  0
    0.3155   -8.8154    4.9751 C   0  0  1  0  0  0  0  0  0  0  0  0
    0.3476   -9.4155    3.5515 C   0  0  0  0  0  0  0  0  0  0  0  0
    1.8359   -9.5023    3.2111 C   0  0  2  0  0  0  0  0  0  0  0  0
    2.3751  -10.0222    4.5430 C   0  0  0  0  0  0  0  0  0  0  0  0
    1.7537   -9.0396    5.5423 C   0  0  1  0  0  0  0  0  0  0  0  0
    2.5732   -7.7310    5.4475 C   0  0  0  0  0  0  0  0  0  0  0  0
    7.6726   -8.3513    2.9910 H   0  0  0  0  0  0  0  0  0  0  0  0
    6.4092   -9.4570    2.4692 H   0  0  0  0  0  0  0  0  0  0  0  0
    6.2272   -8.5343    3.9774 H   0  0  0  0  0  0  0  0  0  0  0  0
    7.8068   -6.3600    1.7537 H   0  0  0  0  0  0  0  0  0  0  0  0
    2.7652   -3.9486   -1.2957 H   0  0  0  0  0  0  0  0  0  0  0  0
    3.7086   -2.4764   -1.3544 H   0  0  0  0  0  0  0  0  0  0  0  0
    2.7502   -2.8048    0.0739 H   0  0  0  0  0  0  0  0  0  0  0  0
    1.8751   -8.4082    0.8285 H   0  0  0  0  0  0  0  0  0  0  0  0
    0.7198   -7.4025    1.6635 H   0  0  0  0  0  0  0  0  0  0  0  0
    2.9077   -6.2260    3.9528 H   0  0  0  0  0  0  0  0  0  0  0  0
    0.8203   -5.5605    4.7473 H   0  0  0  0  0  0  0  0  0  0  0  0
    0.3214   -6.3104    3.2564 H   0  0  0  0  0  0  0  0  0  0  0  0
   -0.4301   -9.3389    5.5796 H   0  0  0  0  0  0  0  0  0  0  0  0
   -0.0913  -10.4159    3.5767 H   0  0  0  0  0  0  0  0  0  0  0  0
   -0.2640   -8.8470    2.8615 H   0  0  0  0  0  0  0  0  0  0  0  0
    2.0324  -10.2287    2.4176 H   0  0  0  0  0  0  0  0  0  0  0  0
    2.0135  -11.0228    4.7739 H   0  0  0  0  0  0  0  0  0  0  0  0
    3.4545  -10.0422    4.6282 H   0  0  0  0  0  0  0  0  0  0  0  0
    1.7367   -9.4078    6.5810 H   0  0  0  0  0  0  0  0  0  0  0  0
    3.6425   -7.9379    5.5388 H   0  0  0  0  0  0  0  0  0  0  0  0
    2.3266   -7.0432    6.2734 H   0  0  0  0  0  0  0  0  0  0  0  0
  1  2  1  0
  1 27  1  0
  1 28  1  0
  1 29  1  0
  2 12  2  0
  2  3  1  0
  3  4  2  0
  3 30  1  0
  4 10  1  0
  4  5  1  0
  5  6  1  0
  6  7  1  0
  6  8  2  0
  8  9  1  0
  8 10  1  0
  9 31  1  0
  9 32  1  0
  9 33  1  0
 10 11  2  0
 11 16  1  0
 11 12  1  0
 12 13  1  0
 14 13  1  6
 14 23  1  0
 14 15  1  0
 14 18  1  0
 15 16  1  0
 15 34  1  0
 15 35  1  0
 16 17  2  0
 18 26  1  0
 18 19  1  0
 18 36  1  6
 19 20  1  0
 19 37  1  0
 19 38  1  0
 20 21  1  0
 21 25  1  0
 21 22  1  0
 21 39  1  1
 22 23  1  0
 22 40  1  0
 22 41  1  0
 23 24  1  0
 23 42  1  6
 24 25  1  0
 24 43  1  0
 24 44  1  0
 25 26  1  0
 25 45  1  1
 26 46  1  0
 26 47  1  0
M  CHG  1   7  -1
M  END
>  <i_m_ct_stereo_status>  (295) 
1

>  <s_m_source_file>  (295) 
/var/tmp/pbs.5076255.sched01/tmpbvzcvm50/120d7_yi5_y.sdf

>  <i_m_source_file_index>  (295) 
1

>  <i_lp_mmshare_version>  (295) 
48012

>  <i_f3d_flags>  (295) 
0

>  <s_epik_input>  (295) 
W0NIM11jMWMoW09IXSlvYyhbY0hdYzJbQ0gzXSljMWMoQyg9TylbQ0gyXTMpYzJPW0NAQF0zNFtDQEhdNVtDSDJdT1tDQEBIXTZbQ0BIXShbQ0gyXTUpW0NIMl1bQ0BIXTRbQ0gyXTY=

>  <s_epik_cmdline>  (295) 
J2VwaWtfcHl0aG9uJywgJy1waHQnLCAnMi4wJywgJy1waCcsICc3LjAnLCAnLXRuJywgJzgnLCAnLW1hJywgJzIwMCcsICctaW1hZScsICc8aW5maWxlLm1hZT4nLCAnLW9tYWUnLCAnPG91dGZpbGUubWFlPic=

>  <r_lp_tautomer_probability>  (295) 
0.99995

>  <r_epik_Ionization_Penalty>  (295) 
0.0218988

>  <r_epik_Ionization_Penalty_Charging>  (295) 
0.0218988

>  <r_epik_Ionization_Penalty_Neutral>  (295) 
1.35292e-11

>  <r_epik_State_Penalty>  (295) 
0.0176382

>  <r_epik_Charging_Adjusted_Penalty>  (295) 
0.039537

>  <i_epik_Tot_Q>  (295) 
-1

>  <i_epik_Tot_abs_Q>  (295) 
1

>  <s_lp_Force_Field>  (295) 
OPLS3e

>  <r_lp_Energy>  (295) 
33.3609

>  <b_lp_Chiralities_Consistent>  (295) 
1

>  <s_lp_Variant>  (295) 
85:0-1

>  <s_i_glide_gridfile>  (295) 
pfpi4k_grid

>  <i_i_glide_lignum>  (295) 
1

>  <i_i_glide_rotatable_bonds>  (295) 
0

>  <r_i_docking_score>  (295) 
-2.94771

>  <r_i_glide_ligand_efficiency>  (295) 
-0.113374

>  <r_i_glide_ligand_efficiency_sa>  (295) 
-0.335869

>  <r_i_glide_ligand_efficiency_ln>  (295) 
-0.692261

>  <r_i_glide_gscore>  (295) 
-2.94771

>  <r_i_glide_lipo>  (295) 
-0.555076

>  <r_i_glide_hbond>  (295) 
-0.125811

>  <r_i_glide_metal>  (295) 
-0

>  <r_i_glide_rewards>  (295) 
-0.999624

>  <r_i_glide_evdw>  (295) 
-20.3964

>  <r_i_glide_ecoul>  (295) 
-1.53892

>  <r_i_glide_erotb>  (295) 
0

>  <r_i_glide_esite>  (295) 
-0.0165448

>  <r_i_glide_emodel>  (295) 
-28.0325

>  <r_i_glide_energy>  (295) 
-21.9353

>  <r_i_glide_einternal>  (295) 
0

>  <r_i_glide_intrahb_reward>  (295) 
-0

>  <i_i_glide_confnum>  (295) 
3

>  <i_i_glide_posenum>  (295) 
17

>  <r_i_glide_eff_state_penalty>  (295) 
0

>  <ligand_id>  (295) 
85

>  <original_smiles>  (295) 
Cc1cc2oc(O)c(C)c2c2c1OC1(CC2=O)C2COC3CC1CC3C2

>  <smiles>  (295) 
[H]c1c(C([H])([H])[H])c2c(c3c(C([H])([H])[H])c([O-])oc13)C(=O)C([H])([H])C1(O2)C2([H])C([H])([H])OC3([H])C([H])([H])C1([H])C([H])([H])C3([H])C2([H])[H]

$$$$
85:0:2
     RDKit          3D

 47 52  0  0  1  0  0  0  0  0999 V2000
    5.2544   -9.9502    2.8441 C   0  0  0  0  0  0  0  0  0  0  0  0
    5.1333   -8.5685    2.2246 C   0  0  0  0  0  0  0  0  0  0  0  0
    6.2920   -7.8411    1.8992 C   0  0  0  0  0  0  0  0  0  0  0  0
    6.1655   -6.5703    1.3374 C   0  0  0  0  0  0  0  0  0  0  0  0
    7.2366   -5.7840    1.0058 O   0  0  0  0  0  0  0  0  0  0  0  0
    6.6967   -4.6594    0.4803 C   0  0  0  0  0  0  0  0  0  0  0  0
    7.6384   -3.7850    0.0905 O   0  0  0  0  0  0  0  0  0  0  0  0
    5.3170   -4.6624    0.4428 C   0  0  0  0  0  0  0  0  0  0  0  0
    4.5084   -3.5292   -0.1214 C   0  0  0  0  0  0  0  0  0  0  0  0
    4.9091   -5.9607    1.0292 C   0  0  0  0  0  0  0  0  0  0  0  0
    3.7419   -6.7166    1.3414 C   0  0  0  0  0  0  0  0  0  0  0  0
    3.8615   -7.9912    1.9797 C   0  0  0  0  0  0  0  0  0  0  0  0
    2.7649   -8.7535    2.3687 O   0  0  0  0  0  0  0  0  0  0  0  0
    1.5149   -8.0829    2.5272 C   0  0  2  0  0  0  0  0  0  0  0  0
    1.2512   -7.2382    1.2690 C   0  0  0  0  0  0  0  0  0  0  0  0
    2.3667   -6.2246    1.0390 C   0  0  0  0  0  0  0  0  0  0  0  0
    2.0910   -5.0941    0.6465 O   0  0  0  0  0  0  0  0  0  0  0  0
    1.5405   -7.2287    3.8695 C   0  0  1  0  0  0  0  0  0  0  0  0
    0.3670   -6.2130    3.9970 C   0  0  0  0  0  0  0  0  0  0  0  0
   -0.8294   -6.8281    4.5214 O   0  0  0  0  0  0  0  0  0  0  0  0
   -0.9522   -8.2577    4.3305 C   0  0  1  0  0  0  0  0  0  0  0  0
   -0.9511   -8.6489    2.8355 C   0  0  0  0  0  0  0  0  0  0  0  0
    0.4493   -9.2157    2.6022 C   0  0  2  0  0  0  0  0  0  0  0  0
    0.6069  -10.0559    3.8656 C   0  0  0  0  0  0  0  0  0  0  0  0
    0.2399   -9.0491    4.9604 C   0  0  1  0  0  0  0  0  0  0  0  0
    1.4635   -8.1201    5.1359 C   0  0  0  0  0  0  0  0  0  0  0  0
    6.2997  -10.2169    2.9916 H   0  0  0  0  0  0  0  0  0  0  0  0
    4.8128  -10.7196    2.2006 H   0  0  0  0  0  0  0  0  0  0  0  0
    4.7666   -9.9952    3.8239 H   0  0  0  0  0  0  0  0  0  0  0  0
    7.2662   -8.2611    2.1011 H   0  0  0  0  0  0  0  0  0  0  0  0
    3.7826   -3.8531   -0.8768 H   0  0  0  0  0  0  0  0  0  0  0  0
    5.1759   -2.8188   -0.6264 H   0  0  0  0  0  0  0  0  0  0  0  0
    3.9876   -2.9585    0.6569 H   0  0  0  0  0  0  0  0  0  0  0  0
    1.1373   -7.9073    0.4275 H   0  0  0  0  0  0  0  0  0  0  0  0
    0.3242   -6.6799    1.3377 H   0  0  0  0  0  0  0  0  0  0  0  0
    2.4791   -6.6626    3.9307 H   0  0  0  0  0  0  0  0  0  0  0  0
    0.6651   -5.3956    4.6678 H   0  0  0  0  0  0  0  0  0  0  0  0
    0.1511   -5.7304    3.0407 H   0  0  0  0  0  0  0  0  0  0  0  0
   -1.8993   -8.5548    4.7886 H   0  0  0  0  0  0  0  0  0  0  0  0
   -1.7033   -9.4233    2.6698 H   0  0  0  0  0  0  0  0  0  0  0  0
   -1.2390   -7.8168    2.2035 H   0  0  0  0  0  0  0  0  0  0  0  0
    0.4935   -9.8642    1.7283 H   0  0  0  0  0  0  0  0  0  0  0  0
   -0.1019  -10.8806    3.8997 H   0  0  0  0  0  0  0  0  0  0  0  0
    1.5940  -10.4727    4.0203 H   0  0  0  0  0  0  0  0  0  0  0  0
   -0.0334   -9.5171    5.9196 H   0  0  0  0  0  0  0  0  0  0  0  0
    2.3749   -8.7085    5.2691 H   0  0  0  0  0  0  0  0  0  0  0  0
    1.3669   -7.5005    6.0427 H   0  0  0  0  0  0  0  0  0  0  0  0
  1  2  1  0
  1 27  1  0
  1 28  1  0
  1 29  1  0
  2 12  2  0
  2  3  1  0
  3  4  2  0
  3 30  1  0
  4 10  1  0
  4  5  1  0
  5  6  1  0
  6  7  1  0
  6  8  2  0
  8  9  1  0
  8 10  1  0
  9 31  1  0
  9 32  1  0
  9 33  1  0
 10 11  2  0
 11 16  1  0
 11 12  1  0
 12 13  1  0
 14 13  1  6
 14 23  1  0
 14 15  1  0
 14 18  1  0
 15 16  1  0
 15 34  1  0
 15 35  1  0
 16 17  2  0
 18 26  1  0
 18 19  1  0
 18 36  1  1
 19 20  1  0
 19 37  1  0
 19 38  1  0
 20 21  1  0
 21 25  1  0
 21 22  1  0
 21 39  1  1
 22 23  1  0
 22 40  1  0
 22 41  1  0
 23 24  1  0
 23 42  1  6
 24 25  1  0
 24 43  1  0
 24 44  1  0
 25 26  1  0
 25 45  1  1
 26 46  1  0
 26 47  1  0
M  CHG  1   7  -1
M  END
>  <i_m_ct_stereo_status>  (296) 
1

>  <s_m_source_file>  (296) 
/var/tmp/pbs.5076255.sched01/tmpbvzcvm50/120d7_yi5_y.sdf

>  <i_m_source_file_index>  (296) 
1

>  <i_lp_mmshare_version>  (296) 
48012

>  <i_f3d_flags>  (296) 
0

>  <s_epik_input>  (296) 
W0NIM11jMWMoW09IXSlvYyhbY0hdYzJbQ0gzXSljMWMoQyg9TylbQ0gyXTMpYzJPW0NAQF0zNFtDQEhdNVtDSDJdT1tDQEBIXTZbQ0BIXShbQ0gyXTUpW0NIMl1bQ0BIXTRbQ0gyXTY=

>  <s_epik_cmdline>  (296) 
J2VwaWtfcHl0aG9uJywgJy1waHQnLCAnMi4wJywgJy1waCcsICc3LjAnLCAnLXRuJywgJzgnLCAnLW1hJywgJzIwMCcsICctaW1hZScsICc8aW5maWxlLm1hZT4nLCAnLW9tYWUnLCAnPG91dGZpbGUubWFlPic=

>  <r_lp_tautomer_probability>  (296) 
0.99995

>  <r_epik_Ionization_Penalty>  (296) 
0.0218988

>  <r_epik_Ionization_Penalty_Charging>  (296) 
0.0218988

>  <r_epik_Ionization_Penalty_Neutral>  (296) 
1.35292e-11

>  <r_epik_State_Penalty>  (296) 
0.0176382

>  <r_epik_Charging_Adjusted_Penalty>  (296) 
0.039537

>  <i_epik_Tot_Q>  (296) 
-1

>  <i_epik_Tot_abs_Q>  (296) 
1

>  <s_lp_Force_Field>  (296) 
OPLS3e

>  <r_lp_Energy>  (296) 
33.3609

>  <b_lp_Chiralities_Consistent>  (296) 
1

>  <s_lp_Variant>  (296) 
85:0-1

>  <s_i_glide_gridfile>  (296) 
pfpi4k_grid

>  <i_i_glide_lignum>  (296) 
1

>  <i_i_glide_rotatable_bonds>  (296) 
0

>  <r_i_docking_score>  (296) 
-2.80394

>  <r_i_glide_ligand_efficiency>  (296) 
-0.107844

>  <r_i_glide_ligand_efficiency_sa>  (296) 
-0.319487

>  <r_i_glide_ligand_efficiency_ln>  (296) 
-0.658495

>  <r_i_glide_gscore>  (296) 
-2.80394

>  <r_i_glide_lipo>  (296) 
-0.559131

>  <r_i_glide_hbond>  (296) 
-0.0424089

>  <r_i_glide_metal>  (296) 
-0

>  <r_i_glide_rewards>  (296) 
-0.999624

>  <r_i_glide_evdw>  (296) 
-23.1398

>  <r_i_glide_ecoul>  (296) 
-0.161775

>  <r_i_glide_erotb>  (296) 
0

>  <r_i_glide_esite>  (296) 
-0.0215183

>  <r_i_glide_emodel>  (296) 
-29.0693

>  <r_i_glide_energy>  (296) 
-23.3015

>  <r_i_glide_einternal>  (296) 
0

>  <r_i_glide_intrahb_reward>  (296) 
-0

>  <i_i_glide_confnum>  (296) 
1

>  <i_i_glide_posenum>  (296) 
16

>  <r_i_glide_eff_state_penalty>  (296) 
0

>  <ligand_id>  (296) 
85

>  <original_smiles>  (296) 
Cc1cc2oc(O)c(C)c2c2c1OC1(CC2=O)C2COC3CC1CC3C2

>  <smiles>  (296) 
[H]c1c(C([H])([H])[H])c2c(c3c(C([H])([H])[H])c([O-])oc13)C(=O)C([H])([H])C1(O2)C2([H])C([H])([H])OC3([H])C([H])([H])C1([H])C([H])([H])C3([H])C2([H])[H]

$$$$
85:1:0
     RDKit          3D

 48 53  0  0  1  0  0  0  0  0999 V2000
    6.4925   -8.5929    2.4589 C   0  0  0  0  0  0  0  0  0  0  0  0
    5.6768   -7.4695    1.8399 C   0  0  0  0  0  0  0  0  0  0  0  0
    6.3217   -6.3688    1.2696 C   0  0  0  0  0  0  0  0  0  0  0  0
    5.5464   -5.3498    0.7036 C   0  0  0  0  0  0  0  0  0  0  0  0
    6.0844   -4.2340    0.1279 O   0  0  0  0  0  0  0  0  0  0  0  0
    5.0354   -3.5060   -0.3141 C   0  0  0  0  0  0  0  0  0  0  0  0
    5.4553   -2.3581   -0.9205 O   0  0  0  0  0  0  0  0  0  0  0  0
    3.8113   -4.0924   -0.0543 C   0  0  0  0  0  0  0  0  0  0  0  0
    2.5063   -3.4821   -0.4624 C   0  0  0  0  0  0  0  0  0  0  0  0
    4.1172   -5.3687    0.6509 C   0  0  0  0  0  0  0  0  0  0  0  0
    3.4668   -6.4857    1.2283 C   0  0  0  0  0  0  0  0  0  0  0  0
    4.2562   -7.5172    1.8602 C   0  0  0  0  0  0  0  0  0  0  0  0
    3.6985   -8.6197    2.4847 O   0  0  0  0  0  0  0  0  0  0  0  0
    2.3283   -8.5449    2.8834 C   0  0  2  0  0  0  0  0  0  0  0  0
    1.5069   -8.0436    1.6817 C   0  0  0  0  0  0  0  0  0  0  0  0
    1.9878   -6.6750    1.2158 C   0  0  0  0  0  0  0  0  0  0  0  0
    1.1666   -5.8628    0.8273 O   0  0  0  0  0  0  0  0  0  0  0  0
    2.2071   -7.6091    4.1715 C   0  0  1  0  0  0  0  0  0  0  0  0
    0.7527   -7.1782    4.5203 C   0  0  0  0  0  0  0  0  0  0  0  0
    0.0776   -8.1714    5.3107 O   0  0  0  0  0  0  0  0  0  0  0  0
    0.5464   -9.5302    5.1791 C   0  0  1  0  0  0  0  0  0  0  0  0
    0.4520  -10.0515    3.7279 C   0  0  0  0  0  0  0  0  0  0  0  0
    1.8922  -10.0060    3.2118 C   0  0  2  0  0  0  0  0  0  0  0  0
    2.6231  -10.5461    4.4406 C   0  0  0  0  0  0  0  0  0  0  0  0
    2.0536   -9.6668    5.5616 C   0  0  1  0  0  0  0  0  0  0  0  0
    2.7590   -8.2950    5.4492 C   0  0  0  0  0  0  0  0  0  0  0  0
    7.5574   -8.3786    2.3940 H   0  0  0  0  0  0  0  0  0  0  0  0
    6.3274   -9.5474    1.9506 H   0  0  0  0  0  0  0  0  0  0  0  0
    6.2561   -8.7292    3.5182 H   0  0  0  0  0  0  0  0  0  0  0  0
    7.4048   -6.3204    1.2758 H   0  0  0  0  0  0  0  0  0  0  0  0
    4.6768   -1.8790   -1.1746 H   0  0  0  0  0  0  0  0  0  0  0  0
    1.8720   -4.1662   -1.0423 H   0  0  0  0  0  0  0  0  0  0  0  0
    2.6881   -2.6167   -1.1168 H   0  0  0  0  0  0  0  0  0  0  0  0
    1.9432   -3.0898    0.3948 H   0  0  0  0  0  0  0  0  0  0  0  0
    1.5694   -8.7763    0.8779 H   0  0  0  0  0  0  0  0  0  0  0  0
    0.4538   -7.9412    1.9226 H   0  0  0  0  0  0  0  0  0  0  0  0
    2.8010   -6.6950    4.0186 H   0  0  0  0  0  0  0  0  0  0  0  0
    0.7794   -6.2361    5.0821 H   0  0  0  0  0  0  0  0  0  0  0  0
    0.1575   -6.9474    3.6256 H   0  0  0  0  0  0  0  0  0  0  0  0
   -0.0811  -10.1407    5.8333 H   0  0  0  0  0  0  0  0  0  0  0  0
    0.0961  -11.0858    3.7417 H   0  0  0  0  0  0  0  0  0  0  0  0
   -0.2812   -9.5044    3.1478 H   0  0  0  0  0  0  0  0  0  0  0  0
    2.0465  -10.6747    2.3571 H   0  0  0  0  0  0  0  0  0  0  0  0
    2.3641  -11.5850    4.6481 H   0  0  0  0  0  0  0  0  0  0  0  0
    3.7029  -10.4842    4.3951 H   0  0  0  0  0  0  0  0  0  0  0  0
    2.1868  -10.0927    6.5709 H   0  0  0  0  0  0  0  0  0  0  0  0
    3.8418   -8.4222    5.4042 H   0  0  0  0  0  0  0  0  0  0  0  0
    2.5598   -7.6725    6.3387 H   0  0  0  0  0  0  0  0  0  0  0  0
  1  2  1  0
  1 27  1  0
  1 28  1  0
  1 29  1  0
  2 12  2  0
  2  3  1  0
  3  4  2  0
  3 30  1  0
  4 10  1  0
  4  5  1  0
  5  6  1  0
  6  7  1  0
  6  8  2  0
  7 31  1  0
  8  9  1  0
  8 10  1  0
  9 32  1  0
  9 33  1  0
  9 34  1  0
 10 11  2  0
 11 16  1  0
 11 12  1  0
 12 13  1  0
 14 13  1  6
 14 23  1  0
 14 15  1  0
 14 18  1  0
 15 16  1  0
 15 35  1  0
 15 36  1  0
 16 17  2  0
 18 26  1  0
 18 19  1  0
 18 37  1  6
 19 20  1  0
 19 38  1  0
 19 39  1  0
 20 21  1  0
 21 25  1  0
 21 22  1  0
 21 40  1  1
 22 23  1  0
 22 41  1  0
 22 42  1  0
 23 24  1  0
 23 43  1  6
 24 25  1  0
 24 44  1  0
 24 45  1  0
 25 26  1  0
 25 46  1  1
 26 47  1  0
 26 48  1  0
M  END
>  <i_m_ct_stereo_status>  (297) 
1

>  <s_m_source_file>  (297) 
/var/tmp/pbs.5076255.sched01/tmpbvzcvm50/120d7_yi5_y.sdf

>  <i_m_source_file_index>  (297) 
2

>  <i_lp_mmshare_version>  (297) 
48012

>  <i_f3d_flags>  (297) 
0

>  <s_epik_input>  (297) 
W0NIM11jMWMoW09IXSlvYyhbY0hdYzJbQ0gzXSljMWMoQyg9TylbQ0gyXTMpYzJPW0NAQF0zNFtDQEhdNVtDSDJdT1tDQEBIXTZbQ0BIXShbQ0gyXTUpW0NIMl1bQ0BIXTRbQ0gyXTY=

>  <s_epik_cmdline>  (297) 
J2VwaWtfcHl0aG9uJywgJy1waHQnLCAnMi4wJywgJy1waCcsICc3LjAnLCAnLXRuJywgJzgnLCAnLW1hJywgJzIwMCcsICctaW1hZScsICc8aW5maWxlLm1hZT4nLCAnLW9tYWUnLCAnPG91dGZpbGUubWFlPic=

>  <r_lp_tautomer_probability>  (297) 
0.99995

>  <r_epik_Ionization_Penalty>  (297) 
1.96487

>  <r_epik_Ionization_Penalty_Charging>  (297) 
0

>  <r_epik_Ionization_Penalty_Neutral>  (297) 
1.96487

>  <r_epik_State_Penalty>  (297) 
2.09095

>  <r_epik_Charging_Adjusted_Penalty>  (297) 
2.09095

>  <i_epik_Tot_Q>  (297) 
0

>  <i_epik_Tot_abs_Q>  (297) 
0

>  <s_lp_Force_Field>  (297) 
OPLS3e

>  <r_lp_Energy>  (297) 
30.6566

>  <b_lp_Chiralities_Consistent>  (297) 
1

>  <s_lp_Variant>  (297) 
85:0-2

>  <s_i_glide_gridfile>  (297) 
pfpi4k_grid

>  <i_i_glide_lignum>  (297) 
2

>  <i_i_glide_rotatable_bonds>  (297) 
1

>  <r_i_docking_score>  (297) 
-3.59129

>  <r_i_glide_ligand_efficiency>  (297) 
-0.138126

>  <r_i_glide_ligand_efficiency_sa>  (297) 
-0.409199

>  <r_i_glide_ligand_efficiency_ln>  (297) 
-0.843402

>  <r_i_glide_gscore>  (297) 
-3.59129

>  <r_i_glide_lipo>  (297) 
-0.511218

>  <r_i_glide_hbond>  (297) 
-0.16

>  <r_i_glide_metal>  (297) 
-0

>  <r_i_glide_rewards>  (297) 
-0.992752

>  <r_i_glide_evdw>  (297) 
-21.9122

>  <r_i_glide_ecoul>  (297) 
-5.35261

>  <r_i_glide_erotb>  (297) 
0

>  <r_i_glide_esite>  (297) 
-0.028817

>  <r_i_glide_emodel>  (297) 
-33.4649

>  <r_i_glide_energy>  (297) 
-27.2648

>  <r_i_glide_einternal>  (297) 
0.00610678

>  <r_i_glide_intrahb_reward>  (297) 
-0

>  <i_i_glide_confnum>  (297) 
3

>  <i_i_glide_posenum>  (297) 
18

>  <r_i_glide_eff_state_penalty>  (297) 
0

>  <ligand_id>  (297) 
85

>  <original_smiles>  (297) 
Cc1cc2oc(O)c(C)c2c2c1OC1(CC2=O)C2COC3CC1CC3C2

>  <smiles>  (297) 
[H]Oc1oc2c([H])c(C([H])([H])[H])c3c(c2c1C([H])([H])[H])C(=O)C([H])([H])C1(O3)C2([H])C([H])([H])OC3([H])C([H])([H])C1([H])C([H])([H])C3([H])C2([H])[H]

$$$$
85:1:1
     RDKit          3D

 48 53  0  0  1  0  0  0  0  0999 V2000
    5.3304   -9.9929    3.0195 C   0  0  0  0  0  0  0  0  0  0  0  0
    5.1293   -8.6382    2.3659 C   0  0  0  0  0  0  0  0  0  0  0  0
    6.2477   -7.8603    2.0183 C   0  0  0  0  0  0  0  0  0  0  0  0
    6.0497   -6.6082    1.4209 C   0  0  0  0  0  0  0  0  0  0  0  0
    7.0671   -5.7631    1.0574 O   0  0  0  0  0  0  0  0  0  0  0  0
    6.4712   -4.6886    0.5021 C   0  0  0  0  0  0  0  0  0  0  0  0
    7.3741   -3.7615    0.0831 O   0  0  0  0  0  0  0  0  0  0  0  0
    5.0939   -4.7733    0.4754 C   0  0  0  0  0  0  0  0  0  0  0  0
    4.2309   -3.6995   -0.1111 C   0  0  0  0  0  0  0  0  0  0  0  0
    4.7601   -6.0764    1.1074 C   0  0  0  0  0  0  0  0  0  0  0  0
    3.6371   -6.8857    1.4558 C   0  0  0  0  0  0  0  0  0  0  0  0
    3.8299   -8.1380    2.1149 C   0  0  0  0  0  0  0  0  0  0  0  0
    2.7792   -8.9552    2.5253 O   0  0  0  0  0  0  0  0  0  0  0  0
    1.4911   -8.3516    2.6869 C   0  0  2  0  0  0  0  0  0  0  0  0
    1.1772   -7.5551    1.4053 C   0  0  0  0  0  0  0  0  0  0  0  0
    2.2258   -6.4819    1.1566 C   0  0  0  0  0  0  0  0  0  0  0  0
    1.8759   -5.3941    0.7202 O   0  0  0  0  0  0  0  0  0  0  0  0
    1.4741   -7.4626    3.9960 C   0  0  1  0  0  0  0  0  0  0  0  0
    0.2410   -6.5097    4.0913 C   0  0  0  0  0  0  0  0  0  0  0  0
   -0.9106   -7.1737    4.6447 O   0  0  0  0  0  0  0  0  0  0  0  0
   -0.9628   -8.6076    4.4951 C   0  0  1  0  0  0  0  0  0  0  0  0
   -0.9517   -9.0419    3.0149 C   0  0  0  0  0  0  0  0  0  0  0  0
    0.4860   -9.5351    2.7958 C   0  0  2  0  0  0  0  0  0  0  0  0
    0.6932  -10.3381    4.0796 C   0  0  0  0  0  0  0  0  0  0  0  0
    0.2739   -9.3200    5.1394 C   0  0  1  0  0  0  0  0  0  0  0  0
    1.4456   -8.3229    5.2833 C   0  0  0  0  0  0  0  0  0  0  0  0
    6.3872  -10.2034    3.1707 H   0  0  0  0  0  0  0  0  0  0  0  0
    4.9255  -10.8034    2.4052 H   0  0  0  0  0  0  0  0  0  0  0  0
    4.8489  -10.0404    4.0006 H   0  0  0  0  0  0  0  0  0  0  0  0
    7.2432   -8.2224    2.2266 H   0  0  0  0  0  0  0  0  0  0  0  0
    8.2182   -4.0964    0.3488 H   0  0  0  0  0  0  0  0  0  0  0  0
    3.5204   -4.0851   -0.8504 H   0  0  0  0  0  0  0  0  0  0  0  0
    4.8466   -2.9593   -0.6396 H   0  0  0  0  0  0  0  0  0  0  0  0
    3.6785   -3.1425    0.6546 H   0  0  0  0  0  0  0  0  0  0  0  0
    1.1197   -8.2367    0.5632 H   0  0  0  0  0  0  0  0  0  0  0  0
    0.2128   -7.0612    1.4697 H   0  0  0  0  0  0  0  0  0  0  0  0
    2.3757   -6.8478    4.0322 H   0  0  0  0  0  0  0  0  0  0  0  0
    0.5008   -5.6525    4.7258 H   0  0  0  0  0  0  0  0  0  0  0  0
   -0.0104   -6.0734    3.1273 H   0  0  0  0  0  0  0  0  0  0  0  0
   -1.8880   -8.9411    4.9631 H   0  0  0  0  0  0  0  0  0  0  0  0
   -1.6507   -9.8662    2.8644 H   0  0  0  0  0  0  0  0  0  0  0  0
   -1.2719   -8.2455    2.3520 H   0  0  0  0  0  0  0  0  0  0  0  0
    0.5612  -10.1999    1.9512 H   0  0  0  0  0  0  0  0  0  0  0  0
    0.0365  -11.2057    4.1220 H   0  0  0  0  0  0  0  0  0  0  0  0
    1.7089  -10.6968    4.2244 H   0  0  0  0  0  0  0  0  0  0  0  0
    0.0357   -9.7822    6.1042 H   0  0  0  0  0  0  0  0  0  0  0  0
    2.3906   -8.8562    5.4280 H   0  0  0  0  0  0  0  0  0  0  0  0
    1.3175   -7.6894    6.1706 H   0  0  0  0  0  0  0  0  0  0  0  0
  1  2  1  0
  1 27  1  0
  1 28  1  0
  1 29  1  0
  2 12  2  0
  2  3  1  0
  3  4  2  0
  3 30  1  0
  4 10  1  0
  4  5  1  0
  5  6  1  0
  6  7  1  0
  6  8  2  0
  7 31  1  0
  8  9  1  0
  8 10  1  0
  9 32  1  0
  9 33  1  0
  9 34  1  0
 10 11  2  0
 11 16  1  0
 11 12  1  0
 12 13  1  0
 14 13  1  6
 14 23  1  0
 14 15  1  0
 14 18  1  0
 15 16  1  0
 15 35  1  0
 15 36  1  0
 16 17  2  0
 18 26  1  0
 18 19  1  0
 18 37  1  1
 19 20  1  0
 19 38  1  0
 19 39  1  0
 20 21  1  0
 21 25  1  0
 21 22  1  0
 21 40  1  1
 22 23  1  0
 22 41  1  0
 22 42  1  0
 23 24  1  0
 23 43  1  6
 24 25  1  0
 24 44  1  0
 24 45  1  0
 25 26  1  0
 25 46  1  1
 26 47  1  0
 26 48  1  0
M  END
>  <i_m_ct_stereo_status>  (298) 
1

>  <s_m_source_file>  (298) 
/var/tmp/pbs.5076255.sched01/tmpbvzcvm50/120d7_yi5_y.sdf

>  <i_m_source_file_index>  (298) 
2

>  <i_lp_mmshare_version>  (298) 
48012

>  <i_f3d_flags>  (298) 
0

>  <s_epik_input>  (298) 
W0NIM11jMWMoW09IXSlvYyhbY0hdYzJbQ0gzXSljMWMoQyg9TylbQ0gyXTMpYzJPW0NAQF0zNFtDQEhdNVtDSDJdT1tDQEBIXTZbQ0BIXShbQ0gyXTUpW0NIMl1bQ0BIXTRbQ0gyXTY=

>  <s_epik_cmdline>  (298) 
J2VwaWtfcHl0aG9uJywgJy1waHQnLCAnMi4wJywgJy1waCcsICc3LjAnLCAnLXRuJywgJzgnLCAnLW1hJywgJzIwMCcsICctaW1hZScsICc8aW5maWxlLm1hZT4nLCAnLW9tYWUnLCAnPG91dGZpbGUubWFlPic=

>  <r_lp_tautomer_probability>  (298) 
0.99995

>  <r_epik_Ionization_Penalty>  (298) 
1.96487

>  <r_epik_Ionization_Penalty_Charging>  (298) 
0

>  <r_epik_Ionization_Penalty_Neutral>  (298) 
1.96487

>  <r_epik_State_Penalty>  (298) 
2.09095

>  <r_epik_Charging_Adjusted_Penalty>  (298) 
2.09095

>  <i_epik_Tot_Q>  (298) 
0

>  <i_epik_Tot_abs_Q>  (298) 
0

>  <s_lp_Force_Field>  (298) 
OPLS3e

>  <r_lp_Energy>  (298) 
30.6566

>  <b_lp_Chiralities_Consistent>  (298) 
1

>  <s_lp_Variant>  (298) 
85:0-2

>  <s_i_glide_gridfile>  (298) 
pfpi4k_grid

>  <i_i_glide_lignum>  (298) 
2

>  <i_i_glide_rotatable_bonds>  (298) 
1

>  <r_i_docking_score>  (298) 
-3.06972

>  <r_i_glide_ligand_efficiency>  (298) 
-0.118066

>  <r_i_glide_ligand_efficiency_sa>  (298) 
-0.34977

>  <r_i_glide_ligand_efficiency_ln>  (298) 
-0.720913

>  <r_i_glide_gscore>  (298) 
-3.06972

>  <r_i_glide_lipo>  (298) 
-0.513049

>  <r_i_glide_hbond>  (298) 
-0.089057

>  <r_i_glide_metal>  (298) 
-0

>  <r_i_glide_rewards>  (298) 
-0.992752

>  <r_i_glide_evdw>  (298) 
-23.9498

>  <r_i_glide_ecoul>  (298) 
-1.71131

>  <r_i_glide_erotb>  (298) 
0

>  <r_i_glide_esite>  (298) 
-0.0206749

>  <r_i_glide_emodel>  (298) 
-30.9711

>  <r_i_glide_energy>  (298) 
-25.6611

>  <r_i_glide_einternal>  (298) 
0.0158021

>  <r_i_glide_intrahb_reward>  (298) 
-0

>  <i_i_glide_confnum>  (298) 
1

>  <i_i_glide_posenum>  (298) 
11

>  <r_i_glide_eff_state_penalty>  (298) 
0

>  <ligand_id>  (298) 
85

>  <original_smiles>  (298) 
Cc1cc2oc(O)c(C)c2c2c1OC1(CC2=O)C2COC3CC1CC3C2

>  <smiles>  (298) 
[H]Oc1oc2c([H])c(C([H])([H])[H])c3c(c2c1C([H])([H])[H])C(=O)C([H])([H])C1(O3)C2([H])C([H])([H])OC3([H])C([H])([H])C1([H])C([H])([H])C3([H])C2([H])[H]

$$$$
85:1:2
     RDKit          3D

 48 53  0  0  1  0  0  0  0  0999 V2000
    2.9106   -5.1367    3.4019 C   0  0  0  0  0  0  0  0  0  0  0  0
    2.3106   -3.7382    3.3752 C   0  0  0  0  0  0  0  0  0  0  0  0
    1.1401   -3.4790    4.1064 C   0  0  0  0  0  0  0  0  0  0  0  0
    0.6119   -2.1903    4.0726 C   0  0  0  0  0  0  0  0  0  0  0  0
   -0.5378   -1.8229    4.7282 O   0  0  0  0  0  0  0  0  0  0  0  0
   -0.7118   -0.5137    4.4674 C   0  0  0  0  0  0  0  0  0  0  0  0
   -1.8326   -0.0494    5.0820 O   0  0  0  0  0  0  0  0  0  0  0  0
    0.2689    0.0198    3.6522 C   0  0  0  0  0  0  0  0  0  0  0  0
    0.2806    1.4697    3.2310 C   0  0  0  0  0  0  0  0  0  0  0  0
    1.1724   -1.0809    3.3649 C   0  0  0  0  0  0  0  0  0  0  0  0
    2.3852   -1.3765    2.6412 C   0  0  0  0  0  0  0  0  0  0  0  0
    2.9024   -2.7058    2.6220 C   0  0  0  0  0  0  0  0  0  0  0  0
    4.0315   -3.0573    1.9015 O   0  0  0  0  0  0  0  0  0  0  0  0
    4.4606   -2.2099    0.8255 C   0  0  2  0  0  0  0  0  0  0  0  0
    4.4999   -0.7561    1.3838 C   0  0  0  0  0  0  0  0  0  0  0  0
    3.1357   -0.3224    1.9011 C   0  0  0  0  0  0  0  0  0  0  0  0
    2.7416    0.8232    1.6945 O   0  0  0  0  0  0  0  0  0  0  0  0
    3.4791   -2.4212   -0.3991 C   0  0  1  0  0  0  0  0  0  0  0  0
    3.6382   -1.3401   -1.5243 C   0  0  0  0  0  0  0  0  0  0  0  0
    4.6919   -1.6618   -2.4426 O   0  0  0  0  0  0  0  0  0  0  0  0
    5.7395   -2.4945   -1.9384 C   0  0  1  0  0  0  0  0  0  0  0  0
    6.4624   -1.8832   -0.7159 C   0  0  0  0  0  0  0  0  0  0  0  0
    5.9249   -2.6626    0.5060 C   0  0  2  0  0  0  0  0  0  0  0  0
    5.9358   -4.0779   -0.1235 C   0  0  0  0  0  0  0  0  0  0  0  0
    5.2016   -3.8747   -1.4496 C   0  0  1  0  0  0  0  0  0  0  0  0
    3.6970   -3.7735   -1.1209 C   0  0  0  0  0  0  0  0  0  0  0  0
    2.3032   -5.8128    4.0025 H   0  0  0  0  0  0  0  0  0  0  0  0
    3.9136   -5.1409    3.8408 H   0  0  0  0  0  0  0  0  0  0  0  0
    2.9790   -5.5693    2.3988 H   0  0  0  0  0  0  0  0  0  0  0  0
    0.6622   -4.2695    4.6659 H   0  0  0  0  0  0  0  0  0  0  0  0
   -2.0395    0.7775    4.6843 H   0  0  0  0  0  0  0  0  0  0  0  0
    1.2368    1.9599    3.4490 H   0  0  0  0  0  0  0  0  0  0  0  0
   -0.4762    2.0165    3.7909 H   0  0  0  0  0  0  0  0  0  0  0  0
    0.0442    1.5999    2.1686 H   0  0  0  0  0  0  0  0  0  0  0  0
    5.2645   -0.6981    2.1585 H   0  0  0  0  0  0  0  0  0  0  0  0
    4.7956   -0.0463    0.6192 H   0  0  0  0  0  0  0  0  0  0  0  0
    2.4466   -2.4038   -0.0602 H   0  0  0  0  0  0  0  0  0  0  0  0
    2.6920   -1.2555   -2.0847 H   0  0  0  0  0  0  0  0  0  0  0  0
    3.8404   -0.3622   -1.1183 H   0  0  0  0  0  0  0  0  0  0  0  0
    6.4480   -2.6303   -2.7578 H   0  0  0  0  0  0  0  0  0  0  0  0
    7.5289   -2.0485   -0.8068 H   0  0  0  0  0  0  0  0  0  0  0  0
    6.3060   -0.8111   -0.6655 H   0  0  0  0  0  0  0  0  0  0  0  0
    6.5952   -2.5984    1.3521 H   0  0  0  0  0  0  0  0  0  0  0  0
    6.9487   -4.4125   -0.3225 H   0  0  0  0  0  0  0  0  0  0  0  0
    5.4535   -4.8382    0.4865 H   0  0  0  0  0  0  0  0  0  0  0  0
    5.3801   -4.6534   -2.1966 H   0  0  0  0  0  0  0  0  0  0  0  0
    3.3896   -4.6202   -0.4945 H   0  0  0  0  0  0  0  0  0  0  0  0
    3.0888   -3.8357   -2.0329 H   0  0  0  0  0  0  0  0  0  0  0  0
  1  2  1  0
  1 27  1  0
  1 28  1  0
  1 29  1  0
  2 12  2  0
  2  3  1  0
  3  4  2  0
  3 30  1  0
  4 10  1  0
  4  5  1  0
  5  6  1  0
  6  7  1  0
  6  8  2  0
  7 31  1  0
  8  9  1  0
  8 10  1  0
  9 32  1  0
  9 33  1  0
  9 34  1  0
 10 11  2  0
 11 16  1  0
 11 12  1  0
 12 13  1  0
 14 13  1  1
 14 23  1  0
 14 15  1  0
 14 18  1  0
 15 16  1  0
 15 35  1  0
 15 36  1  0
 16 17  2  0
 18 26  1  0
 18 19  1  0
 18 37  1  1
 19 20  1  0
 19 38  1  0
 19 39  1  0
 20 21  1  0
 21 25  1  0
 21 22  1  0
 21 40  1  6
 22 23  1  0
 22 41  1  0
 22 42  1  0
 23 24  1  0
 23 43  1  1
 24 25  1  0
 24 44  1  0
 24 45  1  0
 25 26  1  0
 25 46  1  6
 26 47  1  0
 26 48  1  0
M  END
>  <i_m_ct_stereo_status>  (299) 
1

>  <s_m_source_file>  (299) 
/var/tmp/pbs.5076255.sched01/tmpbvzcvm50/120d7_yi5_y.sdf

>  <i_m_source_file_index>  (299) 
2

>  <i_lp_mmshare_version>  (299) 
48012

>  <i_f3d_flags>  (299) 
0

>  <s_epik_input>  (299) 
W0NIM11jMWMoW09IXSlvYyhbY0hdYzJbQ0gzXSljMWMoQyg9TylbQ0gyXTMpYzJPW0NAQF0zNFtDQEhdNVtDSDJdT1tDQEBIXTZbQ0BIXShbQ0gyXTUpW0NIMl1bQ0BIXTRbQ0gyXTY=

>  <s_epik_cmdline>  (299) 
J2VwaWtfcHl0aG9uJywgJy1waHQnLCAnMi4wJywgJy1waCcsICc3LjAnLCAnLXRuJywgJzgnLCAnLW1hJywgJzIwMCcsICctaW1hZScsICc8aW5maWxlLm1hZT4nLCAnLW9tYWUnLCAnPG91dGZpbGUubWFlPic=

>  <r_lp_tautomer_probability>  (299) 
0.99995

>  <r_epik_Ionization_Penalty>  (299) 
1.96487

>  <r_epik_Ionization_Penalty_Charging>  (299) 
0

>  <r_epik_Ionization_Penalty_Neutral>  (299) 
1.96487

>  <r_epik_State_Penalty>  (299) 
2.09095

>  <r_epik_Charging_Adjusted_Penalty>  (299) 
2.09095

>  <i_epik_Tot_Q>  (299) 
0

>  <i_epik_Tot_abs_Q>  (299) 
0

>  <s_lp_Force_Field>  (299) 
OPLS3e

>  <r_lp_Energy>  (299) 
30.6566

>  <b_lp_Chiralities_Consistent>  (299) 
1

>  <s_lp_Variant>  (299) 
85:0-2

>  <s_i_glide_gridfile>  (299) 
pfpi4k_grid

>  <i_i_glide_lignum>  (299) 
2

>  <i_i_glide_rotatable_bonds>  (299) 
1

>  <r_i_docking_score>  (299) 
-2.96817

>  <r_i_glide_ligand_efficiency>  (299) 
-0.114161

>  <r_i_glide_ligand_efficiency_sa>  (299) 
-0.3382

>  <r_i_glide_ligand_efficiency_ln>  (299) 
-0.697066

>  <r_i_glide_gscore>  (299) 
-2.96817

>  <r_i_glide_lipo>  (299) 
-0.274041

>  <r_i_glide_hbond>  (299) 
0

>  <r_i_glide_metal>  (299) 
-0

>  <r_i_glide_rewards>  (299) 
-0.992752

>  <r_i_glide_evdw>  (299) 
-25.2002

>  <r_i_glide_ecoul>  (299) 
-2.819

>  <r_i_glide_erotb>  (299) 
0

>  <r_i_glide_esite>  (299) 
-0.0185194

>  <r_i_glide_emodel>  (299) 
-32.973

>  <r_i_glide_energy>  (299) 
-28.0192

>  <r_i_glide_einternal>  (299) 
0.190939

>  <r_i_glide_intrahb_reward>  (299) 
-0

>  <i_i_glide_confnum>  (299) 
3

>  <i_i_glide_posenum>  (299) 
1

>  <r_i_glide_eff_state_penalty>  (299) 
0

>  <ligand_id>  (299) 
85

>  <original_smiles>  (299) 
Cc1cc2oc(O)c(C)c2c2c1OC1(CC2=O)C2COC3CC1CC3C2

>  <smiles>  (299) 
[H]Oc1oc2c([H])c(C([H])([H])[H])c3c(c2c1C([H])([H])[H])C(=O)C([H])([H])C1(O3)C2([H])C([H])([H])OC3([H])C([H])([H])C1([H])C([H])([H])C3([H])C2([H])[H]

$$$$
86:0:0
     RDKit          3D

 61 65  0  0  1  0  0  0  0  0999 V2000
    3.6264   -3.0079   -3.3098 C   0  0  0  0  0  0  0  0  0  0  0  0
    2.7343   -2.7684   -2.0876 C   0  0  0  0  0  0  0  0  0  0  0  0
    3.2812   -3.4096   -0.8153 C   0  0  0  0  0  0  0  0  0  0  0  0
    4.4773   -2.9383   -0.2426 C   0  0  0  0  0  0  0  0  0  0  0  0
    4.9884   -3.5482    0.9124 C   0  0  0  0  0  0  0  0  0  0  0  0
    4.3170   -4.6397    1.4910 C   0  0  0  0  0  0  0  0  0  0  0  0
    3.1183   -5.1355    0.9234 C   0  0  0  0  0  0  0  0  0  0  0  0
    2.5384   -6.2987    1.5143 N   0  0  0  0  0  0  0  0  0  0  0  0
    1.2903   -6.8003    1.3970 C   0  0  0  0  0  0  0  0  0  0  0  0
    0.3947   -6.3041    0.7167 O   0  0  0  0  0  0  0  0  0  0  0  0
    1.1212   -7.9788    2.2513 C   0  0  0  0  0  0  0  0  0  0  0  0
    1.6631   -8.1897    3.4830 C   0  0  0  0  0  0  0  0  0  0  0  0
    2.1756   -7.2869    4.5707 C   0  0  1  0  0  0  0  0  0  0  0  0
    1.5155   -5.9098    4.6207 C   0  0  0  0  0  0  0  0  0  0  0  0
    0.3381   -5.7906    4.3042 O   0  0  0  0  0  0  0  0  0  0  0  0
    2.2997   -4.8645    4.9353 N   0  0  0  0  0  0  0  0  0  0  0  0
    1.8692   -3.4656    4.9279 C   0  0  0  0  0  0  0  0  0  0  0  0
    0.7540   -3.1899    5.9707 C   0  0  0  0  0  0  0  0  0  0  0  0
    0.2697   -1.7332    5.9091 C   0  0  0  0  0  0  0  0  0  0  0  0
   -0.1661   -1.3493    4.4849 C   0  0  0  0  0  0  0  0  0  0  0  0
    0.9651   -1.5742    3.4702 C   0  0  0  0  0  0  0  0  0  0  0  0
    1.4511   -3.0252    3.5056 C   0  0  0  0  0  0  0  0  0  0  0  0
    1.5445   -8.4272    5.4680 C   0  0  1  0  0  0  0  0  0  0  0  0
    0.6520   -8.1458    6.7027 C   0  0  0  0  0  0  0  0  0  0  0  0
    0.3672   -9.1864    7.4768 N   0  0  0  0  0  0  0  0  0  0  0  0
    0.2427   -7.0318    7.0180 O   0  0  0  0  0  0  0  0  0  0  0  0
    0.7219   -9.0082    4.2854 C   0  0  2  0  0  0  0  0  0  0  0  0
    0.8418  -10.4057    3.6969 C   0  0  0  0  0  0  0  0  0  0  0  0
    0.2333  -10.2714    2.5103 C   0  0  0  0  0  0  0  0  0  0  0  0
   -0.1530   -8.7994    2.3660 C   0  0  1  0  0  0  0  0  0  0  0  0
   -0.4938   -8.5201    3.7317 O   0  0  0  0  0  0  0  0  0  0  0  0
    2.6086   -4.4931   -0.2254 C   0  0  0  0  0  0  0  0  0  0  0  0
    3.2042   -2.5279   -4.1921 H   0  0  0  0  0  0  0  0  0  0  0  0
    3.7276   -4.0707   -3.5266 H   0  0  0  0  0  0  0  0  0  0  0  0
    4.6273   -2.6058   -3.1575 H   0  0  0  0  0  0  0  0  0  0  0  0
    2.6229   -1.6995   -1.9148 H   0  0  0  0  0  0  0  0  0  0  0  0
    1.7335   -3.1510   -2.2895 H   0  0  0  0  0  0  0  0  0  0  0  0
    5.0063   -2.1106   -0.6993 H   0  0  0  0  0  0  0  0  0  0  0  0
    5.9174   -3.1871    1.3514 H   0  0  0  0  0  0  0  0  0  0  0  0
    4.7310   -5.1073    2.3778 H   0  0  0  0  0  0  0  0  0  0  0  0
    3.1079   -6.7694    2.1900 H   0  0  0  0  0  0  0  0  0  0  0  0
    3.2587   -7.2359    4.6875 H   0  0  0  0  0  0  0  0  0  0  0  0
    3.2716   -5.0545    5.1462 H   0  0  0  0  0  0  0  0  0  0  0  0
    2.7394   -2.8765    5.2144 H   0  0  0  0  0  0  0  0  0  0  0  0
   -0.1176   -3.8189    5.8020 H   0  0  0  0  0  0  0  0  0  0  0  0
    1.1094   -3.4271    6.9757 H   0  0  0  0  0  0  0  0  0  0  0  0
   -0.5671   -1.6057    6.5959 H   0  0  0  0  0  0  0  0  0  0  0  0
    1.0605   -1.0663    6.2459 H   0  0  0  0  0  0  0  0  0  0  0  0
   -1.0358   -1.9401    4.1949 H   0  0  0  0  0  0  0  0  0  0  0  0
   -0.4761   -0.3059    4.4565 H   0  0  0  0  0  0  0  0  0  0  0  0
    0.6171   -1.3472    2.4618 H   0  0  0  0  0  0  0  0  0  0  0  0
    1.7990   -0.9057    3.6775 H   0  0  0  0  0  0  0  0  0  0  0  0
    2.2864   -3.1508    2.8155 H   0  0  0  0  0  0  0  0  0  0  0  0
    0.6414   -3.6423    3.1232 H   0  0  0  0  0  0  0  0  0  0  0  0
    2.3333   -9.1138    5.7582 H   0  0  0  0  0  0  0  0  0  0  0  0
    0.7082  -10.1219    7.2963 H   0  0  0  0  0  0  0  0  0  0  0  0
   -0.2443   -8.9940    8.2581 H   0  0  0  0  0  0  0  0  0  0  0  0
    1.2398  -11.2994    4.1505 H   0  0  0  0  0  0  0  0  0  0  0  0
    0.0608  -11.0389    1.7724 H   0  0  0  0  0  0  0  0  0  0  0  0
   -0.9564   -8.5836    1.6544 H   0  0  0  0  0  0  0  0  0  0  0  0
    1.7090   -4.8658   -0.7052 H   0  0  0  0  0  0  0  0  0  0  0  0
  1  2  1  0
  1 33  1  0
  1 34  1  0
  1 35  1  0
  2  3  1  0
  2 36  1  0
  2 37  1  0
  3 32  2  0
  3  4  1  0
  4  5  2  0
  4 38  1  0
  5  6  1  0
  5 39  1  0
  6  7  2  0
  6 40  1  0
  7  8  1  0
  7 32  1  0
  8  9  1  0
  8 41  1  0
  9 10  2  0
  9 11  1  0
 11 30  1  0
 11 12  2  0
 12 27  1  0
 12 13  1  0
 13 14  1  0
 13 23  1  0
 13 42  1  6
 14 15  2  0
 14 16  1  0
 16 17  1  0
 16 43  1  0
 17 22  1  0
 17 18  1  0
 17 44  1  0
 18 19  1  0
 18 45  1  0
 18 46  1  0
 19 20  1  0
 19 47  1  0
 19 48  1  0
 20 21  1  0
 20 49  1  0
 20 50  1  0
 21 22  1  0
 21 51  1  0
 21 52  1  0
 22 53  1  0
 22 54  1  0
 23 24  1  0
 23 27  1  0
 23 55  1  1
 24 25  1  0
 24 26  2  0
 25 56  1  0
 25 57  1  0
 27 31  1  0
 27 28  1  6
 28 29  2  0
 28 58  1  0
 29 30  1  0
 29 59  1  0
 30 31  1  0
 30 60  1  6
 32 61  1  0
M  END
>  <i_m_ct_stereo_status>  (300) 
1

>  <s_m_source_file>  (300) 
/var/tmp/pbs.5076255.sched01/tmpbvzcvm50/120d7_yi5_y.sdf

>  <i_m_source_file_index>  (300) 
3

>  <i_lp_mmshare_version>  (300) 
48012

>  <i_f3d_flags>  (300) 
0

>  <s_epik_input>  (300) 
W0NIM11bQ0gyXWMxW2NIXVtjSF1bY0hdYyhbY0hdMSlbTkhdQyg9TylDKFtDQEhdKE8yKVtDSF09W0NIXTMpPUMoW0NAQF0yMzQpW0NASF0oW0NASF00Qyg9TylbTkgyXSlDKD1PKVtOSF1bQ0hdNVtDSDJdW0NIMl1bQ0gyXVtDSDJdW0NIMl01

>  <s_epik_cmdline>  (300) 
J2VwaWtfcHl0aG9uJywgJy1waHQnLCAnMi4wJywgJy1waCcsICc3LjAnLCAnLXRuJywgJzgnLCAnLW1hJywgJzIwMCcsICctaW1hZScsICc8aW5maWxlLm1hZT4nLCAnLW9tYWUnLCAnPG91dGZpbGUubWFlPic=

>  <r_lp_tautomer_probability>  (300) 
1

>  <r_epik_Ionization_Penalty>  (300) 
1.33653e-05

>  <r_epik_Ionization_Penalty_Charging>  (300) 
0

>  <r_epik_Ionization_Penalty_Neutral>  (300) 
1.33653e-05

>  <r_epik_State_Penalty>  (300) 
-0

>  <r_epik_Charging_Adjusted_Penalty>  (300) 
0

>  <i_epik_Tot_Q>  (300) 
0

>  <i_epik_Tot_abs_Q>  (300) 
0

>  <s_lp_Force_Field>  (300) 
OPLS3e

>  <r_lp_Energy>  (300) 
84.8949

>  <b_lp_Chiralities_Consistent>  (300) 
1

>  <s_lp_Variant>  (300) 
86:0-1

>  <s_i_glide_gridfile>  (300) 
pfpi4k_grid

>  <i_i_glide_lignum>  (300) 
3

>  <i_i_glide_rotatable_bonds>  (300) 
8

>  <r_i_docking_score>  (300) 
-3.32397

>  <r_i_glide_ligand_efficiency>  (300) 
-0.103874

>  <r_i_glide_ligand_efficiency_sa>  (300) 
-0.329779

>  <r_i_glide_ligand_efficiency_ln>  (300) 
-0.744327

>  <r_i_glide_gscore>  (300) 
-3.32397

>  <r_i_glide_lipo>  (300) 
-0.491688

>  <r_i_glide_hbond>  (300) 
-0.209972

>  <r_i_glide_metal>  (300) 
-0

>  <r_i_glide_rewards>  (300) 
-0.439667

>  <r_i_glide_evdw>  (300) 
-31.0157

>  <r_i_glide_ecoul>  (300) 
-7.27209

>  <r_i_glide_erotb>  (300) 
0.630292

>  <r_i_glide_esite>  (300) 
-0.17133

>  <r_i_glide_emodel>  (300) 
-44.3635

>  <r_i_glide_energy>  (300) 
-38.2878

>  <r_i_glide_einternal>  (300) 
4.96414

>  <r_i_glide_intrahb_reward>  (300) 
-0

>  <i_i_glide_confnum>  (300) 
4

>  <i_i_glide_posenum>  (300) 
10

>  <r_i_glide_eff_state_penalty>  (300) 
0

>  <ligand_id>  (300) 
86

>  <original_smiles>  (300) 
CCc1cccc(NC(=O)C2=C3C(C(=O)NC4CCCCC4)C(C(N)=O)C34C=CC2O4)c1

>  <smiles>  (300) 
[H]C1=C([H])C23OC1([H])C(C(=O)N([H])c1c([H])c([H])c([H])c(C([H])([H])C([H])([H])[H])c1[H])=C2C([H])(C(=O)N([H])C1([H])C([H])([H])C([H])([H])C([H])([H])C([H])([H])C1([H])[H])C3([H])C(=O)N([H])[H]

$$$$
86:0:1
     RDKit          3D

 61 65  0  0  1  0  0  0  0  0999 V2000
    4.0302   -1.3013   -2.2881 C   0  0  0  0  0  0  0  0  0  0  0  0
    4.5653   -2.6989   -1.9640 C   0  0  0  0  0  0  0  0  0  0  0  0
    4.5537   -2.9637   -0.4660 C   0  0  0  0  0  0  0  0  0  0  0  0
    5.4702   -2.3087    0.3598 C   0  0  0  0  0  0  0  0  0  0  0  0
    5.4547   -2.5585    1.7404 C   0  0  0  0  0  0  0  0  0  0  0  0
    4.4940   -3.4314    2.2969 C   0  0  0  0  0  0  0  0  0  0  0  0
    3.5825   -4.1211    1.4776 C   0  0  0  0  0  0  0  0  0  0  0  0
    2.7037   -5.0592    2.1114 N   0  0  0  0  0  0  0  0  0  0  0  0
    1.7594   -5.8599    1.5942 C   0  0  0  0  0  0  0  0  0  0  0  0
    1.3424   -5.8554    0.4351 O   0  0  0  0  0  0  0  0  0  0  0  0
    1.2139   -6.7821    2.6002 C   0  0  0  0  0  0  0  0  0  0  0  0
    1.2834   -8.0977    2.5578 C   0  0  0  0  0  0  0  0  0  0  0  0
    2.2071   -9.0907    1.8821 C   0  0  1  0  0  0  0  0  0  0  0  0
    3.6753   -8.6693    1.6777 C   0  0  0  0  0  0  0  0  0  0  0  0
    4.2116   -8.7630    0.5666 O   0  0  0  0  0  0  0  0  0  0  0  0
    4.2445   -8.1177    2.7577 N   0  0  0  0  0  0  0  0  0  0  0  0
    5.6568   -7.7921    2.8756 C   0  0  0  0  0  0  0  0  0  0  0  0
    6.0161   -7.7497    4.3741 C   0  0  0  0  0  0  0  0  0  0  0  0
    7.4696   -7.2986    4.5838 C   0  0  0  0  0  0  0  0  0  0  0  0
    7.7319   -5.9316    3.9356 C   0  0  0  0  0  0  0  0  0  0  0  0
    7.3828   -5.9584    2.4365 C   0  0  0  0  0  0  0  0  0  0  0  0
    5.9372   -6.4203    2.2506 C   0  0  0  0  0  0  0  0  0  0  0  0
    1.8584   -9.9101    3.1849 C   0  0  1  0  0  0  0  0  0  0  0  0
    2.9193  -10.6683    4.0237 C   0  0  0  0  0  0  0  0  0  0  0  0
    2.5256  -11.1880    5.1903 N   0  0  0  0  0  0  0  0  0  0  0  0
    4.0803  -10.8044    3.6323 O   0  0  0  0  0  0  0  0  0  0  0  0
    1.3040   -8.6392    3.9115 C   0  0  2  0  0  0  0  0  0  0  0  0
   -0.1134   -8.4526    4.4360 C   0  0  0  0  0  0  0  0  0  0  0  0
   -0.2041   -7.1372    4.5982 C   0  0  0  0  0  0  0  0  0  0  0  0
    1.1198   -6.5415    4.1080 C   0  0  1  0  0  0  0  0  0  0  0  0
    2.0117   -7.5830    4.5412 O   0  0  0  0  0  0  0  0  0  0  0  0
    3.6223   -3.8713    0.0860 C   0  0  0  0  0  0  0  0  0  0  0  0
    4.0185   -1.1165   -3.3607 H   0  0  0  0  0  0  0  0  0  0  0  0
    4.6338   -0.5240   -1.8215 H   0  0  0  0  0  0  0  0  0  0  0  0
    3.0115   -1.1831   -1.9209 H   0  0  0  0  0  0  0  0  0  0  0  0
    3.9585   -3.4435   -2.4856 H   0  0  0  0  0  0  0  0  0  0  0  0
    5.5814   -2.8136   -2.3446 H   0  0  0  0  0  0  0  0  0  0  0  0
    6.2097   -1.6381   -0.0513 H   0  0  0  0  0  0  0  0  0  0  0  0
    6.1875   -2.0720    2.3911 H   0  0  0  0  0  0  0  0  0  0  0  0
    4.5145   -3.5998    3.3646 H   0  0  0  0  0  0  0  0  0  0  0  0
    2.9352   -5.2705    3.0702 H   0  0  0  0  0  0  0  0  0  0  0  0
    1.8213   -9.5654    0.9768 H   0  0  0  0  0  0  0  0  0  0  0  0
    3.6376   -7.9475    3.5471 H   0  0  0  0  0  0  0  0  0  0  0  0
    6.2334   -8.5723    2.3665 H   0  0  0  0  0  0  0  0  0  0  0  0
    5.3478   -7.0748    4.9149 H   0  0  0  0  0  0  0  0  0  0  0  0
    5.8586   -8.7392    4.8066 H   0  0  0  0  0  0  0  0  0  0  0  0
    7.6935   -7.2603    5.6498 H   0  0  0  0  0  0  0  0  0  0  0  0
    8.1338   -8.0379    4.1449 H   0  0  0  0  0  0  0  0  0  0  0  0
    7.1352   -5.1817    4.4633 H   0  0  0  0  0  0  0  0  0  0  0  0
    8.7801   -5.6479    4.0705 H   0  0  0  0  0  0  0  0  0  0  0  0
    7.4877   -4.9542    2.0292 H   0  0  0  0  0  0  0  0  0  0  0  0
    8.0774   -6.5966    1.8957 H   0  0  0  0  0  0  0  0  0  0  0  0
    5.6693   -6.3809    1.1989 H   0  0  0  0  0  0  0  0  0  0  0  0
    5.2988   -5.7143    2.8073 H   0  0  0  0  0  0  0  0  0  0  0  0
    1.0671  -10.6133    2.9373 H   0  0  0  0  0  0  0  0  0  0  0  0
    1.5758  -11.1808    5.5344 H   0  0  0  0  0  0  0  0  0  0  0  0
    3.2145  -11.6221    5.7778 H   0  0  0  0  0  0  0  0  0  0  0  0
   -0.8669   -9.1942    4.6697 H   0  0  0  0  0  0  0  0  0  0  0  0
   -1.0454   -6.5916    4.9762 H   0  0  0  0  0  0  0  0  0  0  0  0
    1.3328   -5.5326    4.4629 H   0  0  0  0  0  0  0  0  0  0  0  0
    2.9742   -4.4044   -0.6044 H   0  0  0  0  0  0  0  0  0  0  0  0
  1  2  1  0
  1 33  1  0
  1 34  1  0
  1 35  1  0
  2  3  1  0
  2 36  1  0
  2 37  1  0
  3 32  2  0
  3  4  1  0
  4  5  2  0
  4 38  1  0
  5  6  1  0
  5 39  1  0
  6  7  2  0
  6 40  1  0
  7  8  1  0
  7 32  1  0
  8  9  1  0
  8 41  1  0
  9 10  2  0
  9 11  1  0
 11 30  1  0
 11 12  2  0
 12 27  1  0
 12 13  1  0
 13 14  1  0
 13 23  1  0
 13 42  1  6
 14 15  2  0
 14 16  1  0
 16 17  1  0
 16 43  1  0
 17 22  1  0
 17 18  1  0
 17 44  1  0
 18 19  1  0
 18 45  1  0
 18 46  1  0
 19 20  1  0
 19 47  1  0
 19 48  1  0
 20 21  1  0
 20 49  1  0
 20 50  1  0
 21 22  1  0
 21 51  1  0
 21 52  1  0
 22 53  1  0
 22 54  1  0
 23 24  1  0
 23 27  1  0
 23 55  1  6
 24 25  1  0
 24 26  2  0
 25 56  1  0
 25 57  1  0
 27 31  1  0
 27 28  1  1
 28 29  2  0
 28 58  1  0
 29 30  1  0
 29 59  1  0
 30 31  1  0
 30 60  1  6
 32 61  1  0
M  END
>  <i_m_ct_stereo_status>  (301) 
1

>  <s_m_source_file>  (301) 
/var/tmp/pbs.5076255.sched01/tmpbvzcvm50/120d7_yi5_y.sdf

>  <i_m_source_file_index>  (301) 
3

>  <i_lp_mmshare_version>  (301) 
48012

>  <i_f3d_flags>  (301) 
0

>  <s_epik_input>  (301) 
W0NIM11bQ0gyXWMxW2NIXVtjSF1bY0hdYyhbY0hdMSlbTkhdQyg9TylDKFtDQEhdKE8yKVtDSF09W0NIXTMpPUMoW0NAQF0yMzQpW0NASF0oW0NASF00Qyg9TylbTkgyXSlDKD1PKVtOSF1bQ0hdNVtDSDJdW0NIMl1bQ0gyXVtDSDJdW0NIMl01

>  <s_epik_cmdline>  (301) 
J2VwaWtfcHl0aG9uJywgJy1waHQnLCAnMi4wJywgJy1waCcsICc3LjAnLCAnLXRuJywgJzgnLCAnLW1hJywgJzIwMCcsICctaW1hZScsICc8aW5maWxlLm1hZT4nLCAnLW9tYWUnLCAnPG91dGZpbGUubWFlPic=

>  <r_lp_tautomer_probability>  (301) 
1

>  <r_epik_Ionization_Penalty>  (301) 
1.33653e-05

>  <r_epik_Ionization_Penalty_Charging>  (301) 
0

>  <r_epik_Ionization_Penalty_Neutral>  (301) 
1.33653e-05

>  <r_epik_State_Penalty>  (301) 
-0

>  <r_epik_Charging_Adjusted_Penalty>  (301) 
0

>  <i_epik_Tot_Q>  (301) 
0

>  <i_epik_Tot_abs_Q>  (301) 
0

>  <s_lp_Force_Field>  (301) 
OPLS3e

>  <r_lp_Energy>  (301) 
84.8949

>  <b_lp_Chiralities_Consistent>  (301) 
1

>  <s_lp_Variant>  (301) 
86:0-1

>  <s_i_glide_gridfile>  (301) 
pfpi4k_grid

>  <i_i_glide_lignum>  (301) 
3

>  <i_i_glide_rotatable_bonds>  (301) 
8

>  <r_i_docking_score>  (301) 
-3.23028

>  <r_i_glide_ligand_efficiency>  (301) 
-0.100946

>  <r_i_glide_ligand_efficiency_sa>  (301) 
-0.320484

>  <r_i_glide_ligand_efficiency_ln>  (301) 
-0.723347

>  <r_i_glide_gscore>  (301) 
-3.23028

>  <r_i_glide_lipo>  (301) 
-0.267059

>  <r_i_glide_hbond>  (301) 
-0.161332

>  <r_i_glide_metal>  (301) 
-0

>  <r_i_glide_rewards>  (301) 
-0.939667

>  <r_i_glide_evdw>  (301) 
-30.0199

>  <r_i_glide_ecoul>  (301) 
-5.37296

>  <r_i_glide_erotb>  (301) 
0.630292

>  <r_i_glide_esite>  (301) 
-0.185574

>  <r_i_glide_emodel>  (301) 
-43.0226

>  <r_i_glide_energy>  (301) 
-35.3928

>  <r_i_glide_einternal>  (301) 
10.0454

>  <r_i_glide_intrahb_reward>  (301) 
-0.5

>  <i_i_glide_confnum>  (301) 
8

>  <i_i_glide_posenum>  (301) 
39

>  <r_i_glide_eff_state_penalty>  (301) 
0

>  <ligand_id>  (301) 
86

>  <original_smiles>  (301) 
CCc1cccc(NC(=O)C2=C3C(C(=O)NC4CCCCC4)C(C(N)=O)C34C=CC2O4)c1

>  <smiles>  (301) 
[H]C1=C([H])C23OC1([H])C(C(=O)N([H])c1c([H])c([H])c([H])c(C([H])([H])C([H])([H])[H])c1[H])=C2C([H])(C(=O)N([H])C1([H])C([H])([H])C([H])([H])C([H])([H])C([H])([H])C1([H])[H])C3([H])C(=O)N([H])[H]

$$$$
86:0:2
     RDKit          3D

 61 65  0  0  1  0  0  0  0  0999 V2000
    4.4804   -0.9490   -0.5064 C   0  0  0  0  0  0  0  0  0  0  0  0
    5.1443   -2.2018    0.0666 C   0  0  0  0  0  0  0  0  0  0  0  0
    4.5430   -2.6186    1.4003 C   0  0  0  0  0  0  0  0  0  0  0  0
    4.9337   -1.9662    2.5873 C   0  0  0  0  0  0  0  0  0  0  0  0
    4.3783   -2.3534    3.8207 C   0  0  0  0  0  0  0  0  0  0  0  0
    3.4281   -3.3928    3.8709 C   0  0  0  0  0  0  0  0  0  0  0  0
    3.0206   -4.0612    2.6926 C   0  0  0  0  0  0  0  0  0  0  0  0
    2.0181   -5.0700    2.8303 N   0  0  0  0  0  0  0  0  0  0  0  0
    1.6804   -6.0509    1.9754 C   0  0  0  0  0  0  0  0  0  0  0  0
    2.1682   -6.1807    0.8560 O   0  0  0  0  0  0  0  0  0  0  0  0
    0.6760   -6.9342    2.5373 C   0  0  0  0  0  0  0  0  0  0  0  0
    0.6800   -8.2805    2.3944 C   0  0  0  0  0  0  0  0  0  0  0  0
    1.7417   -9.3158    2.0862 C   0  0  1  0  0  0  0  0  0  0  0  0
    3.1361   -8.9717    2.5852 C   0  0  0  0  0  0  0  0  0  0  0  0
    3.2602   -8.1932    3.5240 O   0  0  0  0  0  0  0  0  0  0  0  0
    4.1712   -9.5148    1.9320 N   0  0  0  0  0  0  0  0  0  0  0  0
    5.5778   -9.1864    2.1732 C   0  0  0  0  0  0  0  0  0  0  0  0
    6.0518   -9.4963    3.6235 C   0  0  0  0  0  0  0  0  0  0  0  0
    7.5067   -9.0661    3.8524 C   0  0  0  0  0  0  0  0  0  0  0  0
    7.7219   -7.5910    3.4689 C   0  0  0  0  0  0  0  0  0  0  0  0
    7.3132   -7.3179    2.0125 C   0  0  0  0  0  0  0  0  0  0  0  0
    5.8544   -7.7175    1.7711 C   0  0  0  0  0  0  0  0  0  0  0  0
    0.8441  -10.1646    3.0586 C   0  0  1  0  0  0  0  0  0  0  0  0
    1.4352  -10.9696    4.2288 C   0  0  0  0  0  0  0  0  0  0  0  0
    0.6115  -11.2891    5.2295 N   0  0  0  0  0  0  0  0  0  0  0  0
    2.6083  -11.3456    4.2556 O   0  0  0  0  0  0  0  0  0  0  0  0
    0.0755   -8.9192    3.5883 C   0  0  2  0  0  0  0  0  0  0  0  0
   -1.3999   -8.6375    3.4220 C   0  0  0  0  0  0  0  0  0  0  0  0
   -1.4727   -7.3229    3.6832 C   0  0  0  0  0  0  0  0  0  0  0  0
   -0.0471   -6.8106    3.8730 C   0  0  1  0  0  0  0  0  0  0  0  0
    0.5110   -7.9462    4.5376 O   0  0  0  0  0  0  0  0  0  0  0  0
    3.5839   -3.6548    1.4549 C   0  0  0  0  0  0  0  0  0  0  0  0
    4.9211   -0.6746   -1.4640 H   0  0  0  0  0  0  0  0  0  0  0  0
    4.5907   -0.0957    0.1644 H   0  0  0  0  0  0  0  0  0  0  0  0
    3.4122   -1.1051   -0.6674 H   0  0  0  0  0  0  0  0  0  0  0  0
    5.0510   -3.0227   -0.6416 H   0  0  0  0  0  0  0  0  0  0  0  0
    6.2065   -2.0300    0.2122 H   0  0  0  0  0  0  0  0  0  0  0  0
    5.6626   -1.1653    2.5549 H   0  0  0  0  0  0  0  0  0  0  0  0
    4.6717   -1.8495    4.7380 H   0  0  0  0  0  0  0  0  0  0  0  0
    3.0049   -3.6850    4.8259 H   0  0  0  0  0  0  0  0  0  0  0  0
    1.6355   -5.1675    3.7570 H   0  0  0  0  0  0  0  0  0  0  0  0
    1.8005   -9.7391    1.0809 H   0  0  0  0  0  0  0  0  0  0  0  0
    3.9707  -10.2482    1.2594 H   0  0  0  0  0  0  0  0  0  0  0  0
    6.1541   -9.8295    1.5055 H   0  0  0  0  0  0  0  0  0  0  0  0
    5.4643   -8.9640    4.3643 H   0  0  0  0  0  0  0  0  0  0  0  0
    5.9229  -10.5563    3.8447 H   0  0  0  0  0  0  0  0  0  0  0  0
    7.7593   -9.2147    4.9015 H   0  0  0  0  0  0  0  0  0  0  0  0
    8.1747   -9.7004    3.2767 H   0  0  0  0  0  0  0  0  0  0  0  0
    7.1462   -6.9487    4.1394 H   0  0  0  0  0  0  0  0  0  0  0  0
    8.7691   -7.3224    3.6064 H   0  0  0  0  0  0  0  0  0  0  0  0
    7.4240   -6.2582    1.7869 H   0  0  0  0  0  0  0  0  0  0  0  0
    7.9649   -7.8620    1.3318 H   0  0  0  0  0  0  0  0  0  0  0  0
    5.5734   -7.5627    0.7269 H   0  0  0  0  0  0  0  0  0  0  0  0
    5.2351   -7.0307    2.3454 H   0  0  0  0  0  0  0  0  0  0  0  0
    0.1890  -10.8004    2.4782 H   0  0  0  0  0  0  0  0  0  0  0  0
   -0.3926  -11.0504    5.1979 H   0  0  0  0  0  0  0  0  0  0  0  0
    1.0143  -11.7738    6.0329 H   0  0  0  0  0  0  0  0  0  0  0  0
   -2.2135   -9.3329    3.3075 H   0  0  0  0  0  0  0  0  0  0  0  0
   -2.3656   -6.7336    3.7658 H   0  0  0  0  0  0  0  0  0  0  0  0
    0.0499   -5.8772    4.4241 H   0  0  0  0  0  0  0  0  0  0  0  0
    3.2855   -4.1248    0.5202 H   0  0  0  0  0  0  0  0  0  0  0  0
  1  2  1  0
  1 33  1  0
  1 34  1  0
  1 35  1  0
  2  3  1  0
  2 36  1  0
  2 37  1  0
  3 32  2  0
  3  4  1  0
  4  5  2  0
  4 38  1  0
  5  6  1  0
  5 39  1  0
  6  7  2  0
  6 40  1  0
  7  8  1  0
  7 32  1  0
  8  9  1  0
  8 41  1  0
  9 10  2  0
  9 11  1  0
 11 30  1  0
 11 12  2  0
 12 27  1  0
 12 13  1  0
 13 14  1  0
 13 23  1  0
 13 42  1  6
 14 15  2  0
 14 16  1  0
 16 17  1  0
 16 43  1  0
 17 22  1  0
 17 18  1  0
 17 44  1  0
 18 19  1  0
 18 45  1  0
 18 46  1  0
 19 20  1  0
 19 47  1  0
 19 48  1  0
 20 21  1  0
 20 49  1  0
 20 50  1  0
 21 22  1  0
 21 51  1  0
 21 52  1  0
 22 53  1  0
 22 54  1  0
 23 24  1  0
 23 27  1  0
 23 55  1  6
 24 25  1  0
 24 26  2  0
 25 56  1  0
 25 57  1  0
 27 31  1  0
 27 28  1  6
 28 29  2  0
 28 58  1  0
 29 30  1  0
 29 59  1  0
 30 31  1  0
 30 60  1  1
 32 61  1  0
M  END
>  <i_m_ct_stereo_status>  (302) 
1

>  <s_m_source_file>  (302) 
/var/tmp/pbs.5076255.sched01/tmpbvzcvm50/120d7_yi5_y.sdf

>  <i_m_source_file_index>  (302) 
3

>  <i_lp_mmshare_version>  (302) 
48012

>  <i_f3d_flags>  (302) 
0

>  <s_epik_input>  (302) 
W0NIM11bQ0gyXWMxW2NIXVtjSF1bY0hdYyhbY0hdMSlbTkhdQyg9TylDKFtDQEhdKE8yKVtDSF09W0NIXTMpPUMoW0NAQF0yMzQpW0NASF0oW0NASF00Qyg9TylbTkgyXSlDKD1PKVtOSF1bQ0hdNVtDSDJdW0NIMl1bQ0gyXVtDSDJdW0NIMl01

>  <s_epik_cmdline>  (302) 
J2VwaWtfcHl0aG9uJywgJy1waHQnLCAnMi4wJywgJy1waCcsICc3LjAnLCAnLXRuJywgJzgnLCAnLW1hJywgJzIwMCcsICctaW1hZScsICc8aW5maWxlLm1hZT4nLCAnLW9tYWUnLCAnPG91dGZpbGUubWFlPic=

>  <r_lp_tautomer_probability>  (302) 
1

>  <r_epik_Ionization_Penalty>  (302) 
1.33653e-05

>  <r_epik_Ionization_Penalty_Charging>  (302) 
0

>  <r_epik_Ionization_Penalty_Neutral>  (302) 
1.33653e-05

>  <r_epik_State_Penalty>  (302) 
-0

>  <r_epik_Charging_Adjusted_Penalty>  (302) 
0

>  <i_epik_Tot_Q>  (302) 
0

>  <i_epik_Tot_abs_Q>  (302) 
0

>  <s_lp_Force_Field>  (302) 
OPLS3e

>  <r_lp_Energy>  (302) 
84.8949

>  <b_lp_Chiralities_Consistent>  (302) 
1

>  <s_lp_Variant>  (302) 
86:0-1

>  <s_i_glide_gridfile>  (302) 
pfpi4k_grid

>  <i_i_glide_lignum>  (302) 
3

>  <i_i_glide_rotatable_bonds>  (302) 
8

>  <r_i_docking_score>  (302) 
-3.20304

>  <r_i_glide_ligand_efficiency>  (302) 
-0.100095

>  <r_i_glide_ligand_efficiency_sa>  (302) 
-0.317782

>  <r_i_glide_ligand_efficiency_ln>  (302) 
-0.717248

>  <r_i_glide_gscore>  (302) 
-3.20304

>  <r_i_glide_lipo>  (302) 
-0.360925

>  <r_i_glide_hbond>  (302) 
-0.414767

>  <r_i_glide_metal>  (302) 
-0

>  <r_i_glide_rewards>  (302) 
-0.489663

>  <r_i_glide_evdw>  (302) 
-30.0622

>  <r_i_glide_ecoul>  (302) 
-5.57097

>  <r_i_glide_erotb>  (302) 
0.630292

>  <r_i_glide_esite>  (302) 
-0.229221

>  <r_i_glide_emodel>  (302) 
-40.3954

>  <r_i_glide_energy>  (302) 
-35.6332

>  <r_i_glide_einternal>  (302) 
6.829

>  <r_i_glide_intrahb_reward>  (302) 
-0

>  <i_i_glide_confnum>  (302) 
9

>  <i_i_glide_posenum>  (302) 
36

>  <r_i_glide_eff_state_penalty>  (302) 
0

>  <ligand_id>  (302) 
86

>  <original_smiles>  (302) 
CCc1cccc(NC(=O)C2=C3C(C(=O)NC4CCCCC4)C(C(N)=O)C34C=CC2O4)c1

>  <smiles>  (302) 
[H]C1=C([H])C23OC1([H])C(C(=O)N([H])c1c([H])c([H])c([H])c(C([H])([H])C([H])([H])[H])c1[H])=C2C([H])(C(=O)N([H])C1([H])C([H])([H])C([H])([H])C([H])([H])C([H])([H])C1([H])[H])C3([H])C(=O)N([H])[H]

$$$$
87:0:0
     RDKit          3D

 48 53  0  0  1  0  0  0  0  0999 V2000
    2.2505   -3.0487   -3.4834 C   0  0  0  0  0  0  0  0  0  0  0  0
    3.5484   -3.0083   -2.7015 C   0  0  0  0  0  0  0  0  0  0  0  0
    4.6602   -3.3956   -3.6579 C   0  0  0  0  0  0  0  0  0  0  0  0
    3.6697   -1.9422   -1.6180 C   0  0  2  0  0  0  0  0  0  0  0  0
    4.9245   -1.0878   -1.4639 C   0  0  0  0  0  0  0  0  0  0  0  0
    5.5450   -1.1764   -0.0890 C   0  0  2  0  0  0  0  0  0  0  0  0
    6.9599   -1.4826   -0.0291 O   0  0  0  0  0  0  0  0  0  0  0  0
    6.0438   -2.5019    0.3666 C   0  0  2  0  0  0  0  0  0  0  0  0
    5.9702   -3.7350   -0.4367 C   0  0  1  0  0  0  0  0  0  0  0  0
    7.0338   -4.5825    0.2564 C   0  0  0  0  0  0  0  0  0  0  0  0
    6.9806   -4.1817    1.6195 O   0  0  0  0  0  0  0  0  0  0  0  0
    6.1276   -3.0408    1.7584 C   0  0  2  0  0  0  0  0  0  0  0  0
    4.7193   -3.4909    2.2260 C   0  0  2  0  0  0  0  0  0  0  0  0
    3.9064   -2.2269    2.6130 C   0  0  0  0  0  0  0  0  0  0  0  0
    4.8373   -4.3717    3.4777 C   0  0  0  0  0  0  0  0  0  0  0  0
    5.1573   -3.9588    4.5918 O   0  0  0  0  0  0  0  0  0  0  0  0
    4.4819   -5.8195    3.1935 C   0  0  0  0  0  0  0  0  0  0  0  0
    4.3652   -5.8723    1.6680 C   0  0  0  0  0  0  0  0  0  0  0  0
    4.0170   -4.4404    1.1670 C   0  0  1  0  0  0  0  0  0  0  0  0
    2.4765   -4.3658    1.3309 C   0  0  0  0  0  0  0  0  0  0  0  0
    4.4999   -4.2460   -0.3531 C   0  0  1  0  0  0  0  0  0  0  0  0
    3.5060   -3.4151   -1.2308 C   0  0  2  0  0  0  0  0  0  0  0  0
    2.2645   -2.3392   -4.3091 H   0  0  0  0  0  0  0  0  0  0  0  0
    1.4078   -2.7976   -2.8349 H   0  0  0  0  0  0  0  0  0  0  0  0
    2.0940   -4.0472   -3.8898 H   0  0  0  0  0  0  0  0  0  0  0  0
    5.6593   -3.1897   -3.2962 H   0  0  0  0  0  0  0  0  0  0  0  0
    4.5473   -2.8180   -4.5733 H   0  0  0  0  0  0  0  0  0  0  0  0
    4.5917   -4.4547   -3.9123 H   0  0  0  0  0  0  0  0  0  0  0  0
    2.7790   -1.3364   -1.4710 H   0  0  0  0  0  0  0  0  0  0  0  0
    5.6705   -1.3481   -2.2088 H   0  0  0  0  0  0  0  0  0  0  0  0
    4.6461   -0.0535   -1.6639 H   0  0  0  0  0  0  0  0  0  0  0  0
    5.1982   -0.4706    0.6643 H   0  0  0  0  0  0  0  0  0  0  0  0
    6.2957   -3.5567   -1.4463 H   0  0  0  0  0  0  0  0  0  0  0  0
    6.9393   -5.6584    0.0914 H   0  0  0  0  0  0  0  0  0  0  0  0
    8.0180   -4.2968   -0.1236 H   0  0  0  0  0  0  0  0  0  0  0  0
    6.5714   -2.3024    2.4244 H   0  0  0  0  0  0  0  0  0  0  0  0
    3.5510   -1.6802    1.7430 H   0  0  0  0  0  0  0  0  0  0  0  0
    4.5057   -1.5373    3.2073 H   0  0  0  0  0  0  0  0  0  0  0  0
    3.0337   -2.4663    3.2187 H   0  0  0  0  0  0  0  0  0  0  0  0
    5.2367   -6.5062    3.5761 H   0  0  0  0  0  0  0  0  0  0  0  0
    3.5275   -6.0488    3.6698 H   0  0  0  0  0  0  0  0  0  0  0  0
    5.3129   -6.2284    1.2814 H   0  0  0  0  0  0  0  0  0  0  0  0
    3.6270   -6.6114    1.3490 H   0  0  0  0  0  0  0  0  0  0  0  0
    1.9781   -5.0943    0.6895 H   0  0  0  0  0  0  0  0  0  0  0  0
    2.0874   -3.3770    1.0804 H   0  0  0  0  0  0  0  0  0  0  0  0
    2.1543   -4.5689    2.3539 H   0  0  0  0  0  0  0  0  0  0  0  0
    4.4826   -5.2396   -0.8100 H   0  0  0  0  0  0  0  0  0  0  0  0
    2.4911   -3.7434   -1.0359 H   0  0  0  0  0  0  0  0  0  0  0  0
  1  2  1  0
  1 23  1  0
  1 24  1  0
  1 25  1  0
  2 22  1  0
  2  3  1  0
  2  4  1  0
  3 26  1  0
  3 27  1  0
  3 28  1  0
  4 22  1  0
  4  5  1  0
  4 29  1  1
  5  6  1  0
  5 30  1  0
  5 31  1  0
  6  8  1  0
  6  7  1  0
  6 32  1  1
  8  7  1  6
  8 12  1  0
  8  9  1  0
  9 21  1  0
  9 10  1  0
  9 33  1  6
 10 11  1  0
 10 34  1  0
 10 35  1  0
 11 12  1  0
 12 13  1  0
 12 36  1  1
 13 19  1  0
 13 14  1  1
 13 15  1  0
 14 37  1  0
 14 38  1  0
 14 39  1  0
 15 16  2  0
 15 17  1  0
 17 18  1  0
 17 40  1  0
 17 41  1  0
 18 19  1  0
 18 42  1  0
 18 43  1  0
 19 20  1  6
 19 21  1  0
 20 44  1  0
 20 45  1  0
 20 46  1  0
 21 22  1  0
 21 47  1  6
 22 48  1  1
M  END
>  <i_m_ct_stereo_status>  (303) 
1

>  <s_m_source_file>  (303) 
/var/tmp/pbs.5076255.sched01/tmpbvzcvm50/120d7_yi5_y.sdf

>  <i_m_source_file_index>  (303) 
4

>  <i_lp_mmshare_version>  (303) 
48012

>  <i_f3d_flags>  (303) 
0

>  <s_epik_input>  (303) 
TzFbQ0BIXShbQ0BdMTIzKVtDSDJdW0NAQEhdNFtDQEBIXShDNChbQ0gzXSlbQ0gzXSlbQ0BIXTVbQ0hdMltDSDJdT1tDQEBIXTNbQ0BAXTYoW0NIM10pW0NAXTUoW0NIM10pW0NIMl1bQ0gyXUM2PU8=

>  <s_epik_cmdline>  (303) 
J2VwaWtfcHl0aG9uJywgJy1waHQnLCAnMi4wJywgJy1waCcsICc3LjAnLCAnLXRuJywgJzgnLCAnLW1hJywgJzIwMCcsICctaW1hZScsICc8aW5maWxlLm1hZT4nLCAnLW9tYWUnLCAnPG91dGZpbGUubWFlPic=

>  <r_lp_tautomer_probability>  (303) 
1

>  <r_epik_Ionization_Penalty>  (303) 
1.13719e-11

>  <r_epik_Ionization_Penalty_Charging>  (303) 
0

>  <r_epik_Ionization_Penalty_Neutral>  (303) 
1.13719e-11

>  <r_epik_State_Penalty>  (303) 
-0

>  <r_epik_Charging_Adjusted_Penalty>  (303) 
0

>  <i_epik_Tot_Q>  (303) 
0

>  <i_epik_Tot_abs_Q>  (303) 
0

>  <s_lp_Force_Field>  (303) 
OPLS3e

>  <r_lp_Energy>  (303) 
63.2564

>  <b_lp_Chiralities_Consistent>  (303) 
1

>  <s_lp_Variant>  (303) 
87:0-1

>  <s_i_glide_gridfile>  (303) 
pfpi4k_grid

>  <i_i_glide_lignum>  (303) 
4

>  <i_i_glide_rotatable_bonds>  (303) 
0

>  <r_i_docking_score>  (303) 
-3.77163

>  <r_i_glide_ligand_efficiency>  (303) 
-0.171438

>  <r_i_glide_ligand_efficiency_sa>  (303) 
-0.480375

>  <r_i_glide_ligand_efficiency_ln>  (303) 
-0.921924

>  <r_i_glide_gscore>  (303) 
-3.77163

>  <r_i_glide_lipo>  (303) 
-0.894596

>  <r_i_glide_hbond>  (303) 
-0.108508

>  <r_i_glide_metal>  (303) 
-0

>  <r_i_glide_rewards>  (303) 
-1.35811

>  <r_i_glide_evdw>  (303) 
-22.5384

>  <r_i_glide_ecoul>  (303) 
-1.88996

>  <r_i_glide_erotb>  (303) 
0

>  <r_i_glide_esite>  (303) 
0

>  <r_i_glide_emodel>  (303) 
-30.8889

>  <r_i_glide_energy>  (303) 
-24.4284

>  <r_i_glide_einternal>  (303) 
0

>  <r_i_glide_intrahb_reward>  (303) 
-0

>  <i_i_glide_confnum>  (303) 
2

>  <i_i_glide_posenum>  (303) 
31

>  <r_i_glide_eff_state_penalty>  (303) 
0

>  <ligand_id>  (303) 
87

>  <original_smiles>  (303) 
CC1(C)C2CC3OC34C3COC4C4(C)C(=O)CCC4(C)C3C21

>  <smiles>  (303) 
[H]C([H])([H])C12C(=O)C([H])([H])C([H])([H])C1(C([H])([H])[H])C1([H])C3([H])C([H])([H])OC2([H])C32OC2([H])C([H])([H])C2([H])C1([H])C2(C([H])([H])[H])C([H])([H])[H]

$$$$
87:0:1
     RDKit          3D

 48 53  0  0  1  0  0  0  0  0999 V2000
    3.6903   -0.8466   -3.8160 C   0  0  0  0  0  0  0  0  0  0  0  0
    4.1228   -1.9284   -2.8381 C   0  0  0  0  0  0  0  0  0  0  0  0
    3.8540   -3.2731   -3.5006 C   0  0  0  0  0  0  0  0  0  0  0  0
    5.3344   -1.6314   -1.9458 C   0  0  2  0  0  0  0  0  0  0  0  0
    6.4455   -2.6611   -1.7303 C   0  0  0  0  0  0  0  0  0  0  0  0
    6.6877   -2.9814   -0.2734 C   0  0  2  0  0  0  0  0  0  0  0  0
    6.6910   -4.3813    0.1013 O   0  0  0  0  0  0  0  0  0  0  0  0
    5.5725   -3.5914    0.5040 C   0  0  2  0  0  0  0  0  0  0  0  0
    4.2490   -3.9069   -0.0676 C   0  0  1  0  0  0  0  0  0  0  0  0
    3.7421   -4.9327    0.9424 C   0  0  0  0  0  0  0  0  0  0  0  0
    4.3171   -4.5290    2.1817 O   0  0  0  0  0  0  0  0  0  0  0  0
    5.2688   -3.4791    1.9672 C   0  0  2  0  0  0  0  0  0  0  0  0
    4.6181   -2.0943    2.2342 C   0  0  2  0  0  0  0  0  0  0  0  0
    5.7232   -1.0068    2.2188 C   0  0  0  0  0  0  0  0  0  0  0  0
    3.9717   -2.0868    3.6254 C   0  0  0  0  0  0  0  0  0  0  0  0
    4.5993   -2.0841    4.6846 O   0  0  0  0  0  0  0  0  0  0  0  0
    2.4579   -2.0550    3.5542 C   0  0  0  0  0  0  0  0  0  0  0  0
    2.1692   -2.2726    2.0702 C   0  0  0  0  0  0  0  0  0  0  0  0
    3.4064   -1.7980    1.2554 C   0  0  1  0  0  0  0  0  0  0  0  0
    3.1881   -0.2594    1.1234 C   0  0  0  0  0  0  0  0  0  0  0  0
    3.4636   -2.5617   -0.1603 C   0  0  1  0  0  0  0  0  0  0  0  0
    3.9295   -1.6554   -1.3446 C   0  0  2  0  0  0  0  0  0  0  0  0
    4.2490   -0.9237   -4.7484 H   0  0  0  0  0  0  0  0  0  0  0  0
    3.8605    0.1510   -3.4046 H   0  0  0  0  0  0  0  0  0  0  0  0
    2.6262   -0.9394   -4.0438 H   0  0  0  0  0  0  0  0  0  0  0  0
    4.3089   -4.1154   -2.9936 H   0  0  0  0  0  0  0  0  0  0  0  0
    4.2565   -3.2771   -4.5137 H   0  0  0  0  0  0  0  0  0  0  0  0
    2.7778   -3.4518   -3.5603 H   0  0  0  0  0  0  0  0  0  0  0  0
    5.7424   -0.6281   -2.0439 H   0  0  0  0  0  0  0  0  0  0  0  0
    6.2357   -3.5830   -2.2616 H   0  0  0  0  0  0  0  0  0  0  0  0
    7.3702   -2.2835   -2.1676 H   0  0  0  0  0  0  0  0  0  0  0  0
    7.4067   -2.3638    0.2618 H   0  0  0  0  0  0  0  0  0  0  0  0
    4.3481   -4.4038   -1.0178 H   0  0  0  0  0  0  0  0  0  0  0  0
    2.6566   -5.0615    0.9608 H   0  0  0  0  0  0  0  0  0  0  0  0
    4.1645   -5.9101    0.6979 H   0  0  0  0  0  0  0  0  0  0  0  0
    6.1662   -3.6516    2.5588 H   0  0  0  0  0  0  0  0  0  0  0  0
    6.0476   -0.7554    1.2137 H   0  0  0  0  0  0  0  0  0  0  0  0
    6.6021   -1.3255    2.7702 H   0  0  0  0  0  0  0  0  0  0  0  0
    5.3942   -0.0835    2.6923 H   0  0  0  0  0  0  0  0  0  0  0  0
    2.0017   -2.8191    4.1848 H   0  0  0  0  0  0  0  0  0  0  0  0
    2.1054   -1.0752    3.8816 H   0  0  0  0  0  0  0  0  0  0  0  0
    1.9655   -3.3299    1.9351 H   0  0  0  0  0  0  0  0  0  0  0  0
    1.2564   -1.7580    1.7614 H   0  0  0  0  0  0  0  0  0  0  0  0
    2.2814   -0.0389    0.5585 H   0  0  0  0  0  0  0  0  0  0  0  0
    4.0141    0.2456    0.6209 H   0  0  0  0  0  0  0  0  0  0  0  0
    3.0712    0.2301    2.0908 H   0  0  0  0  0  0  0  0  0  0  0  0
    2.4298   -2.8114   -0.4201 H   0  0  0  0  0  0  0  0  0  0  0  0
    3.4313   -0.6968   -1.2760 H   0  0  0  0  0  0  0  0  0  0  0  0
  1  2  1  0
  1 23  1  0
  1 24  1  0
  1 25  1  0
  2 22  1  0
  2  3  1  0
  2  4  1  0
  3 26  1  0
  3 27  1  0
  3 28  1  0
  4 22  1  0
  4  5  1  0
  4 29  1  6
  5  6  1  0
  5 30  1  0
  5 31  1  0
  6  8  1  0
  6  7  1  0
  6 32  1  1
  8  7  1  1
  8 12  1  0
  8  9  1  0
  9 21  1  0
  9 10  1  0
  9 33  1  6
 10 11  1  0
 10 34  1  0
 10 35  1  0
 11 12  1  0
 12 13  1  0
 12 36  1  1
 13 19  1  0
 13 14  1  1
 13 15  1  0
 14 37  1  0
 14 38  1  0
 14 39  1  0
 15 16  2  0
 15 17  1  0
 17 18  1  0
 17 40  1  0
 17 41  1  0
 18 19  1  0
 18 42  1  0
 18 43  1  0
 19 20  1  6
 19 21  1  0
 20 44  1  0
 20 45  1  0
 20 46  1  0
 21 22  1  0
 21 47  1  6
 22 48  1  6
M  END
>  <i_m_ct_stereo_status>  (304) 
1

>  <s_m_source_file>  (304) 
/var/tmp/pbs.5076255.sched01/tmpbvzcvm50/120d7_yi5_y.sdf

>  <i_m_source_file_index>  (304) 
4

>  <i_lp_mmshare_version>  (304) 
48012

>  <i_f3d_flags>  (304) 
0

>  <s_epik_input>  (304) 
TzFbQ0BIXShbQ0BdMTIzKVtDSDJdW0NAQEhdNFtDQEBIXShDNChbQ0gzXSlbQ0gzXSlbQ0BIXTVbQ0hdMltDSDJdT1tDQEBIXTNbQ0BAXTYoW0NIM10pW0NAXTUoW0NIM10pW0NIMl1bQ0gyXUM2PU8=

>  <s_epik_cmdline>  (304) 
J2VwaWtfcHl0aG9uJywgJy1waHQnLCAnMi4wJywgJy1waCcsICc3LjAnLCAnLXRuJywgJzgnLCAnLW1hJywgJzIwMCcsICctaW1hZScsICc8aW5maWxlLm1hZT4nLCAnLW9tYWUnLCAnPG91dGZpbGUubWFlPic=

>  <r_lp_tautomer_probability>  (304) 
1

>  <r_epik_Ionization_Penalty>  (304) 
1.13719e-11

>  <r_epik_Ionization_Penalty_Charging>  (304) 
0

>  <r_epik_Ionization_Penalty_Neutral>  (304) 
1.13719e-11

>  <r_epik_State_Penalty>  (304) 
-0

>  <r_epik_Charging_Adjusted_Penalty>  (304) 
0

>  <i_epik_Tot_Q>  (304) 
0

>  <i_epik_Tot_abs_Q>  (304) 
0

>  <s_lp_Force_Field>  (304) 
OPLS3e

>  <r_lp_Energy>  (304) 
63.2564

>  <b_lp_Chiralities_Consistent>  (304) 
1

>  <s_lp_Variant>  (304) 
87:0-1

>  <s_i_glide_gridfile>  (304) 
pfpi4k_grid

>  <i_i_glide_lignum>  (304) 
4

>  <i_i_glide_rotatable_bonds>  (304) 
0

>  <r_i_docking_score>  (304) 
-3.70413

>  <r_i_glide_ligand_efficiency>  (304) 
-0.168369

>  <r_i_glide_ligand_efficiency_sa>  (304) 
-0.471778

>  <r_i_glide_ligand_efficiency_ln>  (304) 
-0.905423

>  <r_i_glide_gscore>  (304) 
-3.70413

>  <r_i_glide_lipo>  (304) 
-0.757616

>  <r_i_glide_hbond>  (304) 
0

>  <r_i_glide_metal>  (304) 
-0

>  <r_i_glide_rewards>  (304) 
-1.34741

>  <r_i_glide_evdw>  (304) 
-28.6911

>  <r_i_glide_ecoul>  (304) 
-1.09695

>  <r_i_glide_erotb>  (304) 
0

>  <r_i_glide_esite>  (304) 
0

>  <r_i_glide_emodel>  (304) 
-36.1418

>  <r_i_glide_energy>  (304) 
-29.7881

>  <r_i_glide_einternal>  (304) 
0

>  <r_i_glide_intrahb_reward>  (304) 
-0

>  <i_i_glide_confnum>  (304) 
1

>  <i_i_glide_posenum>  (304) 
5

>  <r_i_glide_eff_state_penalty>  (304) 
0

>  <ligand_id>  (304) 
87

>  <original_smiles>  (304) 
CC1(C)C2CC3OC34C3COC4C4(C)C(=O)CCC4(C)C3C21

>  <smiles>  (304) 
[H]C([H])([H])C12C(=O)C([H])([H])C([H])([H])C1(C([H])([H])[H])C1([H])C3([H])C([H])([H])OC2([H])C32OC2([H])C([H])([H])C2([H])C1([H])C2(C([H])([H])[H])C([H])([H])[H]

$$$$
87:0:2
     RDKit          3D

 48 53  0  0  1  0  0  0  0  0999 V2000
    2.8457   -2.9402   -3.4027 C   0  0  0  0  0  0  0  0  0  0  0  0
    3.9604   -3.0105   -2.3636 C   0  0  0  0  0  0  0  0  0  0  0  0
    5.2782   -3.0575   -3.1191 C   0  0  0  0  0  0  0  0  0  0  0  0
    3.7470   -2.2486   -1.0565 C   0  0  2  0  0  0  0  0  0  0  0  0
    4.8412   -1.3844   -0.4244 C   0  0  0  0  0  0  0  0  0  0  0  0
    5.1855   -1.7944    0.9886 C   0  0  2  0  0  0  0  0  0  0  0  0
    6.5882   -2.0215    1.2811 O   0  0  0  0  0  0  0  0  0  0  0  0
    5.7319   -3.1637    1.2137 C   0  0  2  0  0  0  0  0  0  0  0  0
    5.9688   -4.1432    0.1418 C   0  0  1  0  0  0  0  0  0  0  0  0
    6.9691   -5.0742    0.8230 C   0  0  0  0  0  0  0  0  0  0  0  0
    6.6031   -5.0465    2.2008 O   0  0  0  0  0  0  0  0  0  0  0  0
    5.6026   -4.0428    2.4235 C   0  0  2  0  0  0  0  0  0  0  0  0
    4.1913   -4.6832    2.4380 C   0  0  2  0  0  0  0  0  0  0  0  0
    3.1788   -3.6161    2.9285 C   0  0  0  0  0  0  0  0  0  0  0  0
    4.1674   -5.8479    3.4339 C   0  0  0  0  0  0  0  0  0  0  0  0
    4.2112   -5.7171    4.6573 O   0  0  0  0  0  0  0  0  0  0  0  0
    4.0518   -7.1910    2.7413 C   0  0  0  0  0  0  0  0  0  0  0  0
    4.2448   -6.8500    1.2597 C   0  0  0  0  0  0  0  0  0  0  0  0
    3.8278   -5.3619    1.0518 C   0  0  1  0  0  0  0  0  0  0  0  0
    2.2816   -5.4344    0.8810 C   0  0  0  0  0  0  0  0  0  0  0  0
    4.5791   -4.7464   -0.2290 C   0  0  1  0  0  0  0  0  0  0  0  0
    3.6892   -3.7756   -1.0719 C   0  0  2  0  0  0  0  0  0  0  0  0
    2.9445   -2.0481   -4.0207 H   0  0  0  0  0  0  0  0  0  0  0  0
    1.8643   -2.8992   -2.9225 H   0  0  0  0  0  0  0  0  0  0  0  0
    2.8648   -3.8162   -4.0506 H   0  0  0  0  0  0  0  0  0  0  0  0
    6.1556   -2.8908   -2.5025 H   0  0  0  0  0  0  0  0  0  0  0  0
    5.2747   -2.2677   -3.8656 H   0  0  0  0  0  0  0  0  0  0  0  0
    5.3901   -4.0154   -3.6280 H   0  0  0  0  0  0  0  0  0  0  0  0
    2.7713   -1.7815   -0.9466 H   0  0  0  0  0  0  0  0  0  0  0  0
    5.7442   -1.3946   -1.0267 H   0  0  0  0  0  0  0  0  0  0  0  0
    4.5001   -0.3465   -0.4149 H   0  0  0  0  0  0  0  0  0  0  0  0
    4.6173   -1.3332    1.7922 H   0  0  0  0  0  0  0  0  0  0  0  0
    6.4629   -3.6837   -0.6984 H   0  0  0  0  0  0  0  0  0  0  0  0
    7.0400   -6.0726    0.3865 H   0  0  0  0  0  0  0  0  0  0  0  0
    7.9673   -4.6361    0.7486 H   0  0  0  0  0  0  0  0  0  0  0  0
    5.8039   -3.4824    3.3357 H   0  0  0  0  0  0  0  0  0  0  0  0
    2.9418   -2.8854    2.1601 H   0  0  0  0  0  0  0  0  0  0  0  0
    3.5647   -3.0674    3.7887 H   0  0  0  0  0  0  0  0  0  0  0  0
    2.2398   -4.0592    3.2529 H   0  0  0  0  0  0  0  0  0  0  0  0
    4.7929   -7.9027    3.1047 H   0  0  0  0  0  0  0  0  0  0  0  0
    3.0565   -7.5976    2.9265 H   0  0  0  0  0  0  0  0  0  0  0  0
    5.2862   -7.0289    1.0199 H   0  0  0  0  0  0  0  0  0  0  0  0
    3.6802   -7.5294    0.6202 H   0  0  0  0  0  0  0  0  0  0  0  0
    2.0100   -6.0025   -0.0092 H   0  0  0  0  0  0  0  0  0  0  0  0
    1.8267   -4.4460    0.7937 H   0  0  0  0  0  0  0  0  0  0  0  0
    1.7969   -5.9175    1.7299 H   0  0  0  0  0  0  0  0  0  0  0  0
    4.7667   -5.5836   -0.9076 H   0  0  0  0  0  0  0  0  0  0  0  0
    2.7010   -4.2058   -1.1817 H   0  0  0  0  0  0  0  0  0  0  0  0
  1  2  1  0
  1 23  1  0
  1 24  1  0
  1 25  1  0
  2 22  1  0
  2  3  1  0
  2  4  1  0
  3 26  1  0
  3 27  1  0
  3 28  1  0
  4 22  1  0
  4  5  1  0
  4 29  1  6
  5  6  1  0
  5 30  1  0
  5 31  1  0
  6  8  1  0
  6  7  1  0
  6 32  1  1
  8  7  1  1
  8 12  1  0
  8  9  1  0
  9 21  1  0
  9 10  1  0
  9 33  1  6
 10 11  1  0
 10 34  1  0
 10 35  1  0
 11 12  1  0
 12 13  1  0
 12 36  1  1
 13 19  1  0
 13 14  1  1
 13 15  1  0
 14 37  1  0
 14 38  1  0
 14 39  1  0
 15 16  2  0
 15 17  1  0
 17 18  1  0
 17 40  1  0
 17 41  1  0
 18 19  1  0
 18 42  1  0
 18 43  1  0
 19 20  1  6
 19 21  1  0
 20 44  1  0
 20 45  1  0
 20 46  1  0
 21 22  1  0
 21 47  1  6
 22 48  1  6
M  END
>  <i_m_ct_stereo_status>  (305) 
1

>  <s_m_source_file>  (305) 
/var/tmp/pbs.5076255.sched01/tmpbvzcvm50/120d7_yi5_y.sdf

>  <i_m_source_file_index>  (305) 
4

>  <i_lp_mmshare_version>  (305) 
48012

>  <i_f3d_flags>  (305) 
0

>  <s_epik_input>  (305) 
TzFbQ0BIXShbQ0BdMTIzKVtDSDJdW0NAQEhdNFtDQEBIXShDNChbQ0gzXSlbQ0gzXSlbQ0BIXTVbQ0hdMltDSDJdT1tDQEBIXTNbQ0BAXTYoW0NIM10pW0NAXTUoW0NIM10pW0NIMl1bQ0gyXUM2PU8=

>  <s_epik_cmdline>  (305) 
J2VwaWtfcHl0aG9uJywgJy1waHQnLCAnMi4wJywgJy1waCcsICc3LjAnLCAnLXRuJywgJzgnLCAnLW1hJywgJzIwMCcsICctaW1hZScsICc8aW5maWxlLm1hZT4nLCAnLW9tYWUnLCAnPG91dGZpbGUubWFlPic=

>  <r_lp_tautomer_probability>  (305) 
1

>  <r_epik_Ionization_Penalty>  (305) 
1.13719e-11

>  <r_epik_Ionization_Penalty_Charging>  (305) 
0

>  <r_epik_Ionization_Penalty_Neutral>  (305) 
1.13719e-11

>  <r_epik_State_Penalty>  (305) 
-0

>  <r_epik_Charging_Adjusted_Penalty>  (305) 
0

>  <i_epik_Tot_Q>  (305) 
0

>  <i_epik_Tot_abs_Q>  (305) 
0

>  <s_lp_Force_Field>  (305) 
OPLS3e

>  <r_lp_Energy>  (305) 
63.2564

>  <b_lp_Chiralities_Consistent>  (305) 
1

>  <s_lp_Variant>  (305) 
87:0-1

>  <s_i_glide_gridfile>  (305) 
pfpi4k_grid

>  <i_i_glide_lignum>  (305) 
4

>  <i_i_glide_rotatable_bonds>  (305) 
0

>  <r_i_docking_score>  (305) 
-3.447

>  <r_i_glide_ligand_efficiency>  (305) 
-0.156682

>  <r_i_glide_ligand_efficiency_sa>  (305) 
-0.439029

>  <r_i_glide_ligand_efficiency_ln>  (305) 
-0.842574

>  <r_i_glide_gscore>  (305) 
-3.447

>  <r_i_glide_lipo>  (305) 
-0.799561

>  <r_i_glide_hbond>  (305) 
0

>  <r_i_glide_metal>  (305) 
-0

>  <r_i_glide_rewards>  (305) 
-1.34722

>  <r_i_glide_evdw>  (305) 
-24.4883

>  <r_i_glide_ecoul>  (305) 
-0.505402

>  <r_i_glide_erotb>  (305) 
0

>  <r_i_glide_esite>  (305) 
0

>  <r_i_glide_emodel>  (305) 
-30.8994

>  <r_i_glide_energy>  (305) 
-24.9937

>  <r_i_glide_einternal>  (305) 
0

>  <r_i_glide_intrahb_reward>  (305) 
-0

>  <i_i_glide_confnum>  (305) 
2

>  <i_i_glide_posenum>  (305) 
28

>  <r_i_glide_eff_state_penalty>  (305) 
0

>  <ligand_id>  (305) 
87

>  <original_smiles>  (305) 
CC1(C)C2CC3OC34C3COC4C4(C)C(=O)CCC4(C)C3C21

>  <smiles>  (305) 
[H]C([H])([H])C12C(=O)C([H])([H])C([H])([H])C1(C([H])([H])[H])C1([H])C3([H])C([H])([H])OC2([H])C32OC2([H])C([H])([H])C2([H])C1([H])C2(C([H])([H])[H])C([H])([H])[H]

$$$$
88:0:0
     RDKit          3D

 20 22  0  0  1  0  0  0  0  0999 V2000
   -2.5596    2.2391    6.8393 C   0  0  0  0  0  0  0  0  0  0  0  0
   -2.1675    3.1140    5.8100 C   0  0  0  0  0  0  0  0  0  0  0  0
   -1.3430    2.7166    4.8214 N   0  0  0  0  0  0  0  0  0  0  0  0
   -0.8944    1.4338    4.8403 C   0  0  0  0  0  0  0  0  0  0  0  0
   -1.3204    0.5474    5.8755 C   0  0  0  0  0  0  0  0  0  0  0  0
   -2.1395    0.9579    6.8733 N   0  0  0  0  0  0  0  0  0  0  0  0
   -0.9435   -0.7631    6.0370 O   0  0  0  0  0  0  0  0  0  0  0  0
   -0.8531   -1.5725    4.8819 C   0  0  0  0  0  0  0  0  0  0  0  0
    0.4884   -1.4009    4.1729 C   0  0  0  0  0  0  0  0  0  0  0  0
    0.6091   -0.1176    3.5242 N   0  0  0  0  0  0  0  0  0  0  0  0
    1.4663    0.0090    2.4853 N   0  0  0  0  0  0  0  0  0  0  0  0
    1.4277    1.2492    2.1219 N   0  0  0  0  0  0  0  0  0  0  0  0
    0.5616    1.9661    2.9151 N   0  0  0  0  0  0  0  0  0  0  0  0
    0.0666    1.0840    3.7821 C   0  0  0  0  0  0  0  0  0  0  0  0
   -3.2248    2.5646    7.6228 H   0  0  0  0  0  0  0  0  0  0  0  0
   -2.5136    4.1352    5.7811 H   0  0  0  0  0  0  0  0  0  0  0  0
   -0.9355   -2.6074    5.2155 H   0  0  0  0  0  0  0  0  0  0  0  0
   -1.6941   -1.3974    4.2068 H   0  0  0  0  0  0  0  0  0  0  0  0
    1.3163   -1.5116    4.8750 H   0  0  0  0  0  0  0  0  0  0  0  0
    0.6054   -2.1819    3.4176 H   0  0  0  0  0  0  0  0  0  0  0  0
  1  6  2  0
  1  2  1  0
  1 15  1  0
  2  3  2  0
  2 16  1  0
  3  4  1  0
  4 14  1  0
  4  5  2  0
  5  6  1  0
  5  7  1  0
  7  8  1  0
  8  9  1  0
  8 17  1  0
  8 18  1  0
  9 10  1  0
  9 19  1  0
  9 20  1  0
 10 14  1  0
 10 11  1  0
 11 12  2  0
 12 13  1  0
 13 14  2  0
M  END
>  <i_m_ct_stereo_status>  (306) 
1

>  <s_m_source_file>  (306) 
/var/tmp/pbs.5076255.sched01/tmpbvzcvm50/120d7_yi5_y.sdf

>  <i_m_source_file_index>  (306) 
5

>  <i_lp_mmshare_version>  (306) 
48012

>  <i_f3d_flags>  (306) 
0

>  <s_epik_input>  (306) 
bjFbY0hdW2NIXW5jKGMxMilPW0NIMl1bQ0gyXW4zYzJubm4z

>  <s_epik_cmdline>  (306) 
J2VwaWtfcHl0aG9uJywgJy1waHQnLCAnMi4wJywgJy1waCcsICc3LjAnLCAnLXRuJywgJzgnLCAnLW1hJywgJzIwMCcsICctaW1hZScsICc8aW5maWxlLm1hZT4nLCAnLW9tYWUnLCAnPG91dGZpbGUubWFlPic=

>  <r_lp_tautomer_probability>  (306) 
1

>  <r_epik_Ionization_Penalty>  (306) 
3.02343e-10

>  <r_epik_Ionization_Penalty_Charging>  (306) 
0

>  <r_epik_Ionization_Penalty_Neutral>  (306) 
3.02343e-10

>  <r_epik_State_Penalty>  (306) 
-0

>  <r_epik_Charging_Adjusted_Penalty>  (306) 
0

>  <i_epik_Tot_Q>  (306) 
0

>  <i_epik_Tot_abs_Q>  (306) 
0

>  <s_lp_Force_Field>  (306) 
OPLS3e

>  <r_lp_Energy>  (306) 
25.5989

>  <b_lp_Chiralities_Consistent>  (306) 
1

>  <s_lp_Variant>  (306) 
88:0-1

>  <s_i_glide_gridfile>  (306) 
pfpi4k_grid

>  <i_i_glide_lignum>  (306) 
5

>  <i_i_glide_rotatable_bonds>  (306) 
0

>  <r_i_docking_score>  (306) 
-3.77751

>  <r_i_glide_ligand_efficiency>  (306) 
-0.269822

>  <r_i_glide_ligand_efficiency_sa>  (306) 
-0.65031

>  <r_i_glide_ligand_efficiency_ln>  (306) 
-1.03805

>  <r_i_glide_gscore>  (306) 
-3.77751

>  <r_i_glide_lipo>  (306) 
-0.0905988

>  <r_i_glide_hbond>  (306) 
-0.164035

>  <r_i_glide_metal>  (306) 
-0

>  <r_i_glide_rewards>  (306) 
-2.11253

>  <r_i_glide_evdw>  (306) 
-16.8698

>  <r_i_glide_ecoul>  (306) 
-2.67872

>  <r_i_glide_erotb>  (306) 
0

>  <r_i_glide_esite>  (306) 
-0.165047

>  <r_i_glide_emodel>  (306) 
-25.3452

>  <r_i_glide_energy>  (306) 
-19.5485

>  <r_i_glide_einternal>  (306) 
0

>  <r_i_glide_intrahb_reward>  (306) 
-0

>  <i_i_glide_confnum>  (306) 
2

>  <i_i_glide_posenum>  (306) 
15

>  <r_i_glide_eff_state_penalty>  (306) 
0

>  <ligand_id>  (306) 
88

>  <original_smiles>  (306) 
c1cnc2c(n1)OCCn1nnnc1-2

>  <smiles>  (306) 
[H]c1nc2c(nc1[H])-c1nnnn1C([H])([H])C([H])([H])O2

$$$$
88:0:1
     RDKit          3D

 20 22  0  0  1  0  0  0  0  0999 V2000
   -0.8996    2.1441    3.0047 C   0  0  0  0  0  0  0  0  0  0  0  0
   -1.5914    1.8428    4.1925 C   0  0  0  0  0  0  0  0  0  0  0  0
   -1.3920    0.6811    4.8491 N   0  0  0  0  0  0  0  0  0  0  0  0
   -0.4973   -0.1978    4.3243 C   0  0  0  0  0  0  0  0  0  0  0  0
    0.2177    0.1297    3.1345 C   0  0  0  0  0  0  0  0  0  0  0  0
   -0.0013    1.2887    2.4792 N   0  0  0  0  0  0  0  0  0  0  0  0
    1.1239   -0.6726    2.4876 O   0  0  0  0  0  0  0  0  0  0  0  0
    2.0631   -1.3819    3.2731 C   0  0  0  0  0  0  0  0  0  0  0  0
    1.4704   -2.6947    3.7777 C   0  0  0  0  0  0  0  0  0  0  0  0
    0.4605   -2.4923    4.7891 N   0  0  0  0  0  0  0  0  0  0  0  0
    0.2038   -3.4887    5.6677 N   0  0  0  0  0  0  0  0  0  0  0  0
   -0.7611   -3.0789    6.4280 N   0  0  0  0  0  0  0  0  0  0  0  0
   -1.1719   -1.8190    6.0596 N   0  0  0  0  0  0  0  0  0  0  0  0
   -0.3874   -1.4796    5.0345 C   0  0  0  0  0  0  0  0  0  0  0  0
   -1.0613    3.0739    2.4819 H   0  0  0  0  0  0  0  0  0  0  0  0
   -2.3078    2.5335    4.6105 H   0  0  0  0  0  0  0  0  0  0  0  0
    2.9095   -1.6102    2.6220 H   0  0  0  0  0  0  0  0  0  0  0  0
    2.4554   -0.7686    4.0870 H   0  0  0  0  0  0  0  0  0  0  0  0
    1.0255   -3.2589    2.9565 H   0  0  0  0  0  0  0  0  0  0  0  0
    2.2643   -3.3163    4.1982 H   0  0  0  0  0  0  0  0  0  0  0  0
  1  6  2  0
  1  2  1  0
  1 15  1  0
  2  3  2  0
  2 16  1  0
  3  4  1  0
  4 14  1  0
  4  5  2  0
  5  6  1  0
  5  7  1  0
  7  8  1  0
  8  9  1  0
  8 17  1  0
  8 18  1  0
  9 10  1  0
  9 19  1  0
  9 20  1  0
 10 14  1  0
 10 11  1  0
 11 12  2  0
 12 13  1  0
 13 14  2  0
M  END
>  <i_m_ct_stereo_status>  (307) 
1

>  <s_m_source_file>  (307) 
/var/tmp/pbs.5076255.sched01/tmpbvzcvm50/120d7_yi5_y.sdf

>  <i_m_source_file_index>  (307) 
5

>  <i_lp_mmshare_version>  (307) 
48012

>  <i_f3d_flags>  (307) 
0

>  <s_epik_input>  (307) 
bjFbY0hdW2NIXW5jKGMxMilPW0NIMl1bQ0gyXW4zYzJubm4z

>  <s_epik_cmdline>  (307) 
J2VwaWtfcHl0aG9uJywgJy1waHQnLCAnMi4wJywgJy1waCcsICc3LjAnLCAnLXRuJywgJzgnLCAnLW1hJywgJzIwMCcsICctaW1hZScsICc8aW5maWxlLm1hZT4nLCAnLW9tYWUnLCAnPG91dGZpbGUubWFlPic=

>  <r_lp_tautomer_probability>  (307) 
1

>  <r_epik_Ionization_Penalty>  (307) 
3.02343e-10

>  <r_epik_Ionization_Penalty_Charging>  (307) 
0

>  <r_epik_Ionization_Penalty_Neutral>  (307) 
3.02343e-10

>  <r_epik_State_Penalty>  (307) 
-0

>  <r_epik_Charging_Adjusted_Penalty>  (307) 
0

>  <i_epik_Tot_Q>  (307) 
0

>  <i_epik_Tot_abs_Q>  (307) 
0

>  <s_lp_Force_Field>  (307) 
OPLS3e

>  <r_lp_Energy>  (307) 
25.5989

>  <b_lp_Chiralities_Consistent>  (307) 
1

>  <s_lp_Variant>  (307) 
88:0-1

>  <s_i_glide_gridfile>  (307) 
pfpi4k_grid

>  <i_i_glide_lignum>  (307) 
5

>  <i_i_glide_rotatable_bonds>  (307) 
0

>  <r_i_docking_score>  (307) 
-3.63202

>  <r_i_glide_ligand_efficiency>  (307) 
-0.25943

>  <r_i_glide_ligand_efficiency_sa>  (307) 
-0.625264

>  <r_i_glide_ligand_efficiency_ln>  (307) 
-0.998067

>  <r_i_glide_gscore>  (307) 
-3.63202

>  <r_i_glide_lipo>  (307) 
-0.0290455

>  <r_i_glide_hbond>  (307) 
0

>  <r_i_glide_metal>  (307) 
-0

>  <r_i_glide_rewards>  (307) 
-2.14412

>  <r_i_glide_evdw>  (307) 
-16.1444

>  <r_i_glide_ecoul>  (307) 
-3.5092

>  <r_i_glide_erotb>  (307) 
0

>  <r_i_glide_esite>  (307) 
-0.125257

>  <r_i_glide_emodel>  (307) 
-25.2325

>  <r_i_glide_energy>  (307) 
-19.6536

>  <r_i_glide_einternal>  (307) 
0

>  <r_i_glide_intrahb_reward>  (307) 
-0

>  <i_i_glide_confnum>  (307) 
2

>  <i_i_glide_posenum>  (307) 
38

>  <r_i_glide_eff_state_penalty>  (307) 
0

>  <ligand_id>  (307) 
88

>  <original_smiles>  (307) 
c1cnc2c(n1)OCCn1nnnc1-2

>  <smiles>  (307) 
[H]c1nc2c(nc1[H])-c1nnnn1C([H])([H])C([H])([H])O2

$$$$
88:0:2
     RDKit          3D

 20 22  0  0  1  0  0  0  0  0999 V2000
    1.6008   -6.3573    7.3737 C   0  0  0  0  0  0  0  0  0  0  0  0
    0.4658   -5.7585    6.7972 C   0  0  0  0  0  0  0  0  0  0  0  0
   -0.1919   -6.3423    5.7752 N   0  0  0  0  0  0  0  0  0  0  0  0
    0.2611   -7.5444    5.3256 C   0  0  0  0  0  0  0  0  0  0  0  0
    1.4006   -8.1517    5.9325 C   0  0  0  0  0  0  0  0  0  0  0  0
    2.0704   -7.5434    6.9376 N   0  0  0  0  0  0  0  0  0  0  0  0
    1.9854   -9.3336    5.5563 O   0  0  0  0  0  0  0  0  0  0  0  0
    1.1366  -10.4221    5.2410 C   0  0  0  0  0  0  0  0  0  0  0  0
    0.6746  -10.3490    3.7892 C   0  0  0  0  0  0  0  0  0  0  0  0
   -0.2694   -9.2819    3.5635 N   0  0  0  0  0  0  0  0  0  0  0  0
   -1.1226   -9.3651    2.5157 N   0  0  0  0  0  0  0  0  0  0  0  0
   -1.8144   -8.2738    2.5089 N   0  0  0  0  0  0  0  0  0  0  0  0
   -1.4362   -7.4424    3.5367 N   0  0  0  0  0  0  0  0  0  0  0  0
   -0.4632   -8.0992    4.1721 C   0  0  0  0  0  0  0  0  0  0  0  0
    2.1324   -5.8809    8.1827 H   0  0  0  0  0  0  0  0  0  0  0  0
    0.0925   -4.8101    7.1530 H   0  0  0  0  0  0  0  0  0  0  0  0
    1.7297  -11.3306    5.3671 H   0  0  0  0  0  0  0  0  0  0  0  0
    0.2992  -10.5021    5.9389 H   0  0  0  0  0  0  0  0  0  0  0  0
    1.5225  -10.2113    3.1169 H   0  0  0  0  0  0  0  0  0  0  0  0
    0.2074  -11.2958    3.5148 H   0  0  0  0  0  0  0  0  0  0  0  0
  1  6  2  0
  1  2  1  0
  1 15  1  0
  2  3  2  0
  2 16  1  0
  3  4  1  0
  4 14  1  0
  4  5  2  0
  5  6  1  0
  5  7  1  0
  7  8  1  0
  8  9  1  0
  8 17  1  0
  8 18  1  0
  9 10  1  0
  9 19  1  0
  9 20  1  0
 10 14  1  0
 10 11  1  0
 11 12  2  0
 12 13  1  0
 13 14  2  0
M  END
>  <i_m_ct_stereo_status>  (308) 
1

>  <s_m_source_file>  (308) 
/var/tmp/pbs.5076255.sched01/tmpbvzcvm50/120d7_yi5_y.sdf

>  <i_m_source_file_index>  (308) 
5

>  <i_lp_mmshare_version>  (308) 
48012

>  <i_f3d_flags>  (308) 
0

>  <s_epik_input>  (308) 
bjFbY0hdW2NIXW5jKGMxMilPW0NIMl1bQ0gyXW4zYzJubm4z

>  <s_epik_cmdline>  (308) 
J2VwaWtfcHl0aG9uJywgJy1waHQnLCAnMi4wJywgJy1waCcsICc3LjAnLCAnLXRuJywgJzgnLCAnLW1hJywgJzIwMCcsICctaW1hZScsICc8aW5maWxlLm1hZT4nLCAnLW9tYWUnLCAnPG91dGZpbGUubWFlPic=

>  <r_lp_tautomer_probability>  (308) 
1

>  <r_epik_Ionization_Penalty>  (308) 
3.02343e-10

>  <r_epik_Ionization_Penalty_Charging>  (308) 
0

>  <r_epik_Ionization_Penalty_Neutral>  (308) 
3.02343e-10

>  <r_epik_State_Penalty>  (308) 
-0

>  <r_epik_Charging_Adjusted_Penalty>  (308) 
0

>  <i_epik_Tot_Q>  (308) 
0

>  <i_epik_Tot_abs_Q>  (308) 
0

>  <s_lp_Force_Field>  (308) 
OPLS3e

>  <r_lp_Energy>  (308) 
25.5989

>  <b_lp_Chiralities_Consistent>  (308) 
1

>  <s_lp_Variant>  (308) 
88:0-1

>  <s_i_glide_gridfile>  (308) 
pfpi4k_grid

>  <i_i_glide_lignum>  (308) 
5

>  <i_i_glide_rotatable_bonds>  (308) 
0

>  <r_i_docking_score>  (308) 
-3.51861

>  <r_i_glide_ligand_efficiency>  (308) 
-0.251329

>  <r_i_glide_ligand_efficiency_sa>  (308) 
-0.605739

>  <r_i_glide_ligand_efficiency_ln>  (308) 
-0.966901

>  <r_i_glide_gscore>  (308) 
-3.51861

>  <r_i_glide_lipo>  (308) 
0

>  <r_i_glide_hbond>  (308) 
0

>  <r_i_glide_metal>  (308) 
-0

>  <r_i_glide_rewards>  (308) 
-2.11253

>  <r_i_glide_evdw>  (308) 
-18.5688

>  <r_i_glide_ecoul>  (308) 
-1.95846

>  <r_i_glide_erotb>  (308) 
0

>  <r_i_glide_esite>  (308) 
-0.18387

>  <r_i_glide_emodel>  (308) 
-25.9254

>  <r_i_glide_energy>  (308) 
-20.5272

>  <r_i_glide_einternal>  (308) 
0

>  <r_i_glide_intrahb_reward>  (308) 
-0

>  <i_i_glide_confnum>  (308) 
1

>  <i_i_glide_posenum>  (308) 
1

>  <r_i_glide_eff_state_penalty>  (308) 
0

>  <ligand_id>  (308) 
88

>  <original_smiles>  (308) 
c1cnc2c(n1)OCCn1nnnc1-2

>  <smiles>  (308) 
[H]c1nc2c(nc1[H])-c1nnnn1C([H])([H])C([H])([H])O2

$$$$
89:0:0
     RDKit          3D

 44 50  0  0  1  0  0  0  0  0999 V2000
    3.6479   -1.6974   -1.9383 C   0  0  0  0  0  0  0  0  0  0  0  0
    4.2882   -2.7517   -1.2386 O   0  0  0  0  0  0  0  0  0  0  0  0
    3.5376   -3.6873   -0.6403 C   0  0  0  0  0  0  0  0  0  0  0  0
    2.3078   -3.7421   -0.6864 O   0  0  0  0  0  0  0  0  0  0  0  0
    4.3910   -4.7261    0.1073 C   0  0  2  0  0  0  0  0  0  0  0  0
    3.7357   -6.1262    0.4870 C   0  0  2  0  0  0  0  0  0  0  0  0
    2.2811   -6.1797    0.5582 O   0  0  0  0  0  0  0  0  0  0  0  0
    1.4781   -6.3150    1.6940 C   0  0  0  0  0  0  0  0  0  0  0  0
    0.2526   -6.2548    1.6521 O   0  0  0  0  0  0  0  0  0  0  0  0
    2.1832   -6.4769    3.0647 C   0  0  1  0  0  0  0  0  0  0  0  0
    3.4615   -7.3337    2.7786 C   0  0  0  0  0  0  0  0  0  0  0  0
    4.4149   -6.5208    1.8191 C   0  0  2  0  0  0  0  0  0  0  0  0
    4.9820   -5.2008    2.3988 C   0  0  2  0  0  0  0  0  0  0  0  0
    3.6424   -4.7674    2.8697 C   0  0  1  0  0  0  0  0  0  0  0  0
    2.6598   -5.1599    3.7861 C   0  0  1  0  0  0  0  0  0  0  0  0
    1.9002   -3.7572    3.8807 C   0  0  0  0  0  0  0  0  0  0  0  0
    2.4208   -2.4430    3.0871 C   0  0  0  0  0  0  0  0  0  0  0  0
    1.4360   -1.4041    3.0824 C   0  0  0  0  0  0  0  0  0  0  0  0
    1.6292   -0.2068    2.3885 C   0  0  0  0  0  0  0  0  0  0  0  0
    2.8189    0.0043    1.6858 C   0  0  0  0  0  0  0  0  0  0  0  0
    3.8237   -0.9810    1.6924 C   0  0  0  0  0  0  0  0  0  0  0  0
    3.6886   -2.2176    2.3732 C   0  0  0  0  0  0  0  0  0  0  0  0
    4.9281   -3.0323    2.2997 N   0  0  0  0  0  0  0  0  0  0  0  0
    5.2571   -4.1913    1.3065 C   0  0  2  0  0  0  0  0  0  0  0  0
    4.7285   -4.0298    3.2843 C   0  0  2  0  0  0  0  0  0  0  0  0
    4.3981   -1.0267   -2.3571 H   0  0  0  0  0  0  0  0  0  0  0  0
    3.0155   -1.1156   -1.2667 H   0  0  0  0  0  0  0  0  0  0  0  0
    3.0317   -2.0742   -2.7582 H   0  0  0  0  0  0  0  0  0  0  0  0
    5.1202   -5.0079   -0.6505 H   0  0  0  0  0  0  0  0  0  0  0  0
    4.0328   -6.8536   -0.2689 H   0  0  0  0  0  0  0  0  0  0  0  0
    1.5110   -7.0224    3.7236 H   0  0  0  0  0  0  0  0  0  0  0  0
    3.9784   -7.5835    3.7113 H   0  0  0  0  0  0  0  0  0  0  0  0
    3.1840   -8.2881    2.3218 H   0  0  0  0  0  0  0  0  0  0  0  0
    5.2700   -7.1456    1.5837 H   0  0  0  0  0  0  0  0  0  0  0  0
    3.0469   -4.4337    2.0266 H   0  0  0  0  0  0  0  0  0  0  0  0
    3.1504   -5.4072    4.7318 H   0  0  0  0  0  0  0  0  0  0  0  0
    0.8573   -3.9137    3.6276 H   0  0  0  0  0  0  0  0  0  0  0  0
    1.8943   -3.4803    4.9317 H   0  0  0  0  0  0  0  0  0  0  0  0
    0.5071   -1.5479    3.6003 H   0  0  0  0  0  0  0  0  0  0  0  0
    0.8603    0.5539    2.3726 H   0  0  0  0  0  0  0  0  0  0  0  0
    2.9656    0.9231    1.1380 H   0  0  0  0  0  0  0  0  0  0  0  0
    4.7343   -0.7721    1.1531 H   0  0  0  0  0  0  0  0  0  0  0  0
    6.3159   -4.1159    1.0515 H   0  0  0  0  0  0  0  0  0  0  0  0
    5.1653   -4.0791    4.2836 H   0  0  0  0  0  0  0  0  0  0  0  0
  1  2  1  0
  1 26  1  0
  1 27  1  0
  1 28  1  0
  2  3  1  0
  3  4  2  0
  3  5  1  0
  5 24  1  0
  5  6  1  0
  5 29  1  6
  6 12  1  0
  6  7  1  0
  6 30  1  6
  7  8  1  0
  8  9  2  0
  8 10  1  0
 10 15  1  0
 10 11  1  0
 10 31  1  1
 11 12  1  0
 11 32  1  0
 11 33  1  0
 12 13  1  0
 12 34  1  6
 13 24  1  1
 13 25  1  0
 13 14  1  0
 14 25  1  0
 14 15  1  0
 14 35  1  6
 15 16  1  0
 15 36  1  1
 16 17  1  0
 16 37  1  0
 16 38  1  0
 17 22  2  0
 17 18  1  0
 18 19  2  0
 18 39  1  0
 19 20  1  0
 19 40  1  0
 20 21  2  0
 20 41  1  0
 21 22  1  0
 21 42  1  0
 22 23  1  0
 23 24  1  0
 23 25  1  0
 24 43  1  6
 25 44  1  1
M  END
>  <i_m_ct_stereo_status>  (309) 
1

>  <s_m_source_file>  (309) 
/var/tmp/pbs.5076255.sched01/tmpbvzcvm50/120d7_yi5_y.sdf

>  <i_m_source_file_index>  (309) 
6

>  <i_lp_mmshare_version>  (309) 
48012

>  <i_f3d_flags>  (309) 
0

>  <s_epik_input>  (309) 
W0NIM11PQyg9TylbQ0BIXShbQ0BIXTFbQ0BIXTJbQ0BdMzQ1KVtDQEhdNE42YzdjKFtDSDJdW0NAQEhdKFtDQEBIXShDKE8xKT1PKVtDSDJdMilbQ0BIXTNbQ0BASF01NilbY0hdW2NIXVtjSF1bY0hdNw==

>  <s_epik_cmdline>  (309) 
J2VwaWtfcHl0aG9uJywgJy1waHQnLCAnMi4wJywgJy1waCcsICc3LjAnLCAnLXRuJywgJzgnLCAnLW1hJywgJzIwMCcsICctaW1hZScsICc8aW5maWxlLm1hZT4nLCAnLW9tYWUnLCAnPG91dGZpbGUubWFlPic=

>  <r_lp_tautomer_probability>  (309) 
1

>  <r_epik_Ionization_Penalty>  (309) 
2.10364e-09

>  <r_epik_Ionization_Penalty_Charging>  (309) 
0

>  <r_epik_Ionization_Penalty_Neutral>  (309) 
2.10364e-09

>  <r_epik_State_Penalty>  (309) 
-0

>  <r_epik_Charging_Adjusted_Penalty>  (309) 
0

>  <i_epik_Tot_Q>  (309) 
0

>  <i_epik_Tot_abs_Q>  (309) 
0

>  <s_epik_Chemistry_Notes>  (309) 
This compound has an ester and may undergo hydrolysis at high or low pH.

>  <s_lp_Force_Field>  (309) 
OPLS3e

>  <r_lp_Energy>  (309) 
187.622

>  <b_lp_Chiralities_Consistent>  (309) 
1

>  <s_lp_Variant>  (309) 
89:0-1

>  <s_i_glide_gridfile>  (309) 
pfpi4k_grid

>  <i_i_glide_lignum>  (309) 
6

>  <i_i_glide_rotatable_bonds>  (309) 
2

>  <r_i_docking_score>  (309) 
-3.3341

>  <r_i_glide_ligand_efficiency>  (309) 
-0.133364

>  <r_i_glide_ligand_efficiency_sa>  (309) 
-0.389959

>  <r_i_glide_ligand_efficiency_ln>  (309) 
-0.790282

>  <r_i_glide_gscore>  (309) 
-3.3341

>  <r_i_glide_lipo>  (309) 
-0.163628

>  <r_i_glide_hbond>  (309) 
-0.251747

>  <r_i_glide_metal>  (309) 
-0

>  <r_i_glide_rewards>  (309) 
-1.1678

>  <r_i_glide_evdw>  (309) 
-24.1282

>  <r_i_glide_ecoul>  (309) 
-3.2691

>  <r_i_glide_erotb>  (309) 
0

>  <r_i_glide_esite>  (309) 
-0.0541507

>  <r_i_glide_emodel>  (309) 
-33.5657

>  <r_i_glide_energy>  (309) 
-27.3973

>  <r_i_glide_einternal>  (309) 
0.149916

>  <r_i_glide_intrahb_reward>  (309) 
-0

>  <i_i_glide_confnum>  (309) 
2

>  <i_i_glide_posenum>  (309) 
2

>  <r_i_glide_eff_state_penalty>  (309) 
0

>  <ligand_id>  (309) 
89

>  <original_smiles>  (309) 
COC(=O)C1C2OC(=O)C3CC2C24C5C3Cc3ccccc3N(C12)C54

>  <smiles>  (309) 
[H]c1c([H])c([H])c2c(c1[H])N1C3([H])C([H])(C(=O)OC([H])([H])[H])C4([H])OC(=O)C5([H])C([H])([H])C4([H])C34C1([H])C4([H])C5([H])C2([H])[H]

$$$$
89:0:1
     RDKit          3D

 44 50  0  0  1  0  0  0  0  0999 V2000
   -0.8603   -2.4492    6.0665 C   0  0  0  0  0  0  0  0  0  0  0  0
   -0.7594   -1.5633    4.9626 O   0  0  0  0  0  0  0  0  0  0  0  0
   -1.3227   -0.3532    5.0701 C   0  0  0  0  0  0  0  0  0  0  0  0
   -2.0160   -0.0208    6.0295 O   0  0  0  0  0  0  0  0  0  0  0  0
   -1.0869    0.5511    3.8449 C   0  0  2  0  0  0  0  0  0  0  0  0
    0.3385    0.4578    3.1452 C   0  0  2  0  0  0  0  0  0  0  0  0
    1.4285    0.0239    4.0069 O   0  0  0  0  0  0  0  0  0  0  0  0
    2.5136    0.7821    4.4571 C   0  0  0  0  0  0  0  0  0  0  0  0
    3.3691    0.3290    5.2108 O   0  0  0  0  0  0  0  0  0  0  0  0
    2.5981    2.2658    4.0068 C   0  0  1  0  0  0  0  0  0  0  0  0
    2.0751    2.2921    2.5362 C   0  0  0  0  0  0  0  0  0  0  0  0
    0.5620    1.8530    2.5288 C   0  0  2  0  0  0  0  0  0  0  0  0
   -0.4116    2.7827    3.2948 C   0  0  2  0  0  0  0  0  0  0  0  0
    0.4705    2.8524    4.4952 C   0  0  1  0  0  0  0  0  0  0  0  0
    1.7464    3.3143    4.8271 C   0  0  1  0  0  0  0  0  0  0  0  0
    1.5227    3.3709    6.4086 C   0  0  0  0  0  0  0  0  0  0  0  0
    0.0979    3.0463    7.0958 C   0  0  0  0  0  0  0  0  0  0  0  0
    0.1986    2.8539    8.4958 C   0  0  0  0  0  0  0  0  0  0  0  0
   -0.8902    2.4695    9.2817 C   0  0  0  0  0  0  0  0  0  0  0  0
   -2.1363    2.2837    8.6881 C   0  0  0  0  0  0  0  0  0  0  0  0
   -2.2990    2.5052    7.3128 C   0  0  0  0  0  0  0  0  0  0  0  0
   -1.2297    2.8642    6.4609 C   0  0  0  0  0  0  0  0  0  0  0  0
   -1.6599    3.0643    5.0559 N   0  0  0  0  0  0  0  0  0  0  0  0
   -1.6049    2.0489    3.8697 C   0  0  2  0  0  0  0  0  0  0  0  0
   -0.5847    3.7425    4.4237 C   0  0  2  0  0  0  0  0  0  0  0  0
   -0.3618   -3.3874    5.8268 H   0  0  0  0  0  0  0  0  0  0  0  0
   -1.9077   -2.6594    6.3026 H   0  0  0  0  0  0  0  0  0  0  0  0
   -0.3898   -2.0173    6.9550 H   0  0  0  0  0  0  0  0  0  0  0  0
   -1.7472    0.0787    3.1240 H   0  0  0  0  0  0  0  0  0  0  0  0
    0.2739   -0.2651    2.3287 H   0  0  0  0  0  0  0  0  0  0  0  0
    3.6514    2.5557    4.0286 H   0  0  0  0  0  0  0  0  0  0  0  0
    2.1799    3.2894    2.1031 H   0  0  0  0  0  0  0  0  0  0  0  0
    2.6662    1.6217    1.9061 H   0  0  0  0  0  0  0  0  0  0  0  0
    0.2140    1.8283    1.5016 H   0  0  0  0  0  0  0  0  0  0  0  0
    0.4012    1.9188    5.0518 H   0  0  0  0  0  0  0  0  0  0  0  0
    1.8935    4.3118    4.4064 H   0  0  0  0  0  0  0  0  0  0  0  0
    2.2808    2.7530    6.8861 H   0  0  0  0  0  0  0  0  0  0  0  0
    1.7596    4.3864    6.7143 H   0  0  0  0  0  0  0  0  0  0  0  0
    1.1470    2.9845    8.9771 H   0  0  0  0  0  0  0  0  0  0  0  0
   -0.7771    2.3013   10.3422 H   0  0  0  0  0  0  0  0  0  0  0  0
   -2.9701    1.9558    9.2808 H   0  0  0  0  0  0  0  0  0  0  0  0
   -3.2799    2.3419    6.8815 H   0  0  0  0  0  0  0  0  0  0  0  0
   -2.4988    2.1748    3.2551 H   0  0  0  0  0  0  0  0  0  0  0  0
   -0.4930    4.8088    4.2119 H   0  0  0  0  0  0  0  0  0  0  0  0
  1  2  1  0
  1 26  1  0
  1 27  1  0
  1 28  1  0
  2  3  1  0
  3  4  2  0
  3  5  1  0
  5 24  1  0
  5  6  1  0
  5 29  1  6
  6 12  1  0
  6  7  1  0
  6 30  1  6
  7  8  1  0
  8  9  2  0
  8 10  1  0
 10 15  1  0
 10 11  1  0
 10 31  1  6
 11 12  1  0
 11 32  1  0
 11 33  1  0
 12 13  1  0
 12 34  1  6
 13 24  1  6
 13 25  1  0
 13 14  1  0
 14 25  1  0
 14 15  1  0
 14 35  1  1
 15 16  1  0
 15 36  1  6
 16 17  1  0
 16 37  1  0
 16 38  1  0
 17 22  2  0
 17 18  1  0
 18 19  2  0
 18 39  1  0
 19 20  1  0
 19 40  1  0
 20 21  2  0
 20 41  1  0
 21 22  1  0
 21 42  1  0
 22 23  1  0
 23 24  1  0
 23 25  1  0
 24 43  1  6
 25 44  1  6
M  END
>  <i_m_ct_stereo_status>  (310) 
1

>  <s_m_source_file>  (310) 
/var/tmp/pbs.5076255.sched01/tmpbvzcvm50/120d7_yi5_y.sdf

>  <i_m_source_file_index>  (310) 
6

>  <i_lp_mmshare_version>  (310) 
48012

>  <i_f3d_flags>  (310) 
0

>  <s_epik_input>  (310) 
W0NIM11PQyg9TylbQ0BIXShbQ0BIXTFbQ0BIXTJbQ0BdMzQ1KVtDQEhdNE42YzdjKFtDSDJdW0NAQEhdKFtDQEBIXShDKE8xKT1PKVtDSDJdMilbQ0BIXTNbQ0BASF01NilbY0hdW2NIXVtjSF1bY0hdNw==

>  <s_epik_cmdline>  (310) 
J2VwaWtfcHl0aG9uJywgJy1waHQnLCAnMi4wJywgJy1waCcsICc3LjAnLCAnLXRuJywgJzgnLCAnLW1hJywgJzIwMCcsICctaW1hZScsICc8aW5maWxlLm1hZT4nLCAnLW9tYWUnLCAnPG91dGZpbGUubWFlPic=

>  <r_lp_tautomer_probability>  (310) 
1

>  <r_epik_Ionization_Penalty>  (310) 
2.10364e-09

>  <r_epik_Ionization_Penalty_Charging>  (310) 
0

>  <r_epik_Ionization_Penalty_Neutral>  (310) 
2.10364e-09

>  <r_epik_State_Penalty>  (310) 
-0

>  <r_epik_Charging_Adjusted_Penalty>  (310) 
0

>  <i_epik_Tot_Q>  (310) 
0

>  <i_epik_Tot_abs_Q>  (310) 
0

>  <s_epik_Chemistry_Notes>  (310) 
This compound has an ester and may undergo hydrolysis at high or low pH.

>  <s_lp_Force_Field>  (310) 
OPLS3e

>  <r_lp_Energy>  (310) 
187.622

>  <b_lp_Chiralities_Consistent>  (310) 
1

>  <s_lp_Variant>  (310) 
89:0-1

>  <s_i_glide_gridfile>  (310) 
pfpi4k_grid

>  <i_i_glide_lignum>  (310) 
6

>  <i_i_glide_rotatable_bonds>  (310) 
2

>  <r_i_docking_score>  (310) 
-3.31829

>  <r_i_glide_ligand_efficiency>  (310) 
-0.132732

>  <r_i_glide_ligand_efficiency_sa>  (310) 
-0.38811

>  <r_i_glide_ligand_efficiency_ln>  (310) 
-0.786534

>  <r_i_glide_gscore>  (310) 
-3.31829

>  <r_i_glide_lipo>  (310) 
-0.0937273

>  <r_i_glide_hbond>  (310) 
-0.16

>  <r_i_glide_metal>  (310) 
-0

>  <r_i_glide_rewards>  (310) 
-1.10885

>  <r_i_glide_evdw>  (310) 
-25.077

>  <r_i_glide_ecoul>  (310) 
-4.31618

>  <r_i_glide_erotb>  (310) 
0

>  <r_i_glide_esite>  (310) 
-0.0544399

>  <r_i_glide_emodel>  (310) 
-35.1985

>  <r_i_glide_energy>  (310) 
-29.3932

>  <r_i_glide_einternal>  (310) 
0.568336

>  <r_i_glide_intrahb_reward>  (310) 
-0

>  <i_i_glide_confnum>  (310) 
2

>  <i_i_glide_posenum>  (310) 
15

>  <r_i_glide_eff_state_penalty>  (310) 
0

>  <ligand_id>  (310) 
89

>  <original_smiles>  (310) 
COC(=O)C1C2OC(=O)C3CC2C24C5C3Cc3ccccc3N(C12)C54

>  <smiles>  (310) 
[H]c1c([H])c([H])c2c(c1[H])N1C3([H])C([H])(C(=O)OC([H])([H])[H])C4([H])OC(=O)C5([H])C([H])([H])C4([H])C34C1([H])C4([H])C5([H])C2([H])[H]

$$$$
89:0:2
     RDKit          3D

 44 50  0  0  1  0  0  0  0  0999 V2000
    4.4134   -7.0559    0.4942 C   0  0  0  0  0  0  0  0  0  0  0  0
    4.1289   -5.6889    0.3220 O   0  0  0  0  0  0  0  0  0  0  0  0
    3.0066   -5.1730    0.7971 C   0  0  0  0  0  0  0  0  0  0  0  0
    1.9814   -5.8121    1.0290 O   0  0  0  0  0  0  0  0  0  0  0  0
    3.0337   -3.6471    0.9766 C   0  0  2  0  0  0  0  0  0  0  0  0
    3.1998   -2.7872   -0.3476 C   0  0  2  0  0  0  0  0  0  0  0  0
    3.8591   -3.4792   -1.4509 O   0  0  0  0  0  0  0  0  0  0  0  0
    5.0915   -3.1778   -2.0220 C   0  0  0  0  0  0  0  0  0  0  0  0
    5.5154   -3.7397   -3.0226 O   0  0  0  0  0  0  0  0  0  0  0  0
    5.9473   -2.0675   -1.3581 C   0  0  1  0  0  0  0  0  0  0  0  0
    4.9277   -0.9636   -0.9408 C   0  0  0  0  0  0  0  0  0  0  0  0
    3.9661   -1.5397    0.1324 C   0  0  2  0  0  0  0  0  0  0  0  0
    4.6017   -1.9328    1.4756 C   0  0  2  0  0  0  0  0  0  0  0  0
    5.7205   -2.6739    0.8146 C   0  0  1  0  0  0  0  0  0  0  0  0
    6.7778   -2.4091   -0.0542 C   0  0  1  0  0  0  0  0  0  0  0  0
    7.5878   -3.7532    0.2292 C   0  0  0  0  0  0  0  0  0  0  0  0
    7.1247   -4.8338    1.3338 C   0  0  0  0  0  0  0  0  0  0  0  0
    7.8167   -6.0602    1.2251 C   0  0  0  0  0  0  0  0  0  0  0  0
    7.5200   -7.1672    2.0153 C   0  0  0  0  0  0  0  0  0  0  0  0
    6.5281   -7.0657    2.9828 C   0  0  0  0  0  0  0  0  0  0  0  0
    5.8241   -5.8663    3.1617 C   0  0  0  0  0  0  0  0  0  0  0  0
    6.0589   -4.7274    2.3557 C   0  0  0  0  0  0  0  0  0  0  0  0
    5.2201   -3.5713    2.7603 N   0  0  0  0  0  0  0  0  0  0  0  0
    3.8734   -3.0550    2.1566 C   0  0  2  0  0  0  0  0  0  0  0  0
    5.8103   -2.4344    2.1854 C   0  0  2  0  0  0  0  0  0  0  0  0
    5.4540   -7.1660    0.2103 H   0  0  0  0  0  0  0  0  0  0  0  0
    3.8045   -7.7270   -0.0975 H   0  0  0  0  0  0  0  0  0  0  0  0
    4.3219   -7.3373    1.5441 H   0  0  0  0  0  0  0  0  0  0  0  0
    1.9975   -3.4516    1.2362 H   0  0  0  0  0  0  0  0  0  0  0  0
    2.2179   -2.4739   -0.6803 H   0  0  0  0  0  0  0  0  0  0  0  0
    6.5899   -1.6937   -2.1480 H   0  0  0  0  0  0  0  0  0  0  0  0
    5.4758   -0.1373   -0.4872 H   0  0  0  0  0  0  0  0  0  0  0  0
    4.3531   -0.5920   -1.7966 H   0  0  0  0  0  0  0  0  0  0  0  0
    3.2262   -0.7905    0.3980 H   0  0  0  0  0  0  0  0  0  0  0  0
    5.3295   -3.6011    0.4128 H   0  0  0  0  0  0  0  0  0  0  0  0
    7.3417   -1.5196    0.2677 H   0  0  0  0  0  0  0  0  0  0  0  0
    7.7424   -4.2448   -0.7166 H   0  0  0  0  0  0  0  0  0  0  0  0
    8.5863   -3.4567    0.5248 H   0  0  0  0  0  0  0  0  0  0  0  0
    8.5327   -6.1820    0.4468 H   0  0  0  0  0  0  0  0  0  0  0  0
    7.9951   -8.1053    1.8284 H   0  0  0  0  0  0  0  0  0  0  0  0
    6.2367   -7.9291    3.5480 H   0  0  0  0  0  0  0  0  0  0  0  0
    5.0383   -5.8318    3.8995 H   0  0  0  0  0  0  0  0  0  0  0  0
    3.2186   -2.6869    2.9712 H   0  0  0  0  0  0  0  0  0  0  0  0
    6.4914   -1.7228    2.6256 H   0  0  0  0  0  0  0  0  0  0  0  0
  1  2  1  0
  1 26  1  0
  1 27  1  0
  1 28  1  0
  2  3  1  0
  3  4  2  0
  3  5  1  0
  5 24  1  0
  5  6  1  0
  5 29  1  1
  6 12  1  0
  6  7  1  0
  6 30  1  6
  7  8  1  0
  8  9  2  0
  8 10  1  0
 10 15  1  0
 10 11  1  0
 10 31  1  6
 11 12  1  0
 11 32  1  0
 11 33  1  0
 12 13  1  0
 12 34  1  1
 13 24  1  6
 13 25  1  0
 13 14  1  0
 14 25  1  0
 14 15  1  0
 14 35  1  1
 15 16  1  0
 15 36  1  1
 16 17  1  0
 16 37  1  0
 16 38  1  0
 17 22  2  0
 17 18  1  0
 18 19  2  0
 18 39  1  0
 19 20  1  0
 19 40  1  0
 20 21  2  0
 20 41  1  0
 21 22  1  0
 21 42  1  0
 22 23  1  0
 23 24  1  0
 23 25  1  0
 24 43  1  1
 25 44  1  1
M  END
>  <i_m_ct_stereo_status>  (311) 
1

>  <s_m_source_file>  (311) 
/var/tmp/pbs.5076255.sched01/tmpbvzcvm50/120d7_yi5_y.sdf

>  <i_m_source_file_index>  (311) 
6

>  <i_lp_mmshare_version>  (311) 
48012

>  <i_f3d_flags>  (311) 
0

>  <s_epik_input>  (311) 
W0NIM11PQyg9TylbQ0BIXShbQ0BIXTFbQ0BIXTJbQ0BdMzQ1KVtDQEhdNE42YzdjKFtDSDJdW0NAQEhdKFtDQEBIXShDKE8xKT1PKVtDSDJdMilbQ0BIXTNbQ0BASF01NilbY0hdW2NIXVtjSF1bY0hdNw==

>  <s_epik_cmdline>  (311) 
J2VwaWtfcHl0aG9uJywgJy1waHQnLCAnMi4wJywgJy1waCcsICc3LjAnLCAnLXRuJywgJzgnLCAnLW1hJywgJzIwMCcsICctaW1hZScsICc8aW5maWxlLm1hZT4nLCAnLW9tYWUnLCAnPG91dGZpbGUubWFlPic=

>  <r_lp_tautomer_probability>  (311) 
1

>  <r_epik_Ionization_Penalty>  (311) 
2.10364e-09

>  <r_epik_Ionization_Penalty_Charging>  (311) 
0

>  <r_epik_Ionization_Penalty_Neutral>  (311) 
2.10364e-09

>  <r_epik_State_Penalty>  (311) 
-0

>  <r_epik_Charging_Adjusted_Penalty>  (311) 
0

>  <i_epik_Tot_Q>  (311) 
0

>  <i_epik_Tot_abs_Q>  (311) 
0

>  <s_epik_Chemistry_Notes>  (311) 
This compound has an ester and may undergo hydrolysis at high or low pH.

>  <s_lp_Force_Field>  (311) 
OPLS3e

>  <r_lp_Energy>  (311) 
187.622

>  <b_lp_Chiralities_Consistent>  (311) 
1

>  <s_lp_Variant>  (311) 
89:0-1

>  <s_i_glide_gridfile>  (311) 
pfpi4k_grid

>  <i_i_glide_lignum>  (311) 
6

>  <i_i_glide_rotatable_bonds>  (311) 
2

>  <r_i_docking_score>  (311) 
-3.30873

>  <r_i_glide_ligand_efficiency>  (311) 
-0.132349

>  <r_i_glide_ligand_efficiency_sa>  (311) 
-0.386991

>  <r_i_glide_ligand_efficiency_ln>  (311) 
-0.784267

>  <r_i_glide_gscore>  (311) 
-3.30873

>  <r_i_glide_lipo>  (311) 
-0.598462

>  <r_i_glide_hbond>  (311) 
-0.0174509

>  <r_i_glide_metal>  (311) 
-0

>  <r_i_glide_rewards>  (311) 
-1.32084

>  <r_i_glide_evdw>  (311) 
-24.2542

>  <r_i_glide_ecoul>  (311) 
-0.936057

>  <r_i_glide_erotb>  (311) 
0

>  <r_i_glide_esite>  (311) 
-0.0188513

>  <r_i_glide_emodel>  (311) 
-29.0879

>  <r_i_glide_energy>  (311) 
-25.1903

>  <r_i_glide_einternal>  (311) 
2.33208

>  <r_i_glide_intrahb_reward>  (311) 
-0

>  <i_i_glide_confnum>  (311) 
1

>  <i_i_glide_posenum>  (311) 
19

>  <r_i_glide_eff_state_penalty>  (311) 
0

>  <ligand_id>  (311) 
89

>  <original_smiles>  (311) 
COC(=O)C1C2OC(=O)C3CC2C24C5C3Cc3ccccc3N(C12)C54

>  <smiles>  (311) 
[H]c1c([H])c([H])c2c(c1[H])N1C3([H])C([H])(C(=O)OC([H])([H])[H])C4([H])OC(=O)C5([H])C([H])([H])C4([H])C34C1([H])C4([H])C5([H])C2([H])[H]

$$$$
90:0:0
     RDKit          3D

 61 66  0  0  1  0  0  0  0  0999 V2000
    4.4737   -7.5469    0.8649 C   0  0  0  0  0  0  0  0  0  0  0  0
    4.3341   -6.4590    1.9171 C   0  0  0  0  0  0  0  0  0  0  0  0
    4.0765   -5.1484    1.7686 C   0  0  0  0  0  0  0  0  0  0  0  0
    4.1379   -4.3999    3.0372 C   0  0  1  0  0  0  0  0  0  0  0  0
    4.9360   -5.3386    3.9525 C   0  0  0  0  0  0  0  0  0  0  0  0
    4.6289   -6.7621    3.3849 C   0  0  1  0  0  0  0  0  0  0  0  0
    3.4904   -7.4589    4.1234 C   0  0  0  0  0  0  0  0  0  0  0  0
    2.4557   -8.2945    3.5933 C   0  0  0  0  0  0  0  0  0  0  0  0
    1.6932   -8.7010    4.6482 C   0  0  0  0  0  0  0  0  0  0  0  0
    2.1521   -8.1680    5.8071 O   0  0  0  0  0  0  0  0  0  0  0  0
    3.2450   -7.4313    5.4734 C   0  0  0  0  0  0  0  0  0  0  0  0
    4.6729   -3.1388    2.6799 O   0  0  0  0  0  0  0  0  0  0  0  0
    4.1054   -2.7893    1.4006 C   0  0  1  0  0  0  0  0  0  0  0  0
    2.7116   -2.1814    1.7483 C   0  0  0  0  0  0  0  0  0  0  0  0
    5.0318   -1.7212    0.6833 C   0  0  1  0  0  0  0  0  0  0  0  0
    4.7801   -0.2862    1.2005 C   0  0  0  0  0  0  0  0  0  0  0  0
    6.5702   -1.9827    0.8681 C   0  0  0  0  0  0  0  0  0  0  0  0
    7.1934   -3.0823   -0.0292 C   0  0  1  0  0  0  0  0  0  0  0  0
    8.7178   -3.1601    0.1516 C   0  0  0  0  0  0  0  0  0  0  0  0
    6.5224   -4.4189    0.2401 C   0  0  0  0  0  0  0  0  0  0  0  0
    5.1378   -4.3020   -0.4327 C   0  0  2  0  0  0  0  0  0  0  0  0
    5.2827   -3.0791   -1.4211 C   0  0  2  0  0  0  0  0  0  0  0  0
    4.7162   -3.3361   -2.8297 C   0  0  0  0  0  0  0  0  0  0  0  0
    6.7982   -2.8499   -1.4854 C   0  0  0  0  0  0  0  0  0  0  0  0
    4.6969   -1.7832   -0.8204 C   0  0  0  0  0  0  0  0  0  0  0  0
    3.9835   -4.1628    0.6138 C   0  0  1  0  0  0  0  0  0  0  0  0
    2.6252   -4.3870   -0.0863 C   0  0  0  0  0  0  0  0  0  0  0  0
    3.7709   -8.3645    1.0338 H   0  0  0  0  0  0  0  0  0  0  0  0
    5.4721   -7.9809    0.9048 H   0  0  0  0  0  0  0  0  0  0  0  0
    4.2921   -7.1752   -0.1444 H   0  0  0  0  0  0  0  0  0  0  0  0
    3.1177   -4.2984    3.4126 H   0  0  0  0  0  0  0  0  0  0  0  0
    5.9981   -5.1260    3.8206 H   0  0  0  0  0  0  0  0  0  0  0  0
    4.7211   -5.1941    5.0116 H   0  0  0  0  0  0  0  0  0  0  0  0
    5.5235   -7.3825    3.4518 H   0  0  0  0  0  0  0  0  0  0  0  0
    2.2711   -8.5913    2.5755 H   0  0  0  0  0  0  0  0  0  0  0  0
    0.8351   -9.3476    4.7379 H   0  0  0  0  0  0  0  0  0  0  0  0
    3.7216   -6.9530    6.3184 H   0  0  0  0  0  0  0  0  0  0  0  0
    2.2262   -1.7283    0.8816 H   0  0  0  0  0  0  0  0  0  0  0  0
    2.8032   -1.4144    2.5177 H   0  0  0  0  0  0  0  0  0  0  0  0
    2.0139   -2.9141    2.1487 H   0  0  0  0  0  0  0  0  0  0  0  0
    5.4646    0.4236    0.7304 H   0  0  0  0  0  0  0  0  0  0  0  0
    4.9323   -0.2242    2.2795 H   0  0  0  0  0  0  0  0  0  0  0  0
    3.7732    0.0693    0.9695 H   0  0  0  0  0  0  0  0  0  0  0  0
    7.1150   -1.0603    0.6571 H   0  0  0  0  0  0  0  0  0  0  0  0
    6.7682   -2.2005    1.9147 H   0  0  0  0  0  0  0  0  0  0  0  0
    9.1569   -3.9181   -0.4991 H   0  0  0  0  0  0  0  0  0  0  0  0
    8.9813   -3.4207    1.1795 H   0  0  0  0  0  0  0  0  0  0  0  0
    9.2035   -2.2117   -0.0870 H   0  0  0  0  0  0  0  0  0  0  0  0
    7.0894   -5.1991   -0.2579 H   0  0  0  0  0  0  0  0  0  0  0  0
    6.5244   -4.6825    1.2951 H   0  0  0  0  0  0  0  0  0  0  0  0
    4.9844   -5.2079   -1.0224 H   0  0  0  0  0  0  0  0  0  0  0  0
    4.9006   -2.4819   -3.4850 H   0  0  0  0  0  0  0  0  0  0  0  0
    3.6383   -3.5031   -2.8061 H   0  0  0  0  0  0  0  0  0  0  0  0
    5.1778   -4.2104   -3.2918 H   0  0  0  0  0  0  0  0  0  0  0  0
    7.0674   -1.8602   -1.8511 H   0  0  0  0  0  0  0  0  0  0  0  0
    7.2865   -3.5665   -2.1498 H   0  0  0  0  0  0  0  0  0  0  0  0
    3.6197   -1.7324   -0.9663 H   0  0  0  0  0  0  0  0  0  0  0  0
    5.0911   -0.9061   -1.3377 H   0  0  0  0  0  0  0  0  0  0  0  0
    2.3620   -3.5851   -0.7760 H   0  0  0  0  0  0  0  0  0  0  0  0
    1.8105   -4.5090    0.6297 H   0  0  0  0  0  0  0  0  0  0  0  0
    2.6475   -5.3075   -0.6661 H   0  0  0  0  0  0  0  0  0  0  0  0
  1  2  1  0
  1 28  1  0
  1 29  1  0
  1 30  1  0
  2  6  1  0
  2  3  2  0
  3 26  1  0
  3  4  1  0
  4  5  1  0
  4 12  1  0
  4 31  1  1
  5  6  1  0
  5 32  1  0
  5 33  1  0
  6  7  1  0
  6 34  1  6
  7 11  2  0
  7  8  1  0
  8  9  2  0
  8 35  1  0
  9 10  1  0
  9 36  1  0
 10 11  1  0
 11 37  1  0
 12 13  1  0
 13 26  1  0
 13 14  1  1
 13 15  1  0
 14 38  1  0
 14 39  1  0
 14 40  1  0
 15 25  1  0
 15 16  1  1
 15 17  1  0
 16 41  1  0
 16 42  1  0
 16 43  1  0
 17 18  1  0
 17 44  1  0
 17 45  1  0
 18 24  1  0
 18 19  1  6
 18 20  1  0
 19 46  1  0
 19 47  1  0
 19 48  1  0
 20 21  1  0
 20 49  1  0
 20 50  1  0
 21 22  1  0
 21 26  1  0
 21 51  1  6
 22 23  1  6
 22 24  1  0
 22 25  1  0
 23 52  1  0
 23 53  1  0
 23 54  1  0
 24 55  1  0
 24 56  1  0
 25 57  1  0
 25 58  1  0
 26 27  1  6
 27 59  1  0
 27 60  1  0
 27 61  1  0
M  END
>  <i_m_ct_stereo_status>  (312) 
1

>  <s_m_source_file>  (312) 
/var/tmp/pbs.5076255.sched01/tmpbvzcvm50/120d7_yi5_y.sdf

>  <i_m_source_file_index>  (312) 
7

>  <i_lp_mmshare_version>  (312) 
48012

>  <i_f3d_flags>  (312) 
0

>  <s_epik_input>  (312) 
W2NIXTFvW2NIXVtjSF1jMVtDQEBIXShDPTJbQ0gzXSlbQ0gyXVtDQEBIXShPMylDMltDQF00KFtDSDNdKVtDQEBIXShbQ0BdKFtDSDNdKShbQ0gyXTUpW0NIMl02KVtDSDJdW0NAXTUoW0NIM10pW0NIMl1bQ0BdNihbQ0gzXSlbQ0BdMzRbQ0gzXQ==

>  <s_epik_cmdline>  (312) 
J2VwaWtfcHl0aG9uJywgJy1waHQnLCAnMi4wJywgJy1waCcsICc3LjAnLCAnLXRuJywgJzgnLCAnLW1hJywgJzIwMCcsICctaW1hZScsICc8aW5maWxlLm1hZT4nLCAnLW9tYWUnLCAnPG91dGZpbGUubWFlPic=

>  <r_lp_tautomer_probability>  (312) 
1

>  <r_epik_Ionization_Penalty>  (312) 
2.01362e-11

>  <r_epik_Ionization_Penalty_Charging>  (312) 
0

>  <r_epik_Ionization_Penalty_Neutral>  (312) 
2.01362e-11

>  <r_epik_State_Penalty>  (312) 
-0

>  <r_epik_Charging_Adjusted_Penalty>  (312) 
0

>  <i_epik_Tot_Q>  (312) 
0

>  <i_epik_Tot_abs_Q>  (312) 
0

>  <s_lp_Force_Field>  (312) 
OPLS3e

>  <r_lp_Energy>  (312) 
48.6359

>  <b_lp_Chiralities_Consistent>  (312) 
1

>  <s_lp_Variant>  (312) 
90:0-1

>  <s_i_glide_gridfile>  (312) 
pfpi4k_grid

>  <i_i_glide_lignum>  (312) 
7

>  <i_i_glide_rotatable_bonds>  (312) 
1

>  <r_i_docking_score>  (312) 
-3.22407

>  <r_i_glide_ligand_efficiency>  (312) 
-0.11941

>  <r_i_glide_ligand_efficiency_sa>  (312) 
-0.35823

>  <r_i_glide_ligand_efficiency_ln>  (312) 
-0.75051

>  <r_i_glide_gscore>  (312) 
-3.22407

>  <r_i_glide_lipo>  (312) 
-0.969262

>  <r_i_glide_hbond>  (312) 
0

>  <r_i_glide_metal>  (312) 
-0

>  <r_i_glide_rewards>  (312) 
-0.90998

>  <r_i_glide_evdw>  (312) 
-28.2313

>  <r_i_glide_ecoul>  (312) 
-0.510232

>  <r_i_glide_erotb>  (312) 
0.143273

>  <r_i_glide_esite>  (312) 
0

>  <r_i_glide_emodel>  (312) 
-34.0404

>  <r_i_glide_energy>  (312) 
-28.7416

>  <r_i_glide_einternal>  (312) 
0.38235

>  <r_i_glide_intrahb_reward>  (312) 
-0

>  <i_i_glide_confnum>  (312) 
2

>  <i_i_glide_posenum>  (312) 
26

>  <r_i_glide_eff_state_penalty>  (312) 
0

>  <ligand_id>  (312) 
90

>  <original_smiles>  (312) 
CC1=C2C(CC1c1ccoc1)OC1(C)C3(C)CC4(C)CC(C(C)(C4)C3)C21C

>  <smiles>  (312) 
[H]c1oc([H])c(C2([H])C(C([H])([H])[H])=C3C([H])(OC4(C([H])([H])[H])C3(C([H])([H])[H])C3([H])C([H])([H])C5(C([H])([H])[H])C([H])([H])C3(C([H])([H])[H])C([H])([H])C4(C([H])([H])[H])C5([H])[H])C2([H])[H])c1[H]

$$$$
90:0:1
     RDKit          3D

 61 66  0  0  1  0  0  0  0  0999 V2000
    4.6680   -7.5285    1.1226 C   0  0  0  0  0  0  0  0  0  0  0  0
    4.5102   -6.3938    2.1209 C   0  0  0  0  0  0  0  0  0  0  0  0
    4.1710   -5.1121    1.9207 C   0  0  0  0  0  0  0  0  0  0  0  0
    4.2281   -4.3050    3.1545 C   0  0  1  0  0  0  0  0  0  0  0  0
    5.1163   -5.1493    4.0793 C   0  0  0  0  0  0  0  0  0  0  0  0
    4.8896   -6.6068    3.5780 C   0  0  1  0  0  0  0  0  0  0  0  0
    3.8373   -7.3472    4.3806 C   0  0  0  0  0  0  0  0  0  0  0  0
    3.7797   -8.7497    4.6394 C   0  0  0  0  0  0  0  0  0  0  0  0
    2.6807   -8.9597    5.4243 C   0  0  0  0  0  0  0  0  0  0  0  0
    2.0387   -7.7903    5.6768 O   0  0  0  0  0  0  0  0  0  0  0  0
    2.7509   -6.8269    5.0375 C   0  0  0  0  0  0  0  0  0  0  0  0
    4.6602   -3.0303    2.7223 O   0  0  0  0  0  0  0  0  0  0  0  0
    4.0187   -2.7809    1.4554 C   0  0  1  0  0  0  0  0  0  0  0  0
    2.6000   -2.2567    1.8347 C   0  0  0  0  0  0  0  0  0  0  0  0
    4.8394   -1.6866    0.6626 C   0  0  1  0  0  0  0  0  0  0  0  0
    4.4999   -0.2556    1.1302 C   0  0  0  0  0  0  0  0  0  0  0  0
    6.3977   -1.8285    0.8024 C   0  0  0  0  0  0  0  0  0  0  0  0
    7.0686   -2.9183   -0.0747 C   0  0  1  0  0  0  0  0  0  0  0  0
    8.6017   -2.8762    0.0502 C   0  0  0  0  0  0  0  0  0  0  0  0
    6.5063   -4.2900    0.2644 C   0  0  0  0  0  0  0  0  0  0  0  0
    5.0921   -4.2959   -0.3551 C   0  0  2  0  0  0  0  0  0  0  0  0
    5.1128   -3.1085   -1.3942 C   0  0  2  0  0  0  0  0  0  0  0  0
    4.5193   -3.4535   -2.7711 C   0  0  0  0  0  0  0  0  0  0  0  0
    6.6037   -2.7746   -1.5203 C   0  0  0  0  0  0  0  0  0  0  0  0
    4.4563   -1.8321   -0.8224 C   0  0  0  0  0  0  0  0  0  0  0  0
    3.9684   -4.1923    0.7298 C   0  0  1  0  0  0  0  0  0  0  0  0
    2.6119   -4.5492    0.0850 C   0  0  0  0  0  0  0  0  0  0  0  0
    4.0182   -8.3613    1.4009 H   0  0  0  0  0  0  0  0  0  0  0  0
    5.6925   -7.9005    1.1430 H   0  0  0  0  0  0  0  0  0  0  0  0
    4.4263   -7.2353    0.1003 H   0  0  0  0  0  0  0  0  0  0  0  0
    3.2155   -4.2534    3.5574 H   0  0  0  0  0  0  0  0  0  0  0  0
    6.1565   -4.8775    3.8993 H   0  0  0  0  0  0  0  0  0  0  0  0
    4.9253   -4.9978    5.1416 H   0  0  0  0  0  0  0  0  0  0  0  0
    5.8227   -7.1648    3.6334 H   0  0  0  0  0  0  0  0  0  0  0  0
    4.4596   -9.5177    4.3054 H   0  0  0  0  0  0  0  0  0  0  0  0
    2.2404   -9.8348    5.8805 H   0  0  0  0  0  0  0  0  0  0  0  0
    2.3541   -5.8325    5.1658 H   0  0  0  0  0  0  0  0  0  0  0  0
    2.0572   -1.8728    0.9694 H   0  0  0  0  0  0  0  0  0  0  0  0
    2.6631   -1.4531    2.5692 H   0  0  0  0  0  0  0  0  0  0  0  0
    1.9683   -3.0182    2.2873 H   0  0  0  0  0  0  0  0  0  0  0  0
    5.1068    0.4825    0.6033 H   0  0  0  0  0  0  0  0  0  0  0  0
    4.6865   -0.1276    2.1976 H   0  0  0  0  0  0  0  0  0  0  0  0
    3.4642    0.0191    0.9223 H   0  0  0  0  0  0  0  0  0  0  0  0
    6.8640   -0.8795    0.5304 H   0  0  0  0  0  0  0  0  0  0  0  0
    6.6557   -1.9807    1.8488 H   0  0  0  0  0  0  0  0  0  0  0  0
    9.0709   -3.6286   -0.5857 H   0  0  0  0  0  0  0  0  0  0  0  0
    8.9214   -3.0731    1.0747 H   0  0  0  0  0  0  0  0  0  0  0  0
    9.0101   -1.9067   -0.2451 H   0  0  0  0  0  0  0  0  0  0  0  0
    7.1069   -5.0491   -0.2296 H   0  0  0  0  0  0  0  0  0  0  0  0
    6.5640   -4.5079    1.3281 H   0  0  0  0  0  0  0  0  0  0  0  0
    4.9787   -5.2344   -0.9006 H   0  0  0  0  0  0  0  0  0  0  0  0
    4.6178   -2.6227   -3.4666 H   0  0  0  0  0  0  0  0  0  0  0  0
    3.4582   -3.6990   -2.6974 H   0  0  0  0  0  0  0  0  0  0  0  0
    5.0214   -4.3195   -3.2129 H   0  0  0  0  0  0  0  0  0  0  0  0
    6.7748   -1.7851   -1.9306 H   0  0  0  0  0  0  0  0  0  0  0  0
    7.1214   -3.4751   -2.1780 H   0  0  0  0  0  0  0  0  0  0  0  0
    3.3742   -1.8630   -0.9298 H   0  0  0  0  0  0  0  0  0  0  0  0
    4.7672   -0.9521   -1.3890 H   0  0  0  0  0  0  0  0  0  0  0  0
    2.2694   -3.8024   -0.6331 H   0  0  0  0  0  0  0  0  0  0  0  0
    1.8289   -4.6833    0.8339 H   0  0  0  0  0  0  0  0  0  0  0  0
    2.6771   -5.5053   -0.4308 H   0  0  0  0  0  0  0  0  0  0  0  0
  1  2  1  0
  1 28  1  0
  1 29  1  0
  1 30  1  0
  2  6  1  0
  2  3  2  0
  3 26  1  0
  3  4  1  0
  4  5  1  0
  4 12  1  0
  4 31  1  1
  5  6  1  0
  5 32  1  0
  5 33  1  0
  6  7  1  0
  6 34  1  6
  7 11  2  0
  7  8  1  0
  8  9  2  0
  8 35  1  0
  9 10  1  0
  9 36  1  0
 10 11  1  0
 11 37  1  0
 12 13  1  0
 13 26  1  0
 13 14  1  1
 13 15  1  0
 14 38  1  0
 14 39  1  0
 14 40  1  0
 15 25  1  0
 15 16  1  1
 15 17  1  0
 16 41  1  0
 16 42  1  0
 16 43  1  0
 17 18  1  0
 17 44  1  0
 17 45  1  0
 18 24  1  0
 18 19  1  6
 18 20  1  0
 19 46  1  0
 19 47  1  0
 19 48  1  0
 20 21  1  0
 20 49  1  0
 20 50  1  0
 21 22  1  0
 21 26  1  0
 21 51  1  6
 22 23  1  6
 22 24  1  0
 22 25  1  0
 23 52  1  0
 23 53  1  0
 23 54  1  0
 24 55  1  0
 24 56  1  0
 25 57  1  0
 25 58  1  0
 26 27  1  6
 27 59  1  0
 27 60  1  0
 27 61  1  0
M  END
>  <i_m_ct_stereo_status>  (313) 
1

>  <s_m_source_file>  (313) 
/var/tmp/pbs.5076255.sched01/tmpbvzcvm50/120d7_yi5_y.sdf

>  <i_m_source_file_index>  (313) 
7

>  <i_lp_mmshare_version>  (313) 
48012

>  <i_f3d_flags>  (313) 
0

>  <s_epik_input>  (313) 
W2NIXTFvW2NIXVtjSF1jMVtDQEBIXShDPTJbQ0gzXSlbQ0gyXVtDQEBIXShPMylDMltDQF00KFtDSDNdKVtDQEBIXShbQ0BdKFtDSDNdKShbQ0gyXTUpW0NIMl02KVtDSDJdW0NAXTUoW0NIM10pW0NIMl1bQ0BdNihbQ0gzXSlbQ0BdMzRbQ0gzXQ==

>  <s_epik_cmdline>  (313) 
J2VwaWtfcHl0aG9uJywgJy1waHQnLCAnMi4wJywgJy1waCcsICc3LjAnLCAnLXRuJywgJzgnLCAnLW1hJywgJzIwMCcsICctaW1hZScsICc8aW5maWxlLm1hZT4nLCAnLW9tYWUnLCAnPG91dGZpbGUubWFlPic=

>  <r_lp_tautomer_probability>  (313) 
1

>  <r_epik_Ionization_Penalty>  (313) 
2.01362e-11

>  <r_epik_Ionization_Penalty_Charging>  (313) 
0

>  <r_epik_Ionization_Penalty_Neutral>  (313) 
2.01362e-11

>  <r_epik_State_Penalty>  (313) 
-0

>  <r_epik_Charging_Adjusted_Penalty>  (313) 
0

>  <i_epik_Tot_Q>  (313) 
0

>  <i_epik_Tot_abs_Q>  (313) 
0

>  <s_lp_Force_Field>  (313) 
OPLS3e

>  <r_lp_Energy>  (313) 
48.6359

>  <b_lp_Chiralities_Consistent>  (313) 
1

>  <s_lp_Variant>  (313) 
90:0-1

>  <s_i_glide_gridfile>  (313) 
pfpi4k_grid

>  <i_i_glide_lignum>  (313) 
7

>  <i_i_glide_rotatable_bonds>  (313) 
1

>  <r_i_docking_score>  (313) 
-3.03476

>  <r_i_glide_ligand_efficiency>  (313) 
-0.112399

>  <r_i_glide_ligand_efficiency_sa>  (313) 
-0.337196

>  <r_i_glide_ligand_efficiency_ln>  (313) 
-0.706443

>  <r_i_glide_gscore>  (313) 
-3.03476

>  <r_i_glide_lipo>  (313) 
-0.706124

>  <r_i_glide_hbond>  (313) 
0

>  <r_i_glide_metal>  (313) 
-0

>  <r_i_glide_rewards>  (313) 
-0.90998

>  <r_i_glide_evdw>  (313) 
-28.6952

>  <r_i_glide_ecoul>  (313) 
-0.847803

>  <r_i_glide_erotb>  (313) 
0.143273

>  <r_i_glide_esite>  (313) 
0

>  <r_i_glide_emodel>  (313) 
-34.4575

>  <r_i_glide_energy>  (313) 
-29.543

>  <r_i_glide_einternal>  (313) 
0.561724

>  <r_i_glide_intrahb_reward>  (313) 
-0

>  <i_i_glide_confnum>  (313) 
2

>  <i_i_glide_posenum>  (313) 
21

>  <r_i_glide_eff_state_penalty>  (313) 
0

>  <ligand_id>  (313) 
90

>  <original_smiles>  (313) 
CC1=C2C(CC1c1ccoc1)OC1(C)C3(C)CC4(C)CC(C(C)(C4)C3)C21C

>  <smiles>  (313) 
[H]c1oc([H])c(C2([H])C(C([H])([H])[H])=C3C([H])(OC4(C([H])([H])[H])C3(C([H])([H])[H])C3([H])C([H])([H])C5(C([H])([H])[H])C([H])([H])C3(C([H])([H])[H])C([H])([H])C4(C([H])([H])[H])C5([H])[H])C2([H])[H])c1[H]

$$$$
90:0:2
     RDKit          3D

 61 66  0  0  1  0  0  0  0  0999 V2000
    1.8190   -3.8181    3.2930 C   0  0  0  0  0  0  0  0  0  0  0  0
    3.0055   -4.7525    3.1414 C   0  0  0  0  0  0  0  0  0  0  0  0
    3.0433   -6.0539    2.8202 C   0  0  0  0  0  0  0  0  0  0  0  0
    4.4040   -6.6206    2.8819 C   0  0  1  0  0  0  0  0  0  0  0  0
    5.1624   -5.6052    3.7509 C   0  0  0  0  0  0  0  0  0  0  0  0
    4.4005   -4.2692    3.5087 C   0  0  1  0  0  0  0  0  0  0  0  0
    5.0480   -3.4092    2.4425 C   0  0  0  0  0  0  0  0  0  0  0  0
    5.1563   -1.9857    2.4334 C   0  0  0  0  0  0  0  0  0  0  0  0
    5.8403   -1.6520    1.2993 C   0  0  0  0  0  0  0  0  0  0  0  0
    6.1736   -2.7617    0.5917 O   0  0  0  0  0  0  0  0  0  0  0  0
    5.6809   -3.8149    1.2940 C   0  0  0  0  0  0  0  0  0  0  0  0
    4.2128   -7.9450    3.3367 O   0  0  0  0  0  0  0  0  0  0  0  0
    3.0125   -8.4356    2.7057 C   0  0  1  0  0  0  0  0  0  0  0  0
    3.4795   -8.9076    1.2938 C   0  0  0  0  0  0  0  0  0  0  0  0
    2.4398   -9.6429    3.5539 C   0  0  1  0  0  0  0  0  0  0  0  0
    3.1576  -10.9794    3.2473 C   0  0  0  0  0  0  0  0  0  0  0  0
    2.5564   -9.4440    5.1094 C   0  0  0  0  0  0  0  0  0  0  0  0
    1.4943   -8.5239    5.7636 C   0  0  1  0  0  0  0  0  0  0  0  0
    1.6287   -8.5259    7.2959 C   0  0  0  0  0  0  0  0  0  0  0  0
    1.5580   -7.1183    5.1828 C   0  0  0  0  0  0  0  0  0  0  0  0
    0.9576   -7.2570    3.7680 C   0  0  2  0  0  0  0  0  0  0  0  0
    0.1581   -8.6163    3.8097 C   0  0  2  0  0  0  0  0  0  0  0  0
   -1.2591   -8.5188    3.2113 C   0  0  0  0  0  0  0  0  0  0  0  0
    0.1070   -8.9520    5.3062 C   0  0  0  0  0  0  0  0  0  0  0  0
    0.9517   -9.7762    3.1724 C   0  0  0  0  0  0  0  0  0  0  0  0
    2.0387   -7.1784    2.6399 C   0  0  1  0  0  0  0  0  0  0  0  0
    1.3239   -6.9625    1.2802 C   0  0  0  0  0  0  0  0  0  0  0  0
    1.9381   -2.9603    2.6272 H   0  0  0  0  0  0  0  0  0  0  0  0
    1.7750   -3.4332    4.3118 H   0  0  0  0  0  0  0  0  0  0  0  0
    0.8684   -4.2991    3.0632 H   0  0  0  0  0  0  0  0  0  0  0  0
    4.8081   -6.6162    1.8688 H   0  0  0  0  0  0  0  0  0  0  0  0
    5.0403   -5.8907    4.7959 H   0  0  0  0  0  0  0  0  0  0  0  0
    6.2340   -5.5578    3.5548 H   0  0  0  0  0  0  0  0  0  0  0  0
    4.3533   -3.6976    4.4342 H   0  0  0  0  0  0  0  0  0  0  0  0
    4.7936   -1.2854    3.1686 H   0  0  0  0  0  0  0  0  0  0  0  0
    6.1737   -0.7170    0.8765 H   0  0  0  0  0  0  0  0  0  0  0  0
    5.8820   -4.7744    0.8438 H   0  0  0  0  0  0  0  0  0  0  0  0
    2.7010   -9.4545    0.7586 H   0  0  0  0  0  0  0  0  0  0  0  0
    4.3454   -9.5670    1.3675 H   0  0  0  0  0  0  0  0  0  0  0  0
    3.7941   -8.0866    0.6521 H   0  0  0  0  0  0  0  0  0  0  0  0
    2.7743  -11.7944    3.8660 H   0  0  0  0  0  0  0  0  0  0  0  0
    4.2308  -10.9072    3.4244 H   0  0  0  0  0  0  0  0  0  0  0  0
    3.0106  -11.2979    2.2157 H   0  0  0  0  0  0  0  0  0  0  0  0
    2.4489  -10.4186    5.5907 H   0  0  0  0  0  0  0  0  0  0  0  0
    3.5567   -9.1063    5.3789 H   0  0  0  0  0  0  0  0  0  0  0  0
    0.8751   -7.8918    7.7657 H   0  0  0  0  0  0  0  0  0  0  0  0
    2.6086   -8.1551    7.6032 H   0  0  0  0  0  0  0  0  0  0  0  0
    1.5122   -9.5328    7.7042 H   0  0  0  0  0  0  0  0  0  0  0  0
    0.9195   -6.4586    5.7705 H   0  0  0  0  0  0  0  0  0  0  0  0
    2.5622   -6.7057    5.2341 H   0  0  0  0  0  0  0  0  0  0  0  0
    0.2486   -6.4380    3.6453 H   0  0  0  0  0  0  0  0  0  0  0  0
   -1.7898   -9.4649    3.3212 H   0  0  0  0  0  0  0  0  0  0  0  0
   -1.2367   -8.2905    2.1453 H   0  0  0  0  0  0  0  0  0  0  0  0
   -1.8557   -7.7578    3.7151 H   0  0  0  0  0  0  0  0  0  0  0  0
   -0.1073  -10.0019    5.5188 H   0  0  0  0  0  0  0  0  0  0  0  0
   -0.6563   -8.3640    5.8087 H   0  0  0  0  0  0  0  0  0  0  0  0
    0.8362   -9.7866    2.0907 H   0  0  0  0  0  0  0  0  0  0  0  0
    0.5510  -10.7363    3.5056 H   0  0  0  0  0  0  0  0  0  0  0  0
    0.7783   -7.8454    0.9475 H   0  0  0  0  0  0  0  0  0  0  0  0
    2.0273   -6.6805    0.4957 H   0  0  0  0  0  0  0  0  0  0  0  0
    0.6069   -6.1435    1.3480 H   0  0  0  0  0  0  0  0  0  0  0  0
  1  2  1  0
  1 28  1  0
  1 29  1  0
  1 30  1  0
  2  6  1  0
  2  3  2  0
  3 26  1  0
  3  4  1  0
  4  5  1  0
  4 12  1  0
  4 31  1  6
  5  6  1  0
  5 32  1  0
  5 33  1  0
  6  7  1  0
  6 34  1  1
  7 11  2  0
  7  8  1  0
  8  9  2  0
  8 35  1  0
  9 10  1  0
  9 36  1  0
 10 11  1  0
 11 37  1  0
 12 13  1  0
 13 26  1  0
 13 14  1  6
 13 15  1  0
 14 38  1  0
 14 39  1  0
 14 40  1  0
 15 25  1  0
 15 16  1  6
 15 17  1  0
 16 41  1  0
 16 42  1  0
 16 43  1  0
 17 18  1  0
 17 44  1  0
 17 45  1  0
 18 24  1  0
 18 19  1  1
 18 20  1  0
 19 46  1  0
 19 47  1  0
 19 48  1  0
 20 21  1  0
 20 49  1  0
 20 50  1  0
 21 22  1  0
 21 26  1  0
 21 51  1  6
 22 23  1  6
 22 24  1  0
 22 25  1  0
 23 52  1  0
 23 53  1  0
 23 54  1  0
 24 55  1  0
 24 56  1  0
 25 57  1  0
 25 58  1  0
 26 27  1  6
 27 59  1  0
 27 60  1  0
 27 61  1  0
M  END
>  <i_m_ct_stereo_status>  (314) 
1

>  <s_m_source_file>  (314) 
/var/tmp/pbs.5076255.sched01/tmpbvzcvm50/120d7_yi5_y.sdf

>  <i_m_source_file_index>  (314) 
7

>  <i_lp_mmshare_version>  (314) 
48012

>  <i_f3d_flags>  (314) 
0

>  <s_epik_input>  (314) 
W2NIXTFvW2NIXVtjSF1jMVtDQEBIXShDPTJbQ0gzXSlbQ0gyXVtDQEBIXShPMylDMltDQF00KFtDSDNdKVtDQEBIXShbQ0BdKFtDSDNdKShbQ0gyXTUpW0NIMl02KVtDSDJdW0NAXTUoW0NIM10pW0NIMl1bQ0BdNihbQ0gzXSlbQ0BdMzRbQ0gzXQ==

>  <s_epik_cmdline>  (314) 
J2VwaWtfcHl0aG9uJywgJy1waHQnLCAnMi4wJywgJy1waCcsICc3LjAnLCAnLXRuJywgJzgnLCAnLW1hJywgJzIwMCcsICctaW1hZScsICc8aW5maWxlLm1hZT4nLCAnLW9tYWUnLCAnPG91dGZpbGUubWFlPic=

>  <r_lp_tautomer_probability>  (314) 
1

>  <r_epik_Ionization_Penalty>  (314) 
2.01362e-11

>  <r_epik_Ionization_Penalty_Charging>  (314) 
0

>  <r_epik_Ionization_Penalty_Neutral>  (314) 
2.01362e-11

>  <r_epik_State_Penalty>  (314) 
-0

>  <r_epik_Charging_Adjusted_Penalty>  (314) 
0

>  <i_epik_Tot_Q>  (314) 
0

>  <i_epik_Tot_abs_Q>  (314) 
0

>  <s_lp_Force_Field>  (314) 
OPLS3e

>  <r_lp_Energy>  (314) 
48.6359

>  <b_lp_Chiralities_Consistent>  (314) 
1

>  <s_lp_Variant>  (314) 
90:0-1

>  <s_i_glide_gridfile>  (314) 
pfpi4k_grid

>  <i_i_glide_lignum>  (314) 
7

>  <i_i_glide_rotatable_bonds>  (314) 
1

>  <r_i_docking_score>  (314) 
-2.59272

>  <r_i_glide_ligand_efficiency>  (314) 
-0.0960265

>  <r_i_glide_ligand_efficiency_sa>  (314) 
-0.28808

>  <r_i_glide_ligand_efficiency_ln>  (314) 
-0.603542

>  <r_i_glide_gscore>  (314) 
-2.59272

>  <r_i_glide_lipo>  (314) 
-0.379099

>  <r_i_glide_hbond>  (314) 
0

>  <r_i_glide_metal>  (314) 
-0

>  <r_i_glide_rewards>  (314) 
-0.90998

>  <r_i_glide_evdw>  (314) 
-27.2948

>  <r_i_glide_ecoul>  (314) 
-0.547789

>  <r_i_glide_erotb>  (314) 
0.143273

>  <r_i_glide_esite>  (314) 
0

>  <r_i_glide_emodel>  (314) 
-32.0068

>  <r_i_glide_energy>  (314) 
-27.8426

>  <r_i_glide_einternal>  (314) 
0.508058

>  <r_i_glide_intrahb_reward>  (314) 
-0

>  <i_i_glide_confnum>  (314) 
2

>  <i_i_glide_posenum>  (314) 
2

>  <r_i_glide_eff_state_penalty>  (314) 
0

>  <ligand_id>  (314) 
90

>  <original_smiles>  (314) 
CC1=C2C(CC1c1ccoc1)OC1(C)C3(C)CC4(C)CC(C(C)(C4)C3)C21C

>  <smiles>  (314) 
[H]c1oc([H])c(C2([H])C(C([H])([H])[H])=C3C([H])(OC4(C([H])([H])[H])C3(C([H])([H])[H])C3([H])C([H])([H])C5(C([H])([H])[H])C([H])([H])C3(C([H])([H])[H])C([H])([H])C4(C([H])([H])[H])C5([H])[H])C2([H])[H])c1[H]

$$$$
91:0:0
     RDKit          3D

 55 58  0  0  1  0  0  0  0  0999 V2000
    6.5004   -7.8918    1.7962 C   0  0  0  0  0  0  0  0  0  0  0  0
    6.8431   -6.4270    2.1696 C   0  0  1  0  0  0  0  0  0  0  0  0
    7.6393   -5.8147    0.9805 C   0  0  0  0  0  0  0  0  0  0  0  0
    7.6163   -4.2659    0.9190 C   0  0  0  0  0  0  0  0  0  0  0  0
    6.1991   -3.6519    1.0684 C   0  0  2  0  0  0  0  0  0  0  0  0
    5.5646   -4.1380    2.4089 C   0  0  1  0  0  0  0  0  0  0  0  0
    4.2062   -3.4311    2.6235 C   0  0  0  0  0  0  0  0  0  0  0  0
    3.2528   -3.5843    1.4294 C   0  0  0  0  0  0  0  0  0  0  0  0
    3.8974   -3.0865    0.1175 C   0  0  2  0  0  0  0  0  0  0  0  0
    2.9282   -3.2277   -1.0764 C   0  0  0  0  0  0  0  0  0  0  0  0
    3.5540   -2.7360   -2.3929 C   0  0  1  0  0  0  0  0  0  0  0  0
    3.7418   -1.3326   -2.2857 O   0  0  0  0  0  0  0  0  0  0  0  0
    3.8061   -0.5756   -3.3897 C   0  0  0  0  0  0  0  0  0  0  0  0
    3.8148   -0.9807   -4.5486 O   0  0  0  0  0  0  0  0  0  0  0  0
    4.9021   -3.4241   -2.6715 C   0  0  0  0  0  0  0  0  0  0  0  0
    5.8655   -3.2693   -1.4779 C   0  0  0  0  0  0  0  0  0  0  0  0
    5.2395   -3.8139   -0.1737 C   0  0  1  0  0  0  0  0  0  0  0  0
    4.9232   -5.3092   -0.4554 C   0  0  0  0  0  0  0  0  0  0  0  0
    5.5159   -5.7047    2.5708 C   0  0  2  0  0  0  0  0  0  0  0  0
    5.2389   -6.2056    3.9691 C   0  0  0  0  0  0  0  0  0  0  0  0
    6.6114   -6.3727    4.6016 C   0  0  0  0  0  0  0  0  0  0  0  0
    7.6501   -6.3708    3.4680 C   0  0  1  0  0  0  0  0  0  0  0  0
    8.5796   -7.4302    3.5711 O   0  0  0  0  0  0  0  0  0  0  0  0
    7.4048   -8.4331    1.5218 H   0  0  0  0  0  0  0  0  0  0  0  0
    5.7883   -7.9641    0.9702 H   0  0  0  0  0  0  0  0  0  0  0  0
    6.0779   -8.4109    2.6541 H   0  0  0  0  0  0  0  0  0  0  0  0
    8.6589   -6.1978    0.9245 H   0  0  0  0  0  0  0  0  0  0  0  0
    7.3159   -6.2573    0.0715 H   0  0  0  0  0  0  0  0  0  0  0  0
    8.2465   -3.9189    1.7309 H   0  0  0  0  0  0  0  0  0  0  0  0
    8.1163   -3.9054    0.0181 H   0  0  0  0  0  0  0  0  0  0  0  0
    6.3703   -2.5675    1.1862 H   0  0  0  0  0  0  0  0  0  0  0  0
    6.1660   -3.7918    3.2068 H   0  0  0  0  0  0  0  0  0  0  0  0
    3.7235   -3.7799    3.5330 H   0  0  0  0  0  0  0  0  0  0  0  0
    4.3892   -2.3654    2.7794 H   0  0  0  0  0  0  0  0  0  0  0  0
    2.9426   -4.6262    1.3409 H   0  0  0  0  0  0  0  0  0  0  0  0
    2.3366   -3.0282    1.6217 H   0  0  0  0  0  0  0  0  0  0  0  0
    4.1019   -2.0189    0.2408 H   0  0  0  0  0  0  0  0  0  0  0  0
    2.5877   -4.2519   -1.1875 H   0  0  0  0  0  0  0  0  0  0  0  0
    2.0028   -2.7122   -0.8746 H   0  0  0  0  0  0  0  0  0  0  0  0
    2.8564   -2.9502   -3.2052 H   0  0  0  0  0  0  0  0  0  0  0  0
    3.8876    0.4707   -3.0878 H   0  0  0  0  0  0  0  0  0  0  0  0
    4.7318   -4.4774   -2.8999 H   0  0  0  0  0  0  0  0  0  0  0  0
    5.3628   -3.0383   -3.5715 H   0  0  0  0  0  0  0  0  0  0  0  0
    6.7718   -3.8277   -1.7132 H   0  0  0  0  0  0  0  0  0  0  0  0
    6.1579   -2.2239   -1.3608 H   0  0  0  0  0  0  0  0  0  0  0  0
    4.1874   -5.4641   -1.1888 H   0  0  0  0  0  0  0  0  0  0  0  0
    4.4424   -5.8378    0.3159 H   0  0  0  0  0  0  0  0  0  0  0  0
    5.7173   -5.8537   -0.9183 H   0  0  0  0  0  0  0  0  0  0  0  0
    4.6319   -6.1460    2.1628 H   0  0  0  0  0  0  0  0  0  0  0  0
    4.5219   -5.5867    4.5021 H   0  0  0  0  0  0  0  0  0  0  0  0
    4.7437   -7.1768    3.8551 H   0  0  0  0  0  0  0  0  0  0  0  0
    6.7723   -5.5285    5.2601 H   0  0  0  0  0  0  0  0  0  0  0  0
    6.6238   -7.2997    5.1654 H   0  0  0  0  0  0  0  0  0  0  0  0
    8.2218   -5.4419    3.5056 H   0  0  0  0  0  0  0  0  0  0  0  0
    9.1207   -7.4277    2.7905 H   0  0  0  0  0  0  0  0  0  0  0  0
  2  1  1  6
  1 24  1  0
  1 25  1  0
  1 26  1  0
  2 19  1  0
  2 22  1  0
  2  3  1  0
  3  4  1  0
  3 27  1  0
  3 28  1  0
  4  5  1  0
  4 29  1  0
  4 30  1  0
  5 17  1  0
  5  6  1  0
  5 31  1  1
  6  7  1  0
  6 19  1  0
  6 32  1  1
  7  8  1  0
  7 33  1  0
  7 34  1  0
  8  9  1  0
  8 35  1  0
  8 36  1  0
  9 17  1  0
  9 10  1  0
  9 37  1  1
 10 11  1  0
 10 38  1  0
 10 39  1  0
 11 12  1  0
 11 15  1  0
 11 40  1  6
 12 13  1  0
 13 14  2  0
 13 41  1  0
 15 16  1  0
 15 42  1  0
 15 43  1  0
 16 17  1  0
 16 44  1  0
 16 45  1  0
 17 18  1  6
 18 46  1  0
 18 47  1  0
 18 48  1  0
 19 20  1  0
 19 49  1  6
 20 21  1  0
 20 50  1  0
 20 51  1  0
 21 22  1  0
 21 52  1  0
 21 53  1  0
 22 23  1  0
 22 54  1  6
 23 55  1  0
M  END
>  <i_m_ct_stereo_status>  (315) 
1

>  <s_m_source_file>  (315) 
/var/tmp/pbs.5076255.sched01/tmpbvzcvm50/120d7_yi5_y.sdf

>  <i_m_source_file_index>  (315) 
8

>  <i_lp_mmshare_version>  (315) 
48012

>  <i_f3d_flags>  (315) 
0

>  <s_epik_input>  (315) 
W09IXVtDQEBIXTFbQ0gyXVtDSDJdW0NASF0oW0NAXTEyW0NIM10pW0NASF0zW0NAQEhdKFtDSDJdW0NIMl0yKVtDQEBdNChbQ0gzXSlbQ0BIXShbQ0gyXVtDSDJdMylbQ0gyXVtDQEBIXShPW0NIXT1PKVtDSDJdW0NIMl00

>  <s_epik_cmdline>  (315) 
J2VwaWtfcHl0aG9uJywgJy1waHQnLCAnMi4wJywgJy1waCcsICc3LjAnLCAnLXRuJywgJzgnLCAnLW1hJywgJzIwMCcsICctaW1hZScsICc8aW5maWxlLm1hZT4nLCAnLW9tYWUnLCAnPG91dGZpbGUubWFlPic=

>  <r_lp_tautomer_probability>  (315) 
1

>  <r_epik_Ionization_Penalty>  (315) 
3.07156e-06

>  <r_epik_Ionization_Penalty_Charging>  (315) 
0

>  <r_epik_Ionization_Penalty_Neutral>  (315) 
3.07156e-06

>  <r_epik_State_Penalty>  (315) 
-0

>  <r_epik_Charging_Adjusted_Penalty>  (315) 
0

>  <i_epik_Tot_Q>  (315) 
0

>  <i_epik_Tot_abs_Q>  (315) 
0

>  <s_epik_Chemistry_Notes>  (315) 
This compound has an ester and may undergo hydrolysis at high or low pH.

>  <s_lp_Force_Field>  (315) 
OPLS3e

>  <r_lp_Energy>  (315) 
51.1658

>  <b_lp_Chiralities_Consistent>  (315) 
1

>  <s_lp_Variant>  (315) 
91:0-1

>  <s_i_glide_gridfile>  (315) 
pfpi4k_grid

>  <i_i_glide_lignum>  (315) 
8

>  <i_i_glide_rotatable_bonds>  (315) 
3

>  <r_i_docking_score>  (315) 
-4.08089

>  <r_i_glide_ligand_efficiency>  (315) 
-0.17743

>  <r_i_glide_ligand_efficiency_sa>  (315) 
-0.504588

>  <r_i_glide_ligand_efficiency_ln>  (315) 
-0.986797

>  <r_i_glide_gscore>  (315) 
-4.08089

>  <r_i_glide_lipo>  (315) 
-0.786846

>  <r_i_glide_hbond>  (315) 
-0.243004

>  <r_i_glide_metal>  (315) 
-0

>  <r_i_glide_rewards>  (315) 
-1.50448

>  <r_i_glide_evdw>  (315) 
-22.814

>  <r_i_glide_ecoul>  (315) 
-3.91791

>  <r_i_glide_erotb>  (315) 
0.181825

>  <r_i_glide_esite>  (315) 
0

>  <r_i_glide_emodel>  (315) 
-31.8348

>  <r_i_glide_energy>  (315) 
-26.7319

>  <r_i_glide_einternal>  (315) 
0.44919

>  <r_i_glide_intrahb_reward>  (315) 
-0

>  <i_i_glide_confnum>  (315) 
4

>  <i_i_glide_posenum>  (315) 
25

>  <r_i_glide_eff_state_penalty>  (315) 
0

>  <ligand_id>  (315) 
91

>  <original_smiles>  (315) 
CC12CCC3C(CCC4CC(OC=O)CCC43C)C1CCC2O

>  <smiles>  (315) 
[H]OC1([H])C([H])([H])C([H])([H])C2([H])C3([H])C([H])([H])C([H])([H])C4([H])C([H])([H])C([H])(OC([H])=O)C([H])([H])C([H])([H])C4(C([H])([H])[H])C3([H])C([H])([H])C([H])([H])C12C([H])([H])[H]

$$$$
91:0:1
     RDKit          3D

 55 58  0  0  1  0  0  0  0  0999 V2000
    3.1057   -0.6954   -2.6747 C   0  0  0  0  0  0  0  0  0  0  0  0
    3.9680   -1.9169   -2.3717 C   0  0  1  0  0  0  0  0  0  0  0  0
    5.2601   -1.4012   -1.6814 C   0  0  0  0  0  0  0  0  0  0  0  0
    6.0363   -2.5172   -0.9509 C   0  0  0  0  0  0  0  0  0  0  0  0
    5.1512   -3.3631    0.0171 C   0  0  2  0  0  0  0  0  0  0  0  0
    3.9907   -4.0054   -0.8082 C   0  0  1  0  0  0  0  0  0  0  0  0
    3.1865   -4.9564    0.1142 C   0  0  0  0  0  0  0  0  0  0  0  0
    2.6955   -4.2757    1.4045 C   0  0  0  0  0  0  0  0  0  0  0  0
    3.8532   -3.6470    2.2025 C   0  0  2  0  0  0  0  0  0  0  0  0
    3.3451   -2.9891    3.5044 C   0  0  0  0  0  0  0  0  0  0  0  0
    4.4966   -2.3530    4.3000 C   0  0  1  0  0  0  0  0  0  0  0  0
    5.3263   -3.4014    4.7745 O   0  0  0  0  0  0  0  0  0  0  0  0
    5.8173   -3.3850    6.0152 C   0  0  0  0  0  0  0  0  0  0  0  0
    5.6419   -2.4967    6.8439 O   0  0  0  0  0  0  0  0  0  0  0  0
    5.3323   -1.3806    3.4464 C   0  0  0  0  0  0  0  0  0  0  0  0
    5.8229   -2.0550    2.1518 C   0  0  0  0  0  0  0  0  0  0  0  0
    4.6175   -2.5923    1.3064 C   0  0  1  0  0  0  0  0  0  0  0  0
    3.6968   -1.3541    1.0043 C   0  0  0  0  0  0  0  0  0  0  0  0
    3.1230   -2.9552   -1.5873 C   0  0  2  0  0  0  0  0  0  0  0  0
    2.2167   -3.4884   -2.6562 C   0  0  0  0  0  0  0  0  0  0  0  0
    3.0570   -3.5565   -3.9316 C   0  0  0  0  0  0  0  0  0  0  0  0
    4.2358   -2.6411   -3.7020 C   0  0  1  0  0  0  0  0  0  0  0  0
    4.2807   -1.6564   -4.7202 O   0  0  0  0  0  0  0  0  0  0  0  0
    3.6191    0.1204   -3.1793 H   0  0  0  0  0  0  0  0  0  0  0  0
    2.6836   -0.3431   -1.7693 H   0  0  0  0  0  0  0  0  0  0  0  0
    2.2572   -0.9560   -3.2907 H   0  0  0  0  0  0  0  0  0  0  0  0
    5.8988   -0.9326   -2.4184 H   0  0  0  0  0  0  0  0  0  0  0  0
    5.0501   -0.5872   -1.0516 H   0  0  0  0  0  0  0  0  0  0  0  0
    6.4849   -3.2069   -1.6987 H   0  0  0  0  0  0  0  0  0  0  0  0
    6.9000   -2.1090   -0.4196 H   0  0  0  0  0  0  0  0  0  0  0  0
    5.7979   -4.1977    0.3430 H   0  0  0  0  0  0  0  0  0  0  0  0
    4.4754   -4.6618   -1.5498 H   0  0  0  0  0  0  0  0  0  0  0  0
    2.3379   -5.3925   -0.4113 H   0  0  0  0  0  0  0  0  0  0  0  0
    3.8158   -5.8044    0.3999 H   0  0  0  0  0  0  0  0  0  0  0  0
    1.9493   -3.5181    1.1490 H   0  0  0  0  0  0  0  0  0  0  0  0
    2.1666   -5.0013    2.0209 H   0  0  0  0  0  0  0  0  0  0  0  0
    4.5229   -4.4724    2.4906 H   0  0  0  0  0  0  0  0  0  0  0  0
    2.5895   -2.2337    3.3010 H   0  0  0  0  0  0  0  0  0  0  0  0
    2.7969   -3.7004    4.1108 H   0  0  0  0  0  0  0  0  0  0  0  0
    4.0643   -1.8006    5.1311 H   0  0  0  0  0  0  0  0  0  0  0  0
    6.4181   -4.2819    6.1785 H   0  0  0  0  0  0  0  0  0  0  0  0
    4.7459   -0.4937    3.2176 H   0  0  0  0  0  0  0  0  0  0  0  0
    6.1641   -0.9670    3.9975 H   0  0  0  0  0  0  0  0  0  0  0  0
    6.3654   -1.3144    1.5630 H   0  0  0  0  0  0  0  0  0  0  0  0
    6.5533   -2.8491    2.3820 H   0  0  0  0  0  0  0  0  0  0  0  0
    3.2465   -0.9615    1.9190 H   0  0  0  0  0  0  0  0  0  0  0  0
    2.8590   -1.6436    0.4486 H   0  0  0  0  0  0  0  0  0  0  0  0
    4.3017   -0.5318    0.6546 H   0  0  0  0  0  0  0  0  0  0  0  0
    2.3463   -2.5728   -0.9797 H   0  0  0  0  0  0  0  0  0  0  0  0
    1.7680   -4.4392   -2.3700 H   0  0  0  0  0  0  0  0  0  0  0  0
    1.3511   -2.8510   -2.7951 H   0  0  0  0  0  0  0  0  0  0  0  0
    3.4282   -4.5687   -4.1137 H   0  0  0  0  0  0  0  0  0  0  0  0
    2.4174   -3.2566   -4.7632 H   0  0  0  0  0  0  0  0  0  0  0  0
    5.1622   -3.2124   -3.6355 H   0  0  0  0  0  0  0  0  0  0  0  0
    3.5300   -1.0718   -4.6368 H   0  0  0  0  0  0  0  0  0  0  0  0
  2  1  1  6
  1 24  1  0
  1 25  1  0
  1 26  1  0
  2 19  1  0
  2 22  1  0
  2  3  1  0
  3  4  1  0
  3 27  1  0
  3 28  1  0
  4  5  1  0
  4 29  1  0
  4 30  1  0
  5 17  1  0
  5  6  1  0
  5 31  1  1
  6  7  1  0
  6 19  1  0
  6 32  1  6
  7  8  1  0
  7 33  1  0
  7 34  1  0
  8  9  1  0
  8 35  1  0
  8 36  1  0
  9 17  1  0
  9 10  1  0
  9 37  1  1
 10 11  1  0
 10 38  1  0
 10 39  1  0
 11 12  1  0
 11 15  1  0
 11 40  1  1
 12 13  1  0
 13 14  2  0
 13 41  1  0
 15 16  1  0
 15 42  1  0
 15 43  1  0
 16 17  1  0
 16 44  1  0
 16 45  1  0
 17 18  1  6
 18 46  1  0
 18 47  1  0
 18 48  1  0
 19 20  1  0
 19 49  1  1
 20 21  1  0
 20 50  1  0
 20 51  1  0
 21 22  1  0
 21 52  1  0
 21 53  1  0
 22 23  1  0
 22 54  1  1
 23 55  1  0
M  END
>  <i_m_ct_stereo_status>  (316) 
1

>  <s_m_source_file>  (316) 
/var/tmp/pbs.5076255.sched01/tmpbvzcvm50/120d7_yi5_y.sdf

>  <i_m_source_file_index>  (316) 
8

>  <i_lp_mmshare_version>  (316) 
48012

>  <i_f3d_flags>  (316) 
0

>  <s_epik_input>  (316) 
W09IXVtDQEBIXTFbQ0gyXVtDSDJdW0NASF0oW0NAXTEyW0NIM10pW0NASF0zW0NAQEhdKFtDSDJdW0NIMl0yKVtDQEBdNChbQ0gzXSlbQ0BIXShbQ0gyXVtDSDJdMylbQ0gyXVtDQEBIXShPW0NIXT1PKVtDSDJdW0NIMl00

>  <s_epik_cmdline>  (316) 
J2VwaWtfcHl0aG9uJywgJy1waHQnLCAnMi4wJywgJy1waCcsICc3LjAnLCAnLXRuJywgJzgnLCAnLW1hJywgJzIwMCcsICctaW1hZScsICc8aW5maWxlLm1hZT4nLCAnLW9tYWUnLCAnPG91dGZpbGUubWFlPic=

>  <r_lp_tautomer_probability>  (316) 
1

>  <r_epik_Ionization_Penalty>  (316) 
3.07156e-06

>  <r_epik_Ionization_Penalty_Charging>  (316) 
0

>  <r_epik_Ionization_Penalty_Neutral>  (316) 
3.07156e-06

>  <r_epik_State_Penalty>  (316) 
-0

>  <r_epik_Charging_Adjusted_Penalty>  (316) 
0

>  <i_epik_Tot_Q>  (316) 
0

>  <i_epik_Tot_abs_Q>  (316) 
0

>  <s_epik_Chemistry_Notes>  (316) 
This compound has an ester and may undergo hydrolysis at high or low pH.

>  <s_lp_Force_Field>  (316) 
OPLS3e

>  <r_lp_Energy>  (316) 
51.1658

>  <b_lp_Chiralities_Consistent>  (316) 
1

>  <s_lp_Variant>  (316) 
91:0-1

>  <s_i_glide_gridfile>  (316) 
pfpi4k_grid

>  <i_i_glide_lignum>  (316) 
8

>  <i_i_glide_rotatable_bonds>  (316) 
3

>  <r_i_docking_score>  (316) 
-3.17137

>  <r_i_glide_ligand_efficiency>  (316) 
-0.137885

>  <r_i_glide_ligand_efficiency_sa>  (316) 
-0.392128

>  <r_i_glide_ligand_efficiency_ln>  (316) 
-0.766865

>  <r_i_glide_gscore>  (316) 
-3.17137

>  <r_i_glide_lipo>  (316) 
-0.669939

>  <r_i_glide_hbond>  (316) 
-0.32

>  <r_i_glide_metal>  (316) 
-0

>  <r_i_glide_rewards>  (316) 
-1.24801

>  <r_i_glide_evdw>  (316) 
-3.23643

>  <r_i_glide_ecoul>  (316) 
-6.84717

>  <r_i_glide_erotb>  (316) 
0.181825

>  <r_i_glide_esite>  (316) 
0

>  <r_i_glide_emodel>  (316) 
-11.7701

>  <r_i_glide_energy>  (316) 
-10.0836

>  <r_i_glide_einternal>  (316) 
0.175968

>  <r_i_glide_intrahb_reward>  (316) 
-0

>  <i_i_glide_confnum>  (316) 
4

>  <i_i_glide_posenum>  (316) 
12

>  <r_i_glide_eff_state_penalty>  (316) 
0

>  <ligand_id>  (316) 
91

>  <original_smiles>  (316) 
CC12CCC3C(CCC4CC(OC=O)CCC43C)C1CCC2O

>  <smiles>  (316) 
[H]OC1([H])C([H])([H])C([H])([H])C2([H])C3([H])C([H])([H])C([H])([H])C4([H])C([H])([H])C([H])(OC([H])=O)C([H])([H])C([H])([H])C4(C([H])([H])[H])C3([H])C([H])([H])C([H])([H])C12C([H])([H])[H]

$$$$
91:0:2
     RDKit          3D

 55 58  0  0  1  0  0  0  0  0999 V2000
    5.1173   -7.7784    1.8166 C   0  0  0  0  0  0  0  0  0  0  0  0
    5.1046   -6.3298    2.3483 C   0  0  1  0  0  0  0  0  0  0  0  0
    6.3861   -5.6271    1.8042 C   0  0  0  0  0  0  0  0  0  0  0  0
    6.2723   -4.0895    1.8135 C   0  0  0  0  0  0  0  0  0  0  0  0
    4.9810   -3.5123    1.1908 C   0  0  2  0  0  0  0  0  0  0  0  0
    3.7643   -4.1181    1.9626 C   0  0  1  0  0  0  0  0  0  0  0  0
    2.4821   -3.4610    1.4239 C   0  0  0  0  0  0  0  0  0  0  0  0
    2.3436   -3.5719   -0.1094 C   0  0  0  0  0  0  0  0  0  0  0  0
    3.5456   -2.9575   -0.8376 C   0  0  2  0  0  0  0  0  0  0  0  0
    3.3677   -3.0330   -2.3709 C   0  0  0  0  0  0  0  0  0  0  0  0
    4.5770   -2.4447   -3.1101 C   0  0  1  0  0  0  0  0  0  0  0  0
    4.5863   -1.0589   -2.8516 O   0  0  0  0  0  0  0  0  0  0  0  0
    3.8369   -0.2284   -3.5417 C   0  0  0  0  0  0  0  0  0  0  0  0
    3.0734   -0.5512   -4.4673 O   0  0  0  0  0  0  0  0  0  0  0  0
    5.9018   -3.0690   -2.6309 C   0  0  0  0  0  0  0  0  0  0  0  0
    6.0655   -2.9655   -1.1029 C   0  0  0  0  0  0  0  0  0  0  0  0
    4.8687   -3.6708   -0.3760 C   0  0  1  0  0  0  0  0  0  0  0  0
    4.8752   -5.1431   -0.8407 C   0  0  0  0  0  0  0  0  0  0  0  0
    3.7305   -5.6849    1.9917 C   0  0  2  0  0  0  0  0  0  0  0  0
    2.7697   -6.2764    2.9957 C   0  0  0  0  0  0  0  0  0  0  0  0
    3.5792   -6.4435    4.2908 C   0  0  0  0  0  0  0  0  0  0  0  0
    5.0632   -6.3255    3.9105 C   0  0  1  0  0  0  0  0  0  0  0  0
    5.8210   -7.3879    4.4543 O   0  0  0  0  0  0  0  0  0  0  0  0
    6.0645   -8.2724    2.0467 H   0  0  0  0  0  0  0  0  0  0  0  0
    4.9788   -7.8136    0.7346 H   0  0  0  0  0  0  0  0  0  0  0  0
    4.3318   -8.3807    2.2713 H   0  0  0  0  0  0  0  0  0  0  0  0
    7.2768   -5.9352    2.3641 H   0  0  0  0  0  0  0  0  0  0  0  0
    6.6395   -5.9916    0.8510 H   0  0  0  0  0  0  0  0  0  0  0  0
    6.2498   -3.7518    2.8647 H   0  0  0  0  0  0  0  0  0  0  0  0
    7.1612   -3.6263    1.3735 H   0  0  0  0  0  0  0  0  0  0  0  0
    4.9916   -2.4328    1.4287 H   0  0  0  0  0  0  0  0  0  0  0  0
    3.8511   -3.7767    3.0080 H   0  0  0  0  0  0  0  0  0  0  0  0
    1.6138   -3.8892    1.9187 H   0  0  0  0  0  0  0  0  0  0  0  0
    2.4627   -2.4008    1.6877 H   0  0  0  0  0  0  0  0  0  0  0  0
    2.1848   -4.6151   -0.3966 H   0  0  0  0  0  0  0  0  0  0  0  0
    1.4468   -3.0553   -0.4389 H   0  0  0  0  0  0  0  0  0  0  0  0
    3.5689   -1.8894   -0.5725 H   0  0  0  0  0  0  0  0  0  0  0  0
    3.2356   -4.0475   -2.6977 H   0  0  0  0  0  0  0  0  0  0  0  0
    2.4310   -2.5758   -2.6831 H   0  0  0  0  0  0  0  0  0  0  0  0
    4.4777   -2.6379   -4.1792 H   0  0  0  0  0  0  0  0  0  0  0  0
    3.9385    0.7758   -3.1559 H   0  0  0  0  0  0  0  0  0  0  0  0
    5.9446   -4.1059   -2.9563 H   0  0  0  0  0  0  0  0  0  0  0  0
    6.7631   -2.6593   -3.1248 H   0  0  0  0  0  0  0  0  0  0  0  0
    6.9888   -3.4740   -0.8254 H   0  0  0  0  0  0  0  0  0  0  0  0
    6.1802   -1.9120   -0.7983 H   0  0  0  0  0  0  0  0  0  0  0  0
    4.6526   -5.2102   -1.9002 H   0  0  0  0  0  0  0  0  0  0  0  0
    4.0811   -5.7054   -0.4533 H   0  0  0  0  0  0  0  0  0  0  0  0
    5.8395   -5.5710   -0.7850 H   0  0  0  0  0  0  0  0  0  0  0  0
    3.2643   -6.0968    1.1272 H   0  0  0  0  0  0  0  0  0  0  0  0
    1.8323   -5.7205    3.1020 H   0  0  0  0  0  0  0  0  0  0  0  0
    2.4737   -7.2607    2.6237 H   0  0  0  0  0  0  0  0  0  0  0  0
    3.3048   -5.6352    4.9666 H   0  0  0  0  0  0  0  0  0  0  0  0
    3.3433   -7.4127    4.7374 H   0  0  0  0  0  0  0  0  0  0  0  0
    5.4626   -5.3824    4.2804 H   0  0  0  0  0  0  0  0  0  0  0  0
    5.5245   -8.1739    4.0148 H   0  0  0  0  0  0  0  0  0  0  0  0
  2  1  1  6
  1 24  1  0
  1 25  1  0
  1 26  1  0
  2 19  1  0
  2 22  1  0
  2  3  1  0
  3  4  1  0
  3 27  1  0
  3 28  1  0
  4  5  1  0
  4 29  1  0
  4 30  1  0
  5 17  1  0
  5  6  1  0
  5 31  1  6
  6  7  1  0
  6 19  1  0
  6 32  1  1
  7  8  1  0
  7 33  1  0
  7 34  1  0
  8  9  1  0
  8 35  1  0
  8 36  1  0
  9 17  1  0
  9 10  1  0
  9 37  1  1
 10 11  1  0
 10 38  1  0
 10 39  1  0
 11 12  1  0
 11 15  1  0
 11 40  1  6
 12 13  1  0
 13 14  2  0
 13 41  1  0
 15 16  1  0
 15 42  1  0
 15 43  1  0
 16 17  1  0
 16 44  1  0
 16 45  1  0
 17 18  1  1
 18 46  1  0
 18 47  1  0
 18 48  1  0
 19 20  1  0
 19 49  1  6
 20 21  1  0
 20 50  1  0
 20 51  1  0
 21 22  1  0
 21 52  1  0
 21 53  1  0
 22 23  1  0
 22 54  1  1
 23 55  1  0
M  END
>  <i_m_ct_stereo_status>  (317) 
1

>  <s_m_source_file>  (317) 
/var/tmp/pbs.5076255.sched01/tmpbvzcvm50/120d7_yi5_y.sdf

>  <i_m_source_file_index>  (317) 
8

>  <i_lp_mmshare_version>  (317) 
48012

>  <i_f3d_flags>  (317) 
0

>  <s_epik_input>  (317) 
W09IXVtDQEBIXTFbQ0gyXVtDSDJdW0NASF0oW0NAXTEyW0NIM10pW0NASF0zW0NAQEhdKFtDSDJdW0NIMl0yKVtDQEBdNChbQ0gzXSlbQ0BIXShbQ0gyXVtDSDJdMylbQ0gyXVtDQEBIXShPW0NIXT1PKVtDSDJdW0NIMl00

>  <s_epik_cmdline>  (317) 
J2VwaWtfcHl0aG9uJywgJy1waHQnLCAnMi4wJywgJy1waCcsICc3LjAnLCAnLXRuJywgJzgnLCAnLW1hJywgJzIwMCcsICctaW1hZScsICc8aW5maWxlLm1hZT4nLCAnLW9tYWUnLCAnPG91dGZpbGUubWFlPic=

>  <r_lp_tautomer_probability>  (317) 
1

>  <r_epik_Ionization_Penalty>  (317) 
3.07156e-06

>  <r_epik_Ionization_Penalty_Charging>  (317) 
0

>  <r_epik_Ionization_Penalty_Neutral>  (317) 
3.07156e-06

>  <r_epik_State_Penalty>  (317) 
-0

>  <r_epik_Charging_Adjusted_Penalty>  (317) 
0

>  <i_epik_Tot_Q>  (317) 
0

>  <i_epik_Tot_abs_Q>  (317) 
0

>  <s_epik_Chemistry_Notes>  (317) 
This compound has an ester and may undergo hydrolysis at high or low pH.

>  <s_lp_Force_Field>  (317) 
OPLS3e

>  <r_lp_Energy>  (317) 
51.1658

>  <b_lp_Chiralities_Consistent>  (317) 
1

>  <s_lp_Variant>  (317) 
91:0-1

>  <s_i_glide_gridfile>  (317) 
pfpi4k_grid

>  <i_i_glide_lignum>  (317) 
8

>  <i_i_glide_rotatable_bonds>  (317) 
3

>  <r_i_docking_score>  (317) 
-2.83623

>  <r_i_glide_ligand_efficiency>  (317) 
-0.123315

>  <r_i_glide_ligand_efficiency_sa>  (317) 
-0.35069

>  <r_i_glide_ligand_efficiency_ln>  (317) 
-0.685827

>  <r_i_glide_gscore>  (317) 
-2.83623

>  <r_i_glide_lipo>  (317) 
-0.624351

>  <r_i_glide_hbond>  (317) 
0

>  <r_i_glide_metal>  (317) 
-0

>  <r_i_glide_rewards>  (317) 
-1.48001

>  <r_i_glide_evdw>  (317) 
-16.0538

>  <r_i_glide_ecoul>  (317) 
-0.740037

>  <r_i_glide_erotb>  (317) 
0.181825

>  <r_i_glide_esite>  (317) 
0

>  <r_i_glide_emodel>  (317) 
-19.2896

>  <r_i_glide_energy>  (317) 
-16.7939

>  <r_i_glide_einternal>  (317) 
0.246244

>  <r_i_glide_intrahb_reward>  (317) 
-0

>  <i_i_glide_confnum>  (317) 
4

>  <i_i_glide_posenum>  (317) 
1

>  <r_i_glide_eff_state_penalty>  (317) 
0

>  <ligand_id>  (317) 
91

>  <original_smiles>  (317) 
CC12CCC3C(CCC4CC(OC=O)CCC43C)C1CCC2O

>  <smiles>  (317) 
[H]OC1([H])C([H])([H])C([H])([H])C2([H])C3([H])C([H])([H])C([H])([H])C4([H])C([H])([H])C([H])(OC([H])=O)C([H])([H])C([H])([H])C4(C([H])([H])[H])C3([H])C([H])([H])C([H])([H])C12C([H])([H])[H]

$$$$
92:0:0
     RDKit          3D

 23 25  0  0  1  0  0  0  0  0999 V2000
    6.9261   -6.1018    2.2491 C   0  0  0  0  0  0  0  0  0  0  0  0
    6.2001   -5.2892    1.2912 N   0  0  0  0  0  0  0  0  0  0  0  0
    4.8713   -5.2780    1.0626 C   0  0  0  0  0  0  0  0  0  0  0  0
    4.4109   -4.4356    0.1386 N   0  0  0  0  0  0  0  0  0  0  0  0
    5.5808   -3.8356   -0.2916 C   0  0  0  0  0  0  0  0  0  0  0  0
    5.8571   -2.8544   -1.2758 C   0  0  0  0  0  0  0  0  0  0  0  0
    4.8265   -2.2493   -2.1062 C   0  0  0  0  0  0  0  0  0  0  0  0
    4.7621   -2.3673   -3.4361 N   0  0  0  0  0  0  0  0  0  0  0  0
    3.6613   -1.6105   -3.8313 C   0  0  0  0  0  0  0  0  0  0  0  0
    3.0848   -1.0459   -2.7239 C   0  0  0  0  0  0  0  0  0  0  0  0
    3.8357   -1.4767   -1.6469 N   0  0  0  0  0  0  0  0  0  0  0  0
    7.1462   -2.4831   -1.4735 N   0  0  0  0  0  0  0  0  0  0  0  0
    8.1149   -3.0566   -0.7454 C   0  0  0  0  0  0  0  0  0  0  0  0
    8.0121   -3.9816    0.2112 N   0  0  0  0  0  0  0  0  0  0  0  0
    6.7133   -4.3494    0.4060 C   0  0  0  0  0  0  0  0  0  0  0  0
    3.6686   -1.2353   -0.6806 H   0  0  0  0  0  0  0  0  0  0  0  0
    6.2362   -6.7363    2.8036 H   0  0  0  0  0  0  0  0  0  0  0  0
    7.4549   -5.4595    2.9527 H   0  0  0  0  0  0  0  0  0  0  0  0
    7.6485   -6.7312    1.7296 H   0  0  0  0  0  0  0  0  0  0  0  0
    4.2021   -5.9181    1.6155 H   0  0  0  0  0  0  0  0  0  0  0  0
    3.3713   -1.5198   -4.8678 H   0  0  0  0  0  0  0  0  0  0  0  0
    2.2313   -0.3925   -2.6072 H   0  0  0  0  0  0  0  0  0  0  0  0
    9.1148   -2.7038   -0.9452 H   0  0  0  0  0  0  0  0  0  0  0  0
  1  2  1  0
  1 17  1  0
  1 18  1  0
  1 19  1  0
  2 15  1  0
  2  3  1  0
  3  4  2  0
  3 20  1  0
  4  5  1  0
  5 15  2  0
  5  6  1  0
  6  7  1  0
  6 12  2  0
  7 11  1  0
  7  8  2  0
  8  9  1  0
  9 10  2  0
  9 21  1  0
 10 11  1  0
 10 22  1  0
 11 16  1  0
 12 13  1  0
 13 14  2  0
 13 23  1  0
 14 15  1  0
M  END
>  <i_m_ct_stereo_status>  (318) 
1

>  <s_m_source_file>  (318) 
/var/tmp/pbs.5076255.sched01/tmpbvzcvm50/120d7_yi5_y.sdf

>  <i_m_source_file_index>  (318) 
9

>  <i_lp_mmshare_version>  (318) 
48012

>  <i_f3d_flags>  (318) 
0

>  <s_epik_input>  (318) 
bjFbY0hdbihbQ0gzXSljKGMxMiluW2NIXW5jMi1jM25bY0hdW2NIXVtuSF0z

>  <s_epik_cmdline>  (318) 
J2VwaWtfcHl0aG9uJywgJy1waHQnLCAnMi4wJywgJy1waCcsICc3LjAnLCAnLXRuJywgJzgnLCAnLW1hJywgJzIwMCcsICctaW1hZScsICc8aW5maWxlLm1hZT4nLCAnLW9tYWUnLCAnPG91dGZpbGUubWFlPic=

>  <r_lp_tautomer_probability>  (318) 
0.5

>  <r_epik_Ionization_Penalty>  (318) 
0.00224565

>  <r_epik_Ionization_Penalty_Charging>  (318) 
0.00220308

>  <r_epik_Ionization_Penalty_Neutral>  (318) 
4.2565e-05

>  <r_epik_State_Penalty>  (318) 
0.0015148

>  <r_epik_Charging_Adjusted_Penalty>  (318) 
0.00371788

>  <i_epik_Tot_Q>  (318) 
0

>  <i_epik_Tot_abs_Q>  (318) 
0

>  <s_lp_Force_Field>  (318) 
OPLS3e

>  <r_lp_Energy>  (318) 
20.9582

>  <b_lp_Chiralities_Consistent>  (318) 
1

>  <s_lp_Variant>  (318) 
92:0-1

>  <s_i_glide_gridfile>  (318) 
pfpi4k_grid

>  <i_i_glide_lignum>  (318) 
9

>  <i_i_glide_rotatable_bonds>  (318) 
1

>  <r_i_docking_score>  (318) 
-4.16915

>  <r_i_glide_ligand_efficiency>  (318) 
-0.277943

>  <r_i_glide_ligand_efficiency_sa>  (318) 
-0.685467

>  <r_i_glide_ligand_efficiency_ln>  (318) 
-1.12435

>  <r_i_glide_gscore>  (318) 
-4.16915

>  <r_i_glide_lipo>  (318) 
-0.23172

>  <r_i_glide_hbond>  (318) 
-0.16

>  <r_i_glide_metal>  (318) 
-0

>  <r_i_glide_rewards>  (318) 
-2.49894

>  <r_i_glide_evdw>  (318) 
-21.7123

>  <r_i_glide_ecoul>  (318) 
-3.55891

>  <r_i_glide_erotb>  (318) 
0.407654

>  <r_i_glide_esite>  (318) 
-0.066689

>  <r_i_glide_emodel>  (318) 
-30.0222

>  <r_i_glide_energy>  (318) 
-25.2712

>  <r_i_glide_einternal>  (318) 
5.84903

>  <r_i_glide_intrahb_reward>  (318) 
-0

>  <i_i_glide_confnum>  (318) 
2

>  <i_i_glide_posenum>  (318) 
32

>  <r_i_glide_eff_state_penalty>  (318) 
0

>  <ligand_id>  (318) 
92

>  <original_smiles>  (318) 
Cn1cnc2c(-c3ncc[nH]3)ncnc21

>  <smiles>  (318) 
[H]c1nc(-c2nc([H])c([H])n2[H])c2nc([H])n(C([H])([H])[H])c2n1

$$$$
92:0:1
     RDKit          3D

 23 25  0  0  1  0  0  0  0  0999 V2000
    5.2257   -4.9575   -0.0279 C   0  0  0  0  0  0  0  0  0  0  0  0
    3.9835   -5.4706    0.4999 N   0  0  0  0  0  0  0  0  0  0  0  0
    2.8444   -4.7856    0.6946 C   0  0  0  0  0  0  0  0  0  0  0  0
    1.8061   -5.4571    1.1812 N   0  0  0  0  0  0  0  0  0  0  0  0
    2.3293   -6.7309    1.3210 C   0  0  0  0  0  0  0  0  0  0  0  0
    1.7795   -7.9566    1.7789 C   0  0  0  0  0  0  0  0  0  0  0  0
    0.3960   -8.0994    2.2498 C   0  0  0  0  0  0  0  0  0  0  0  0
   -0.4794   -7.0967    2.4220 N   0  0  0  0  0  0  0  0  0  0  0  0
   -1.6511   -7.6915    2.8891 C   0  0  0  0  0  0  0  0  0  0  0  0
   -1.4820   -9.0500    2.9548 C   0  0  0  0  0  0  0  0  0  0  0  0
   -0.1727   -9.2720    2.5638 N   0  0  0  0  0  0  0  0  0  0  0  0
    2.5782   -9.0556    1.7480 N   0  0  0  0  0  0  0  0  0  0  0  0
    3.8426   -8.9516    1.3178 C   0  0  0  0  0  0  0  0  0  0  0  0
    4.4967   -7.8703    0.8814 N   0  0  0  0  0  0  0  0  0  0  0  0
    3.6909   -6.7699    0.8957 C   0  0  0  0  0  0  0  0  0  0  0  0
    0.2885  -10.1695    2.4948 H   0  0  0  0  0  0  0  0  0  0  0  0
    5.1382   -3.8941   -0.2435 H   0  0  0  0  0  0  0  0  0  0  0  0
    5.4431   -5.4819   -0.9540 H   0  0  0  0  0  0  0  0  0  0  0  0
    6.0228   -5.1158    0.6981 H   0  0  0  0  0  0  0  0  0  0  0  0
    2.7684   -3.7341    0.4720 H   0  0  0  0  0  0  0  0  0  0  0  0
   -2.5180   -7.0981    3.1424 H   0  0  0  0  0  0  0  0  0  0  0  0
   -2.1466   -9.8430    3.2722 H   0  0  0  0  0  0  0  0  0  0  0  0
    4.4158   -9.8655    1.3426 H   0  0  0  0  0  0  0  0  0  0  0  0
  1  2  1  0
  1 17  1  0
  1 18  1  0
  1 19  1  0
  2 15  1  0
  2  3  1  0
  3  4  2  0
  3 20  1  0
  4  5  1  0
  5 15  2  0
  5  6  1  0
  6  7  1  0
  6 12  2  0
  7 11  1  0
  7  8  2  0
  8  9  1  0
  9 10  2  0
  9 21  1  0
 10 11  1  0
 10 22  1  0
 11 16  1  0
 12 13  1  0
 13 14  2  0
 13 23  1  0
 14 15  1  0
M  END
>  <i_m_ct_stereo_status>  (319) 
1

>  <s_m_source_file>  (319) 
/var/tmp/pbs.5076255.sched01/tmpbvzcvm50/120d7_yi5_y.sdf

>  <i_m_source_file_index>  (319) 
9

>  <i_lp_mmshare_version>  (319) 
48012

>  <i_f3d_flags>  (319) 
0

>  <s_epik_input>  (319) 
bjFbY0hdbihbQ0gzXSljKGMxMiluW2NIXW5jMi1jM25bY0hdW2NIXVtuSF0z

>  <s_epik_cmdline>  (319) 
J2VwaWtfcHl0aG9uJywgJy1waHQnLCAnMi4wJywgJy1waCcsICc3LjAnLCAnLXRuJywgJzgnLCAnLW1hJywgJzIwMCcsICctaW1hZScsICc8aW5maWxlLm1hZT4nLCAnLW9tYWUnLCAnPG91dGZpbGUubWFlPic=

>  <r_lp_tautomer_probability>  (319) 
0.5

>  <r_epik_Ionization_Penalty>  (319) 
0.00224565

>  <r_epik_Ionization_Penalty_Charging>  (319) 
0.00220308

>  <r_epik_Ionization_Penalty_Neutral>  (319) 
4.2565e-05

>  <r_epik_State_Penalty>  (319) 
0.0015148

>  <r_epik_Charging_Adjusted_Penalty>  (319) 
0.00371788

>  <i_epik_Tot_Q>  (319) 
0

>  <i_epik_Tot_abs_Q>  (319) 
0

>  <s_lp_Force_Field>  (319) 
OPLS3e

>  <r_lp_Energy>  (319) 
20.9582

>  <b_lp_Chiralities_Consistent>  (319) 
1

>  <s_lp_Variant>  (319) 
92:0-1

>  <s_i_glide_gridfile>  (319) 
pfpi4k_grid

>  <i_i_glide_lignum>  (319) 
9

>  <i_i_glide_rotatable_bonds>  (319) 
1

>  <r_i_docking_score>  (319) 
-3.95324

>  <r_i_glide_ligand_efficiency>  (319) 
-0.263549

>  <r_i_glide_ligand_efficiency_sa>  (319) 
-0.649969

>  <r_i_glide_ligand_efficiency_ln>  (319) 
-1.06612

>  <r_i_glide_gscore>  (319) 
-3.95324

>  <r_i_glide_lipo>  (319) 
-0.0397772

>  <r_i_glide_hbond>  (319) 
-0.200331

>  <r_i_glide_metal>  (319) 
-0

>  <r_i_glide_rewards>  (319) 
-2.19864

>  <r_i_glide_evdw>  (319) 
-20.6256

>  <r_i_glide_ecoul>  (319) 
-5.03091

>  <r_i_glide_erotb>  (319) 
0.407654

>  <r_i_glide_esite>  (319) 
-0.136227

>  <r_i_glide_emodel>  (319) 
-33.0224

>  <r_i_glide_energy>  (319) 
-25.6565

>  <r_i_glide_einternal>  (319) 
0.141794

>  <r_i_glide_intrahb_reward>  (319) 
-0

>  <i_i_glide_confnum>  (319) 
1

>  <i_i_glide_posenum>  (319) 
30

>  <r_i_glide_eff_state_penalty>  (319) 
0

>  <ligand_id>  (319) 
92

>  <original_smiles>  (319) 
Cn1cnc2c(-c3ncc[nH]3)ncnc21

>  <smiles>  (319) 
[H]c1nc(-c2nc([H])c([H])n2[H])c2nc([H])n(C([H])([H])[H])c2n1

$$$$
92:0:2
     RDKit          3D

 23 25  0  0  1  0  0  0  0  0999 V2000
    6.3390   -9.3279    1.5974 C   0  0  0  0  0  0  0  0  0  0  0  0
    4.9199   -9.2385    1.8828 N   0  0  0  0  0  0  0  0  0  0  0  0
    4.1367  -10.1616    2.4808 C   0  0  0  0  0  0  0  0  0  0  0  0
    2.8453   -9.8711    2.6314 N   0  0  0  0  0  0  0  0  0  0  0  0
    2.7790   -8.6152    2.0576 C   0  0  0  0  0  0  0  0  0  0  0  0
    1.7194   -7.6938    1.8685 C   0  0  0  0  0  0  0  0  0  0  0  0
    0.3418   -7.9558    2.2739 C   0  0  0  0  0  0  0  0  0  0  0  0
   -0.5600   -7.0003    2.5065 N   0  0  0  0  0  0  0  0  0  0  0  0
   -1.7105   -7.6663    2.9153 C   0  0  0  0  0  0  0  0  0  0  0  0
   -1.5031   -9.0225    2.8804 C   0  0  0  0  0  0  0  0  0  0  0  0
   -0.1839   -9.1699    2.4897 N   0  0  0  0  0  0  0  0  0  0  0  0
    2.0013   -6.5049    1.2775 N   0  0  0  0  0  0  0  0  0  0  0  0
    3.2518   -6.2408    0.8829 C   0  0  0  0  0  0  0  0  0  0  0  0
    4.3405   -7.0088    0.9797 N   0  0  0  0  0  0  0  0  0  0  0  0
    4.0567   -8.1952    1.5877 C   0  0  0  0  0  0  0  0  0  0  0  0
    0.3193  -10.0383    2.3643 H   0  0  0  0  0  0  0  0  0  0  0  0
    6.7317  -10.2822    1.9404 H   0  0  0  0  0  0  0  0  0  0  0  0
    6.8686   -8.5234    2.1064 H   0  0  0  0  0  0  0  0  0  0  0  0
    6.5091   -9.2474    0.5241 H   0  0  0  0  0  0  0  0  0  0  0  0
    4.5343  -11.1084    2.7994 H   0  0  0  0  0  0  0  0  0  0  0  0
   -2.5834   -7.1119    3.1988 H   0  0  0  0  0  0  0  0  0  0  0  0
   -2.1532   -9.8533    3.1152 H   0  0  0  0  0  0  0  0  0  0  0  0
    3.3922   -5.2782    0.4126 H   0  0  0  0  0  0  0  0  0  0  0  0
  1  2  1  0
  1 17  1  0
  1 18  1  0
  1 19  1  0
  2 15  1  0
  2  3  1  0
  3  4  2  0
  3 20  1  0
  4  5  1  0
  5 15  2  0
  5  6  1  0
  6  7  1  0
  6 12  2  0
  7 11  1  0
  7  8  2  0
  8  9  1  0
  9 10  2  0
  9 21  1  0
 10 11  1  0
 10 22  1  0
 11 16  1  0
 12 13  1  0
 13 14  2  0
 13 23  1  0
 14 15  1  0
M  END
>  <i_m_ct_stereo_status>  (320) 
1

>  <s_m_source_file>  (320) 
/var/tmp/pbs.5076255.sched01/tmpbvzcvm50/120d7_yi5_y.sdf

>  <i_m_source_file_index>  (320) 
9

>  <i_lp_mmshare_version>  (320) 
48012

>  <i_f3d_flags>  (320) 
0

>  <s_epik_input>  (320) 
bjFbY0hdbihbQ0gzXSljKGMxMiluW2NIXW5jMi1jM25bY0hdW2NIXVtuSF0z

>  <s_epik_cmdline>  (320) 
J2VwaWtfcHl0aG9uJywgJy1waHQnLCAnMi4wJywgJy1waCcsICc3LjAnLCAnLXRuJywgJzgnLCAnLW1hJywgJzIwMCcsICctaW1hZScsICc8aW5maWxlLm1hZT4nLCAnLW9tYWUnLCAnPG91dGZpbGUubWFlPic=

>  <r_lp_tautomer_probability>  (320) 
0.5

>  <r_epik_Ionization_Penalty>  (320) 
0.00224565

>  <r_epik_Ionization_Penalty_Charging>  (320) 
0.00220308

>  <r_epik_Ionization_Penalty_Neutral>  (320) 
4.2565e-05

>  <r_epik_State_Penalty>  (320) 
0.0015148

>  <r_epik_Charging_Adjusted_Penalty>  (320) 
0.00371788

>  <i_epik_Tot_Q>  (320) 
0

>  <i_epik_Tot_abs_Q>  (320) 
0

>  <s_lp_Force_Field>  (320) 
OPLS3e

>  <r_lp_Energy>  (320) 
20.9582

>  <b_lp_Chiralities_Consistent>  (320) 
1

>  <s_lp_Variant>  (320) 
92:0-1

>  <s_i_glide_gridfile>  (320) 
pfpi4k_grid

>  <i_i_glide_lignum>  (320) 
9

>  <i_i_glide_rotatable_bonds>  (320) 
1

>  <r_i_docking_score>  (320) 
-3.7616

>  <r_i_glide_ligand_efficiency>  (320) 
-0.250773

>  <r_i_glide_ligand_efficiency_sa>  (320) 
-0.61846

>  <r_i_glide_ligand_efficiency_ln>  (320) 
-1.01444

>  <r_i_glide_gscore>  (320) 
-3.7616

>  <r_i_glide_lipo>  (320) 
-0.0717722

>  <r_i_glide_hbond>  (320) 
-0.16

>  <r_i_glide_metal>  (320) 
-0

>  <r_i_glide_rewards>  (320) 
-2.0551

>  <r_i_glide_evdw>  (320) 
-21.2249

>  <r_i_glide_ecoul>  (320) 
-4.24415

>  <r_i_glide_erotb>  (320) 
0.407654

>  <r_i_glide_esite>  (320) 
-0.184516

>  <r_i_glide_emodel>  (320) 
-31.1832

>  <r_i_glide_energy>  (320) 
-25.469

>  <r_i_glide_einternal>  (320) 
2.72759

>  <r_i_glide_intrahb_reward>  (320) 
-0

>  <i_i_glide_confnum>  (320) 
2

>  <i_i_glide_posenum>  (320) 
16

>  <r_i_glide_eff_state_penalty>  (320) 
0

>  <ligand_id>  (320) 
92

>  <original_smiles>  (320) 
Cn1cnc2c(-c3ncc[nH]3)ncnc21

>  <smiles>  (320) 
[H]c1nc(-c2nc([H])c([H])n2[H])c2nc([H])n(C([H])([H])[H])c2n1

$$$$
93:1:0
     RDKit          3D

 87 91  0  0  1  0  0  0  0  0999 V2000
    7.0956   -7.3743    2.2258 C   0  0  0  0  0  0  0  0  0  0  0  0
    6.6784   -7.2151    3.7094 C   0  0  2  0  0  0  0  0  0  0  0  0
    5.6230   -8.2647    4.1957 C   0  0  0  0  0  0  0  0  0  0  0  0
    4.2391   -8.3887    3.4755 C   0  0  0  0  0  0  0  0  0  0  0  0
    3.6263   -7.0385    3.0727 C   0  0  1  0  0  0  0  0  0  0  0  0
    2.7898   -6.9645    1.7918 C   0  0  0  0  0  0  0  0  0  0  0  0
    1.5107   -7.3777    1.6897 C   0  0  0  0  0  0  0  0  0  0  0  0
    0.5724   -7.8047    2.8060 C   0  0  0  0  0  0  0  0  0  0  0  0
   -0.8464   -7.3722    2.4042 C   0  0  0  0  0  0  0  0  0  0  0  0
    0.5645   -9.3357    2.9195 C   0  0  0  0  0  0  0  0  0  0  0  0
    0.9185   -7.1446    4.1637 C   0  0  0  0  0  0  0  0  0  0  0  0
    1.7044   -5.8029    4.1159 C   0  0  0  0  0  0  0  0  0  0  0  0
    3.2610   -5.9831    4.1604 C   0  0  1  0  0  0  0  0  0  0  0  0
    3.5460   -6.4410    5.6215 C   0  0  0  0  0  0  0  0  0  0  0  0
    4.0874   -4.6795    3.9036 C   0  0  1  0  0  0  0  0  0  0  0  0
    3.4049   -3.5254    4.6372 C   0  0  0  0  0  0  0  0  0  0  0  0
    5.6336   -4.6337    3.9809 C   0  0  1  0  0  0  0  0  0  0  0  0
    6.6947   -5.7465    4.2865 C   0  0  1  0  0  0  0  0  0  0  0  0
    7.1852   -5.6961    5.7474 C   0  0  0  0  0  0  0  0  0  0  0  0
    5.0085   -4.4367    2.6409 C   0  0  2  0  0  0  0  0  0  0  0  0
    5.0002   -3.2978    1.6096 C   0  0  2  0  0  0  0  0  0  0  0  0
    6.4535   -3.1603    1.1242 C   0  0  0  0  0  0  0  0  0  0  0  0
    4.4216   -1.9336    2.0546 C   0  0  1  0  0  0  0  0  0  0  0  0
    5.2216   -1.2024    2.9749 O   0  0  0  0  0  0  0  0  0  0  0  0
    4.1395   -1.1430    0.7624 C   0  0  1  0  0  0  0  0  0  0  0  0
    5.2672   -0.3549    0.3987 O   0  0  0  0  0  0  0  0  0  0  0  0
    3.7174   -2.2511   -0.2524 C   0  0  1  0  0  0  0  0  0  0  0  0
    4.0555   -2.0418   -1.7731 C   0  0  0  0  0  0  0  0  0  0  0  0
    5.5032   -2.3720   -2.1764 C   0  0  0  0  0  0  0  0  0  0  0  0
    3.0996   -2.8148   -2.6828 C   0  0  0  0  0  0  0  0  0  0  0  0
    3.8142   -0.7025   -2.1510 O   0  0  0  0  0  0  0  0  0  0  0  0
    4.1398   -3.6454    0.3522 C   0  0  2  0  0  0  0  0  0  0  0  0
    2.9838   -4.6575    0.6417 C   0  0  1  0  0  0  0  0  0  0  0  0
    1.9612   -4.6132   -0.3229 O   0  0  0  0  0  0  0  0  0  0  0  0
    3.4105   -6.1615    0.6450 C   0  0  0  0  0  0  0  0  0  0  0  0
    6.3074   -7.1682    1.5094 H   0  0  0  0  0  0  0  0  0  0  0  0
    7.4244   -8.3968    2.0346 H   0  0  0  0  0  0  0  0  0  0  0  0
    7.9368   -6.7267    1.9765 H   0  0  0  0  0  0  0  0  0  0  0  0
    7.5768   -7.6146    4.1880 H   0  0  0  0  0  0  0  0  0  0  0  0
    6.0911   -9.2494    4.0986 H   0  0  0  0  0  0  0  0  0  0  0  0
    5.4910   -8.1627    5.2721 H   0  0  0  0  0  0  0  0  0  0  0  0
    4.3916   -8.9684    2.5658 H   0  0  0  0  0  0  0  0  0  0  0  0
    3.5481   -8.9687    4.0858 H   0  0  0  0  0  0  0  0  0  0  0  0
    4.5381   -6.7700    2.6453 H   0  0  0  0  0  0  0  0  0  0  0  0
    1.0208   -7.2218    0.7405 H   0  0  0  0  0  0  0  0  0  0  0  0
   -1.5969   -7.6656    3.1427 H   0  0  0  0  0  0  0  0  0  0  0  0
   -1.1414   -7.8233    1.4557 H   0  0  0  0  0  0  0  0  0  0  0  0
   -0.8847   -6.2970    2.2846 H   0  0  0  0  0  0  0  0  0  0  0  0
   -0.1244   -9.6766    3.6957 H   0  0  0  0  0  0  0  0  0  0  0  0
    1.5544   -9.7253    3.1535 H   0  0  0  0  0  0  0  0  0  0  0  0
    0.2479   -9.8049    1.9917 H   0  0  0  0  0  0  0  0  0  0  0  0
   -0.0079   -6.9642    4.7124 H   0  0  0  0  0  0  0  0  0  0  0  0
    1.4453   -7.8679    4.7784 H   0  0  0  0  0  0  0  0  0  0  0  0
    1.3831   -5.1935    3.2760 H   0  0  0  0  0  0  0  0  0  0  0  0
    1.3874   -5.2194    4.9824 H   0  0  0  0  0  0  0  0  0  0  0  0
    2.9962   -5.8552    6.3583 H   0  0  0  0  0  0  0  0  0  0  0  0
    4.5856   -6.3086    5.8845 H   0  0  0  0  0  0  0  0  0  0  0  0
    3.2897   -7.4836    5.8083 H   0  0  0  0  0  0  0  0  0  0  0  0
    4.0650   -2.6617    4.6941 H   0  0  0  0  0  0  0  0  0  0  0  0
    3.1590   -3.7790    5.6630 H   0  0  0  0  0  0  0  0  0  0  0  0
    2.4911   -3.2252    4.1252 H   0  0  0  0  0  0  0  0  0  0  0  0
    5.9780   -3.6966    4.4181 H   0  0  0  0  0  0  0  0  0  0  0  0
    7.5669   -5.3789    3.7603 H   0  0  0  0  0  0  0  0  0  0  0  0
    6.6177   -6.3283    6.4240 H   0  0  0  0  0  0  0  0  0  0  0  0
    7.1679   -4.6827    6.1398 H   0  0  0  0  0  0  0  0  0  0  0  0
    8.2219   -6.0297    5.8128 H   0  0  0  0  0  0  0  0  0  0  0  0
    5.4533   -5.2237    2.0651 H   0  0  0  0  0  0  0  0  0  0  0  0
    6.6259   -2.4367    0.3404 H   0  0  0  0  0  0  0  0  0  0  0  0
    6.8886   -4.0926    0.7780 H   0  0  0  0  0  0  0  0  0  0  0  0
    7.0232   -2.8116    1.9511 H   0  0  0  0  0  0  0  0  0  0  0  0
    3.4497   -2.0785    2.5060 H   0  0  0  0  0  0  0  0  0  0  0  0
    4.7800   -0.3989    3.1825 H   0  0  0  0  0  0  0  0  0  0  0  0
    3.3311   -0.4264    0.9230 H   0  0  0  0  0  0  0  0  0  0  0  0
    5.0241    0.2375   -0.2977 H   0  0  0  0  0  0  0  0  0  0  0  0
    2.6290   -2.2075   -0.1717 H   0  0  0  0  0  0  0  0  0  0  0  0
    5.7879   -3.4114   -2.0241 H   0  0  0  0  0  0  0  0  0  0  0  0
    6.2170   -1.7435   -1.6565 H   0  0  0  0  0  0  0  0  0  0  0  0
    5.6418   -2.2152   -3.2390 H   0  0  0  0  0  0  0  0  0  0  0  0
    3.2116   -3.8648   -2.4906 H   0  0  0  0  0  0  0  0  0  0  0  0
    3.3221   -2.6608   -3.7391 H   0  0  0  0  0  0  0  0  0  0  0  0
    2.0577   -2.5409   -2.5155 H   0  0  0  0  0  0  0  0  0  0  0  0
    2.9066   -0.5145   -1.9792 H   0  0  0  0  0  0  0  0  0  0  0  0
    4.7750   -4.1866   -0.3352 H   0  0  0  0  0  0  0  0  0  0  0  0
    2.5139   -4.3791    1.5865 H   0  0  0  0  0  0  0  0  0  0  0  0
    2.3386   -4.8073   -1.1754 H   0  0  0  0  0  0  0  0  0  0  0  0
    4.4861   -6.3094    0.5637 H   0  0  0  0  0  0  0  0  0  0  0  0
    3.0774   -6.6116   -0.2701 H   0  0  0  0  0  0  0  0  0  0  0  0
  1  2  1  0
  1 36  1  0
  1 37  1  0
  1 38  1  0
  2 18  1  0
  2  3  1  0
  2 39  1  1
  3  4  1  0
  3 40  1  0
  3 41  1  0
  4  5  1  0
  4 42  1  0
  4 43  1  0
  5 13  1  0
  5  6  1  0
  5 44  1  6
  6 35  1  0
  6  7  2  0
  7  8  1  0
  7 45  1  0
  8  9  1  0
  8 10  1  0
  8 11  1  0
  9 46  1  0
  9 47  1  0
  9 48  1  0
 10 49  1  0
 10 50  1  0
 10 51  1  0
 11 12  1  0
 11 52  1  0
 11 53  1  0
 12 13  1  0
 12 54  1  0
 12 55  1  0
 13 14  1  1
 13 15  1  0
 14 56  1  0
 14 57  1  0
 14 58  1  0
 15 20  1  0
 15 16  1  1
 15 17  1  0
 16 59  1  0
 16 60  1  0
 16 61  1  0
 17 18  1  0
 17 20  1  0
 17 62  1  1
 18 19  1  0
 18 63  1  6
 19 64  1  0
 19 65  1  0
 19 66  1  0
 20 21  1  0
 20 67  1  6
 21 32  1  0
 21 22  1  6
 21 23  1  0
 22 68  1  0
 22 69  1  0
 22 70  1  0
 23 24  1  0
 23 25  1  0
 23 71  1  1
 24 72  1  0
 25 26  1  0
 25 27  1  0
 25 73  1  1
 26 74  1  0
 27 28  1  0
 27 32  1  0
 27 75  1  6
 28 29  1  0
 28 30  1  0
 28 31  1  0
 29 76  1  0
 29 77  1  0
 29 78  1  0
 30 79  1  0
 30 80  1  0
 30 81  1  0
 31 82  1  0
 32 33  1  0
 32 83  1  6
 33 34  1  0
 33 35  1  0
 33 84  1  1
 34 85  1  0
 35 86  1  0
 35 87  1  0
M  END
>  <i_m_ct_stereo_status>  (321) 
1

>  <s_m_source_file>  (321) 
/var/tmp/pbs.5076255.sched01/tmpbvzcvm50/120d7_yi5_y.sdf

>  <i_m_source_file_index>  (321) 
11

>  <i_lp_mmshare_version>  (321) 
48012

>  <i_f3d_flags>  (321) 
0

>  <s_epik_input>  (321) 
W0NIMl0xW0NIMl1bQ0BASF0oW0NIM10pW0NASF0oW0NIM10pW0NAQEhdMltDQEBdMyhbQ0gzXSlbQ0BIXTJbQ0BdKFtDSDNdKShbQ0BASF0oW09IXSlbQ0BASF0oW09IXSlbQ0BIXTRDKFtDSDNdKShbQ0gzXSlbT0hdKVtDQEhdNFtDQEBIXShbT0hdKVtDSDJdQyhbQ0BIXTFbQ0BAXTM1W0NIM10pPVtDSF1DKFtDSDNdKShbQ0gzXSlbQ0gyXVtDSDJdNQ==

>  <s_epik_cmdline>  (321) 
J2VwaWtfcHl0aG9uJywgJy1waHQnLCAnMi4wJywgJy1waCcsICc3LjAnLCAnLXRuJywgJzgnLCAnLW1hJywgJzIwMCcsICctaW1hZScsICc8aW5maWxlLm1hZT4nLCAnLW9tYWUnLCAnPG91dGZpbGUubWFlPic=

>  <r_lp_tautomer_probability>  (321) 
1

>  <r_epik_Ionization_Penalty>  (321) 
2.37088e-06

>  <r_epik_Ionization_Penalty_Charging>  (321) 
0

>  <r_epik_Ionization_Penalty_Neutral>  (321) 
2.37088e-06

>  <r_epik_State_Penalty>  (321) 
-0

>  <r_epik_Charging_Adjusted_Penalty>  (321) 
0

>  <i_epik_Tot_Q>  (321) 
0

>  <i_epik_Tot_abs_Q>  (321) 
0

>  <s_lp_Force_Field>  (321) 
OPLS3e

>  <r_lp_Energy>  (321) 
131.762

>  <b_lp_Chiralities_Consistent>  (321) 
1

>  <s_lp_Variant>  (321) 
93:0-2

>  <s_i_glide_gridfile>  (321) 
pfpi4k_grid

>  <i_i_glide_lignum>  (321) 
11

>  <i_i_glide_rotatable_bonds>  (321) 
5

>  <r_i_docking_score>  (321) 
-3.01196

>  <r_i_glide_ligand_efficiency>  (321) 
-0.086056

>  <r_i_glide_ligand_efficiency_sa>  (321) 
-0.281495

>  <r_i_glide_ligand_efficiency_ln>  (321) 
-0.661192

>  <r_i_glide_gscore>  (321) 
-3.01196

>  <r_i_glide_lipo>  (321) 
-0.240381

>  <r_i_glide_hbond>  (321) 
-0.318693

>  <r_i_glide_metal>  (321) 
-0

>  <r_i_glide_rewards>  (321) 
-0.0767579

>  <r_i_glide_evdw>  (321) 
-28.4371

>  <r_i_glide_ecoul>  (321) 
-6.92945

>  <r_i_glide_erotb>  (321) 
0.0851454

>  <r_i_glide_esite>  (321) 
0

>  <r_i_glide_emodel>  (321) 
-39.7069

>  <r_i_glide_energy>  (321) 
-35.3666

>  <r_i_glide_einternal>  (321) 
2.96687

>  <r_i_glide_intrahb_reward>  (321) 
-0

>  <i_i_glide_confnum>  (321) 
3

>  <i_i_glide_posenum>  (321) 
8

>  <r_i_glide_eff_state_penalty>  (321) 
0

>  <ligand_id>  (321) 
93

>  <original_smiles>  (321) 
CC1CCC2C3=CC(C)(C)CCC2(C)C2(C)C(C1C)C2C1(C)C(O)C(O)C(C(C)(C)O)C1C(O)C3

>  <smiles>  (321) 
[H]OC1([H])C([H])(O[H])C2(C([H])([H])[H])C([H])(C([H])(O[H])C([H])([H])C3=C([H])C(C([H])([H])[H])(C([H])([H])[H])C([H])([H])C([H])([H])C4(C([H])([H])[H])C3([H])C([H])([H])C([H])([H])C([H])(C([H])([H])[H])C([H])(C([H])([H])[H])C3([H])C2([H])C34C([H])([H])[H])C1([H])C(O[H])(C([H])([H])[H])C([H])([H])[H]

$$$$
93:1:1
     RDKit          3D

 87 91  0  0  1  0  0  0  0  0999 V2000
   -0.2070   -7.6466    2.0980 C   0  0  0  0  0  0  0  0  0  0  0  0
    0.5445   -8.5493    3.1087 C   0  0  2  0  0  0  0  0  0  0  0  0
   -0.0179   -8.4529    4.5706 C   0  0  0  0  0  0  0  0  0  0  0  0
   -0.0748   -7.0725    5.3116 C   0  0  0  0  0  0  0  0  0  0  0  0
    1.1464   -6.1764    5.0697 C   0  0  1  0  0  0  0  0  0  0  0  0
    0.9615   -4.6454    5.0377 C   0  0  0  0  0  0  0  0  0  0  0  0
    0.8414   -3.8664    6.1294 C   0  0  0  0  0  0  0  0  0  0  0  0
    1.0350   -4.2501    7.5882 C   0  0  0  0  0  0  0  0  0  0  0  0
    1.6299   -3.0231    8.3139 C   0  0  0  0  0  0  0  0  0  0  0  0
   -0.3319   -4.5605    8.2243 C   0  0  0  0  0  0  0  0  0  0  0  0
    2.0146   -5.4435    7.7686 C   0  0  0  0  0  0  0  0  0  0  0  0
    3.0514   -5.6837    6.6343 C   0  0  0  0  0  0  0  0  0  0  0  0
    2.5533   -6.6736    5.5210 C   0  0  1  0  0  0  0  0  0  0  0  0
    2.5700   -8.0629    6.2265 C   0  0  0  0  0  0  0  0  0  0  0  0
    3.4925   -6.7852    4.2650 C   0  0  1  0  0  0  0  0  0  0  0  0
    4.9491   -6.7739    4.7309 C   0  0  0  0  0  0  0  0  0  0  0  0
    3.2449   -7.7605    3.0788 C   0  0  1  0  0  0  0  0  0  0  0  0
    2.0879   -8.7926    2.8187 C   0  0  1  0  0  0  0  0  0  0  0  0
    2.5066  -10.2302    3.2018 C   0  0  0  0  0  0  0  0  0  0  0  0
    3.0711   -6.2946    2.8315 C   0  0  2  0  0  0  0  0  0  0  0  0
    3.7838   -5.3372    1.8648 C   0  0  2  0  0  0  0  0  0  0  0  0
    3.4570   -5.8889    0.4541 C   0  0  0  0  0  0  0  0  0  0  0  0
    5.3093   -5.1244    2.0335 C   0  0  1  0  0  0  0  0  0  0  0  0
    6.1028   -6.2142    1.5984 O   0  0  0  0  0  0  0  0  0  0  0  0
    5.6545   -3.8201    1.2937 C   0  0  1  0  0  0  0  0  0  0  0  0
    6.0080   -4.0616   -0.0587 O   0  0  0  0  0  0  0  0  0  0  0  0
    4.3892   -2.9405    1.4959 C   0  0  1  0  0  0  0  0  0  0  0  0
    4.0163   -1.9291    0.3577 C   0  0  0  0  0  0  0  0  0  0  0  0
    5.1858   -1.0005   -0.0203 C   0  0  0  0  0  0  0  0  0  0  0  0
    3.4117   -2.5477   -0.9205 C   0  0  0  0  0  0  0  0  0  0  0  0
    3.0157   -1.0853    0.8862 O   0  0  0  0  0  0  0  0  0  0  0  0
    3.2175   -3.8723    1.9934 C   0  0  2  0  0  0  0  0  0  0  0  0
    2.6379   -3.5226    3.4158 C   0  0  1  0  0  0  0  0  0  0  0  0
    2.6715   -2.1341    3.6957 O   0  0  0  0  0  0  0  0  0  0  0  0
    1.1536   -3.9559    3.6857 C   0  0  0  0  0  0  0  0  0  0  0  0
   -0.0836   -6.5829    2.2701 H   0  0  0  0  0  0  0  0  0  0  0  0
   -1.2768   -7.8503    2.1404 H   0  0  0  0  0  0  0  0  0  0  0  0
    0.1147   -7.8522    1.0763 H   0  0  0  0  0  0  0  0  0  0  0  0
    0.1388   -9.5211    2.8183 H   0  0  0  0  0  0  0  0  0  0  0  0
   -1.0508   -8.8040    4.5389 H   0  0  0  0  0  0  0  0  0  0  0  0
    0.4586   -9.2052    5.1964 H   0  0  0  0  0  0  0  0  0  0  0  0
   -0.9632   -6.5380    4.9685 H   0  0  0  0  0  0  0  0  0  0  0  0
   -0.2066   -7.2262    6.3833 H   0  0  0  0  0  0  0  0  0  0  0  0
    1.0415   -6.3334    4.0436 H   0  0  0  0  0  0  0  0  0  0  0  0
    0.7729   -2.7998    5.9679 H   0  0  0  0  0  0  0  0  0  0  0  0
    1.7604   -3.2047    9.3817 H   0  0  0  0  0  0  0  0  0  0  0  0
    0.9862   -2.1487    8.2170 H   0  0  0  0  0  0  0  0  0  0  0  0
    2.6045   -2.7522    7.9052 H   0  0  0  0  0  0  0  0  0  0  0  0
   -0.2311   -4.8092    9.2825 H   0  0  0  0  0  0  0  0  0  0  0  0
   -0.8199   -5.4011    7.7318 H   0  0  0  0  0  0  0  0  0  0  0  0
   -1.0064   -3.7069    8.1505 H   0  0  0  0  0  0  0  0  0  0  0  0
    2.5731   -5.2964    8.6910 H   0  0  0  0  0  0  0  0  0  0  0  0
    1.4460   -6.3507    7.9571 H   0  0  0  0  0  0  0  0  0  0  0  0
    3.3964   -4.7366    6.2218 H   0  0  0  0  0  0  0  0  0  0  0  0
    3.9446   -6.0910    7.1037 H   0  0  0  0  0  0  0  0  0  0  0  0
    3.4757   -8.2264    6.8086 H   0  0  0  0  0  0  0  0  0  0  0  0
    2.5549   -8.8749    5.5181 H   0  0  0  0  0  0  0  0  0  0  0  0
    1.7433   -8.2118    6.9148 H   0  0  0  0  0  0  0  0  0  0  0  0
    5.6160   -7.0844    3.9311 H   0  0  0  0  0  0  0  0  0  0  0  0
    5.1180   -7.4690    5.5506 H   0  0  0  0  0  0  0  0  0  0  0  0
    5.2408   -5.7779    5.0628 H   0  0  0  0  0  0  0  0  0  0  0  0
    4.1559   -8.1571    2.6398 H   0  0  0  0  0  0  0  0  0  0  0  0
    2.1050   -8.8517    1.7285 H   0  0  0  0  0  0  0  0  0  0  0  0
    2.2724  -10.4984    4.2274 H   0  0  0  0  0  0  0  0  0  0  0  0
    3.5691  -10.3933    3.0462 H   0  0  0  0  0  0  0  0  0  0  0  0
    1.9906  -10.9597    2.5764 H   0  0  0  0  0  0  0  0  0  0  0  0
    2.0641   -6.2075    2.4781 H   0  0  0  0  0  0  0  0  0  0  0  0
    3.8166   -5.2641   -0.3579 H   0  0  0  0  0  0  0  0  0  0  0  0
    2.3857   -5.9931    0.2989 H   0  0  0  0  0  0  0  0  0  0  0  0
    3.8918   -6.8784    0.3087 H   0  0  0  0  0  0  0  0  0  0  0  0
    5.5323   -4.9191    3.0790 H   0  0  0  0  0  0  0  0  0  0  0  0
    7.0080   -6.0168    1.7918 H   0  0  0  0  0  0  0  0  0  0  0  0
    6.5302   -3.3446    1.7397 H   0  0  0  0  0  0  0  0  0  0  0  0
    5.2870   -4.5059   -0.4764 H   0  0  0  0  0  0  0  0  0  0  0  0
    4.6819   -2.3249    2.3487 H   0  0  0  0  0  0  0  0  0  0  0  0
    6.0198   -1.5451   -0.4631 H   0  0  0  0  0  0  0  0  0  0  0  0
    5.5800   -0.4537    0.8368 H   0  0  0  0  0  0  0  0  0  0  0  0
    4.8768   -0.2575   -0.7549 H   0  0  0  0  0  0  0  0  0  0  0  0
    4.0881   -3.2295   -1.4282 H   0  0  0  0  0  0  0  0  0  0  0  0
    3.1502   -1.7688   -1.6393 H   0  0  0  0  0  0  0  0  0  0  0  0
    2.4832   -3.0815   -0.7195 H   0  0  0  0  0  0  0  0  0  0  0  0
    2.3444   -0.9463    0.2219 H   0  0  0  0  0  0  0  0  0  0  0  0
    2.3647   -3.7711    1.3238 H   0  0  0  0  0  0  0  0  0  0  0  0
    3.2930   -3.9738    4.1591 H   0  0  0  0  0  0  0  0  0  0  0  0
    2.2767   -1.6698    2.9721 H   0  0  0  0  0  0  0  0  0  0  0  0
    0.7477   -4.5696    2.8826 H   0  0  0  0  0  0  0  0  0  0  0  0
    0.5040   -3.0775    3.6645 H   0  0  0  0  0  0  0  0  0  0  0  0
  1  2  1  0
  1 36  1  0
  1 37  1  0
  1 38  1  0
  2 18  1  0
  2  3  1  0
  2 39  1  6
  3  4  1  0
  3 40  1  0
  3 41  1  0
  4  5  1  0
  4 42  1  0
  4 43  1  0
  5 13  1  0
  5  6  1  0
  5 44  1  6
  6 35  1  0
  6  7  2  0
  7  8  1  0
  7 45  1  0
  8  9  1  0
  8 10  1  0
  8 11  1  0
  9 46  1  0
  9 47  1  0
  9 48  1  0
 10 49  1  0
 10 50  1  0
 10 51  1  0
 11 12  1  0
 11 52  1  0
 11 53  1  0
 12 13  1  0
 12 54  1  0
 12 55  1  0
 13 14  1  1
 13 15  1  0
 14 56  1  0
 14 57  1  0
 14 58  1  0
 15 20  1  0
 15 16  1  1
 15 17  1  0
 16 59  1  0
 16 60  1  0
 16 61  1  0
 17 18  1  0
 17 20  1  0
 17 62  1  6
 18 19  1  0
 18 63  1  6
 19 64  1  0
 19 65  1  0
 19 66  1  0
 20 21  1  0
 20 67  1  1
 21 32  1  0
 21 22  1  6
 21 23  1  0
 22 68  1  0
 22 69  1  0
 22 70  1  0
 23 24  1  0
 23 25  1  0
 23 71  1  1
 24 72  1  0
 25 26  1  0
 25 27  1  0
 25 73  1  1
 26 74  1  0
 27 28  1  0
 27 32  1  0
 27 75  1  1
 28 29  1  0
 28 30  1  0
 28 31  1  0
 29 76  1  0
 29 77  1  0
 29 78  1  0
 30 79  1  0
 30 80  1  0
 30 81  1  0
 31 82  1  0
 32 33  1  0
 32 83  1  6
 33 34  1  0
 33 35  1  0
 33 84  1  1
 34 85  1  0
 35 86  1  0
 35 87  1  0
M  END
>  <i_m_ct_stereo_status>  (322) 
1

>  <s_m_source_file>  (322) 
/var/tmp/pbs.5076255.sched01/tmpbvzcvm50/120d7_yi5_y.sdf

>  <i_m_source_file_index>  (322) 
11

>  <i_lp_mmshare_version>  (322) 
48012

>  <i_f3d_flags>  (322) 
0

>  <s_epik_input>  (322) 
W0NIMl0xW0NIMl1bQ0BASF0oW0NIM10pW0NASF0oW0NIM10pW0NAQEhdMltDQEBdMyhbQ0gzXSlbQ0BIXTJbQ0BdKFtDSDNdKShbQ0BASF0oW09IXSlbQ0BASF0oW09IXSlbQ0BIXTRDKFtDSDNdKShbQ0gzXSlbT0hdKVtDQEhdNFtDQEBIXShbT0hdKVtDSDJdQyhbQ0BIXTFbQ0BAXTM1W0NIM10pPVtDSF1DKFtDSDNdKShbQ0gzXSlbQ0gyXVtDSDJdNQ==

>  <s_epik_cmdline>  (322) 
J2VwaWtfcHl0aG9uJywgJy1waHQnLCAnMi4wJywgJy1waCcsICc3LjAnLCAnLXRuJywgJzgnLCAnLW1hJywgJzIwMCcsICctaW1hZScsICc8aW5maWxlLm1hZT4nLCAnLW9tYWUnLCAnPG91dGZpbGUubWFlPic=

>  <r_lp_tautomer_probability>  (322) 
1

>  <r_epik_Ionization_Penalty>  (322) 
2.37088e-06

>  <r_epik_Ionization_Penalty_Charging>  (322) 
0

>  <r_epik_Ionization_Penalty_Neutral>  (322) 
2.37088e-06

>  <r_epik_State_Penalty>  (322) 
-0

>  <r_epik_Charging_Adjusted_Penalty>  (322) 
0

>  <i_epik_Tot_Q>  (322) 
0

>  <i_epik_Tot_abs_Q>  (322) 
0

>  <s_lp_Force_Field>  (322) 
OPLS3e

>  <r_lp_Energy>  (322) 
131.762

>  <b_lp_Chiralities_Consistent>  (322) 
1

>  <s_lp_Variant>  (322) 
93:0-2

>  <s_i_glide_gridfile>  (322) 
pfpi4k_grid

>  <i_i_glide_lignum>  (322) 
11

>  <i_i_glide_rotatable_bonds>  (322) 
5

>  <r_i_docking_score>  (322) 
-2.82897

>  <r_i_glide_ligand_efficiency>  (322) 
-0.0808278

>  <r_i_glide_ligand_efficiency_sa>  (322) 
-0.264393

>  <r_i_glide_ligand_efficiency_ln>  (322) 
-0.621022

>  <r_i_glide_gscore>  (322) 
-2.82897

>  <r_i_glide_lipo>  (322) 
-0.127236

>  <r_i_glide_hbond>  (322) 
0

>  <r_i_glide_metal>  (322) 
-0

>  <r_i_glide_rewards>  (322) 
-0.576758

>  <r_i_glide_evdw>  (322) 
-31.3505

>  <r_i_glide_ecoul>  (322) 
-4.28398

>  <r_i_glide_erotb>  (322) 
0.0851454

>  <r_i_glide_esite>  (322) 
0

>  <r_i_glide_emodel>  (322) 
-45.1445

>  <r_i_glide_energy>  (322) 
-35.6345

>  <r_i_glide_einternal>  (322) 
2.74683

>  <r_i_glide_intrahb_reward>  (322) 
-0.5

>  <i_i_glide_confnum>  (322) 
4

>  <i_i_glide_posenum>  (322) 
38

>  <r_i_glide_eff_state_penalty>  (322) 
0

>  <ligand_id>  (322) 
93

>  <original_smiles>  (322) 
CC1CCC2C3=CC(C)(C)CCC2(C)C2(C)C(C1C)C2C1(C)C(O)C(O)C(C(C)(C)O)C1C(O)C3

>  <smiles>  (322) 
[H]OC1([H])C([H])(O[H])C2(C([H])([H])[H])C([H])(C([H])(O[H])C([H])([H])C3=C([H])C(C([H])([H])[H])(C([H])([H])[H])C([H])([H])C([H])([H])C4(C([H])([H])[H])C3([H])C([H])([H])C([H])([H])C([H])(C([H])([H])[H])C([H])(C([H])([H])[H])C3([H])C2([H])C34C([H])([H])[H])C1([H])C(O[H])(C([H])([H])[H])C([H])([H])[H]

$$$$
93:1:2
     RDKit          3D

 87 91  0  0  1  0  0  0  0  0999 V2000
    0.2199   -7.0687    1.3587 C   0  0  0  0  0  0  0  0  0  0  0  0
    0.6929   -8.0483    2.4575 C   0  0  2  0  0  0  0  0  0  0  0  0
   -0.0609   -7.8721    3.8222 C   0  0  0  0  0  0  0  0  0  0  0  0
   -0.0549   -6.4897    4.5610 C   0  0  0  0  0  0  0  0  0  0  0  0
    1.2972   -5.7545    4.5011 C   0  0  1  0  0  0  0  0  0  0  0  0
    1.3194   -4.2148    4.4520 C   0  0  0  0  0  0  0  0  0  0  0  0
    1.1410   -3.4107    5.5166 C   0  0  0  0  0  0  0  0  0  0  0  0
    1.0743   -3.8018    6.9855 C   0  0  0  0  0  0  0  0  0  0  0  0
    1.7088   -2.6518    7.7987 C   0  0  0  0  0  0  0  0  0  0  0  0
   -0.3967   -3.9306    7.4141 C   0  0  0  0  0  0  0  0  0  0  0  0
    1.8587   -5.1073    7.2970 C   0  0  0  0  0  0  0  0  0  0  0  0
    3.0089   -5.4922    6.3209 C   0  0  0  0  0  0  0  0  0  0  0  0
    2.5558   -6.4218    5.1396 C   0  0  1  0  0  0  0  0  0  0  0  0
    2.2943   -7.7931    5.8289 C   0  0  0  0  0  0  0  0  0  0  0  0
    3.6439   -6.6606    4.0247 C   0  0  1  0  0  0  0  0  0  0  0  0
    5.0092   -6.8285    4.7022 C   0  0  0  0  0  0  0  0  0  0  0  0
    3.4463   -7.6098    2.8146 C   0  0  1  0  0  0  0  0  0  0  0  0
    2.2189   -8.4915    2.3858 C   0  0  1  0  0  0  0  0  0  0  0  0
    2.3939   -9.9632    2.8140 C   0  0  0  0  0  0  0  0  0  0  0  0
    3.5010   -6.1444    2.5476 C   0  0  2  0  0  0  0  0  0  0  0  0
    4.4589   -5.2976    1.6917 C   0  0  2  0  0  0  0  0  0  0  0  0
    4.2711   -5.8166    0.2393 C   0  0  0  0  0  0  0  0  0  0  0  0
    5.9547   -5.2821    2.0832 C   0  0  1  0  0  0  0  0  0  0  0  0
    6.6602   -6.4755    1.7866 O   0  0  0  0  0  0  0  0  0  0  0  0
    6.5558   -4.0472    1.3950 C   0  0  1  0  0  0  0  0  0  0  0  0
    7.0659   -4.3549    0.1129 O   0  0  0  0  0  0  0  0  0  0  0  0
    5.4092   -2.9920    1.4450 C   0  0  1  0  0  0  0  0  0  0  0  0
    5.3098   -1.9189    0.2960 C   0  0  0  0  0  0  0  0  0  0  0  0
    4.8689   -2.4762   -1.0761 C   0  0  0  0  0  0  0  0  0  0  0  0
    4.3642   -0.7567    0.6715 C   0  0  0  0  0  0  0  0  0  0  0  0
    6.5812   -1.3145    0.1082 O   0  0  0  0  0  0  0  0  0  0  0  0
    4.0743   -3.7704    1.7594 C   0  0  2  0  0  0  0  0  0  0  0  0
    3.3504   -3.3471    3.0966 C   0  0  1  0  0  0  0  0  0  0  0  0
    3.5082   -1.9731    3.3845 O   0  0  0  0  0  0  0  0  0  0  0  0
    1.8002   -3.5710    3.1439 C   0  0  0  0  0  0  0  0  0  0  0  0
    0.4586   -6.0292    1.5490 H   0  0  0  0  0  0  0  0  0  0  0  0
   -0.8630   -7.1347    1.2513 H   0  0  0  0  0  0  0  0  0  0  0  0
    0.6493   -7.3351    0.3935 H   0  0  0  0  0  0  0  0  0  0  0  0
    0.2164   -8.9621    2.0975 H   0  0  0  0  0  0  0  0  0  0  0  0
   -1.1142   -8.0903    3.6343 H   0  0  0  0  0  0  0  0  0  0  0  0
    0.2228   -8.6737    4.5003 H   0  0  0  0  0  0  0  0  0  0  0  0
   -0.7997   -5.8527    4.0874 H   0  0  0  0  0  0  0  0  0  0  0  0
   -0.3896   -6.6096    5.5925 H   0  0  0  0  0  0  0  0  0  0  0  0
    1.3247   -5.9067    3.4699 H   0  0  0  0  0  0  0  0  0  0  0  0
    1.2341   -2.3482    5.3504 H   0  0  0  0  0  0  0  0  0  0  0  0
    1.6602   -2.8381    8.8715 H   0  0  0  0  0  0  0  0  0  0  0  0
    1.2013   -1.7047    7.6173 H   0  0  0  0  0  0  0  0  0  0  0  0
    2.7586   -2.5111    7.5379 H   0  0  0  0  0  0  0  0  0  0  0  0
   -0.4817   -4.1799    8.4731 H   0  0  0  0  0  0  0  0  0  0  0  0
   -0.9113   -4.7085    6.8514 H   0  0  0  0  0  0  0  0  0  0  0  0
   -0.9391   -2.9997    7.2483 H   0  0  0  0  0  0  0  0  0  0  0  0
    2.2922   -5.0233    8.2924 H   0  0  0  0  0  0  0  0  0  0  0  0
    1.1588   -5.9335    7.3942 H   0  0  0  0  0  0  0  0  0  0  0  0
    3.5262   -4.5989    5.9720 H   0  0  0  0  0  0  0  0  0  0  0  0
    3.7677   -6.0031    6.9127 H   0  0  0  0  0  0  0  0  0  0  0  0
    3.0783   -8.0645    6.5348 H   0  0  0  0  0  0  0  0  0  0  0  0
    2.2791   -8.6040    5.1202 H   0  0  0  0  0  0  0  0  0  0  0  0
    1.3636   -7.8294    6.3900 H   0  0  0  0  0  0  0  0  0  0  0  0
    5.7421   -7.2317    4.0081 H   0  0  0  0  0  0  0  0  0  0  0  0
    4.9690   -7.5307    5.5296 H   0  0  0  0  0  0  0  0  0  0  0  0
    5.3767   -5.8753    5.0788 H   0  0  0  0  0  0  0  0  0  0  0  0
    4.3558   -8.1253    2.5098 H   0  0  0  0  0  0  0  0  0  0  0  0
    2.3844   -8.5612    1.3104 H   0  0  0  0  0  0  0  0  0  0  0  0
    1.9827  -10.1904    3.7928 H   0  0  0  0  0  0  0  0  0  0  0  0
    3.4397  -10.2626    2.8090 H   0  0  0  0  0  0  0  0  0  0  0  0
    1.8846  -10.6235    2.1137 H   0  0  0  0  0  0  0  0  0  0  0  0
    2.5689   -5.9272    2.0610 H   0  0  0  0  0  0  0  0  0  0  0  0
    4.8112   -5.2495   -0.5121 H   0  0  0  0  0  0  0  0  0  0  0  0
    3.2260   -5.7822   -0.0629 H   0  0  0  0  0  0  0  0  0  0  0  0
    4.5866   -6.8557    0.1460 H   0  0  0  0  0  0  0  0  0  0  0  0
    6.0462   -5.0783    3.1462 H   0  0  0  0  0  0  0  0  0  0  0  0
    6.6974   -6.5636    0.8468 H   0  0  0  0  0  0  0  0  0  0  0  0
    7.4175   -3.6928    1.9509 H   0  0  0  0  0  0  0  0  0  0  0  0
    6.3426   -4.5734   -0.4516 H   0  0  0  0  0  0  0  0  0  0  0  0
    5.6709   -2.4273    2.3409 H   0  0  0  0  0  0  0  0  0  0  0  0
    3.8688   -2.9075   -1.0401 H   0  0  0  0  0  0  0  0  0  0  0  0
    5.5400   -3.2358   -1.4676 H   0  0  0  0  0  0  0  0  0  0  0  0
    4.8334   -1.6829   -1.8227 H   0  0  0  0  0  0  0  0  0  0  0  0
    3.3492   -1.1088    0.8500 H   0  0  0  0  0  0  0  0  0  0  0  0
    4.2997   -0.0215   -0.1301 H   0  0  0  0  0  0  0  0  0  0  0  0
    4.6954   -0.2282    1.5654 H   0  0  0  0  0  0  0  0  0  0  0  0
    6.8361   -0.8737    0.9062 H   0  0  0  0  0  0  0  0  0  0  0  0
    3.3452   -3.5631    0.9760 H   0  0  0  0  0  0  0  0  0  0  0  0
    3.8321   -3.8674    3.9235 H   0  0  0  0  0  0  0  0  0  0  0  0
    4.4284   -1.7859    3.4743 H   0  0  0  0  0  0  0  0  0  0  0  0
    1.4426   -4.1266    2.2819 H   0  0  0  0  0  0  0  0  0  0  0  0
    1.2854   -2.6139    3.0314 H   0  0  0  0  0  0  0  0  0  0  0  0
  1  2  1  0
  1 36  1  0
  1 37  1  0
  1 38  1  0
  2 18  1  0
  2  3  1  0
  2 39  1  6
  3  4  1  0
  3 40  1  0
  3 41  1  0
  4  5  1  0
  4 42  1  0
  4 43  1  0
  5 13  1  0
  5  6  1  0
  5 44  1  6
  6 35  1  0
  6  7  2  0
  7  8  1  0
  7 45  1  0
  8  9  1  0
  8 10  1  0
  8 11  1  0
  9 46  1  0
  9 47  1  0
  9 48  1  0
 10 49  1  0
 10 50  1  0
 10 51  1  0
 11 12  1  0
 11 52  1  0
 11 53  1  0
 12 13  1  0
 12 54  1  0
 12 55  1  0
 13 14  1  1
 13 15  1  0
 14 56  1  0
 14 57  1  0
 14 58  1  0
 15 20  1  0
 15 16  1  1
 15 17  1  0
 16 59  1  0
 16 60  1  0
 16 61  1  0
 17 18  1  0
 17 20  1  0
 17 62  1  6
 18 19  1  0
 18 63  1  6
 19 64  1  0
 19 65  1  0
 19 66  1  0
 20 21  1  0
 20 67  1  1
 21 32  1  0
 21 22  1  6
 21 23  1  0
 22 68  1  0
 22 69  1  0
 22 70  1  0
 23 24  1  0
 23 25  1  0
 23 71  1  1
 24 72  1  0
 25 26  1  0
 25 27  1  0
 25 73  1  1
 26 74  1  0
 27 28  1  0
 27 32  1  0
 27 75  1  1
 28 29  1  0
 28 30  1  0
 28 31  1  0
 29 76  1  0
 29 77  1  0
 29 78  1  0
 30 79  1  0
 30 80  1  0
 30 81  1  0
 31 82  1  0
 32 33  1  0
 32 83  1  6
 33 34  1  0
 33 35  1  0
 33 84  1  1
 34 85  1  0
 35 86  1  0
 35 87  1  0
M  END
>  <i_m_ct_stereo_status>  (323) 
1

>  <s_m_source_file>  (323) 
/var/tmp/pbs.5076255.sched01/tmpbvzcvm50/120d7_yi5_y.sdf

>  <i_m_source_file_index>  (323) 
11

>  <i_lp_mmshare_version>  (323) 
48012

>  <i_f3d_flags>  (323) 
0

>  <s_epik_input>  (323) 
W0NIMl0xW0NIMl1bQ0BASF0oW0NIM10pW0NASF0oW0NIM10pW0NAQEhdMltDQEBdMyhbQ0gzXSlbQ0BIXTJbQ0BdKFtDSDNdKShbQ0BASF0oW09IXSlbQ0BASF0oW09IXSlbQ0BIXTRDKFtDSDNdKShbQ0gzXSlbT0hdKVtDQEhdNFtDQEBIXShbT0hdKVtDSDJdQyhbQ0BIXTFbQ0BAXTM1W0NIM10pPVtDSF1DKFtDSDNdKShbQ0gzXSlbQ0gyXVtDSDJdNQ==

>  <s_epik_cmdline>  (323) 
J2VwaWtfcHl0aG9uJywgJy1waHQnLCAnMi4wJywgJy1waCcsICc3LjAnLCAnLXRuJywgJzgnLCAnLW1hJywgJzIwMCcsICctaW1hZScsICc8aW5maWxlLm1hZT4nLCAnLW9tYWUnLCAnPG91dGZpbGUubWFlPic=

>  <r_lp_tautomer_probability>  (323) 
1

>  <r_epik_Ionization_Penalty>  (323) 
2.37088e-06

>  <r_epik_Ionization_Penalty_Charging>  (323) 
0

>  <r_epik_Ionization_Penalty_Neutral>  (323) 
2.37088e-06

>  <r_epik_State_Penalty>  (323) 
-0

>  <r_epik_Charging_Adjusted_Penalty>  (323) 
0

>  <i_epik_Tot_Q>  (323) 
0

>  <i_epik_Tot_abs_Q>  (323) 
0

>  <s_lp_Force_Field>  (323) 
OPLS3e

>  <r_lp_Energy>  (323) 
131.762

>  <b_lp_Chiralities_Consistent>  (323) 
1

>  <s_lp_Variant>  (323) 
93:0-2

>  <s_i_glide_gridfile>  (323) 
pfpi4k_grid

>  <i_i_glide_lignum>  (323) 
11

>  <i_i_glide_rotatable_bonds>  (323) 
5

>  <r_i_docking_score>  (323) 
-2.24405

>  <r_i_glide_ligand_efficiency>  (323) 
-0.0641157

>  <r_i_glide_ligand_efficiency_sa>  (323) 
-0.209727

>  <r_i_glide_ligand_efficiency_ln>  (323) 
-0.492618

>  <r_i_glide_gscore>  (323) 
-2.24405

>  <r_i_glide_lipo>  (323) 
-0.405869

>  <r_i_glide_hbond>  (323) 
0

>  <r_i_glide_metal>  (323) 
-0

>  <r_i_glide_rewards>  (323) 
-0.0767579

>  <r_i_glide_evdw>  (323) 
-31.0561

>  <r_i_glide_ecoul>  (323) 
-1.95841

>  <r_i_glide_erotb>  (323) 
0.0851454

>  <r_i_glide_esite>  (323) 
0

>  <r_i_glide_emodel>  (323) 
-37.3024

>  <r_i_glide_energy>  (323) 
-33.0145

>  <r_i_glide_einternal>  (323) 
1.33361

>  <r_i_glide_intrahb_reward>  (323) 
-0

>  <i_i_glide_confnum>  (323) 
4

>  <i_i_glide_posenum>  (323) 
2

>  <r_i_glide_eff_state_penalty>  (323) 
0

>  <ligand_id>  (323) 
93

>  <original_smiles>  (323) 
CC1CCC2C3=CC(C)(C)CCC2(C)C2(C)C(C1C)C2C1(C)C(O)C(O)C(C(C)(C)O)C1C(O)C3

>  <smiles>  (323) 
[H]OC1([H])C([H])(O[H])C2(C([H])([H])[H])C([H])(C([H])(O[H])C([H])([H])C3=C([H])C(C([H])([H])[H])(C([H])([H])[H])C([H])([H])C([H])([H])C4(C([H])([H])[H])C3([H])C([H])([H])C([H])([H])C([H])(C([H])([H])[H])C([H])(C([H])([H])[H])C3([H])C2([H])C34C([H])([H])[H])C1([H])C(O[H])(C([H])([H])[H])C([H])([H])[H]

$$$$
94:0:0
     RDKit          3D

 43 47  0  0  1  0  0  0  0  0999 V2000
    3.7459   -2.7142   -4.1061 C   0  0  0  0  0  0  0  0  0  0  0  0
    4.3911   -2.3188   -2.8623 N   0  0  0  0  0  0  0  0  0  0  0  0
    3.4911   -1.5559   -2.0050 C   0  0  0  0  0  0  0  0  0  0  0  0
    4.1506   -1.5785   -0.6517 C   0  0  0  0  0  0  0  0  0  0  0  0
    4.0136   -0.6489    0.2437 N   0  0  0  0  0  0  0  0  0  0  0  0
    4.6047   -0.8616    1.5056 C   0  0  0  0  0  0  0  0  0  0  0  0
    3.8038   -0.8646    2.6699 C   0  0  0  0  0  0  0  0  0  0  0  0
    3.8795   -1.9482    3.5798 C   0  0  0  0  0  0  0  0  0  0  0  0
    4.6360   -3.1168    3.2708 C   0  0  0  0  0  0  0  0  0  0  0  0
    5.3235   -2.9923    2.0558 C   0  0  0  0  0  0  0  0  0  0  0  0
    5.7214   -1.7109    1.6353 C   0  0  0  0  0  0  0  0  0  0  0  0
    6.7269   -1.6359    0.6400 N   0  0  0  0  0  0  0  0  0  0  0  0
    6.4998   -2.2156   -0.5421 C   0  0  0  0  0  0  0  0  0  0  0  0
    7.3206   -2.2566   -1.4753 O   0  0  0  0  0  0  0  0  0  0  0  0
    5.0867   -2.8364   -0.6050 C   0  0  2  0  0  0  0  0  0  0  0  0
    4.8126   -3.4471   -2.0216 C   0  0  0  0  0  0  0  0  0  0  0  0
    4.9495   -3.7913    0.7176 C   0  0  0  0  0  0  0  0  0  0  0  0
    5.9059   -5.0220    0.5953 C   0  0  0  0  0  0  0  0  0  0  0  0
    5.6599   -6.0629    1.6949 C   0  0  0  0  0  0  0  0  0  0  0  0
    4.2044   -6.5763    1.6849 C   0  0  0  0  0  0  0  0  0  0  0  0
    3.1603   -5.4509    1.7793 C   0  0  0  0  0  0  0  0  0  0  0  0
    3.4712   -4.3505    0.7439 C   0  0  0  0  0  0  0  0  0  0  0  0
    3.4202   -1.8332   -4.6658 H   0  0  0  0  0  0  0  0  0  0  0  0
    2.8749   -3.3480   -3.9306 H   0  0  0  0  0  0  0  0  0  0  0  0
    4.4571   -3.2700   -4.7170 H   0  0  0  0  0  0  0  0  0  0  0  0
    3.3411   -0.5332   -2.3487 H   0  0  0  0  0  0  0  0  0  0  0  0
    2.5189   -2.0484   -1.9261 H   0  0  0  0  0  0  0  0  0  0  0  0
    2.9889   -0.1527    2.7556 H   0  0  0  0  0  0  0  0  0  0  0  0
    3.2202   -1.9465    4.4263 H   0  0  0  0  0  0  0  0  0  0  0  0
    4.5307   -4.0141    3.8576 H   0  0  0  0  0  0  0  0  0  0  0  0
    7.6139   -1.2247    0.8796 H   0  0  0  0  0  0  0  0  0  0  0  0
    4.0300   -4.2009   -2.0197 H   0  0  0  0  0  0  0  0  0  0  0  0
    5.6946   -3.9033   -2.4797 H   0  0  0  0  0  0  0  0  0  0  0  0
    5.7779   -5.5035   -0.3732 H   0  0  0  0  0  0  0  0  0  0  0  0
    6.9511   -4.7061    0.6262 H   0  0  0  0  0  0  0  0  0  0  0  0
    6.3531   -6.8912    1.5581 H   0  0  0  0  0  0  0  0  0  0  0  0
    5.9222   -5.6351    2.6608 H   0  0  0  0  0  0  0  0  0  0  0  0
    4.0516   -7.1698    0.7768 H   0  0  0  0  0  0  0  0  0  0  0  0
    4.0700   -7.2516    2.5285 H   0  0  0  0  0  0  0  0  0  0  0  0
    2.1626   -5.8542    1.5744 H   0  0  0  0  0  0  0  0  0  0  0  0
    3.1171   -5.0640    2.7885 H   0  0  0  0  0  0  0  0  0  0  0  0
    2.7680   -3.5271    0.8524 H   0  0  0  0  0  0  0  0  0  0  0  0
    3.2347   -4.7775   -0.2310 H   0  0  0  0  0  0  0  0  0  0  0  0
  1  2  1  0
  1 23  1  0
  1 24  1  0
  1 25  1  0
  2 16  1  0
  2  3  1  0
  3  4  1  0
  3 26  1  0
  3 27  1  0
  4 15  1  0
  4  5  2  0
  5  6  1  0
  6 11  2  0
  6  7  1  0
  7  8  2  0
  7 28  1  0
  8  9  1  0
  8 29  1  0
  9 10  2  0
  9 30  1  0
 10 17  1  0
 10 11  1  0
 11 12  1  0
 12 13  1  0
 12 31  1  0
 13 14  2  0
 13 15  1  0
 15 16  1  6
 15 17  1  0
 16 32  1  0
 16 33  1  0
 17 22  1  0
 17 18  1  0
 18 19  1  0
 18 34  1  0
 18 35  1  0
 19 20  1  0
 19 36  1  0
 19 37  1  0
 20 21  1  0
 20 38  1  0
 20 39  1  0
 21 22  1  0
 21 40  1  0
 21 41  1  0
 22 42  1  0
 22 43  1  0
M  END
>  <i_m_ct_stereo_status>  (324) 
1

>  <s_m_source_file>  (324) 
/var/tmp/pbs.5076255.sched01/tmpbvzcvm50/120d7_yi5_y.sdf

>  <i_m_source_file_index>  (324) 
12

>  <i_lp_mmshare_version>  (324) 
48012

>  <i_f3d_flags>  (324) 
0

>  <s_epik_input>  (324) 
W0NIM11OKFtDSDJdMSlbQ0gyXUMyPU5jKFtjSF1bY0hdW2NIXTMpYyhbTkhdQzQ9TyljM0M1KFtDQEBdMTI0KVtDSDJdW0NIMl1bQ0gyXVtDSDJdW0NIMl01

>  <s_epik_cmdline>  (324) 
J2VwaWtfcHl0aG9uJywgJy1waHQnLCAnMi4wJywgJy1waCcsICc3LjAnLCAnLXRuJywgJzgnLCAnLW1hJywgJzIwMCcsICctaW1hZScsICc8aW5maWxlLm1hZT4nLCAnLW9tYWUnLCAnPG91dGZpbGUubWFlPic=

>  <r_lp_tautomer_probability>  (324) 
0.999601

>  <r_epik_Ionization_Penalty>  (324) 
0.40528

>  <r_epik_Ionization_Penalty_Charging>  (324) 
0

>  <r_epik_Ionization_Penalty_Neutral>  (324) 
0.40528

>  <r_epik_State_Penalty>  (324) 
0.400596

>  <r_epik_Charging_Adjusted_Penalty>  (324) 
0.400596

>  <i_epik_Tot_Q>  (324) 
0

>  <i_epik_Tot_abs_Q>  (324) 
0

>  <s_epik_Chemistry_Notes>  (324) 
This compound has an imine and may undergo hydrolysis.

>  <s_lp_Force_Field>  (324) 
OPLS3e

>  <r_lp_Energy>  (324) 
166.661

>  <b_lp_Chiralities_Consistent>  (324) 
1

>  <s_lp_Variant>  (324) 
94:0-1

>  <s_i_glide_gridfile>  (324) 
pfpi4k_grid

>  <i_i_glide_lignum>  (324) 
12

>  <i_i_glide_rotatable_bonds>  (324) 
0

>  <r_i_docking_score>  (324) 
-3.9796

>  <r_i_glide_ligand_efficiency>  (324) 
-0.180891

>  <r_i_glide_ligand_efficiency_sa>  (324) 
-0.506863

>  <r_i_glide_ligand_efficiency_ln>  (324) 
-0.972759

>  <r_i_glide_gscore>  (324) 
-3.9796

>  <r_i_glide_lipo>  (324) 
-0.617985

>  <r_i_glide_hbond>  (324) 
-0.16

>  <r_i_glide_metal>  (324) 
-0

>  <r_i_glide_rewards>  (324) 
-1.39514

>  <r_i_glide_evdw>  (324) 
-24.4178

>  <r_i_glide_ecoul>  (324) 
-3.37897

>  <r_i_glide_erotb>  (324) 
0

>  <r_i_glide_esite>  (324) 
-0.0787356

>  <r_i_glide_emodel>  (324) 
-34.2848

>  <r_i_glide_energy>  (324) 
-27.7968

>  <r_i_glide_einternal>  (324) 
0

>  <r_i_glide_intrahb_reward>  (324) 
-0

>  <i_i_glide_confnum>  (324) 
2

>  <i_i_glide_posenum>  (324) 
6

>  <r_i_glide_eff_state_penalty>  (324) 
0

>  <ligand_id>  (324) 
94

>  <original_smiles>  (324) 
CN1CC2=Nc3cccc4c3NC(=O)C2(C1)C41CCCCC1

>  <smiles>  (324) 
[H]c1c([H])c2c3c(c1[H])C1(C([H])([H])C([H])([H])C([H])([H])C([H])([H])C1([H])[H])C1(C(=O)N3[H])C(=N2)C([H])([H])N(C([H])([H])[H])C1([H])[H]

$$$$
94:0:1
     RDKit          3D

 43 47  0  0  1  0  0  0  0  0999 V2000
    3.6308   -1.3785   -4.4550 C   0  0  0  0  0  0  0  0  0  0  0  0
    4.2830   -1.4464   -3.1575 N   0  0  0  0  0  0  0  0  0  0  0  0
    3.5504   -0.6777   -2.1978 C   0  0  0  0  0  0  0  0  0  0  0  0
    4.0871   -1.0661   -0.8504 C   0  0  0  0  0  0  0  0  0  0  0  0
    4.0983   -0.2969    0.2055 N   0  0  0  0  0  0  0  0  0  0  0  0
    4.5581   -0.8519    1.4184 C   0  0  0  0  0  0  0  0  0  0  0  0
    3.6912   -0.8790    2.5371 C   0  0  0  0  0  0  0  0  0  0  0  0
    3.4672   -2.1127    3.2214 C   0  0  0  0  0  0  0  0  0  0  0  0
    3.9668   -3.3487    2.7128 C   0  0  0  0  0  0  0  0  0  0  0  0
    4.7487   -3.1537    1.5715 C   0  0  0  0  0  0  0  0  0  0  0  0
    5.4405   -1.9543    1.4068 C   0  0  0  0  0  0  0  0  0  0  0  0
    6.4987   -1.9184    0.4550 N   0  0  0  0  0  0  0  0  0  0  0  0
    6.2120   -2.2062   -0.8232 C   0  0  0  0  0  0  0  0  0  0  0  0
    7.0569   -2.2586   -1.7342 O   0  0  0  0  0  0  0  0  0  0  0  0
    4.7072   -2.4870   -1.0196 C   0  0  2  0  0  0  0  0  0  0  0  0
    4.3885   -2.7715   -2.5474 C   0  0  0  0  0  0  0  0  0  0  0  0
    4.2836   -3.5907    0.0805 C   0  0  0  0  0  0  0  0  0  0  0  0
    4.9546   -4.9516   -0.2626 C   0  0  0  0  0  0  0  0  0  0  0  0
    4.4676   -6.0796    0.6451 C   0  0  0  0  0  0  0  0  0  0  0  0
    2.9447   -6.2156    0.5945 C   0  0  0  0  0  0  0  0  0  0  0  0
    2.1372   -4.9412    0.8423 C   0  0  0  0  0  0  0  0  0  0  0  0
    2.7210   -3.7929   -0.0265 C   0  0  0  0  0  0  0  0  0  0  0  0
    3.5429   -0.3436   -4.8250 H   0  0  0  0  0  0  0  0  0  0  0  0
    2.6251   -1.8134   -4.4177 H   0  0  0  0  0  0  0  0  0  0  0  0
    4.2573   -1.9197   -5.1383 H   0  0  0  0  0  0  0  0  0  0  0  0
    3.8483    0.3313   -2.4518 H   0  0  0  0  0  0  0  0  0  0  0  0
    2.4701   -0.8684   -2.2568 H   0  0  0  0  0  0  0  0  0  0  0  0
    3.0469   -0.0393    2.7444 H   0  0  0  0  0  0  0  0  0  0  0  0
    2.7672   -2.1132    4.0437 H   0  0  0  0  0  0  0  0  0  0  0  0
    3.6280   -4.2980    3.1159 H   0  0  0  0  0  0  0  0  0  0  0  0
    7.4349   -1.7610    0.7774 H   0  0  0  0  0  0  0  0  0  0  0  0
    3.4422   -3.2770   -2.7081 H   0  0  0  0  0  0  0  0  0  0  0  0
    5.1806   -3.2965   -3.0795 H   0  0  0  0  0  0  0  0  0  0  0  0
    4.7785   -5.2086   -1.3153 H   0  0  0  0  0  0  0  0  0  0  0  0
    6.0364   -4.8899   -0.1661 H   0  0  0  0  0  0  0  0  0  0  0  0
    4.9125   -7.0218    0.3212 H   0  0  0  0  0  0  0  0  0  0  0  0
    4.7662   -5.9195    1.6766 H   0  0  0  0  0  0  0  0  0  0  0  0
    2.7314   -6.3741   -0.4376 H   0  0  0  0  0  0  0  0  0  0  0  0
    2.5623   -7.0432    1.2066 H   0  0  0  0  0  0  0  0  0  0  0  0
    1.1276   -5.1653    0.4474 H   0  0  0  0  0  0  0  0  0  0  0  0
    2.0515   -4.7339    1.8708 H   0  0  0  0  0  0  0  0  0  0  0  0
    2.1988   -2.8676    0.2187 H   0  0  0  0  0  0  0  0  0  0  0  0
    2.4400   -3.9692   -1.0773 H   0  0  0  0  0  0  0  0  0  0  0  0
  1  2  1  0
  1 23  1  0
  1 24  1  0
  1 25  1  0
  2 16  1  0
  2  3  1  0
  3  4  1  0
  3 26  1  0
  3 27  1  0
  4 15  1  0
  4  5  2  0
  5  6  1  0
  6 11  2  0
  6  7  1  0
  7  8  2  0
  7 28  1  0
  8  9  1  0
  8 29  1  0
  9 10  2  0
  9 30  1  0
 10 17  1  0
 10 11  1  0
 11 12  1  0
 12 13  1  0
 12 31  1  0
 13 14  2  0
 13 15  1  0
 15 16  1  6
 15 17  1  0
 16 32  1  0
 16 33  1  0
 17 22  1  0
 17 18  1  0
 18 19  1  0
 18 34  1  0
 18 35  1  0
 19 20  1  0
 19 36  1  0
 19 37  1  0
 20 21  1  0
 20 38  1  0
 20 39  1  0
 21 22  1  0
 21 40  1  0
 21 41  1  0
 22 42  1  0
 22 43  1  0
M  END
>  <i_m_ct_stereo_status>  (325) 
1

>  <s_m_source_file>  (325) 
/var/tmp/pbs.5076255.sched01/tmpbvzcvm50/120d7_yi5_y.sdf

>  <i_m_source_file_index>  (325) 
12

>  <i_lp_mmshare_version>  (325) 
48012

>  <i_f3d_flags>  (325) 
0

>  <s_epik_input>  (325) 
W0NIM11OKFtDSDJdMSlbQ0gyXUMyPU5jKFtjSF1bY0hdW2NIXTMpYyhbTkhdQzQ9TyljM0M1KFtDQEBdMTI0KVtDSDJdW0NIMl1bQ0gyXVtDSDJdW0NIMl01

>  <s_epik_cmdline>  (325) 
J2VwaWtfcHl0aG9uJywgJy1waHQnLCAnMi4wJywgJy1waCcsICc3LjAnLCAnLXRuJywgJzgnLCAnLW1hJywgJzIwMCcsICctaW1hZScsICc8aW5maWxlLm1hZT4nLCAnLW9tYWUnLCAnPG91dGZpbGUubWFlPic=

>  <r_lp_tautomer_probability>  (325) 
0.999601

>  <r_epik_Ionization_Penalty>  (325) 
0.40528

>  <r_epik_Ionization_Penalty_Charging>  (325) 
0

>  <r_epik_Ionization_Penalty_Neutral>  (325) 
0.40528

>  <r_epik_State_Penalty>  (325) 
0.400596

>  <r_epik_Charging_Adjusted_Penalty>  (325) 
0.400596

>  <i_epik_Tot_Q>  (325) 
0

>  <i_epik_Tot_abs_Q>  (325) 
0

>  <s_epik_Chemistry_Notes>  (325) 
This compound has an imine and may undergo hydrolysis.

>  <s_lp_Force_Field>  (325) 
OPLS3e

>  <r_lp_Energy>  (325) 
166.661

>  <b_lp_Chiralities_Consistent>  (325) 
1

>  <s_lp_Variant>  (325) 
94:0-1

>  <s_i_glide_gridfile>  (325) 
pfpi4k_grid

>  <i_i_glide_lignum>  (325) 
12

>  <i_i_glide_rotatable_bonds>  (325) 
0

>  <r_i_docking_score>  (325) 
-3.1085

>  <r_i_glide_ligand_efficiency>  (325) 
-0.141296

>  <r_i_glide_ligand_efficiency_sa>  (325) 
-0.395916

>  <r_i_glide_ligand_efficiency_ln>  (325) 
-0.759832

>  <r_i_glide_gscore>  (325) 
-3.1085

>  <r_i_glide_lipo>  (325) 
-0.404737

>  <r_i_glide_hbond>  (325) 
-0.16

>  <r_i_glide_metal>  (325) 
-0

>  <r_i_glide_rewards>  (325) 
-1.39514

>  <r_i_glide_evdw>  (325) 
-16.6655

>  <r_i_glide_ecoul>  (325) 
-1.55304

>  <r_i_glide_erotb>  (325) 
0

>  <r_i_glide_esite>  (325) 
-0.0823933

>  <r_i_glide_emodel>  (325) 
-22.3209

>  <r_i_glide_energy>  (325) 
-18.2185

>  <r_i_glide_einternal>  (325) 
0

>  <r_i_glide_intrahb_reward>  (325) 
-0

>  <i_i_glide_confnum>  (325) 
4

>  <i_i_glide_posenum>  (325) 
27

>  <r_i_glide_eff_state_penalty>  (325) 
0

>  <ligand_id>  (325) 
94

>  <original_smiles>  (325) 
CN1CC2=Nc3cccc4c3NC(=O)C2(C1)C41CCCCC1

>  <smiles>  (325) 
[H]c1c([H])c2c3c(c1[H])C1(C([H])([H])C([H])([H])C([H])([H])C([H])([H])C1([H])[H])C1(C(=O)N3[H])C(=N2)C([H])([H])N(C([H])([H])[H])C1([H])[H]

$$$$
94:0:2
     RDKit          3D

 43 47  0  0  1  0  0  0  0  0999 V2000
    2.9786   -0.0035    1.5072 C   0  0  0  0  0  0  0  0  0  0  0  0
    2.2089    1.1163    2.0233 N   0  0  0  0  0  0  0  0  0  0  0  0
    0.7782    0.8485    2.0471 C   0  0  0  0  0  0  0  0  0  0  0  0
    0.2082    1.9204    2.9329 C   0  0  0  0  0  0  0  0  0  0  0  0
   -1.0104    2.3537    2.8661 N   0  0  0  0  0  0  0  0  0  0  0  0
   -1.4277    3.3082    3.8138 C   0  0  0  0  0  0  0  0  0  0  0  0
   -2.5524    3.0343    4.6184 C   0  0  0  0  0  0  0  0  0  0  0  0
   -2.4537    3.1265    6.0267 C   0  0  0  0  0  0  0  0  0  0  0  0
   -1.1961    3.3408    6.6629 C   0  0  0  0  0  0  0  0  0  0  0  0
   -0.1645    3.5683    5.7267 C   0  0  0  0  0  0  0  0  0  0  0  0
   -0.4827    4.1225    4.4877 C   0  0  0  0  0  0  0  0  0  0  0  0
    0.5843    4.6709    3.7167 N   0  0  0  0  0  0  0  0  0  0  0  0
    1.6049    3.8876    3.3828 C   0  0  0  0  0  0  0  0  0  0  0  0
    2.6424    4.2798    2.8123 O   0  0  0  0  0  0  0  0  0  0  0  0
    1.3740    2.4340    3.8657 C   0  0  2  0  0  0  0  0  0  0  0  0
    2.5444    1.5016    3.3966 C   0  0  0  0  0  0  0  0  0  0  0  0
    1.0217    2.5368    5.4578 C   0  0  0  0  0  0  0  0  0  0  0  0
    2.2737    3.0079    6.2567 C   0  0  0  0  0  0  0  0  0  0  0  0
    2.0741    2.9106    7.7750 C   0  0  0  0  0  0  0  0  0  0  0  0
    1.7194    1.4778    8.2195 C   0  0  0  0  0  0  0  0  0  0  0  0
    0.4860    0.9149    7.4782 C   0  0  0  0  0  0  0  0  0  0  0  0
    0.6663    1.0873    5.9568 C   0  0  0  0  0  0  0  0  0  0  0  0
    2.6586   -0.2550    0.4917 H   0  0  0  0  0  0  0  0  0  0  0  0
    2.8619   -0.8915    2.1321 H   0  0  0  0  0  0  0  0  0  0  0  0
    4.0358    0.2615    1.4720 H   0  0  0  0  0  0  0  0  0  0  0  0
    0.3285    0.8845    1.0545 H   0  0  0  0  0  0  0  0  0  0  0  0
    0.5673   -0.1209    2.5029 H   0  0  0  0  0  0  0  0  0  0  0  0
   -3.4140    2.5644    4.1597 H   0  0  0  0  0  0  0  0  0  0  0  0
   -3.3169    2.8514    6.6214 H   0  0  0  0  0  0  0  0  0  0  0  0
   -1.0549    3.1525    7.7221 H   0  0  0  0  0  0  0  0  0  0  0  0
    0.5909    5.6600    3.4957 H   0  0  0  0  0  0  0  0  0  0  0  0
    2.6443    0.6057    3.9997 H   0  0  0  0  0  0  0  0  0  0  0  0
    3.5143    1.9989    3.3955 H   0  0  0  0  0  0  0  0  0  0  0  0
    3.1521    2.4127    5.9840 H   0  0  0  0  0  0  0  0  0  0  0  0
    2.5350    4.0358    5.9977 H   0  0  0  0  0  0  0  0  0  0  0  0
    2.9754    3.2476    8.2838 H   0  0  0  0  0  0  0  0  0  0  0  0
    1.2985    3.6125    8.0870 H   0  0  0  0  0  0  0  0  0  0  0  0
    2.6013    0.8359    8.0662 H   0  0  0  0  0  0  0  0  0  0  0  0
    1.5176    1.4741    9.2898 H   0  0  0  0  0  0  0  0  0  0  0  0
    0.4022   -0.1635    7.7008 H   0  0  0  0  0  0  0  0  0  0  0  0
   -0.4160    1.3968    7.8330 H   0  0  0  0  0  0  0  0  0  0  0  0
   -0.2192    0.7217    5.4397 H   0  0  0  0  0  0  0  0  0  0  0  0
    1.4622    0.3907    5.6453 H   0  0  0  0  0  0  0  0  0  0  0  0
  1  2  1  0
  1 23  1  0
  1 24  1  0
  1 25  1  0
  2 16  1  0
  2  3  1  0
  3  4  1  0
  3 26  1  0
  3 27  1  0
  4 15  1  0
  4  5  2  0
  5  6  1  0
  6 11  2  0
  6  7  1  0
  7  8  2  0
  7 28  1  0
  8  9  1  0
  8 29  1  0
  9 10  2  0
  9 30  1  0
 10 17  1  0
 10 11  1  0
 11 12  1  0
 12 13  1  0
 12 31  1  0
 13 14  2  0
 13 15  1  0
 15 16  1  1
 15 17  1  0
 16 32  1  0
 16 33  1  0
 17 22  1  0
 17 18  1  0
 18 19  1  0
 18 34  1  0
 18 35  1  0
 19 20  1  0
 19 36  1  0
 19 37  1  0
 20 21  1  0
 20 38  1  0
 20 39  1  0
 21 22  1  0
 21 40  1  0
 21 41  1  0
 22 42  1  0
 22 43  1  0
M  END
>  <i_m_ct_stereo_status>  (326) 
1

>  <s_m_source_file>  (326) 
/var/tmp/pbs.5076255.sched01/tmpbvzcvm50/120d7_yi5_y.sdf

>  <i_m_source_file_index>  (326) 
12

>  <i_lp_mmshare_version>  (326) 
48012

>  <i_f3d_flags>  (326) 
0

>  <s_epik_input>  (326) 
W0NIM11OKFtDSDJdMSlbQ0gyXUMyPU5jKFtjSF1bY0hdW2NIXTMpYyhbTkhdQzQ9TyljM0M1KFtDQEBdMTI0KVtDSDJdW0NIMl1bQ0gyXVtDSDJdW0NIMl01

>  <s_epik_cmdline>  (326) 
J2VwaWtfcHl0aG9uJywgJy1waHQnLCAnMi4wJywgJy1waCcsICc3LjAnLCAnLXRuJywgJzgnLCAnLW1hJywgJzIwMCcsICctaW1hZScsICc8aW5maWxlLm1hZT4nLCAnLW9tYWUnLCAnPG91dGZpbGUubWFlPic=

>  <r_lp_tautomer_probability>  (326) 
0.999601

>  <r_epik_Ionization_Penalty>  (326) 
0.40528

>  <r_epik_Ionization_Penalty_Charging>  (326) 
0

>  <r_epik_Ionization_Penalty_Neutral>  (326) 
0.40528

>  <r_epik_State_Penalty>  (326) 
0.400596

>  <r_epik_Charging_Adjusted_Penalty>  (326) 
0.400596

>  <i_epik_Tot_Q>  (326) 
0

>  <i_epik_Tot_abs_Q>  (326) 
0

>  <s_epik_Chemistry_Notes>  (326) 
This compound has an imine and may undergo hydrolysis.

>  <s_lp_Force_Field>  (326) 
OPLS3e

>  <r_lp_Energy>  (326) 
166.661

>  <b_lp_Chiralities_Consistent>  (326) 
1

>  <s_lp_Variant>  (326) 
94:0-1

>  <s_i_glide_gridfile>  (326) 
pfpi4k_grid

>  <i_i_glide_lignum>  (326) 
12

>  <i_i_glide_rotatable_bonds>  (326) 
0

>  <r_i_docking_score>  (326) 
-2.77201

>  <r_i_glide_ligand_efficiency>  (326) 
-0.126

>  <r_i_glide_ligand_efficiency_sa>  (326) 
-0.353058

>  <r_i_glide_ligand_efficiency_ln>  (326) 
-0.677579

>  <r_i_glide_gscore>  (326) 
-2.77201

>  <r_i_glide_lipo>  (326) 
-0.0907147

>  <r_i_glide_hbond>  (326) 
0

>  <r_i_glide_metal>  (326) 
-0

>  <r_i_glide_rewards>  (326) 
-1.39514

>  <r_i_glide_evdw>  (326) 
-20.8834

>  <r_i_glide_ecoul>  (326) 
-0.0670152

>  <r_i_glide_erotb>  (326) 
0

>  <r_i_glide_esite>  (326) 
-0.231924

>  <r_i_glide_emodel>  (326) 
-24.9499

>  <r_i_glide_energy>  (326) 
-20.9504

>  <r_i_glide_einternal>  (326) 
0

>  <r_i_glide_intrahb_reward>  (326) 
-0

>  <i_i_glide_confnum>  (326) 
4

>  <i_i_glide_posenum>  (326) 
3

>  <r_i_glide_eff_state_penalty>  (326) 
0

>  <ligand_id>  (326) 
94

>  <original_smiles>  (326) 
CN1CC2=Nc3cccc4c3NC(=O)C2(C1)C41CCCCC1

>  <smiles>  (326) 
[H]c1c([H])c2c3c(c1[H])C1(C([H])([H])C([H])([H])C([H])([H])C([H])([H])C1([H])[H])C1(C(=O)N3[H])C(=N2)C([H])([H])N(C([H])([H])[H])C1([H])[H]

$$$$
94:1:0
     RDKit          3D

 44 48  0  0  1  0  0  0  0  0999 V2000
    3.6036   -2.9292   -3.7841 C   0  0  0  0  0  0  0  0  0  0  0  0
    4.1145   -2.5816   -2.4283 N   0  0  1  0  0  0  0  0  0  0  0  0
    3.0573   -2.1377   -1.4880 C   0  0  0  0  0  0  0  0  0  0  0  0
    3.7150   -2.2246   -0.1362 C   0  0  0  0  0  0  0  0  0  0  0  0
    3.3378   -1.5223    0.8807 N   0  0  0  0  0  0  0  0  0  0  0  0
    3.9677   -1.7427    2.1253 C   0  0  0  0  0  0  0  0  0  0  0  0
    3.2015   -2.1261    3.2538 C   0  0  0  0  0  0  0  0  0  0  0  0
    3.5719   -3.2719    4.0072 C   0  0  0  0  0  0  0  0  0  0  0  0
    4.6034   -4.1386    3.5637 C   0  0  0  0  0  0  0  0  0  0  0  0
    5.2404   -3.6601    2.3861 C   0  0  0  0  0  0  0  0  0  0  0  0
    5.2700   -2.2816    2.1561 C   0  0  0  0  0  0  0  0  0  0  0  0
    6.2354   -1.8211    1.2239 N   0  0  0  0  0  0  0  0  0  0  0  0
    6.1589   -2.2469   -0.0402 C   0  0  0  0  0  0  0  0  0  0  0  0
    6.9150   -1.9215   -0.9502 O   0  0  0  0  0  0  0  0  0  0  0  0
    4.9534   -3.1934   -0.2372 C   0  0  2  0  0  0  0  0  0  0  0  0
    4.8773   -3.6525   -1.7265 C   0  0  0  0  0  0  0  0  0  0  0  0
    5.0734   -4.3357    0.9529 C   0  0  0  0  0  0  0  0  0  0  0  0
    3.7876   -5.2352    0.8348 C   0  0  0  0  0  0  0  0  0  0  0  0
    3.7581   -6.5073    1.7140 C   0  0  0  0  0  0  0  0  0  0  0  0
    5.0591   -7.3186    1.5389 C   0  0  0  0  0  0  0  0  0  0  0  0
    6.3324   -6.4545    1.6656 C   0  0  0  0  0  0  0  0  0  0  0  0
    6.3092   -5.2505    0.7021 C   0  0  0  0  0  0  0  0  0  0  0  0
    2.8944   -3.7611   -3.7454 H   0  0  0  0  0  0  0  0  0  0  0  0
    4.4357   -3.2084   -4.4241 H   0  0  0  0  0  0  0  0  0  0  0  0
    3.0991   -2.0692   -4.2297 H   0  0  0  0  0  0  0  0  0  0  0  0
    2.7268   -1.1242   -1.7182 H   0  0  0  0  0  0  0  0  0  0  0  0
    2.2054   -2.8155   -1.5174 H   0  0  0  0  0  0  0  0  0  0  0  0
    2.2392   -1.6778    3.4412 H   0  0  0  0  0  0  0  0  0  0  0  0
    2.9491   -3.5922    4.8242 H   0  0  0  0  0  0  0  0  0  0  0  0
    4.7554   -5.1099    4.0173 H   0  0  0  0  0  0  0  0  0  0  0  0
    6.9652   -1.1943    1.5355 H   0  0  0  0  0  0  0  0  0  0  0  0
    4.3198   -4.5758   -1.8566 H   0  0  0  0  0  0  0  0  0  0  0  0
    5.8359   -3.8066   -2.2183 H   0  0  0  0  0  0  0  0  0  0  0  0
    2.9047   -4.6402    1.0366 H   0  0  0  0  0  0  0  0  0  0  0  0
    3.6659   -5.5917   -0.1849 H   0  0  0  0  0  0  0  0  0  0  0  0
    3.5765   -6.2996    2.7567 H   0  0  0  0  0  0  0  0  0  0  0  0
    2.8842   -7.1188    1.4453 H   0  0  0  0  0  0  0  0  0  0  0  0
    5.0856   -8.0986    2.2938 H   0  0  0  0  0  0  0  0  0  0  0  0
    5.0570   -7.8017    0.5704 H   0  0  0  0  0  0  0  0  0  0  0  0
    6.4770   -6.1049    2.6918 H   0  0  0  0  0  0  0  0  0  0  0  0
    7.2156   -7.0663    1.4652 H   0  0  0  0  0  0  0  0  0  0  0  0
    6.3139   -5.6289   -0.3167 H   0  0  0  0  0  0  0  0  0  0  0  0
    7.2429   -4.6907    0.8195 H   0  0  0  0  0  0  0  0  0  0  0  0
    4.7369   -1.7965   -2.5272 H   0  0  0  0  0  0  0  0  0  0  0  0
  1  2  1  0
  1 23  1  0
  1 24  1  0
  1 25  1  0
  2 16  1  0
  2  3  1  0
  2 44  1  6
  3  4  1  0
  3 26  1  0
  3 27  1  0
  4 15  1  0
  4  5  2  0
  5  6  1  0
  6 11  2  0
  6  7  1  0
  7  8  2  0
  7 28  1  0
  8  9  1  0
  8 29  1  0
  9 10  2  0
  9 30  1  0
 10 17  1  0
 10 11  1  0
 11 12  1  0
 12 13  1  0
 12 31  1  0
 13 14  2  0
 13 15  1  0
 15 16  1  6
 15 17  1  0
 16 32  1  0
 16 33  1  0
 17 22  1  0
 17 18  1  0
 18 19  1  0
 18 34  1  0
 18 35  1  0
 19 20  1  0
 19 36  1  0
 19 37  1  0
 20 21  1  0
 20 38  1  0
 20 39  1  0
 21 22  1  0
 21 40  1  0
 21 41  1  0
 22 42  1  0
 22 43  1  0
M  CHG  1   2   1
M  END
>  <i_m_ct_stereo_status>  (327) 
1

>  <s_m_source_file>  (327) 
/var/tmp/pbs.5076255.sched01/tmpbvzcvm50/120d7_yi5_y.sdf

>  <i_m_source_file_index>  (327) 
13

>  <i_lp_mmshare_version>  (327) 
48012

>  <i_f3d_flags>  (327) 
0

>  <s_epik_input>  (327) 
W0NIM11OKFtDSDJdMSlbQ0gyXUMyPU5jKFtjSF1bY0hdW2NIXTMpYyhbTkhdQzQ9TyljM0M1KFtDQEBdMTI0KVtDSDJdW0NIMl1bQ0gyXVtDSDJdW0NIMl01

>  <s_epik_cmdline>  (327) 
J2VwaWtfcHl0aG9uJywgJy1waHQnLCAnMi4wJywgJy1waCcsICc3LjAnLCAnLXRuJywgJzgnLCAnLW1hJywgJzIwMCcsICctaW1hZScsICc8aW5maWxlLm1hZT4nLCAnLW9tYWUnLCAnPG91dGZpbGUubWFlPic=

>  <r_epik_Ionization_Penalty>  (327) 
0.420433

>  <r_epik_Ionization_Penalty_Charging>  (327) 
0.420357

>  <r_epik_Ionization_Penalty_Neutral>  (327) 
7.58497e-05

>  <r_epik_State_Penalty>  (327) 
0.421083

>  <r_epik_Charging_Adjusted_Penalty>  (327) 
0.84144

>  <i_epik_Tot_Q>  (327) 
1

>  <i_epik_Tot_abs_Q>  (327) 
1

>  <s_epik_Chemistry_Notes>  (327) 
This compound has an imine and may undergo hydrolysis.

>  <s_lp_Force_Field>  (327) 
OPLS3e

>  <r_lp_Energy>  (327) 
183.001

>  <b_lp_Chiralities_Consistent>  (327) 
1

>  <s_lp_Variant>  (327) 
94:0-2

>  <s_i_glide_gridfile>  (327) 
pfpi4k_grid

>  <i_i_glide_lignum>  (327) 
13

>  <i_i_glide_rotatable_bonds>  (327) 
0

>  <r_i_docking_score>  (327) 
-4.11328

>  <r_i_glide_ligand_efficiency>  (327) 
-0.186967

>  <r_i_glide_ligand_efficiency_sa>  (327) 
-0.523889

>  <r_i_glide_ligand_efficiency_ln>  (327) 
-1.00544

>  <r_i_glide_gscore>  (327) 
-4.11328

>  <r_i_glide_lipo>  (327) 
-0.646595

>  <r_i_glide_hbond>  (327) 
-0.16

>  <r_i_glide_metal>  (327) 
-0

>  <r_i_glide_rewards>  (327) 
-1.38827

>  <r_i_glide_evdw>  (327) 
-19.1457

>  <r_i_glide_ecoul>  (327) 
-6.12373

>  <r_i_glide_erotb>  (327) 
0

>  <r_i_glide_esite>  (327) 
-0.0425684

>  <r_i_glide_emodel>  (327) 
-32.0383

>  <r_i_glide_energy>  (327) 
-25.2694

>  <r_i_glide_einternal>  (327) 
0

>  <r_i_glide_intrahb_reward>  (327) 
-0

>  <i_i_glide_confnum>  (327) 
2

>  <i_i_glide_posenum>  (327) 
24

>  <r_i_glide_eff_state_penalty>  (327) 
0

>  <ligand_id>  (327) 
94

>  <original_smiles>  (327) 
CN1CC2=Nc3cccc4c3NC(=O)C2(C1)C41CCCCC1

>  <smiles>  (327) 
[H]c1c([H])c2c3c(c1[H])C1(C([H])([H])C([H])([H])C([H])([H])C([H])([H])C1([H])[H])C1(C(=O)N3[H])C(=N2)C([H])([H])[N+]([H])(C([H])([H])[H])C1([H])[H]

$$$$
94:1:1
     RDKit          3D

 44 48  0  0  1  0  0  0  0  0999 V2000
    3.5031   -2.8137   -4.1123 C   0  0  0  0  0  0  0  0  0  0  0  0
    4.1514   -2.3972   -2.8405 N   0  0  1  0  0  0  0  0  0  0  0  0
    3.3023   -1.5353   -1.9892 C   0  0  0  0  0  0  0  0  0  0  0  0
    3.9714   -1.5714   -0.6402 C   0  0  0  0  0  0  0  0  0  0  0  0
    3.8488   -0.6400    0.2423 N   0  0  0  0  0  0  0  0  0  0  0  0
    4.4599   -0.8099    1.4969 C   0  0  0  0  0  0  0  0  0  0  0  0
    3.6784   -0.7727    2.6847 C   0  0  0  0  0  0  0  0  0  0  0  0
    3.7709   -1.8433    3.6176 C   0  0  0  0  0  0  0  0  0  0  0  0
    4.5104   -3.0121    3.3160 C   0  0  0  0  0  0  0  0  0  0  0  0
    5.1825   -2.9204    2.0847 C   0  0  0  0  0  0  0  0  0  0  0  0
    5.5757   -1.6615    1.6268 C   0  0  0  0  0  0  0  0  0  0  0  0
    6.5825   -1.6425    0.6222 N   0  0  0  0  0  0  0  0  0  0  0  0
    6.3234   -2.2308   -0.5532 C   0  0  0  0  0  0  0  0  0  0  0  0
    7.0904   -2.2533   -1.5216 O   0  0  0  0  0  0  0  0  0  0  0  0
    4.9093   -2.8416   -0.5702 C   0  0  2  0  0  0  0  0  0  0  0  0
    4.6366   -3.5000   -1.9664 C   0  0  0  0  0  0  0  0  0  0  0  0
    4.7838   -3.7615    0.7841 C   0  0  0  0  0  0  0  0  0  0  0  0
    3.3016   -4.2852    0.8411 C   0  0  0  0  0  0  0  0  0  0  0  0
    2.9861   -5.3271    1.9268 C   0  0  0  0  0  0  0  0  0  0  0  0
    4.0114   -6.4731    1.8893 C   0  0  0  0  0  0  0  0  0  0  0  0
    5.4771   -5.9819    1.8561 C   0  0  0  0  0  0  0  0  0  0  0  0
    5.7268   -4.9985    0.7006 C   0  0  0  0  0  0  0  0  0  0  0  0
    2.5956   -3.4112   -3.9254 H   0  0  0  0  0  0  0  0  0  0  0  0
    4.1975   -3.4163   -4.7046 H   0  0  0  0  0  0  0  0  0  0  0  0
    3.2189   -1.9326   -4.6998 H   0  0  0  0  0  0  0  0  0  0  0  0
    3.2196   -0.5151   -2.3798 H   0  0  0  0  0  0  0  0  0  0  0  0
    2.3025   -1.9765   -1.9170 H   0  0  0  0  0  0  0  0  0  0  0  0
    2.8763   -0.0583    2.7885 H   0  0  0  0  0  0  0  0  0  0  0  0
    3.1232   -1.8362    4.4785 H   0  0  0  0  0  0  0  0  0  0  0  0
    4.3998   -3.9076    3.9161 H   0  0  0  0  0  0  0  0  0  0  0  0
    7.4582   -1.1965    0.8255 H   0  0  0  0  0  0  0  0  0  0  0  0
    3.8429   -4.2490   -1.9358 H   0  0  0  0  0  0  0  0  0  0  0  0
    5.4983   -3.9858   -2.4299 H   0  0  0  0  0  0  0  0  0  0  0  0
    2.6209   -3.4434    0.9306 H   0  0  0  0  0  0  0  0  0  0  0  0
    3.0412   -4.7573   -0.1064 H   0  0  0  0  0  0  0  0  0  0  0  0
    2.9471   -4.8897    2.9213 H   0  0  0  0  0  0  0  0  0  0  0  0
    1.9775   -5.7192    1.7738 H   0  0  0  0  0  0  0  0  0  0  0  0
    3.8757   -7.1042    2.7640 H   0  0  0  0  0  0  0  0  0  0  0  0
    3.8400   -7.0989    1.0138 H   0  0  0  0  0  0  0  0  0  0  0  0
    5.7575   -5.5147    2.7999 H   0  0  0  0  0  0  0  0  0  0  0  0
    6.1577   -6.8329    1.7628 H   0  0  0  0  0  0  0  0  0  0  0  0
    5.5950   -5.5321   -0.2477 H   0  0  0  0  0  0  0  0  0  0  0  0
    6.7756   -4.6923    0.7117 H   0  0  0  0  0  0  0  0  0  0  0  0
    4.9647   -1.8353   -3.0802 H   0  0  0  0  0  0  0  0  0  0  0  0
  1  2  1  0
  1 23  1  0
  1 24  1  0
  1 25  1  0
  2 16  1  0
  2  3  1  0
  2 44  1  6
  3  4  1  0
  3 26  1  0
  3 27  1  0
  4 15  1  0
  4  5  2  0
  5  6  1  0
  6 11  2  0
  6  7  1  0
  7  8  2  0
  7 28  1  0
  8  9  1  0
  8 29  1  0
  9 10  2  0
  9 30  1  0
 10 17  1  0
 10 11  1  0
 11 12  1  0
 12 13  1  0
 12 31  1  0
 13 14  2  0
 13 15  1  0
 15 16  1  6
 15 17  1  0
 16 32  1  0
 16 33  1  0
 17 22  1  0
 17 18  1  0
 18 19  1  0
 18 34  1  0
 18 35  1  0
 19 20  1  0
 19 36  1  0
 19 37  1  0
 20 21  1  0
 20 38  1  0
 20 39  1  0
 21 22  1  0
 21 40  1  0
 21 41  1  0
 22 42  1  0
 22 43  1  0
M  CHG  1   2   1
M  END
>  <i_m_ct_stereo_status>  (328) 
1

>  <s_m_source_file>  (328) 
/var/tmp/pbs.5076255.sched01/tmpbvzcvm50/120d7_yi5_y.sdf

>  <i_m_source_file_index>  (328) 
13

>  <i_lp_mmshare_version>  (328) 
48012

>  <i_f3d_flags>  (328) 
0

>  <s_epik_input>  (328) 
W0NIM11OKFtDSDJdMSlbQ0gyXUMyPU5jKFtjSF1bY0hdW2NIXTMpYyhbTkhdQzQ9TyljM0M1KFtDQEBdMTI0KVtDSDJdW0NIMl1bQ0gyXVtDSDJdW0NIMl01

>  <s_epik_cmdline>  (328) 
J2VwaWtfcHl0aG9uJywgJy1waHQnLCAnMi4wJywgJy1waCcsICc3LjAnLCAnLXRuJywgJzgnLCAnLW1hJywgJzIwMCcsICctaW1hZScsICc8aW5maWxlLm1hZT4nLCAnLW9tYWUnLCAnPG91dGZpbGUubWFlPic=

>  <r_epik_Ionization_Penalty>  (328) 
0.420433

>  <r_epik_Ionization_Penalty_Charging>  (328) 
0.420357

>  <r_epik_Ionization_Penalty_Neutral>  (328) 
7.58497e-05

>  <r_epik_State_Penalty>  (328) 
0.421083

>  <r_epik_Charging_Adjusted_Penalty>  (328) 
0.84144

>  <i_epik_Tot_Q>  (328) 
1

>  <i_epik_Tot_abs_Q>  (328) 
1

>  <s_epik_Chemistry_Notes>  (328) 
This compound has an imine and may undergo hydrolysis.

>  <s_lp_Force_Field>  (328) 
OPLS3e

>  <r_lp_Energy>  (328) 
183.001

>  <b_lp_Chiralities_Consistent>  (328) 
1

>  <s_lp_Variant>  (328) 
94:0-2

>  <s_i_glide_gridfile>  (328) 
pfpi4k_grid

>  <i_i_glide_lignum>  (328) 
13

>  <i_i_glide_rotatable_bonds>  (328) 
0

>  <r_i_docking_score>  (328) 
-3.94055

>  <r_i_glide_ligand_efficiency>  (328) 
-0.179116

>  <r_i_glide_ligand_efficiency_sa>  (328) 
-0.501889

>  <r_i_glide_ligand_efficiency_ln>  (328) 
-0.963213

>  <r_i_glide_gscore>  (328) 
-3.94055

>  <r_i_glide_lipo>  (328) 
-0.489814

>  <r_i_glide_hbond>  (328) 
-0.16

>  <r_i_glide_metal>  (328) 
-0

>  <r_i_glide_rewards>  (328) 
-1.38827

>  <r_i_glide_evdw>  (328) 
-22.4704

>  <r_i_glide_ecoul>  (328) 
-4.60056

>  <r_i_glide_erotb>  (328) 
0

>  <r_i_glide_esite>  (328) 
-0.0888562

>  <r_i_glide_emodel>  (328) 
-33.5238

>  <r_i_glide_energy>  (328) 
-27.071

>  <r_i_glide_einternal>  (328) 
0

>  <r_i_glide_intrahb_reward>  (328) 
-0

>  <i_i_glide_confnum>  (328) 
4

>  <i_i_glide_posenum>  (328) 
20

>  <r_i_glide_eff_state_penalty>  (328) 
0

>  <ligand_id>  (328) 
94

>  <original_smiles>  (328) 
CN1CC2=Nc3cccc4c3NC(=O)C2(C1)C41CCCCC1

>  <smiles>  (328) 
[H]c1c([H])c2c3c(c1[H])C1(C([H])([H])C([H])([H])C([H])([H])C([H])([H])C1([H])[H])C1(C(=O)N3[H])C(=N2)C([H])([H])[N+]([H])(C([H])([H])[H])C1([H])[H]

$$$$
94:1:2
     RDKit          3D

 44 48  0  0  1  0  0  0  0  0999 V2000
    3.0083   -2.0523   -3.9952 C   0  0  0  0  0  0  0  0  0  0  0  0
    3.9636   -2.0797   -2.8716 N   0  0  1  0  0  0  0  0  0  0  0  0
    3.7241   -1.0523   -1.8573 C   0  0  0  0  0  0  0  0  0  0  0  0
    4.5212   -1.4855   -0.6642 C   0  0  0  0  0  0  0  0  0  0  0  0
    4.9448   -0.6774    0.2440 N   0  0  0  0  0  0  0  0  0  0  0  0
    5.6404   -1.2179    1.3453 C   0  0  0  0  0  0  0  0  0  0  0  0
    5.1527   -1.0080    2.6714 C   0  0  0  0  0  0  0  0  0  0  0  0
    4.9549   -2.1375    3.5318 C   0  0  0  0  0  0  0  0  0  0  0  0
    5.0871   -3.4538    3.0708 C   0  0  0  0  0  0  0  0  0  0  0  0
    5.5198   -3.5067    1.7360 C   0  0  0  0  0  0  0  0  0  0  0  0
    6.3013   -2.4559    1.2285 C   0  0  0  0  0  0  0  0  0  0  0  0
    7.0428   -2.7335    0.0489 N   0  0  0  0  0  0  0  0  0  0  0  0
    6.3629   -3.0343   -1.0693 C   0  0  0  0  0  0  0  0  0  0  0  0
    6.8545   -3.2271   -2.1715 O   0  0  0  0  0  0  0  0  0  0  0  0
    4.8440   -3.0327   -0.8116 C   0  0  2  0  0  0  0  0  0  0  0  0
    4.0950   -3.3688   -2.1529 C   0  0  0  0  0  0  0  0  0  0  0  0
    4.5878   -3.9600    0.5033 C   0  0  0  0  0  0  0  0  0  0  0  0
    3.0473   -3.8622    0.8421 C   0  0  0  0  0  0  0  0  0  0  0  0
    2.5052   -4.8055    1.9314 C   0  0  0  0  0  0  0  0  0  0  0  0
    2.9519   -6.2532    1.6513 C   0  0  0  0  0  0  0  0  0  0  0  0
    4.4636   -6.3855    1.3414 C   0  0  0  0  0  0  0  0  0  0  0  0
    4.9007   -5.4604    0.1979 C   0  0  0  0  0  0  0  0  0  0  0  0
    1.9799   -2.2607   -3.6637 H   0  0  0  0  0  0  0  0  0  0  0  0
    3.2788   -2.8130   -4.7235 H   0  0  0  0  0  0  0  0  0  0  0  0
    3.0125   -1.0764   -4.4984 H   0  0  0  0  0  0  0  0  0  0  0  0
    4.0301   -0.0595   -2.2072 H   0  0  0  0  0  0  0  0  0  0  0  0
    2.6639   -1.0350   -1.5868 H   0  0  0  0  0  0  0  0  0  0  0  0
    4.7525   -0.0555    2.9630 H   0  0  0  0  0  0  0  0  0  0  0  0
    4.5294   -1.9580    4.5124 H   0  0  0  0  0  0  0  0  0  0  0  0
    4.7422   -4.3093    3.6684 H   0  0  0  0  0  0  0  0  0  0  0  0
    8.0493   -2.7132    0.0767 H   0  0  0  0  0  0  0  0  0  0  0  0
    3.0787   -3.7366   -1.9923 H   0  0  0  0  0  0  0  0  0  0  0  0
    4.5903   -4.1066   -2.7878 H   0  0  0  0  0  0  0  0  0  0  0  0
    2.7987   -2.8339    1.0908 H   0  0  0  0  0  0  0  0  0  0  0  0
    2.4603   -4.0778   -0.0576 H   0  0  0  0  0  0  0  0  0  0  0  0
    2.8008   -4.5062    2.9320 H   0  0  0  0  0  0  0  0  0  0  0  0
    1.4115   -4.7398    1.9631 H   0  0  0  0  0  0  0  0  0  0  0  0
    2.7202   -6.8671    2.5185 H   0  0  0  0  0  0  0  0  0  0  0  0
    2.3926   -6.6631    0.8066 H   0  0  0  0  0  0  0  0  0  0  0  0
    5.0677   -6.1846    2.2284 H   0  0  0  0  0  0  0  0  0  0  0  0
    4.7019   -7.4203    1.0861 H   0  0  0  0  0  0  0  0  0  0  0  0
    4.3966   -5.7942   -0.7191 H   0  0  0  0  0  0  0  0  0  0  0  0
    5.9649   -5.6087    0.0060 H   0  0  0  0  0  0  0  0  0  0  0  0
    4.8919   -1.8714   -3.2526 H   0  0  0  0  0  0  0  0  0  0  0  0
  1  2  1  0
  1 23  1  0
  1 24  1  0
  1 25  1  0
  2 16  1  0
  2  3  1  0
  2 44  1  6
  3  4  1  0
  3 26  1  0
  3 27  1  0
  4 15  1  0
  4  5  2  0
  5  6  1  0
  6 11  2  0
  6  7  1  0
  7  8  2  0
  7 28  1  0
  8  9  1  0
  8 29  1  0
  9 10  2  0
  9 30  1  0
 10 17  1  0
 10 11  1  0
 11 12  1  0
 12 13  1  0
 12 31  1  0
 13 14  2  0
 13 15  1  0
 15 16  1  6
 15 17  1  0
 16 32  1  0
 16 33  1  0
 17 22  1  0
 17 18  1  0
 18 19  1  0
 18 34  1  0
 18 35  1  0
 19 20  1  0
 19 36  1  0
 19 37  1  0
 20 21  1  0
 20 38  1  0
 20 39  1  0
 21 22  1  0
 21 40  1  0
 21 41  1  0
 22 42  1  0
 22 43  1  0
M  CHG  1   2   1
M  END
>  <i_m_ct_stereo_status>  (329) 
1

>  <s_m_source_file>  (329) 
/var/tmp/pbs.5076255.sched01/tmpbvzcvm50/120d7_yi5_y.sdf

>  <i_m_source_file_index>  (329) 
13

>  <i_lp_mmshare_version>  (329) 
48012

>  <i_f3d_flags>  (329) 
0

>  <s_epik_input>  (329) 
W0NIM11OKFtDSDJdMSlbQ0gyXUMyPU5jKFtjSF1bY0hdW2NIXTMpYyhbTkhdQzQ9TyljM0M1KFtDQEBdMTI0KVtDSDJdW0NIMl1bQ0gyXVtDSDJdW0NIMl01

>  <s_epik_cmdline>  (329) 
J2VwaWtfcHl0aG9uJywgJy1waHQnLCAnMi4wJywgJy1waCcsICc3LjAnLCAnLXRuJywgJzgnLCAnLW1hJywgJzIwMCcsICctaW1hZScsICc8aW5maWxlLm1hZT4nLCAnLW9tYWUnLCAnPG91dGZpbGUubWFlPic=

>  <r_epik_Ionization_Penalty>  (329) 
0.420433

>  <r_epik_Ionization_Penalty_Charging>  (329) 
0.420357

>  <r_epik_Ionization_Penalty_Neutral>  (329) 
7.58497e-05

>  <r_epik_State_Penalty>  (329) 
0.421083

>  <r_epik_Charging_Adjusted_Penalty>  (329) 
0.84144

>  <i_epik_Tot_Q>  (329) 
1

>  <i_epik_Tot_abs_Q>  (329) 
1

>  <s_epik_Chemistry_Notes>  (329) 
This compound has an imine and may undergo hydrolysis.

>  <s_lp_Force_Field>  (329) 
OPLS3e

>  <r_lp_Energy>  (329) 
183.001

>  <b_lp_Chiralities_Consistent>  (329) 
1

>  <s_lp_Variant>  (329) 
94:0-2

>  <s_i_glide_gridfile>  (329) 
pfpi4k_grid

>  <i_i_glide_lignum>  (329) 
13

>  <i_i_glide_rotatable_bonds>  (329) 
0

>  <r_i_docking_score>  (329) 
-3.78772

>  <r_i_glide_ligand_efficiency>  (329) 
-0.172169

>  <r_i_glide_ligand_efficiency_sa>  (329) 
-0.482425

>  <r_i_glide_ligand_efficiency_ln>  (329) 
-0.925858

>  <r_i_glide_gscore>  (329) 
-3.78772

>  <r_i_glide_lipo>  (329) 
-0.778964

>  <r_i_glide_hbond>  (329) 
0

>  <r_i_glide_metal>  (329) 
-0

>  <r_i_glide_rewards>  (329) 
-1.45231

>  <r_i_glide_evdw>  (329) 
-23.7153

>  <r_i_glide_ecoul>  (329) 
-2.22034

>  <r_i_glide_erotb>  (329) 
0

>  <r_i_glide_esite>  (329) 
-0.0376317

>  <r_i_glide_emodel>  (329) 
-32.0596

>  <r_i_glide_energy>  (329) 
-25.9356

>  <r_i_glide_einternal>  (329) 
0

>  <r_i_glide_intrahb_reward>  (329) 
-0

>  <i_i_glide_confnum>  (329) 
2

>  <i_i_glide_posenum>  (329) 
34

>  <r_i_glide_eff_state_penalty>  (329) 
0

>  <ligand_id>  (329) 
94

>  <original_smiles>  (329) 
CN1CC2=Nc3cccc4c3NC(=O)C2(C1)C41CCCCC1

>  <smiles>  (329) 
[H]c1c([H])c2c3c(c1[H])C1(C([H])([H])C([H])([H])C([H])([H])C([H])([H])C1([H])[H])C1(C(=O)N3[H])C(=N2)C([H])([H])[N+]([H])(C([H])([H])[H])C1([H])[H]

$$$$
95:0:0
     RDKit          3D

 40 43  0  0  1  0  0  0  0  0999 V2000
    7.2395   -2.2686   -1.8379 O   0  0  0  0  0  0  0  0  0  0  0  0
    6.5374   -2.8074   -0.9860 C   0  0  0  0  0  0  0  0  0  0  0  0
    5.2150   -2.9915   -1.1632 N   0  0  0  0  0  0  0  0  0  0  0  0
    4.5059   -2.5074   -2.3119 C   0  0  0  0  0  0  0  0  0  0  0  0
    3.1021   -3.0112   -2.5102 C   0  0  0  0  0  0  0  0  0  0  0  0
    4.2074   -3.4658   -3.4351 C   0  0  0  0  0  0  0  0  0  0  0  0
    7.1489   -3.2465    0.3708 C   0  0  2  0  0  0  0  0  0  0  0  0
    8.6858   -3.2594    0.3074 C   0  0  0  0  0  0  0  0  0  0  0  0
    9.0291   -4.5696   -0.1251 O   0  0  0  0  0  0  0  0  0  0  0  0
    8.1185   -5.4757    0.4806 C   0  0  1  0  0  0  0  0  0  0  0  0
    8.5971   -5.9394    1.8718 C   0  0  0  0  0  0  0  0  0  0  0  0
    7.3558   -5.9565    2.7454 C   0  0  0  0  0  0  0  0  0  0  0  0
    6.4637   -4.9628    2.1114 N   0  0  0  0  0  0  0  0  0  0  0  0
    4.7940   -4.9062    2.5791 S   0  0  0  0  0  0  0  0  0  0  0  0
    4.7523   -4.9078    4.0468 O   0  0  0  0  0  0  0  0  0  0  0  0
    4.1252   -3.8490    1.8029 O   0  0  0  0  0  0  0  0  0  0  0  0
    4.0946   -6.4626    2.0140 C   0  0  0  0  0  0  0  0  0  0  0  0
    4.7224   -7.4036    1.2268 C   0  0  0  0  0  0  0  0  0  0  0  0
    3.9596   -8.5851    1.1013 C   0  0  0  0  0  0  0  0  0  0  0  0
    2.7173   -8.5108    1.7005 C   0  0  0  0  0  0  0  0  0  0  0  0
    2.5071   -6.9953    2.5301 S   0  0  0  0  0  0  0  0  0  0  0  0
    6.8214   -4.7098    0.7105 C   0  0  1  0  0  0  0  0  0  0  0  0
    4.6631   -3.4177   -0.4258 H   0  0  0  0  0  0  0  0  0  0  0  0
    4.6828   -1.4625   -2.5780 H   0  0  0  0  0  0  0  0  0  0  0  0
    2.7254   -3.7295   -1.7822 H   0  0  0  0  0  0  0  0  0  0  0  0
    2.3730   -2.3160   -2.9186 H   0  0  0  0  0  0  0  0  0  0  0  0
    4.2208   -3.0643   -4.4455 H   0  0  0  0  0  0  0  0  0  0  0  0
    4.6088   -4.4697   -3.3099 H   0  0  0  0  0  0  0  0  0  0  0  0
    6.7964   -2.5524    1.1307 H   0  0  0  0  0  0  0  0  0  0  0  0
    9.1527   -2.5130   -0.3343 H   0  0  0  0  0  0  0  0  0  0  0  0
    9.1081   -3.1117    1.2949 H   0  0  0  0  0  0  0  0  0  0  0  0
    7.9484   -6.3371   -0.1497 H   0  0  0  0  0  0  0  0  0  0  0  0
    9.0177   -6.9363    1.8089 H   0  0  0  0  0  0  0  0  0  0  0  0
    9.3335   -5.2608    2.3022 H   0  0  0  0  0  0  0  0  0  0  0  0
    6.8778   -6.9513    2.6701 H   0  0  0  0  0  0  0  0  0  0  0  0
    7.5637   -5.6647    3.7899 H   0  0  0  0  0  0  0  0  0  0  0  0
    5.7014   -7.2988    0.7633 H   0  0  0  0  0  0  0  0  0  0  0  0
    4.3443   -9.4365    0.5548 H   0  0  0  0  0  0  0  0  0  0  0  0
    1.9419   -9.2664    1.6967 H   0  0  0  0  0  0  0  0  0  0  0  0
    6.0354   -5.1234    0.0790 H   0  0  0  0  0  0  0  0  0  0  0  0
  1  2  2  0
  2  3  1  0
  2  7  1  0
  3  4  1  0
  3 23  1  0
  4  6  1  0
  4  5  1  0
  4 24  1  0
  5  6  1  0
  5 25  1  0
  5 26  1  0
  6 27  1  0
  6 28  1  0
  7 22  1  0
  7  8  1  0
  7 29  1  1
  8  9  1  0
  8 30  1  0
  8 31  1  0
  9 10  1  0
 10 22  1  0
 10 11  1  0
 10 32  1  6
 11 12  1  0
 11 33  1  0
 11 34  1  0
 12 13  1  0
 12 35  1  0
 12 36  1  0
 13 14  1  0
 13 22  1  0
 14 15  2  0
 14 16  2  0
 14 17  1  0
 17 21  1  0
 17 18  2  0
 18 19  1  0
 18 37  1  0
 19 20  2  0
 19 38  1  0
 20 21  1  0
 20 39  1  0
 22 40  1  6
M  END
>  <i_m_ct_stereo_status>  (330) 
1

>  <s_m_source_file>  (330) 
/var/tmp/pbs.5076255.sched01/tmpbvzcvm50/120d7_yi5_y.sdf

>  <i_m_source_file_index>  (330) 
14

>  <i_lp_mmshare_version>  (330) 
48012

>  <i_f3d_flags>  (330) 
0

>  <s_epik_input>  (330) 
W0NIMl0xW0NIMl1bQ0hdMVtOSF1DKD1PKVtDQEhdKFtDSDJdTzIpW0NAQEhdKFtDQEBIXTIzKU4oW0NIMl1bQ0gyXTMpUyg9TykoPU8pYzRbY0hdW2NIXVtjSF1zNA==

>  <s_epik_cmdline>  (330) 
J2VwaWtfcHl0aG9uJywgJy1waHQnLCAnMi4wJywgJy1waCcsICc3LjAnLCAnLXRuJywgJzgnLCAnLW1hJywgJzIwMCcsICctaW1hZScsICc8aW5maWxlLm1hZT4nLCAnLW9tYWUnLCAnPG91dGZpbGUubWFlPic=

>  <r_lp_tautomer_probability>  (330) 
1

>  <r_epik_Ionization_Penalty>  (330) 
2.72816e-08

>  <r_epik_Ionization_Penalty_Charging>  (330) 
0

>  <r_epik_Ionization_Penalty_Neutral>  (330) 
2.72816e-08

>  <r_epik_State_Penalty>  (330) 
-0

>  <r_epik_Charging_Adjusted_Penalty>  (330) 
0

>  <i_epik_Tot_Q>  (330) 
0

>  <i_epik_Tot_abs_Q>  (330) 
0

>  <s_lp_Force_Field>  (330) 
OPLS3e

>  <r_lp_Energy>  (330) 
-2.38888

>  <b_lp_Chiralities_Consistent>  (330) 
1

>  <s_lp_Variant>  (330) 
95:0-1

>  <s_i_glide_gridfile>  (330) 
pfpi4k_grid

>  <i_i_glide_lignum>  (330) 
14

>  <i_i_glide_rotatable_bonds>  (330) 
5

>  <r_i_docking_score>  (330) 
-3.89293

>  <r_i_glide_ligand_efficiency>  (330) 
-0.176951

>  <r_i_glide_ligand_efficiency_sa>  (330) 
-0.495825

>  <r_i_glide_ligand_efficiency_ln>  (330) 
-0.951575

>  <r_i_glide_gscore>  (330) 
-3.89293

>  <r_i_glide_lipo>  (330) 
-0.851984

>  <r_i_glide_hbond>  (330) 
-0.238445

>  <r_i_glide_metal>  (330) 
-0

>  <r_i_glide_rewards>  (330) 
-1.64311

>  <r_i_glide_evdw>  (330) 
-27.3567

>  <r_i_glide_ecoul>  (330) 
-3.95651

>  <r_i_glide_erotb>  (330) 
0.80855

>  <r_i_glide_esite>  (330) 
-0.0066327

>  <r_i_glide_emodel>  (330) 
-42.4474

>  <r_i_glide_energy>  (330) 
-31.3133

>  <r_i_glide_einternal>  (330) 
5.82585

>  <r_i_glide_intrahb_reward>  (330) 
-0.5

>  <i_i_glide_confnum>  (330) 
3

>  <i_i_glide_posenum>  (330) 
32

>  <r_i_glide_eff_state_penalty>  (330) 
0

>  <ligand_id>  (330) 
95

>  <original_smiles>  (330) 
O=C(NC1CC1)C1COC2CCN(S(=O)(=O)c3cccs3)C21

>  <smiles>  (330) 
[H]c1sc(S(=O)(=O)N2C([H])([H])C([H])([H])C3([H])OC([H])([H])C([H])(C(=O)N([H])C4([H])C([H])([H])C4([H])[H])C23[H])c([H])c1[H]

$$$$
95:0:1
     RDKit          3D

 40 43  0  0  1  0  0  0  0  0999 V2000
    5.3626   -2.5604   -0.4605 O   0  0  0  0  0  0  0  0  0  0  0  0
    4.1435   -2.3651   -0.3840 C   0  0  0  0  0  0  0  0  0  0  0  0
    3.4060   -2.0497   -1.4518 N   0  0  0  0  0  0  0  0  0  0  0  0
    3.8580   -2.0381   -2.8068 C   0  0  0  0  0  0  0  0  0  0  0  0
    3.3115   -0.9793   -3.7389 C   0  0  0  0  0  0  0  0  0  0  0  0
    2.8311   -2.4004   -3.8531 C   0  0  0  0  0  0  0  0  0  0  0  0
    3.4044   -2.5189    0.9601 C   0  0  2  0  0  0  0  0  0  0  0  0
    3.8386   -1.4354    1.9526 C   0  0  0  0  0  0  0  0  0  0  0  0
    4.9685   -1.9616    2.6490 O   0  0  0  0  0  0  0  0  0  0  0  0
    4.7774   -3.3584    2.8144 C   0  0  1  0  0  0  0  0  0  0  0  0
    4.0470   -3.6909    4.1192 C   0  0  0  0  0  0  0  0  0  0  0  0
    3.0899   -4.8121    3.7305 C   0  0  0  0  0  0  0  0  0  0  0  0
    2.7616   -4.5810    2.3236 N   0  0  0  0  0  0  0  0  0  0  0  0
    1.9812   -5.8711    1.4795 S   0  0  0  0  0  0  0  0  0  0  0  0
    0.8214   -6.2831    2.2863 O   0  0  0  0  0  0  0  0  0  0  0  0
    1.7781   -5.4569    0.0840 O   0  0  0  0  0  0  0  0  0  0  0  0
    3.1591   -7.2145    1.4774 C   0  0  0  0  0  0  0  0  0  0  0  0
    4.5187   -7.1227    1.3769 C   0  0  0  0  0  0  0  0  0  0  0  0
    5.1735   -8.3848    1.4463 C   0  0  0  0  0  0  0  0  0  0  0  0
    4.3133   -9.4307    1.6101 C   0  0  0  0  0  0  0  0  0  0  0  0
    2.6523   -8.8805    1.6781 S   0  0  0  0  0  0  0  0  0  0  0  0
    3.8396   -3.8025    1.6823 C   0  0  1  0  0  0  0  0  0  0  0  0
    2.4292   -1.8194   -1.2874 H   0  0  0  0  0  0  0  0  0  0  0  0
    4.8754   -2.3722   -3.0060 H   0  0  0  0  0  0  0  0  0  0  0  0
    2.6156   -0.2439   -3.3355 H   0  0  0  0  0  0  0  0  0  0  0  0
    3.9691   -0.6159   -4.5252 H   0  0  0  0  0  0  0  0  0  0  0  0
    3.1728   -2.9837   -4.7051 H   0  0  0  0  0  0  0  0  0  0  0  0
    1.8158   -2.6145   -3.5190 H   0  0  0  0  0  0  0  0  0  0  0  0
    2.3237   -2.5090    0.7944 H   0  0  0  0  0  0  0  0  0  0  0  0
    4.0940   -0.4923    1.4620 H   0  0  0  0  0  0  0  0  0  0  0  0
    3.0280   -1.2530    2.6584 H   0  0  0  0  0  0  0  0  0  0  0  0
    5.7186   -3.9014    2.7688 H   0  0  0  0  0  0  0  0  0  0  0  0
    4.7239   -3.9834    4.9247 H   0  0  0  0  0  0  0  0  0  0  0  0
    3.4639   -2.8399    4.4681 H   0  0  0  0  0  0  0  0  0  0  0  0
    3.5938   -5.7757    3.8255 H   0  0  0  0  0  0  0  0  0  0  0  0
    2.1886   -4.8230    4.3438 H   0  0  0  0  0  0  0  0  0  0  0  0
    5.1231   -6.2297    1.2626 H   0  0  0  0  0  0  0  0  0  0  0  0
    6.2507   -8.4358    1.3752 H   0  0  0  0  0  0  0  0  0  0  0  0
    4.5482  -10.4882    1.6813 H   0  0  0  0  0  0  0  0  0  0  0  0
    4.3540   -4.4264    0.9661 H   0  0  0  0  0  0  0  0  0  0  0  0
  1  2  2  0
  2  3  1  0
  2  7  1  0
  3  4  1  0
  3 23  1  0
  4  6  1  0
  4  5  1  0
  4 24  1  0
  5  6  1  0
  5 25  1  0
  5 26  1  0
  6 27  1  0
  6 28  1  0
  7 22  1  0
  7  8  1  0
  7 29  1  6
  8  9  1  0
  8 30  1  0
  8 31  1  0
  9 10  1  0
 10 22  1  0
 10 11  1  0
 10 32  1  1
 11 12  1  0
 11 33  1  0
 11 34  1  0
 12 13  1  0
 12 35  1  0
 12 36  1  0
 13 14  1  0
 13 22  1  0
 14 15  2  0
 14 16  2  0
 14 17  1  0
 17 21  1  0
 17 18  2  0
 18 19  1  0
 18 37  1  0
 19 20  2  0
 19 38  1  0
 20 21  1  0
 20 39  1  0
 22 40  1  6
M  END
>  <i_m_ct_stereo_status>  (331) 
1

>  <s_m_source_file>  (331) 
/var/tmp/pbs.5076255.sched01/tmpbvzcvm50/120d7_yi5_y.sdf

>  <i_m_source_file_index>  (331) 
14

>  <i_lp_mmshare_version>  (331) 
48012

>  <i_f3d_flags>  (331) 
0

>  <s_epik_input>  (331) 
W0NIMl0xW0NIMl1bQ0hdMVtOSF1DKD1PKVtDQEhdKFtDSDJdTzIpW0NAQEhdKFtDQEBIXTIzKU4oW0NIMl1bQ0gyXTMpUyg9TykoPU8pYzRbY0hdW2NIXVtjSF1zNA==

>  <s_epik_cmdline>  (331) 
J2VwaWtfcHl0aG9uJywgJy1waHQnLCAnMi4wJywgJy1waCcsICc3LjAnLCAnLXRuJywgJzgnLCAnLW1hJywgJzIwMCcsICctaW1hZScsICc8aW5maWxlLm1hZT4nLCAnLW9tYWUnLCAnPG91dGZpbGUubWFlPic=

>  <r_lp_tautomer_probability>  (331) 
1

>  <r_epik_Ionization_Penalty>  (331) 
2.72816e-08

>  <r_epik_Ionization_Penalty_Charging>  (331) 
0

>  <r_epik_Ionization_Penalty_Neutral>  (331) 
2.72816e-08

>  <r_epik_State_Penalty>  (331) 
-0

>  <r_epik_Charging_Adjusted_Penalty>  (331) 
0

>  <i_epik_Tot_Q>  (331) 
0

>  <i_epik_Tot_abs_Q>  (331) 
0

>  <s_lp_Force_Field>  (331) 
OPLS3e

>  <r_lp_Energy>  (331) 
-2.38888

>  <b_lp_Chiralities_Consistent>  (331) 
1

>  <s_lp_Variant>  (331) 
95:0-1

>  <s_i_glide_gridfile>  (331) 
pfpi4k_grid

>  <i_i_glide_lignum>  (331) 
14

>  <i_i_glide_rotatable_bonds>  (331) 
5

>  <r_i_docking_score>  (331) 
-3.64255

>  <r_i_glide_ligand_efficiency>  (331) 
-0.16557

>  <r_i_glide_ligand_efficiency_sa>  (331) 
-0.463934

>  <r_i_glide_ligand_efficiency_ln>  (331) 
-0.890371

>  <r_i_glide_gscore>  (331) 
-3.64255

>  <r_i_glide_lipo>  (331) 
-0.664482

>  <r_i_glide_hbond>  (331) 
-0.16

>  <r_i_glide_metal>  (331) 
-0

>  <r_i_glide_rewards>  (331) 
-1.0743

>  <r_i_glide_evdw>  (331) 
-29.4774

>  <r_i_glide_ecoul>  (331) 
-5.13135

>  <r_i_glide_erotb>  (331) 
0.80855

>  <r_i_glide_esite>  (331) 
-0.308741

>  <r_i_glide_emodel>  (331) 
-42.6804

>  <r_i_glide_energy>  (331) 
-34.6087

>  <r_i_glide_einternal>  (331) 
0.477125

>  <r_i_glide_intrahb_reward>  (331) 
-0

>  <i_i_glide_confnum>  (331) 
5

>  <i_i_glide_posenum>  (331) 
16

>  <r_i_glide_eff_state_penalty>  (331) 
0

>  <ligand_id>  (331) 
95

>  <original_smiles>  (331) 
O=C(NC1CC1)C1COC2CCN(S(=O)(=O)c3cccs3)C21

>  <smiles>  (331) 
[H]c1sc(S(=O)(=O)N2C([H])([H])C([H])([H])C3([H])OC([H])([H])C([H])(C(=O)N([H])C4([H])C([H])([H])C4([H])[H])C23[H])c([H])c1[H]

$$$$
95:0:2
     RDKit          3D

 40 43  0  0  1  0  0  0  0  0999 V2000
    6.2728   -3.4551   -2.5055 O   0  0  0  0  0  0  0  0  0  0  0  0
    5.4156   -3.1830   -1.6635 C   0  0  0  0  0  0  0  0  0  0  0  0
    4.2039   -2.7383   -2.0075 N   0  0  0  0  0  0  0  0  0  0  0  0
    3.7158   -2.6802   -3.3477 C   0  0  0  0  0  0  0  0  0  0  0  0
    3.0397   -1.4134   -3.8093 C   0  0  0  0  0  0  0  0  0  0  0  0
    2.2231   -2.6532   -3.5248 C   0  0  0  0  0  0  0  0  0  0  0  0
    5.7336   -3.3156   -0.1594 C   0  0  2  0  0  0  0  0  0  0  0  0
    7.2141   -3.0235    0.1425 C   0  0  0  0  0  0  0  0  0  0  0  0
    7.8746   -4.2782    0.0508 O   0  0  0  0  0  0  0  0  0  0  0  0
    7.0001   -5.2846    0.5379 C   0  0  1  0  0  0  0  0  0  0  0  0
    7.1842   -5.4994    2.0416 C   0  0  0  0  0  0  0  0  0  0  0  0
    5.7841   -5.6137    2.6036 C   0  0  0  0  0  0  0  0  0  0  0  0
    4.9234   -4.9183    1.6366 N   0  0  0  0  0  0  0  0  0  0  0  0
    3.1984   -5.1215    1.7213 S   0  0  0  0  0  0  0  0  0  0  0  0
    2.7674   -4.7537    3.0807 O   0  0  0  0  0  0  0  0  0  0  0  0
    2.5832   -4.4945    0.5475 O   0  0  0  0  0  0  0  0  0  0  0  0
    2.9542   -6.8821    1.5762 C   0  0  0  0  0  0  0  0  0  0  0  0
    3.8725   -7.7924    1.1176 C   0  0  0  0  0  0  0  0  0  0  0  0
    3.4312   -9.1311    1.2850 C   0  0  0  0  0  0  0  0  0  0  0  0
    2.1579   -9.2282    1.7858 C   0  0  0  0  0  0  0  0  0  0  0  0
    1.4885   -7.6615    2.1449 S   0  0  0  0  0  0  0  0  0  0  0  0
    5.5829   -4.7770    0.3330 C   0  0  1  0  0  0  0  0  0  0  0  0
    3.5390   -2.5097   -1.2756 H   0  0  0  0  0  0  0  0  0  0  0  0
    4.2700   -3.2314   -4.1105 H   0  0  0  0  0  0  0  0  0  0  0  0
    2.9304   -0.5834   -3.1042 H   0  0  0  0  0  0  0  0  0  0  0  0
    3.1274   -1.1304   -4.8584 H   0  0  0  0  0  0  0  0  0  0  0  0
    1.8179   -3.2203   -4.3639 H   0  0  0  0  0  0  0  0  0  0  0  0
    1.6180   -2.6587   -2.6142 H   0  0  0  0  0  0  0  0  0  0  0  0
    5.1014   -2.6237    0.3936 H   0  0  0  0  0  0  0  0  0  0  0  0
    7.6731   -2.3071   -0.5417 H   0  0  0  0  0  0  0  0  0  0  0  0
    7.3206   -2.6289    1.1518 H   0  0  0  0  0  0  0  0  0  0  0  0
    7.1464   -6.2350    0.0362 H   0  0  0  0  0  0  0  0  0  0  0  0
    7.7887   -6.3712    2.2325 H   0  0  0  0  0  0  0  0  0  0  0  0
    7.7005   -4.6601    2.4706 H   0  0  0  0  0  0  0  0  0  0  0  0
    5.5365   -6.6658    2.6250 H   0  0  0  0  0  0  0  0  0  0  0  0
    5.6849   -5.1726    3.6049 H   0  0  0  0  0  0  0  0  0  0  0  0
    4.8421   -7.5538    0.6894 H   0  0  0  0  0  0  0  0  0  0  0  0
    4.0607   -9.9587    1.0076 H   0  0  0  0  0  0  0  0  0  0  0  0
    1.5881  -10.1227    1.9766 H   0  0  0  0  0  0  0  0  0  0  0  0
    5.0370   -5.3709   -0.4100 H   0  0  0  0  0  0  0  0  0  0  0  0
  1  2  2  0
  2  3  1  0
  2  7  1  0
  3  4  1  0
  3 23  1  0
  4  6  1  0
  4  5  1  0
  4 24  1  0
  5  6  1  0
  5 25  1  0
  5 26  1  0
  6 27  1  0
  6 28  1  0
  7 22  1  0
  7  8  1  0
  7 29  1  1
  8  9  1  0
  8 30  1  0
  8 31  1  0
  9 10  1  0
 10 22  1  0
 10 11  1  0
 10 32  1  6
 11 12  1  0
 11 33  1  0
 11 34  1  0
 12 13  1  0
 12 35  1  0
 12 36  1  0
 13 14  1  0
 13 22  1  0
 14 15  2  0
 14 16  2  0
 14 17  1  0
 17 21  1  0
 17 18  2  0
 18 19  1  0
 18 37  1  0
 19 20  2  0
 19 38  1  0
 20 21  1  0
 20 39  1  0
 22 40  1  6
M  END
>  <i_m_ct_stereo_status>  (332) 
1

>  <s_m_source_file>  (332) 
/var/tmp/pbs.5076255.sched01/tmpbvzcvm50/120d7_yi5_y.sdf

>  <i_m_source_file_index>  (332) 
14

>  <i_lp_mmshare_version>  (332) 
48012

>  <i_f3d_flags>  (332) 
0

>  <s_epik_input>  (332) 
W0NIMl0xW0NIMl1bQ0hdMVtOSF1DKD1PKVtDQEhdKFtDSDJdTzIpW0NAQEhdKFtDQEBIXTIzKU4oW0NIMl1bQ0gyXTMpUyg9TykoPU8pYzRbY0hdW2NIXVtjSF1zNA==

>  <s_epik_cmdline>  (332) 
J2VwaWtfcHl0aG9uJywgJy1waHQnLCAnMi4wJywgJy1waCcsICc3LjAnLCAnLXRuJywgJzgnLCAnLW1hJywgJzIwMCcsICctaW1hZScsICc8aW5maWxlLm1hZT4nLCAnLW9tYWUnLCAnPG91dGZpbGUubWFlPic=

>  <r_lp_tautomer_probability>  (332) 
1

>  <r_epik_Ionization_Penalty>  (332) 
2.72816e-08

>  <r_epik_Ionization_Penalty_Charging>  (332) 
0

>  <r_epik_Ionization_Penalty_Neutral>  (332) 
2.72816e-08

>  <r_epik_State_Penalty>  (332) 
-0

>  <r_epik_Charging_Adjusted_Penalty>  (332) 
0

>  <i_epik_Tot_Q>  (332) 
0

>  <i_epik_Tot_abs_Q>  (332) 
0

>  <s_lp_Force_Field>  (332) 
OPLS3e

>  <r_lp_Energy>  (332) 
-2.38888

>  <b_lp_Chiralities_Consistent>  (332) 
1

>  <s_lp_Variant>  (332) 
95:0-1

>  <s_i_glide_gridfile>  (332) 
pfpi4k_grid

>  <i_i_glide_lignum>  (332) 
14

>  <i_i_glide_rotatable_bonds>  (332) 
5

>  <r_i_docking_score>  (332) 
-3.23468

>  <r_i_glide_ligand_efficiency>  (332) 
-0.147031

>  <r_i_glide_ligand_efficiency_sa>  (332) 
-0.411987

>  <r_i_glide_ligand_efficiency_ln>  (332) 
-0.790675

>  <r_i_glide_gscore>  (332) 
-3.23468

>  <r_i_glide_lipo>  (332) 
-1.15564

>  <r_i_glide_hbond>  (332) 
0

>  <r_i_glide_metal>  (332) 
-0

>  <r_i_glide_rewards>  (332) 
-1.23909

>  <r_i_glide_evdw>  (332) 
-29.9817

>  <r_i_glide_ecoul>  (332) 
-0.693195

>  <r_i_glide_erotb>  (332) 
0.80855

>  <r_i_glide_esite>  (332) 
-0.0454408

>  <r_i_glide_emodel>  (332) 
-36.7169

>  <r_i_glide_energy>  (332) 
-30.6749

>  <r_i_glide_einternal>  (332) 
2.39267

>  <r_i_glide_intrahb_reward>  (332) 
-0

>  <i_i_glide_confnum>  (332) 
4

>  <i_i_glide_posenum>  (332) 
2

>  <r_i_glide_eff_state_penalty>  (332) 
0

>  <ligand_id>  (332) 
95

>  <original_smiles>  (332) 
O=C(NC1CC1)C1COC2CCN(S(=O)(=O)c3cccs3)C21

>  <smiles>  (332) 
[H]c1sc(S(=O)(=O)N2C([H])([H])C([H])([H])C3([H])OC([H])([H])C([H])(C(=O)N([H])C4([H])C([H])([H])C4([H])[H])C23[H])c([H])c1[H]

$$$$
97:0:0
     RDKit          3D

 22 24  0  0  1  0  0  0  0  0999 V2000
   -5.4117   -8.0688   -5.3828 O   0  0  0  0  0  0  0  0  0  0  0  0
   -6.1601   -7.0896   -5.3529 C   0  0  0  0  0  0  0  0  0  0  0  0
   -6.1567   -6.1798   -4.1963 C   0  0  0  0  0  0  0  0  0  0  0  0
   -6.9676   -5.1003   -4.1934 C   0  0  0  0  0  0  0  0  0  0  0  0
   -7.8228   -4.8373   -5.2385 N   0  0  0  0  0  0  0  0  0  0  0  0
   -7.7943   -5.7466   -6.3052 C   0  0  0  0  0  0  0  0  0  0  0  0
   -7.0461   -6.8042   -6.4050 N   0  0  0  0  0  0  0  0  0  0  0  0
   -8.7754   -5.3656   -7.4265 C   0  0  1  0  0  0  0  0  0  0  0  0
  -10.1810   -4.9766   -6.9135 C   0  0  0  0  0  0  0  0  0  0  0  0
   -9.5357   -3.6477   -6.5307 C   0  0  2  0  0  0  0  0  0  0  0  0
   -8.6723   -3.8750   -7.7778 C   0  0  0  0  0  0  0  0  0  0  0  0
   -8.7451   -3.7038   -5.2323 C   0  0  0  0  0  0  0  0  0  0  0  0
   -5.5362   -6.3657   -3.3405 H   0  0  0  0  0  0  0  0  0  0  0  0
   -7.0342   -4.3989   -3.3736 H   0  0  0  0  0  0  0  0  0  0  0  0
   -8.7579   -6.0440   -8.2830 H   0  0  0  0  0  0  0  0  0  0  0  0
  -10.9462   -4.9084   -7.6908 H   0  0  0  0  0  0  0  0  0  0  0  0
  -10.5414   -5.4886   -6.0257 H   0  0  0  0  0  0  0  0  0  0  0  0
  -10.2255   -2.8051   -6.6049 H   0  0  0  0  0  0  0  0  0  0  0  0
   -7.6656   -3.4549   -7.7113 H   0  0  0  0  0  0  0  0  0  0  0  0
   -9.1673   -3.6152   -8.7056 H   0  0  0  0  0  0  0  0  0  0  0  0
   -9.3964   -3.7923   -4.3681 H   0  0  0  0  0  0  0  0  0  0  0  0
   -8.1696   -2.7916   -5.1267 H   0  0  0  0  0  0  0  0  0  0  0  0
  1  2  2  0
  2  7  1  0
  2  3  1  0
  3  4  2  0
  3 13  1  0
  4  5  1  0
  4 14  1  0
  5 12  1  0
  5  6  1  0
  6  7  2  0
  6  8  1  0
  8 11  1  0
  8  9  1  0
  8 15  1  6
  9 10  1  0
  9 16  1  0
  9 17  1  0
 10 11  1  0
 10 12  1  0
 10 18  1  6
 11 19  1  0
 11 20  1  0
 12 21  1  0
 12 22  1  0
M  END
>  <i_m_ct_stereo_status>  (333) 
1

>  <s_m_source_file>  (333) 
/var/tmp/pbs.5076255.sched01/tmpbvzcvm50/120d7_yi5_y.sdf

>  <i_m_source_file_index>  (333) 
16

>  <i_lp_mmshare_version>  (333) 
48012

>  <i_f3d_flags>  (333) 
0

>  <s_epik_input>  (333) 
W2NIXTFbY0hdYyg9TyluYyhuMTIpW0NASF0zW0NIMl1bQ0BIXShbQ0gyXTMpW0NIMl0y

>  <s_epik_cmdline>  (333) 
J2VwaWtfcHl0aG9uJywgJy1waHQnLCAnMi4wJywgJy1waCcsICc3LjAnLCAnLXRuJywgJzgnLCAnLW1hJywgJzIwMCcsICctaW1hZScsICc8aW5maWxlLm1hZT4nLCAnLW9tYWUnLCAnPG91dGZpbGUubWFlPic=

>  <r_lp_tautomer_probability>  (333) 
1

>  <r_epik_Ionization_Penalty>  (333) 
0.000119898

>  <r_epik_Ionization_Penalty_Charging>  (333) 
7.62841e-09

>  <r_epik_Ionization_Penalty_Neutral>  (333) 
0.000119891

>  <r_epik_State_Penalty>  (333) 
-0

>  <r_epik_Charging_Adjusted_Penalty>  (333) 
7.62841e-09

>  <i_epik_Tot_Q>  (333) 
0

>  <i_epik_Tot_abs_Q>  (333) 
0

>  <s_lp_Force_Field>  (333) 
OPLS3e

>  <r_lp_Energy>  (333) 
35.5537

>  <b_lp_Chiralities_Consistent>  (333) 
1

>  <s_lp_Variant>  (333) 
97:0-1

>  <s_i_glide_gridfile>  (333) 
pfpi4k_grid

>  <i_i_glide_lignum>  (333) 
16

>  <i_i_glide_rotatable_bonds>  (333) 
0

>  <r_i_docking_score>  (333) 
-6.01573

>  <r_i_glide_ligand_efficiency>  (333) 
-0.50131

>  <r_i_glide_ligand_efficiency_sa>  (333) 
-1.14771

>  <r_i_glide_ligand_efficiency_ln>  (333) 
-1.72622

>  <r_i_glide_gscore>  (333) 
-6.01573

>  <r_i_glide_lipo>  (333) 
-1.84666

>  <r_i_glide_hbond>  (333) 
0

>  <r_i_glide_metal>  (333) 
-0

>  <r_i_glide_rewards>  (333) 
-3.21347

>  <r_i_glide_evdw>  (333) 
-20.008

>  <r_i_glide_ecoul>  (333) 
0.298648

>  <r_i_glide_erotb>  (333) 
0

>  <r_i_glide_esite>  (333) 
0

>  <r_i_glide_emodel>  (333) 
-28.1525

>  <r_i_glide_energy>  (333) 
-19.7094

>  <r_i_glide_einternal>  (333) 
0

>  <r_i_glide_intrahb_reward>  (333) 
-0

>  <i_i_glide_confnum>  (333) 
1

>  <i_i_glide_posenum>  (333) 
8

>  <r_i_glide_eff_state_penalty>  (333) 
0

>  <ligand_id>  (333) 
97

>  <original_smiles>  (333) 
O=c1ccn2c(n1)C1CC(C1)C2

>  <smiles>  (333) 
[H]c1c([H])n2c(nc1=O)C1([H])C([H])([H])C([H])(C2([H])[H])C1([H])[H]

$$$$
97:0:1
     RDKit          3D

 22 24  0  0  1  0  0  0  0  0999 V2000
   -6.9461   -4.3346   -4.5580 O   0  0  0  0  0  0  0  0  0  0  0  0
   -7.7076   -4.6815   -5.4609 C   0  0  0  0  0  0  0  0  0  0  0  0
   -8.9920   -3.9899   -5.6728 C   0  0  0  0  0  0  0  0  0  0  0  0
   -9.7972   -4.3966   -6.6757 C   0  0  0  0  0  0  0  0  0  0  0  0
   -9.4569   -5.4346   -7.5231 N   0  0  0  0  0  0  0  0  0  0  0  0
   -8.2229   -6.0550   -7.2663 C   0  0  0  0  0  0  0  0  0  0  0  0
   -7.3864   -5.7464   -6.3212 N   0  0  0  0  0  0  0  0  0  0  0  0
   -7.9227   -7.2064   -8.2516 C   0  0  1  0  0  0  0  0  0  0  0  0
   -9.1270   -8.1543   -8.4341 C   0  0  0  0  0  0  0  0  0  0  0  0
   -9.6776   -7.0551   -9.3560 C   0  0  2  0  0  0  0  0  0  0  0  0
   -8.2025   -6.8170   -9.7189 C   0  0  0  0  0  0  0  0  0  0  0  0
  -10.3330   -5.8933   -8.6089 C   0  0  0  0  0  0  0  0  0  0  0  0
   -9.2992   -3.1749   -5.0370 H   0  0  0  0  0  0  0  0  0  0  0  0
  -10.7599   -3.9523   -6.8801 H   0  0  0  0  0  0  0  0  0  0  0  0
   -6.9652   -7.7044   -8.0819 H   0  0  0  0  0  0  0  0  0  0  0  0
   -8.8954   -9.0928   -8.9441 H   0  0  0  0  0  0  0  0  0  0  0  0
   -9.7171   -8.3211   -7.5300 H   0  0  0  0  0  0  0  0  0  0  0  0
  -10.2662   -7.4473  -10.1855 H   0  0  0  0  0  0  0  0  0  0  0  0
   -7.9591   -5.7812   -9.9707 H   0  0  0  0  0  0  0  0  0  0  0  0
   -7.8028   -7.5154  -10.4591 H   0  0  0  0  0  0  0  0  0  0  0  0
  -11.2964   -6.1932   -8.1956 H   0  0  0  0  0  0  0  0  0  0  0  0
  -10.5167   -5.0623   -9.2856 H   0  0  0  0  0  0  0  0  0  0  0  0
  1  2  2  0
  2  7  1  0
  2  3  1  0
  3  4  2  0
  3 13  1  0
  4  5  1  0
  4 14  1  0
  5 12  1  0
  5  6  1  0
  6  7  2  0
  6  8  1  0
  8 11  1  0
  8  9  1  0
  8 15  1  6
  9 10  1  0
  9 16  1  0
  9 17  1  0
 10 11  1  0
 10 12  1  0
 10 18  1  6
 11 19  1  0
 11 20  1  0
 12 21  1  0
 12 22  1  0
M  END
>  <i_m_ct_stereo_status>  (334) 
1

>  <s_m_source_file>  (334) 
/var/tmp/pbs.5076255.sched01/tmpbvzcvm50/120d7_yi5_y.sdf

>  <i_m_source_file_index>  (334) 
16

>  <i_lp_mmshare_version>  (334) 
48012

>  <i_f3d_flags>  (334) 
0

>  <s_epik_input>  (334) 
W2NIXTFbY0hdYyg9TyluYyhuMTIpW0NASF0zW0NIMl1bQ0BIXShbQ0gyXTMpW0NIMl0y

>  <s_epik_cmdline>  (334) 
J2VwaWtfcHl0aG9uJywgJy1waHQnLCAnMi4wJywgJy1waCcsICc3LjAnLCAnLXRuJywgJzgnLCAnLW1hJywgJzIwMCcsICctaW1hZScsICc8aW5maWxlLm1hZT4nLCAnLW9tYWUnLCAnPG91dGZpbGUubWFlPic=

>  <r_lp_tautomer_probability>  (334) 
1

>  <r_epik_Ionization_Penalty>  (334) 
0.000119898

>  <r_epik_Ionization_Penalty_Charging>  (334) 
7.62841e-09

>  <r_epik_Ionization_Penalty_Neutral>  (334) 
0.000119891

>  <r_epik_State_Penalty>  (334) 
-0

>  <r_epik_Charging_Adjusted_Penalty>  (334) 
7.62841e-09

>  <i_epik_Tot_Q>  (334) 
0

>  <i_epik_Tot_abs_Q>  (334) 
0

>  <s_lp_Force_Field>  (334) 
OPLS3e

>  <r_lp_Energy>  (334) 
35.5537

>  <b_lp_Chiralities_Consistent>  (334) 
1

>  <s_lp_Variant>  (334) 
97:0-1

>  <s_i_glide_gridfile>  (334) 
pfpi4k_grid

>  <i_i_glide_lignum>  (334) 
16

>  <i_i_glide_rotatable_bonds>  (334) 
0

>  <r_i_docking_score>  (334) 
-5.30378

>  <r_i_glide_ligand_efficiency>  (334) 
-0.441981

>  <r_i_glide_ligand_efficiency_sa>  (334) 
-1.01188

>  <r_i_glide_ligand_efficiency_ln>  (334) 
-1.52193

>  <r_i_glide_gscore>  (334) 
-5.30378

>  <r_i_glide_lipo>  (334) 
-1.43436

>  <r_i_glide_hbond>  (334) 
0

>  <r_i_glide_metal>  (334) 
-0

>  <r_i_glide_rewards>  (334) 
-2.81045

>  <r_i_glide_evdw>  (334) 
-23.3366

>  <r_i_glide_ecoul>  (334) 
0.719127

>  <r_i_glide_erotb>  (334) 
0

>  <r_i_glide_esite>  (334) 
0

>  <r_i_glide_emodel>  (334) 
-30.0977

>  <r_i_glide_energy>  (334) 
-22.6174

>  <r_i_glide_einternal>  (334) 
0

>  <r_i_glide_intrahb_reward>  (334) 
-0

>  <i_i_glide_confnum>  (334) 
2

>  <i_i_glide_posenum>  (334) 
22

>  <r_i_glide_eff_state_penalty>  (334) 
0

>  <ligand_id>  (334) 
97

>  <original_smiles>  (334) 
O=c1ccn2c(n1)C1CC(C1)C2

>  <smiles>  (334) 
[H]c1c([H])n2c(nc1=O)C1([H])C([H])([H])C([H])(C2([H])[H])C1([H])[H]

$$$$
97:0:2
     RDKit          3D

 22 24  0  0  1  0  0  0  0  0999 V2000
    2.6052   -5.1265    1.6358 O   0  0  0  0  0  0  0  0  0  0  0  0
    3.2417   -4.5929    0.7302 C   0  0  0  0  0  0  0  0  0  0  0  0
    4.7159   -4.6271    0.7211 C   0  0  0  0  0  0  0  0  0  0  0  0
    5.3792   -4.0357   -0.2959 C   0  0  0  0  0  0  0  0  0  0  0  0
    4.7259   -3.3992   -1.3327 N   0  0  0  0  0  0  0  0  0  0  0  0
    3.3232   -3.3967   -1.2647 C   0  0  0  0  0  0  0  0  0  0  0  0
    2.5969   -3.9289   -0.3278 N   0  0  0  0  0  0  0  0  0  0  0  0
    2.6752   -2.6752   -2.4695 C   0  0  1  0  0  0  0  0  0  0  0  0
    3.3391   -1.3118   -2.7571 C   0  0  0  0  0  0  0  0  0  0  0  0
    4.4391   -2.1460   -3.4275 C   0  0  2  0  0  0  0  0  0  0  0  0
    3.2961   -3.0917   -3.8185 C   0  0  0  0  0  0  0  0  0  0  0  0
    5.4390   -2.7579   -2.4447 C   0  0  0  0  0  0  0  0  0  0  0  0
    5.2628   -5.1128    1.5126 H   0  0  0  0  0  0  0  0  0  0  0  0
    6.4545   -4.0164   -0.3706 H   0  0  0  0  0  0  0  0  0  0  0  0
    1.5835   -2.6660   -2.4495 H   0  0  0  0  0  0  0  0  0  0  0  0
    2.7778   -0.6702   -3.4403 H   0  0  0  0  0  0  0  0  0  0  0  0
    3.6588   -0.7651   -1.8667 H   0  0  0  0  0  0  0  0  0  0  0  0
    4.8889   -1.6367   -4.2779 H   0  0  0  0  0  0  0  0  0  0  0  0
    3.5812   -4.1432   -3.8869 H   0  0  0  0  0  0  0  0  0  0  0  0
    2.7232   -2.7756   -4.6956 H   0  0  0  0  0  0  0  0  0  0  0  0
    6.0975   -1.9910   -2.0413 H   0  0  0  0  0  0  0  0  0  0  0  0
    6.0645   -3.4975   -2.9423 H   0  0  0  0  0  0  0  0  0  0  0  0
  1  2  2  0
  2  7  1  0
  2  3  1  0
  3  4  2  0
  3 13  1  0
  4  5  1  0
  4 14  1  0
  5 12  1  0
  5  6  1  0
  6  7  2  0
  6  8  1  0
  8 11  1  0
  8  9  1  0
  8 15  1  6
  9 10  1  0
  9 16  1  0
  9 17  1  0
 10 11  1  0
 10 12  1  0
 10 18  1  6
 11 19  1  0
 11 20  1  0
 12 21  1  0
 12 22  1  0
M  END
>  <i_m_ct_stereo_status>  (335) 
1

>  <s_m_source_file>  (335) 
/var/tmp/pbs.5076255.sched01/tmpbvzcvm50/120d7_yi5_y.sdf

>  <i_m_source_file_index>  (335) 
16

>  <i_lp_mmshare_version>  (335) 
48012

>  <i_f3d_flags>  (335) 
0

>  <s_epik_input>  (335) 
W2NIXTFbY0hdYyg9TyluYyhuMTIpW0NASF0zW0NIMl1bQ0BIXShbQ0gyXTMpW0NIMl0y

>  <s_epik_cmdline>  (335) 
J2VwaWtfcHl0aG9uJywgJy1waHQnLCAnMi4wJywgJy1waCcsICc3LjAnLCAnLXRuJywgJzgnLCAnLW1hJywgJzIwMCcsICctaW1hZScsICc8aW5maWxlLm1hZT4nLCAnLW9tYWUnLCAnPG91dGZpbGUubWFlPic=

>  <r_lp_tautomer_probability>  (335) 
1

>  <r_epik_Ionization_Penalty>  (335) 
0.000119898

>  <r_epik_Ionization_Penalty_Charging>  (335) 
7.62841e-09

>  <r_epik_Ionization_Penalty_Neutral>  (335) 
0.000119891

>  <r_epik_State_Penalty>  (335) 
-0

>  <r_epik_Charging_Adjusted_Penalty>  (335) 
7.62841e-09

>  <i_epik_Tot_Q>  (335) 
0

>  <i_epik_Tot_abs_Q>  (335) 
0

>  <s_lp_Force_Field>  (335) 
OPLS3e

>  <r_lp_Energy>  (335) 
35.5537

>  <b_lp_Chiralities_Consistent>  (335) 
1

>  <s_lp_Variant>  (335) 
97:0-1

>  <s_i_glide_gridfile>  (335) 
pfpi4k_grid

>  <i_i_glide_lignum>  (335) 
16

>  <i_i_glide_rotatable_bonds>  (335) 
0

>  <r_i_docking_score>  (335) 
-3.78378

>  <r_i_glide_ligand_efficiency>  (335) 
-0.315315

>  <r_i_glide_ligand_efficiency_sa>  (335) 
-0.72189

>  <r_i_glide_ligand_efficiency_ln>  (335) 
-1.08576

>  <r_i_glide_gscore>  (335) 
-3.78378

>  <r_i_glide_lipo>  (335) 
-0.485722

>  <r_i_glide_hbond>  (335) 
0

>  <r_i_glide_metal>  (335) 
-0

>  <r_i_glide_rewards>  (335) 
-2.39383

>  <r_i_glide_evdw>  (335) 
-19.7824

>  <r_i_glide_ecoul>  (335) 
0.56599

>  <r_i_glide_erotb>  (335) 
0

>  <r_i_glide_esite>  (335) 
0

>  <r_i_glide_emodel>  (335) 
-24.5489

>  <r_i_glide_energy>  (335) 
-19.2164

>  <r_i_glide_einternal>  (335) 
0

>  <r_i_glide_intrahb_reward>  (335) 
-0

>  <i_i_glide_confnum>  (335) 
1

>  <i_i_glide_posenum>  (335) 
24

>  <r_i_glide_eff_state_penalty>  (335) 
0

>  <ligand_id>  (335) 
97

>  <original_smiles>  (335) 
O=c1ccn2c(n1)C1CC(C1)C2

>  <smiles>  (335) 
[H]c1c([H])n2c(nc1=O)C1([H])C([H])([H])C([H])(C2([H])[H])C1([H])[H]

$$$$
99:0:0
     RDKit          3D

 59 64  0  0  1  0  0  0  0  0999 V2000
    4.8075   -9.0458    4.2395 C   0  0  0  0  0  0  0  0  0  0  0  0
    3.9639   -7.9086    4.2523 O   0  0  0  0  0  0  0  0  0  0  0  0
    3.7516   -7.3140    2.9784 C   0  0  2  0  0  0  0  0  0  0  0  0
    4.9986   -6.5939    2.5002 C   0  0  0  0  0  0  0  0  0  0  0  0
    5.8189   -7.0279    1.5348 C   0  0  0  0  0  0  0  0  0  0  0  0
    6.9805   -6.1942    1.0481 C   0  0  0  0  0  0  0  0  0  0  0  0
    6.6999   -4.6611    0.9777 C   0  0  2  0  0  0  0  0  0  0  0  0
    8.0885   -3.9952    1.1373 C   0  0  0  0  0  0  0  0  0  0  0  0
    5.6486   -4.1387    2.0696 C   0  0  1  0  0  0  0  0  0  0  0  0
    4.5978   -3.2418    1.3204 C   0  0  0  0  0  0  0  0  0  0  0  0
    5.4341   -2.8807    0.1379 C   0  0  2  0  0  0  0  0  0  0  0  0
    5.1792   -2.5109   -1.2305 O   0  0  0  0  0  0  0  0  0  0  0  0
    6.3648   -3.3227   -1.5423 C   0  0  1  0  0  0  0  0  0  0  0  0
    7.6046   -2.6320   -1.5676 O   0  0  0  0  0  0  0  0  0  0  0  0
    6.0000   -4.2014   -0.3193 C   0  0  1  0  0  0  0  0  0  0  0  0
    5.0392   -5.1817   -0.6574 O   0  0  0  0  0  0  0  0  0  0  0  0
    5.0802   -5.1916    3.0774 C   0  0  2  0  0  0  0  0  0  0  0  0
    5.9946   -5.2902    4.3233 C   0  0  0  0  0  0  0  0  0  0  0  0
    3.6162   -5.0025    3.4528 C   0  0  0  0  0  0  0  0  0  0  0  0
    3.0298   -4.1887    4.3293 C   0  0  0  0  0  0  0  0  0  0  0  0
    1.6383   -4.6730    4.6776 C   0  0  0  0  0  0  0  0  0  0  0  0
    1.7070   -6.1735    4.2613 C   0  0  1  0  0  0  0  0  0  0  0  0
    0.3809   -6.8622    3.9759 C   0  0  0  0  0  0  0  0  0  0  0  0
    0.1631   -7.9759    3.0999 C   0  0  0  0  0  0  0  0  0  0  0  0
   -1.1597   -8.2771    3.1683 C   0  0  0  0  0  0  0  0  0  0  0  0
   -1.7906   -7.4715    4.0650 O   0  0  0  0  0  0  0  0  0  0  0  0
   -0.8231   -6.6583    4.5639 C   0  0  0  0  0  0  0  0  0  0  0  0
    2.7343   -6.1611    3.0802 C   0  0  2  0  0  0  0  0  0  0  0  0
    2.1030   -5.8322    1.6995 C   0  0  0  0  0  0  0  0  0  0  0  0
    4.8993   -9.4379    5.2546 H   0  0  0  0  0  0  0  0  0  0  0  0
    5.8167   -8.8116    3.8919 H   0  0  0  0  0  0  0  0  0  0  0  0
    4.3857   -9.8298    3.6085 H   0  0  0  0  0  0  0  0  0  0  0  0
    3.4185   -8.0618    2.2554 H   0  0  0  0  0  0  0  0  0  0  0  0
    5.6773   -7.9988    1.0783 H   0  0  0  0  0  0  0  0  0  0  0  0
    7.7866   -6.3923    1.7564 H   0  0  0  0  0  0  0  0  0  0  0  0
    7.3490   -6.5537    0.0961 H   0  0  0  0  0  0  0  0  0  0  0  0
    8.0265   -2.9123    1.1543 H   0  0  0  0  0  0  0  0  0  0  0  0
    8.7597   -4.2682    0.3213 H   0  0  0  0  0  0  0  0  0  0  0  0
    8.5758   -4.3093    2.0566 H   0  0  0  0  0  0  0  0  0  0  0  0
    6.2012   -3.4214    2.6782 H   0  0  0  0  0  0  0  0  0  0  0  0
    3.7166   -3.7877    1.0045 H   0  0  0  0  0  0  0  0  0  0  0  0
    4.2803   -2.3804    1.9035 H   0  0  0  0  0  0  0  0  0  0  0  0
    6.1900   -2.1827    0.4905 H   0  0  0  0  0  0  0  0  0  0  0  0
    6.2079   -3.8563   -2.4796 H   0  0  0  0  0  0  0  0  0  0  0  0
    8.1658   -3.0491   -2.2195 H   0  0  0  0  0  0  0  0  0  0  0  0
    4.5509   -4.8286   -1.3797 H   0  0  0  0  0  0  0  0  0  0  0  0
    5.6611   -6.0746    5.0025 H   0  0  0  0  0  0  0  0  0  0  0  0
    6.0629   -4.3621    4.8891 H   0  0  0  0  0  0  0  0  0  0  0  0
    7.0039   -5.5720    4.0261 H   0  0  0  0  0  0  0  0  0  0  0  0
    3.5128   -3.3676    4.8367 H   0  0  0  0  0  0  0  0  0  0  0  0
    1.3736   -4.5183    5.7281 H   0  0  0  0  0  0  0  0  0  0  0  0
    0.9397   -4.1165    4.0573 H   0  0  0  0  0  0  0  0  0  0  0  0
    2.1257   -6.6875    5.1323 H   0  0  0  0  0  0  0  0  0  0  0  0
    0.8746   -8.5014    2.4893 H   0  0  0  0  0  0  0  0  0  0  0  0
   -1.7707   -9.0289    2.6826 H   0  0  0  0  0  0  0  0  0  0  0  0
   -1.1764   -5.9794    5.3424 H   0  0  0  0  0  0  0  0  0  0  0  0
    1.3858   -6.5552    1.3306 H   0  0  0  0  0  0  0  0  0  0  0  0
    2.8685   -5.7818    0.9258 H   0  0  0  0  0  0  0  0  0  0  0  0
    1.6049   -4.8651    1.7534 H   0  0  0  0  0  0  0  0  0  0  0  0
  1  2  1  0
  1 30  1  0
  1 31  1  0
  1 32  1  0
  2  3  1  0
  3 28  1  0
  3  4  1  0
  3 33  1  6
  4 17  1  0
  4  5  2  0
  5  6  1  0
  5 34  1  0
  6  7  1  0
  6 35  1  0
  6 36  1  0
  7 15  1  0
  7  8  1  1
  7  9  1  0
  8 37  1  0
  8 38  1  0
  8 39  1  0
  9 10  1  0
  9 17  1  0
  9 40  1  1
 10 11  1  0
 10 41  1  0
 10 42  1  0
 11 15  1  0
 11 12  1  0
 11 43  1  1
 12 13  1  0
 13 14  1  0
 13 15  1  0
 13 44  1  6
 14 45  1  0
 15 16  1  6
 16 46  1  0
 17 18  1  1
 17 19  1  0
 18 47  1  0
 18 48  1  0
 18 49  1  0
 19 28  1  0
 19 20  2  0
 20 21  1  0
 20 50  1  0
 21 22  1  0
 21 51  1  0
 21 52  1  0
 22 23  1  0
 22 28  1  0
 22 53  1  1
 23 27  2  0
 23 24  1  0
 24 25  2  0
 24 54  1  0
 25 26  1  0
 25 55  1  0
 26 27  1  0
 27 56  1  0
 28 29  1  6
 29 57  1  0
 29 58  1  0
 29 59  1  0
M  END
>  <i_m_ct_stereo_status>  (336) 
1

>  <s_m_source_file>  (336) 
/var/tmp/pbs.5076255.sched01/tmpbvzcvm50/120d7_yi5_y.sdf

>  <i_m_source_file_index>  (336) 
18

>  <i_lp_mmshare_version>  (336) 
48012

>  <i_f3d_flags>  (336) 
0

>  <s_epik_input>  (336) 
TzFbQ0BASF0oW09IXSlbQ0BdMihbT0hdKVtDQEBIXTFbQ0gyXVtDQEhdKFtDQF0yM1tDSDNdKVtDQF00KFtDSDNdKUMoPVtDSF1bQ0gyXTMpW0NAQEhdKE9bQ0gzXSlbQ0BdNShbQ0gzXSlDND1bQ0hdW0NIMl1bQ0BIXTVjNltjSF1bY0hdb1tjSF02

>  <s_epik_cmdline>  (336) 
J2VwaWtfcHl0aG9uJywgJy1waHQnLCAnMi4wJywgJy1waCcsICc3LjAnLCAnLXRuJywgJzgnLCAnLW1hJywgJzIwMCcsICctaW1hZScsICc8aW5maWxlLm1hZT4nLCAnLW9tYWUnLCAnPG91dGZpbGUubWFlPic=

>  <r_lp_tautomer_probability>  (336) 
1

>  <r_epik_Ionization_Penalty>  (336) 
2.40289e-07

>  <r_epik_Ionization_Penalty_Charging>  (336) 
0

>  <r_epik_Ionization_Penalty_Neutral>  (336) 
2.40289e-07

>  <r_epik_State_Penalty>  (336) 
-0

>  <r_epik_Charging_Adjusted_Penalty>  (336) 
0

>  <i_epik_Tot_Q>  (336) 
0

>  <i_epik_Tot_abs_Q>  (336) 
0

>  <s_epik_Chemistry_Notes>  (336) 
This compound contains an acetal/aminal-like group ( X-CH(R)-Y where X, Y are N, S, or O) that may be acid/base labile, releasing an aldehyde.

>  <s_lp_Force_Field>  (336) 
OPLS3e

>  <r_lp_Energy>  (336) 
75.3177

>  <b_lp_Chiralities_Consistent>  (336) 
1

>  <s_lp_Variant>  (336) 
99:0-1

>  <s_i_glide_gridfile>  (336) 
pfpi4k_grid

>  <i_i_glide_lignum>  (336) 
18

>  <i_i_glide_rotatable_bonds>  (336) 
4

>  <r_i_docking_score>  (336) 
-3.13549

>  <r_i_glide_ligand_efficiency>  (336) 
-0.10812

>  <r_i_glide_ligand_efficiency_sa>  (336) 
-0.33218

>  <r_i_glide_ligand_efficiency_ln>  (336) 
-0.717947

>  <r_i_glide_gscore>  (336) 
-3.13549

>  <r_i_glide_lipo>  (336) 
-0.512655

>  <r_i_glide_hbond>  (336) 
0

>  <r_i_glide_metal>  (336) 
-0

>  <r_i_glide_rewards>  (336) 
-0.897905

>  <r_i_glide_evdw>  (336) 
-22.1367

>  <r_i_glide_ecoul>  (336) 
-4.94284

>  <r_i_glide_erotb>  (336) 
0.123336

>  <r_i_glide_esite>  (336) 
0

>  <r_i_glide_emodel>  (336) 
-30.9813

>  <r_i_glide_energy>  (336) 
-27.0796

>  <r_i_glide_einternal>  (336) 
2.01712

>  <r_i_glide_intrahb_reward>  (336) 
-0

>  <i_i_glide_confnum>  (336) 
4

>  <i_i_glide_posenum>  (336) 
12

>  <r_i_glide_eff_state_penalty>  (336) 
0

>  <ligand_id>  (336) 
99

>  <original_smiles>  (336) 
COC1C2=CCC3(C)C(CC4OC(O)C43O)C2(C)C2=CCC(c3ccoc3)C21C

>  <smiles>  (336) 
[H]OC1([H])OC2([H])C([H])([H])C3([H])C4(C([H])([H])[H])C(=C([H])C([H])([H])C3(C([H])([H])[H])C12O[H])C([H])(OC([H])([H])[H])C1(C([H])([H])[H])C4=C([H])C([H])([H])C1([H])c1c([H])oc([H])c1[H]

$$$$
99:0:1
     RDKit          3D

 59 64  0  0  1  0  0  0  0  0999 V2000
    4.1423   -9.1872    1.2862 C   0  0  0  0  0  0  0  0  0  0  0  0
    3.4902   -8.3734    2.2467 O   0  0  0  0  0  0  0  0  0  0  0  0
    2.9490   -7.1659    1.7330 C   0  0  2  0  0  0  0  0  0  0  0  0
    4.0419   -6.1444    1.4443 C   0  0  0  0  0  0  0  0  0  0  0  0
    4.5101   -5.8062    0.2338 C   0  0  0  0  0  0  0  0  0  0  0  0
    5.5406   -4.7146    0.0550 C   0  0  0  0  0  0  0  0  0  0  0  0
    5.3648   -3.5003    1.0223 C   0  0  2  0  0  0  0  0  0  0  0  0
    6.7863   -2.9068    1.1877 C   0  0  0  0  0  0  0  0  0  0  0  0
    4.7283   -3.8789    2.4448 C   0  0  1  0  0  0  0  0  0  0  0  0
    3.5696   -2.8518    2.7200 C   0  0  0  0  0  0  0  0  0  0  0  0
    4.0486   -1.7480    1.8344 C   0  0  2  0  0  0  0  0  0  0  0  0
    3.4252   -0.6681    1.1192 O   0  0  0  0  0  0  0  0  0  0  0  0
    4.3926   -0.9661    0.0525 C   0  0  1  0  0  0  0  0  0  0  0  0
    5.6185   -0.2649    0.1043 O   0  0  0  0  0  0  0  0  0  0  0  0
    4.3504   -2.4398    0.5184 C   0  0  1  0  0  0  0  0  0  0  0  0
    3.2682   -3.1063   -0.1050 O   0  0  0  0  0  0  0  0  0  0  0  0
    4.4064   -5.3865    2.7066 C   0  0  2  0  0  0  0  0  0  0  0  0
    5.6403   -6.0965    3.3090 C   0  0  0  0  0  0  0  0  0  0  0  0
    3.1494   -5.6462    3.5266 C   0  0  0  0  0  0  0  0  0  0  0  0
    2.9111   -5.5932    4.8379 C   0  0  0  0  0  0  0  0  0  0  0  0
    1.6421   -6.3415    5.1854 C   0  0  0  0  0  0  0  0  0  0  0  0
    1.4788   -7.2748    3.9568 C   0  0  1  0  0  0  0  0  0  0  0  0
    0.0890   -7.7893    3.6757 C   0  0  0  0  0  0  0  0  0  0  0  0
   -0.2148   -8.8868    2.8261 C   0  0  0  0  0  0  0  0  0  0  0  0
   -1.5696   -9.0533    2.8580 C   0  0  0  0  0  0  0  0  0  0  0  0
   -2.1416   -8.1232    3.6696 O   0  0  0  0  0  0  0  0  0  0  0  0
   -1.1233   -7.3793    4.1749 C   0  0  0  0  0  0  0  0  0  0  0  0
    2.1128   -6.4483    2.8013 C   0  0  2  0  0  0  0  0  0  0  0  0
    1.0987   -5.4873    2.1418 C   0  0  0  0  0  0  0  0  0  0  0  0
    4.5046  -10.0955    1.7746 H   0  0  0  0  0  0  0  0  0  0  0  0
    5.0057   -8.6895    0.8385 H   0  0  0  0  0  0  0  0  0  0  0  0
    3.4542   -9.4840    0.4923 H   0  0  0  0  0  0  0  0  0  0  0  0
    2.3229   -7.3827    0.8747 H   0  0  0  0  0  0  0  0  0  0  0  0
    4.1917   -6.3205   -0.6628 H   0  0  0  0  0  0  0  0  0  0  0  0
    6.5022   -5.2012    0.2353 H   0  0  0  0  0  0  0  0  0  0  0  0
    5.5571   -4.3787   -0.9834 H   0  0  0  0  0  0  0  0  0  0  0  0
    6.8163   -2.0500    1.8575 H   0  0  0  0  0  0  0  0  0  0  0  0
    7.1903   -2.5692    0.2313 H   0  0  0  0  0  0  0  0  0  0  0  0
    7.4766   -3.6482    1.5929 H   0  0  0  0  0  0  0  0  0  0  0  0
    5.4863   -3.6139    3.1858 H   0  0  0  0  0  0  0  0  0  0  0  0
    2.5954   -3.2068    2.3986 H   0  0  0  0  0  0  0  0  0  0  0  0
    3.5058   -2.5588    3.7680 H   0  0  0  0  0  0  0  0  0  0  0  0
    4.9212   -1.3122    2.3264 H   0  0  0  0  0  0  0  0  0  0  0  0
    3.9385   -0.8371   -0.9335 H   0  0  0  0  0  0  0  0  0  0  0  0
    5.4532    0.6333   -0.1910 H   0  0  0  0  0  0  0  0  0  0  0  0
    2.6402   -2.4294   -0.3043 H   0  0  0  0  0  0  0  0  0  0  0  0
    5.4651   -7.1638    3.4370 H   0  0  0  0  0  0  0  0  0  0  0  0
    5.9356   -5.6901    4.2735 H   0  0  0  0  0  0  0  0  0  0  0  0
    6.4947   -6.0103    2.6397 H   0  0  0  0  0  0  0  0  0  0  0  0
    3.5641   -5.1770    5.5901 H   0  0  0  0  0  0  0  0  0  0  0  0
    1.6988   -6.8994    6.1205 H   0  0  0  0  0  0  0  0  0  0  0  0
    0.8295   -5.6158    5.2597 H   0  0  0  0  0  0  0  0  0  0  0  0
    2.0941   -8.1507    4.1622 H   0  0  0  0  0  0  0  0  0  0  0  0
    0.4736   -9.5012    2.2668 H   0  0  0  0  0  0  0  0  0  0  0  0
   -2.2360   -9.7685    2.4053 H   0  0  0  0  0  0  0  0  0  0  0  0
   -1.4333   -6.6213    4.8711 H   0  0  0  0  0  0  0  0  0  0  0  0
    0.2730   -6.0275    1.6796 H   0  0  0  0  0  0  0  0  0  0  0  0
    1.5855   -4.8947    1.3667 H   0  0  0  0  0  0  0  0  0  0  0  0
    0.6875   -4.7940    2.8798 H   0  0  0  0  0  0  0  0  0  0  0  0
  1  2  1  0
  1 30  1  0
  1 31  1  0
  1 32  1  0
  2  3  1  0
  3 28  1  0
  3  4  1  0
  3 33  1  6
  4 17  1  0
  4  5  2  0
  5  6  1  0
  5 34  1  0
  6  7  1  0
  6 35  1  0
  6 36  1  0
  7 15  1  0
  7  8  1  1
  7  9  1  0
  8 37  1  0
  8 38  1  0
  8 39  1  0
  9 10  1  0
  9 17  1  0
  9 40  1  1
 10 11  1  0
 10 41  1  0
 10 42  1  0
 11 15  1  0
 11 12  1  0
 11 43  1  1
 12 13  1  0
 13 14  1  0
 13 15  1  0
 13 44  1  6
 14 45  1  0
 15 16  1  6
 16 46  1  0
 17 18  1  1
 17 19  1  0
 18 47  1  0
 18 48  1  0
 18 49  1  0
 19 28  1  0
 19 20  2  0
 20 21  1  0
 20 50  1  0
 21 22  1  0
 21 51  1  0
 21 52  1  0
 22 23  1  0
 22 28  1  0
 22 53  1  1
 23 27  2  0
 23 24  1  0
 24 25  2  0
 24 54  1  0
 25 26  1  0
 25 55  1  0
 26 27  1  0
 27 56  1  0
 28 29  1  6
 29 57  1  0
 29 58  1  0
 29 59  1  0
M  END
>  <i_m_ct_stereo_status>  (337) 
1

>  <s_m_source_file>  (337) 
/var/tmp/pbs.5076255.sched01/tmpbvzcvm50/120d7_yi5_y.sdf

>  <i_m_source_file_index>  (337) 
18

>  <i_lp_mmshare_version>  (337) 
48012

>  <i_f3d_flags>  (337) 
0

>  <s_epik_input>  (337) 
TzFbQ0BASF0oW09IXSlbQ0BdMihbT0hdKVtDQEBIXTFbQ0gyXVtDQEhdKFtDQF0yM1tDSDNdKVtDQF00KFtDSDNdKUMoPVtDSF1bQ0gyXTMpW0NAQEhdKE9bQ0gzXSlbQ0BdNShbQ0gzXSlDND1bQ0hdW0NIMl1bQ0BIXTVjNltjSF1bY0hdb1tjSF02

>  <s_epik_cmdline>  (337) 
J2VwaWtfcHl0aG9uJywgJy1waHQnLCAnMi4wJywgJy1waCcsICc3LjAnLCAnLXRuJywgJzgnLCAnLW1hJywgJzIwMCcsICctaW1hZScsICc8aW5maWxlLm1hZT4nLCAnLW9tYWUnLCAnPG91dGZpbGUubWFlPic=

>  <r_lp_tautomer_probability>  (337) 
1

>  <r_epik_Ionization_Penalty>  (337) 
2.40289e-07

>  <r_epik_Ionization_Penalty_Charging>  (337) 
0

>  <r_epik_Ionization_Penalty_Neutral>  (337) 
2.40289e-07

>  <r_epik_State_Penalty>  (337) 
-0

>  <r_epik_Charging_Adjusted_Penalty>  (337) 
0

>  <i_epik_Tot_Q>  (337) 
0

>  <i_epik_Tot_abs_Q>  (337) 
0

>  <s_epik_Chemistry_Notes>  (337) 
This compound contains an acetal/aminal-like group ( X-CH(R)-Y where X, Y are N, S, or O) that may be acid/base labile, releasing an aldehyde.

>  <s_lp_Force_Field>  (337) 
OPLS3e

>  <r_lp_Energy>  (337) 
75.3177

>  <b_lp_Chiralities_Consistent>  (337) 
1

>  <s_lp_Variant>  (337) 
99:0-1

>  <s_i_glide_gridfile>  (337) 
pfpi4k_grid

>  <i_i_glide_lignum>  (337) 
18

>  <i_i_glide_rotatable_bonds>  (337) 
4

>  <r_i_docking_score>  (337) 
-2.88096

>  <r_i_glide_ligand_efficiency>  (337) 
-0.0993435

>  <r_i_glide_ligand_efficiency_sa>  (337) 
-0.305215

>  <r_i_glide_ligand_efficiency_ln>  (337) 
-0.659667

>  <r_i_glide_gscore>  (337) 
-2.88096

>  <r_i_glide_lipo>  (337) 
-0.345377

>  <r_i_glide_hbond>  (337) 
0

>  <r_i_glide_metal>  (337) 
-0

>  <r_i_glide_rewards>  (337) 
-0.6921

>  <r_i_glide_evdw>  (337) 
-24.2707

>  <r_i_glide_ecoul>  (337) 
-4.98572

>  <r_i_glide_erotb>  (337) 
0.123336

>  <r_i_glide_esite>  (337) 
-0.0054292

>  <r_i_glide_emodel>  (337) 
-33.2392

>  <r_i_glide_energy>  (337) 
-29.2564

>  <r_i_glide_einternal>  (337) 
1.43616

>  <r_i_glide_intrahb_reward>  (337) 
-0

>  <i_i_glide_confnum>  (337) 
4

>  <i_i_glide_posenum>  (337) 
5

>  <r_i_glide_eff_state_penalty>  (337) 
0

>  <ligand_id>  (337) 
99

>  <original_smiles>  (337) 
COC1C2=CCC3(C)C(CC4OC(O)C43O)C2(C)C2=CCC(c3ccoc3)C21C

>  <smiles>  (337) 
[H]OC1([H])OC2([H])C([H])([H])C3([H])C4(C([H])([H])[H])C(=C([H])C([H])([H])C3(C([H])([H])[H])C12O[H])C([H])(OC([H])([H])[H])C1(C([H])([H])[H])C4=C([H])C([H])([H])C1([H])c1c([H])oc([H])c1[H]

$$$$
99:0:2
     RDKit          3D

 59 64  0  0  1  0  0  0  0  0999 V2000
    4.3796   -9.2298    1.2393 C   0  0  0  0  0  0  0  0  0  0  0  0
    3.7377   -8.4241    2.2125 O   0  0  0  0  0  0  0  0  0  0  0  0
    3.1723   -7.2242    1.7091 C   0  0  2  0  0  0  0  0  0  0  0  0
    4.2474   -6.1847    1.4299 C   0  0  0  0  0  0  0  0  0  0  0  0
    4.6964   -5.8214    0.2175 C   0  0  0  0  0  0  0  0  0  0  0  0
    5.7134   -4.7153    0.0478 C   0  0  0  0  0  0  0  0  0  0  0  0
    5.5225   -3.5117    1.0235 C   0  0  2  0  0  0  0  0  0  0  0  0
    6.9342   -2.8969    1.1897 C   0  0  0  0  0  0  0  0  0  0  0  0
    4.8950   -3.9101    2.4459 C   0  0  1  0  0  0  0  0  0  0  0  0
    3.7217   -2.9043    2.7323 C   0  0  0  0  0  0  0  0  0  0  0  0
    4.1811   -1.7866    1.8521 C   0  0  2  0  0  0  0  0  0  0  0  0
    3.5403   -0.7113    1.1496 O   0  0  0  0  0  0  0  0  0  0  0  0
    4.5047   -0.9843    0.0764 C   0  0  1  0  0  0  0  0  0  0  0  0
    5.7224   -0.2652    0.1224 O   0  0  0  0  0  0  0  0  0  0  0  0
    4.4928   -2.4609    0.5333 C   0  0  1  0  0  0  0  0  0  0  0  0
    3.4245   -3.1441   -0.0939 O   0  0  0  0  0  0  0  0  0  0  0  0
    4.6017   -5.4257    2.6960 C   0  0  2  0  0  0  0  0  0  0  0  0
    5.8466   -6.1218    3.2916 C   0  0  0  0  0  0  0  0  0  0  0  0
    3.3462   -5.7129    3.5081 C   0  0  0  0  0  0  0  0  0  0  0  0
    3.1127   -5.6848    4.8209 C   0  0  0  0  0  0  0  0  0  0  0  0
    1.8625   -6.4643    5.1608 C   0  0  0  0  0  0  0  0  0  0  0  0
    1.7144   -7.3926    3.9231 C   0  0  1  0  0  0  0  0  0  0  0  0
    0.3268   -7.9141    3.6511 C   0  0  0  0  0  0  0  0  0  0  0  0
   -0.9317   -7.4072    4.0802 C   0  0  0  0  0  0  0  0  0  0  0  0
   -1.8773   -8.2444    3.5819 C   0  0  0  0  0  0  0  0  0  0  0  0
   -1.3132   -9.2420    2.8630 O   0  0  0  0  0  0  0  0  0  0  0  0
    0.0238   -9.0409    2.9268 C   0  0  0  0  0  0  0  0  0  0  0  0
    2.3264   -6.5331    2.7801 C   0  0  2  0  0  0  0  0  0  0  0  0
    1.2940   -5.5793    2.1294 C   0  0  0  0  0  0  0  0  0  0  0  0
    4.7586  -10.1363    1.7169 H   0  0  0  0  0  0  0  0  0  0  0  0
    5.2277   -8.7199    0.7766 H   0  0  0  0  0  0  0  0  0  0  0  0
    3.6797   -9.5306    0.4574 H   0  0  0  0  0  0  0  0  0  0  0  0
    2.5330   -7.4429    0.8658 H   0  0  0  0  0  0  0  0  0  0  0  0
    4.3758   -6.3316   -0.6809 H   0  0  0  0  0  0  0  0  0  0  0  0
    6.6846   -5.1862    0.2221 H   0  0  0  0  0  0  0  0  0  0  0  0
    5.7240   -4.3672   -0.9872 H   0  0  0  0  0  0  0  0  0  0  0  0
    6.9501   -2.0392    1.8601 H   0  0  0  0  0  0  0  0  0  0  0  0
    7.3322   -2.5466    0.2349 H   0  0  0  0  0  0  0  0  0  0  0  0
    7.6380   -3.6301    1.5909 H   0  0  0  0  0  0  0  0  0  0  0  0
    5.6510   -3.6393    3.1864 H   0  0  0  0  0  0  0  0  0  0  0  0
    2.7526   -3.2754    2.4090 H   0  0  0  0  0  0  0  0  0  0  0  0
    3.6538   -2.6242    3.7812 H   0  0  0  0  0  0  0  0  0  0  0  0
    5.0488   -1.3418    2.3459 H   0  0  0  0  0  0  0  0  0  0  0  0
    4.0380   -0.8640   -0.9071 H   0  0  0  0  0  0  0  0  0  0  0  0
    5.5360    0.6303   -0.1715 H   0  0  0  0  0  0  0  0  0  0  0  0
    2.7801   -2.4762   -0.2853 H   0  0  0  0  0  0  0  0  0  0  0  0
    5.6866   -7.1911    3.4113 H   0  0  0  0  0  0  0  0  0  0  0  0
    6.1359   -5.7176    4.2583 H   0  0  0  0  0  0  0  0  0  0  0  0
    6.6981   -6.0167    2.6211 H   0  0  0  0  0  0  0  0  0  0  0  0
    3.7534   -5.2620    5.5813 H   0  0  0  0  0  0  0  0  0  0  0  0
    1.9236   -7.0272    6.0935 H   0  0  0  0  0  0  0  0  0  0  0  0
    1.0395   -5.7506    5.2361 H   0  0  0  0  0  0  0  0  0  0  0  0
    2.3521   -8.2565    4.1182 H   0  0  0  0  0  0  0  0  0  0  0  0
   -1.1281   -6.5416    4.6958 H   0  0  0  0  0  0  0  0  0  0  0  0
   -2.9516   -8.2891    3.6496 H   0  0  0  0  0  0  0  0  0  0  0  0
    0.6127   -9.7846    2.4105 H   0  0  0  0  0  0  0  0  0  0  0  0
    0.4741   -6.1232    1.6616 H   0  0  0  0  0  0  0  0  0  0  0  0
    1.7643   -4.9628    1.3595 H   0  0  0  0  0  0  0  0  0  0  0  0
    0.8721   -4.8996    2.8749 H   0  0  0  0  0  0  0  0  0  0  0  0
  1  2  1  0
  1 30  1  0
  1 31  1  0
  1 32  1  0
  2  3  1  0
  3 28  1  0
  3  4  1  0
  3 33  1  6
  4 17  1  0
  4  5  2  0
  5  6  1  0
  5 34  1  0
  6  7  1  0
  6 35  1  0
  6 36  1  0
  7 15  1  0
  7  8  1  1
  7  9  1  0
  8 37  1  0
  8 38  1  0
  8 39  1  0
  9 10  1  0
  9 17  1  0
  9 40  1  1
 10 11  1  0
 10 41  1  0
 10 42  1  0
 11 15  1  0
 11 12  1  0
 11 43  1  1
 12 13  1  0
 13 14  1  0
 13 15  1  0
 13 44  1  6
 14 45  1  0
 15 16  1  6
 16 46  1  0
 17 18  1  1
 17 19  1  0
 18 47  1  0
 18 48  1  0
 18 49  1  0
 19 28  1  0
 19 20  2  0
 20 21  1  0
 20 50  1  0
 21 22  1  0
 21 51  1  0
 21 52  1  0
 22 23  1  0
 22 28  1  0
 22 53  1  1
 23 27  2  0
 23 24  1  0
 24 25  2  0
 24 54  1  0
 25 26  1  0
 25 55  1  0
 26 27  1  0
 27 56  1  0
 28 29  1  6
 29 57  1  0
 29 58  1  0
 29 59  1  0
M  END
>  <i_m_ct_stereo_status>  (338) 
1

>  <s_m_source_file>  (338) 
/var/tmp/pbs.5076255.sched01/tmpbvzcvm50/120d7_yi5_y.sdf

>  <i_m_source_file_index>  (338) 
18

>  <i_lp_mmshare_version>  (338) 
48012

>  <i_f3d_flags>  (338) 
0

>  <s_epik_input>  (338) 
TzFbQ0BASF0oW09IXSlbQ0BdMihbT0hdKVtDQEBIXTFbQ0gyXVtDQEhdKFtDQF0yM1tDSDNdKVtDQF00KFtDSDNdKUMoPVtDSF1bQ0gyXTMpW0NAQEhdKE9bQ0gzXSlbQ0BdNShbQ0gzXSlDND1bQ0hdW0NIMl1bQ0BIXTVjNltjSF1bY0hdb1tjSF02

>  <s_epik_cmdline>  (338) 
J2VwaWtfcHl0aG9uJywgJy1waHQnLCAnMi4wJywgJy1waCcsICc3LjAnLCAnLXRuJywgJzgnLCAnLW1hJywgJzIwMCcsICctaW1hZScsICc8aW5maWxlLm1hZT4nLCAnLW9tYWUnLCAnPG91dGZpbGUubWFlPic=

>  <r_lp_tautomer_probability>  (338) 
1

>  <r_epik_Ionization_Penalty>  (338) 
2.40289e-07

>  <r_epik_Ionization_Penalty_Charging>  (338) 
0

>  <r_epik_Ionization_Penalty_Neutral>  (338) 
2.40289e-07

>  <r_epik_State_Penalty>  (338) 
-0

>  <r_epik_Charging_Adjusted_Penalty>  (338) 
0

>  <i_epik_Tot_Q>  (338) 
0

>  <i_epik_Tot_abs_Q>  (338) 
0

>  <s_epik_Chemistry_Notes>  (338) 
This compound contains an acetal/aminal-like group ( X-CH(R)-Y where X, Y are N, S, or O) that may be acid/base labile, releasing an aldehyde.

>  <s_lp_Force_Field>  (338) 
OPLS3e

>  <r_lp_Energy>  (338) 
75.3177

>  <b_lp_Chiralities_Consistent>  (338) 
1

>  <s_lp_Variant>  (338) 
99:0-1

>  <s_i_glide_gridfile>  (338) 
pfpi4k_grid

>  <i_i_glide_lignum>  (338) 
18

>  <i_i_glide_rotatable_bonds>  (338) 
4

>  <r_i_docking_score>  (338) 
-2.72786

>  <r_i_glide_ligand_efficiency>  (338) 
-0.0940642

>  <r_i_glide_ligand_efficiency_sa>  (338) 
-0.288995

>  <r_i_glide_ligand_efficiency_ln>  (338) 
-0.624611

>  <r_i_glide_gscore>  (338) 
-2.72786

>  <r_i_glide_lipo>  (338) 
-0.386535

>  <r_i_glide_hbond>  (338) 
0

>  <r_i_glide_metal>  (338) 
-0

>  <r_i_glide_rewards>  (338) 
-0.6921

>  <r_i_glide_evdw>  (338) 
-23.268

>  <r_i_glide_ecoul>  (338) 
-4.04483

>  <r_i_glide_erotb>  (338) 
0.123336

>  <r_i_glide_esite>  (338) 
-0.00243832

>  <r_i_glide_emodel>  (338) 
-30.9204

>  <r_i_glide_energy>  (338) 
-27.3128

>  <r_i_glide_einternal>  (338) 
1.65847

>  <r_i_glide_intrahb_reward>  (338) 
-0

>  <i_i_glide_confnum>  (338) 
3

>  <i_i_glide_posenum>  (338) 
35

>  <r_i_glide_eff_state_penalty>  (338) 
0

>  <ligand_id>  (338) 
99

>  <original_smiles>  (338) 
COC1C2=CCC3(C)C(CC4OC(O)C43O)C2(C)C2=CCC(c3ccoc3)C21C

>  <smiles>  (338) 
[H]OC1([H])OC2([H])C([H])([H])C3([H])C4(C([H])([H])[H])C(=C([H])C([H])([H])C3(C([H])([H])[H])C12O[H])C([H])(OC([H])([H])[H])C1(C([H])([H])[H])C4=C([H])C([H])([H])C1([H])c1c([H])oc([H])c1[H]

$$$$
100:0:0
     RDKit          3D

 31 33  0  0  1  0  0  0  0  0999 V2000
   -2.7306    2.6854    7.1531 C   0  0  0  0  0  0  0  0  0  0  0  0
   -1.8424    1.8533    6.2677 C   0  0  0  0  0  0  0  0  0  0  0  0
   -1.0669    2.4808    5.2822 C   0  0  0  0  0  0  0  0  0  0  0  0
   -0.1987    1.6922    4.5223 C   0  0  0  0  0  0  0  0  0  0  0  0
   -0.2085    0.2837    4.7235 C   0  0  0  0  0  0  0  0  0  0  0  0
    0.6129   -0.6147    3.9926 C   0  0  0  0  0  0  0  0  0  0  0  0
    1.4901   -0.2157    2.9640 N   0  0  0  0  0  0  0  0  0  0  0  0
    1.1959    0.6194    1.8217 C   0  0  0  0  0  0  0  0  0  0  0  0
    2.4366    0.9210    1.2785 O   0  0  0  0  0  0  0  0  0  0  0  0
    3.2712   -0.2004    1.4579 C   0  0  0  0  0  0  0  0  0  0  0  0
    2.8714   -0.6698    2.8608 C   0  0  1  0  0  0  0  0  0  0  0  0
    3.7466   -0.0179    3.9441 C   0  0  0  0  0  0  0  0  0  0  0  0
    0.6092   -1.9263    4.2874 N   0  0  0  0  0  0  0  0  0  0  0  0
   -0.2097   -2.3311    5.2511 C   0  0  0  0  0  0  0  0  0  0  0  0
   -1.0320   -1.5807    5.9709 N   0  0  0  0  0  0  0  0  0  0  0  0
   -1.0249   -0.2542    5.7182 C   0  0  0  0  0  0  0  0  0  0  0  0
   -1.8277    0.5279    6.4829 N   0  0  0  0  0  0  0  0  0  0  0  0
   -2.6867    3.7382    6.8615 H   0  0  0  0  0  0  0  0  0  0  0  0
   -2.4054    2.6025    8.1909 H   0  0  0  0  0  0  0  0  0  0  0  0
   -3.7611    2.3479    7.0600 H   0  0  0  0  0  0  0  0  0  0  0  0
   -1.0859    3.5480    5.1096 H   0  0  0  0  0  0  0  0  0  0  0  0
    0.4542    2.2274    3.8588 H   0  0  0  0  0  0  0  0  0  0  0  0
    0.5526    0.0515    1.1353 H   0  0  0  0  0  0  0  0  0  0  0  0
    0.7327    1.5563    2.0525 H   0  0  0  0  0  0  0  0  0  0  0  0
    3.0212   -0.9376    0.6921 H   0  0  0  0  0  0  0  0  0  0  0  0
    4.3190    0.0875    1.3546 H   0  0  0  0  0  0  0  0  0  0  0  0
    2.9582   -1.7578    2.9110 H   0  0  0  0  0  0  0  0  0  0  0  0
    4.8047   -0.2223    3.7723 H   0  0  0  0  0  0  0  0  0  0  0  0
    3.4933   -0.3910    4.9369 H   0  0  0  0  0  0  0  0  0  0  0  0
    3.6193    1.0664    3.9465 H   0  0  0  0  0  0  0  0  0  0  0  0
   -0.2337   -3.3989    5.4499 H   0  0  0  0  0  0  0  0  0  0  0  0
  1  2  1  0
  1 18  1  0
  1 19  1  0
  1 20  1  0
  2 17  2  0
  2  3  1  0
  3  4  2  0
  3 21  1  0
  4  5  1  0
  4 22  1  0
  5 16  2  0
  5  6  1  0
  6  7  1  0
  6 13  2  0
  7 11  1  0
  7  8  1  0
  8  9  1  0
  8 23  1  0
  8 24  1  0
  9 10  1  0
 10 11  1  0
 10 25  1  0
 10 26  1  0
 11 12  1  0
 11 27  1  6
 12 28  1  0
 12 29  1  0
 12 30  1  0
 13 14  1  0
 14 15  2  0
 14 31  1  0
 15 16  1  0
 16 17  1  0
M  END
>  <i_m_ct_stereo_status>  (339) 
1

>  <s_m_source_file>  (339) 
/var/tmp/pbs.5076255.sched01/tmpbvzcvm50/120d7_yi5_y.sdf

>  <i_m_source_file_index>  (339) 
19

>  <i_lp_mmshare_version>  (339) 
48012

>  <i_f3d_flags>  (339) 
0

>  <s_epik_input>  (339) 
W2NIXTFbY0hdYyhbQ0gzXSluYyhjMTIpbltjSF1uYzJOM1tDSDJdT1tDSDJdW0NASF0zW0NIM10=

>  <s_epik_cmdline>  (339) 
J2VwaWtfcHl0aG9uJywgJy1waHQnLCAnMi4wJywgJy1waCcsICc3LjAnLCAnLXRuJywgJzgnLCAnLW1hJywgJzIwMCcsICctaW1hZScsICc8aW5maWxlLm1hZT4nLCAnLW9tYWUnLCAnPG91dGZpbGUubWFlPic=

>  <r_lp_tautomer_probability>  (339) 
1

>  <r_epik_Ionization_Penalty>  (339) 
0.00213592

>  <r_epik_Ionization_Penalty_Charging>  (339) 
0

>  <r_epik_Ionization_Penalty_Neutral>  (339) 
0.00213592

>  <r_epik_State_Penalty>  (339) 
0.00124151

>  <r_epik_Charging_Adjusted_Penalty>  (339) 
0.00124151

>  <i_epik_Tot_Q>  (339) 
0

>  <i_epik_Tot_abs_Q>  (339) 
0

>  <s_epik_Chemistry_Notes>  (339) 
This compound contains an acetal/aminal-like group ( X-CH(R)-Y where X, Y are N, S, or O) that may be acid/base labile, releasing an aldehyde.

>  <s_lp_Force_Field>  (339) 
OPLS3e

>  <r_lp_Energy>  (339) 
26.8521

>  <b_lp_Chiralities_Consistent>  (339) 
1

>  <s_lp_Variant>  (339) 
100:0-1

>  <s_i_glide_gridfile>  (339) 
pfpi4k_grid

>  <i_i_glide_lignum>  (339) 
19

>  <i_i_glide_rotatable_bonds>  (339) 
1

>  <r_i_docking_score>  (339) 
-3.51503

>  <r_i_glide_ligand_efficiency>  (339) 
-0.206766

>  <r_i_glide_ligand_efficiency_sa>  (339) 
-0.531655

>  <r_i_glide_ligand_efficiency_ln>  (339) 
-0.916993

>  <r_i_glide_gscore>  (339) 
-3.51503

>  <r_i_glide_lipo>  (339) 
-0.18339

>  <r_i_glide_hbond>  (339) 
-0.16

>  <r_i_glide_metal>  (339) 
-0

>  <r_i_glide_rewards>  (339) 
-1.8391

>  <r_i_glide_evdw>  (339) 
-15.8133

>  <r_i_glide_ecoul>  (339) 
-4.75996

>  <r_i_glide_erotb>  (339) 
0.322161

>  <r_i_glide_esite>  (339) 
-0.150045

>  <r_i_glide_emodel>  (339) 
-25.0769

>  <r_i_glide_energy>  (339) 
-20.5732

>  <r_i_glide_einternal>  (339) 
0.655248

>  <r_i_glide_intrahb_reward>  (339) 
-0

>  <i_i_glide_confnum>  (339) 
5

>  <i_i_glide_posenum>  (339) 
26

>  <r_i_glide_eff_state_penalty>  (339) 
0

>  <ligand_id>  (339) 
100

>  <original_smiles>  (339) 
Cc1ccc2c(N3COCC3C)ncnc2n1

>  <smiles>  (339) 
[H]c1nc(N2C([H])([H])OC([H])([H])C2([H])C([H])([H])[H])c2c([H])c([H])c(C([H])([H])[H])nc2n1

$$$$
100:0:1
     RDKit          3D

 31 33  0  0  1  0  0  0  0  0999 V2000
   -3.1525    3.3684    9.4024 C   0  0  0  0  0  0  0  0  0  0  0  0
   -2.3291    2.9720    8.2058 C   0  0  0  0  0  0  0  0  0  0  0  0
   -1.3655    3.8550    7.6784 C   0  0  0  0  0  0  0  0  0  0  0  0
   -0.6607    3.4471    6.5359 C   0  0  0  0  0  0  0  0  0  0  0  0
   -0.9055    2.1555    6.0157 C   0  0  0  0  0  0  0  0  0  0  0  0
   -0.2014    1.6169    4.9129 C   0  0  0  0  0  0  0  0  0  0  0  0
    0.8892    2.2933    4.3077 N   0  0  0  0  0  0  0  0  0  0  0  0
    2.1007    2.6862    4.9812 C   0  0  0  0  0  0  0  0  0  0  0  0
    2.8548    3.4306    4.0918 O   0  0  0  0  0  0  0  0  0  0  0  0
    2.5337    2.9653    2.7880 C   0  0  0  0  0  0  0  0  0  0  0  0
    1.0744    2.4897    2.8780 C   0  0  1  0  0  0  0  0  0  0  0  0
    0.8061    1.2677    1.9696 C   0  0  0  0  0  0  0  0  0  0  0  0
   -0.5054    0.3972    4.4452 N   0  0  0  0  0  0  0  0  0  0  0  0
   -1.4834   -0.2576    5.0407 C   0  0  0  0  0  0  0  0  0  0  0  0
   -2.1755    0.1363    6.1001 N   0  0  0  0  0  0  0  0  0  0  0  0
   -1.8938    1.3559    6.5983 C   0  0  0  0  0  0  0  0  0  0  0  0
   -2.5823    1.7635    7.6768 N   0  0  0  0  0  0  0  0  0  0  0  0
   -2.8858    4.3679    9.7434 H   0  0  0  0  0  0  0  0  0  0  0  0
   -2.9843    2.6653   10.2174 H   0  0  0  0  0  0  0  0  0  0  0  0
   -4.2096    3.3634    9.1384 H   0  0  0  0  0  0  0  0  0  0  0  0
   -1.1593    4.8163    8.1245 H   0  0  0  0  0  0  0  0  0  0  0  0
    0.0395    4.1370    6.0989 H   0  0  0  0  0  0  0  0  0  0  0  0
    1.9105    3.2997    5.8627 H   0  0  0  0  0  0  0  0  0  0  0  0
    2.6266    1.7718    5.2808 H   0  0  0  0  0  0  0  0  0  0  0  0
    2.6864    3.7487    2.0500 H   0  0  0  0  0  0  0  0  0  0  0  0
    3.1890    2.1233    2.5664 H   0  0  0  0  0  0  0  0  0  0  0  0
    0.4194    3.3143    2.5929 H   0  0  0  0  0  0  0  0  0  0  0  0
    1.0766    1.4278    0.9322 H   0  0  0  0  0  0  0  0  0  0  0  0
   -0.2526    1.0070    1.9523 H   0  0  0  0  0  0  0  0  0  0  0  0
    1.3685    0.4009    2.3258 H   0  0  0  0  0  0  0  0  0  0  0  0
   -1.7343   -1.2370    4.6357 H   0  0  0  0  0  0  0  0  0  0  0  0
  1  2  1  0
  1 18  1  0
  1 19  1  0
  1 20  1  0
  2 17  2  0
  2  3  1  0
  3  4  2  0
  3 21  1  0
  4  5  1  0
  4 22  1  0
  5 16  2  0
  5  6  1  0
  6  7  1  0
  6 13  2  0
  7 11  1  0
  7  8  1  0
  8  9  1  0
  8 23  1  0
  8 24  1  0
  9 10  1  0
 10 11  1  0
 10 25  1  0
 10 26  1  0
 11 12  1  0
 11 27  1  6
 12 28  1  0
 12 29  1  0
 12 30  1  0
 13 14  1  0
 14 15  2  0
 14 31  1  0
 15 16  1  0
 16 17  1  0
M  END
>  <i_m_ct_stereo_status>  (340) 
1

>  <s_m_source_file>  (340) 
/var/tmp/pbs.5076255.sched01/tmpbvzcvm50/120d7_yi5_y.sdf

>  <i_m_source_file_index>  (340) 
19

>  <i_lp_mmshare_version>  (340) 
48012

>  <i_f3d_flags>  (340) 
0

>  <s_epik_input>  (340) 
W2NIXTFbY0hdYyhbQ0gzXSluYyhjMTIpbltjSF1uYzJOM1tDSDJdT1tDSDJdW0NASF0zW0NIM10=

>  <s_epik_cmdline>  (340) 
J2VwaWtfcHl0aG9uJywgJy1waHQnLCAnMi4wJywgJy1waCcsICc3LjAnLCAnLXRuJywgJzgnLCAnLW1hJywgJzIwMCcsICctaW1hZScsICc8aW5maWxlLm1hZT4nLCAnLW9tYWUnLCAnPG91dGZpbGUubWFlPic=

>  <r_lp_tautomer_probability>  (340) 
1

>  <r_epik_Ionization_Penalty>  (340) 
0.00213592

>  <r_epik_Ionization_Penalty_Charging>  (340) 
0

>  <r_epik_Ionization_Penalty_Neutral>  (340) 
0.00213592

>  <r_epik_State_Penalty>  (340) 
0.00124151

>  <r_epik_Charging_Adjusted_Penalty>  (340) 
0.00124151

>  <i_epik_Tot_Q>  (340) 
0

>  <i_epik_Tot_abs_Q>  (340) 
0

>  <s_epik_Chemistry_Notes>  (340) 
This compound contains an acetal/aminal-like group ( X-CH(R)-Y where X, Y are N, S, or O) that may be acid/base labile, releasing an aldehyde.

>  <s_lp_Force_Field>  (340) 
OPLS3e

>  <r_lp_Energy>  (340) 
26.8521

>  <b_lp_Chiralities_Consistent>  (340) 
1

>  <s_lp_Variant>  (340) 
100:0-1

>  <s_i_glide_gridfile>  (340) 
pfpi4k_grid

>  <i_i_glide_lignum>  (340) 
19

>  <i_i_glide_rotatable_bonds>  (340) 
1

>  <r_i_docking_score>  (340) 
-3.47574

>  <r_i_glide_ligand_efficiency>  (340) 
-0.204455

>  <r_i_glide_ligand_efficiency_sa>  (340) 
-0.525712

>  <r_i_glide_ligand_efficiency_ln>  (340) 
-0.906743

>  <r_i_glide_gscore>  (340) 
-3.47574

>  <r_i_glide_lipo>  (340) 
-0.050287

>  <r_i_glide_hbond>  (340) 
-0.1829

>  <r_i_glide_metal>  (340) 
-0

>  <r_i_glide_rewards>  (340) 
-1.8391

>  <r_i_glide_evdw>  (340) 
-16.4003

>  <r_i_glide_ecoul>  (340) 
-5.24443

>  <r_i_glide_erotb>  (340) 
0.322161

>  <r_i_glide_esite>  (340) 
-0.118935

>  <r_i_glide_emodel>  (340) 
-25.5619

>  <r_i_glide_energy>  (340) 
-21.6447

>  <r_i_glide_einternal>  (340) 
2.75012

>  <r_i_glide_intrahb_reward>  (340) 
-0

>  <i_i_glide_confnum>  (340) 
3

>  <i_i_glide_posenum>  (340) 
7

>  <r_i_glide_eff_state_penalty>  (340) 
0

>  <ligand_id>  (340) 
100

>  <original_smiles>  (340) 
Cc1ccc2c(N3COCC3C)ncnc2n1

>  <smiles>  (340) 
[H]c1nc(N2C([H])([H])OC([H])([H])C2([H])C([H])([H])[H])c2c([H])c([H])c(C([H])([H])[H])nc2n1

$$$$
100:0:2
     RDKit          3D

 31 33  0  0  1  0  0  0  0  0999 V2000
   -2.4135    2.7288    4.1524 C   0  0  0  0  0  0  0  0  0  0  0  0
   -1.3601    1.7224    3.7919 C   0  0  0  0  0  0  0  0  0  0  0  0
   -0.5184    1.9785    2.7013 C   0  0  0  0  0  0  0  0  0  0  0  0
    0.4224    1.0128    2.3504 C   0  0  0  0  0  0  0  0  0  0  0  0
    0.5378   -0.1435    3.1563 C   0  0  0  0  0  0  0  0  0  0  0  0
    1.4954   -1.1578    2.9053 C   0  0  0  0  0  0  0  0  0  0  0  0
    2.5090   -1.0489    1.9180 N   0  0  0  0  0  0  0  0  0  0  0  0
    3.4124    0.0728    1.7386 C   0  0  0  0  0  0  0  0  0  0  0  0
    4.4506   -0.3463    0.9188 O   0  0  0  0  0  0  0  0  0  0  0  0
    3.8918   -1.3614    0.0896 C   0  0  0  0  0  0  0  0  0  0  0  0
    2.9955   -2.1270    1.0717 C   0  0  1  0  0  0  0  0  0  0  0  0
    3.8055   -3.2155    1.8079 C   0  0  0  0  0  0  0  0  0  0  0  0
    1.4823   -2.2755    3.6512 N   0  0  0  0  0  0  0  0  0  0  0  0
    0.5894   -2.3585    4.6329 C   0  0  0  0  0  0  0  0  0  0  0  0
   -0.3196   -1.4523    4.9591 N   0  0  0  0  0  0  0  0  0  0  0  0
   -0.3597   -0.3262    4.2234 C   0  0  0  0  0  0  0  0  0  0  0  0
   -1.2952    0.5977    4.5277 N   0  0  0  0  0  0  0  0  0  0  0  0
   -2.3893    3.5829    3.4732 H   0  0  0  0  0  0  0  0  0  0  0  0
   -2.2532    3.0734    5.1705 H   0  0  0  0  0  0  0  0  0  0  0  0
   -3.3885    2.2638    4.0639 H   0  0  0  0  0  0  0  0  0  0  0  0
   -0.5920    2.8826    2.1076 H   0  0  0  0  0  0  0  0  0  0  0  0
    0.9848    1.2034    1.4440 H   0  0  0  0  0  0  0  0  0  0  0  0
    2.9193    0.8667    1.1930 H   0  0  0  0  0  0  0  0  0  0  0  0
    3.7667    0.4216    2.7164 H   0  0  0  0  0  0  0  0  0  0  0  0
    3.2904   -0.9449   -0.7233 H   0  0  0  0  0  0  0  0  0  0  0  0
    4.6911   -1.9585   -0.3442 H   0  0  0  0  0  0  0  0  0  0  0  0
    2.1616   -2.5844    0.5393 H   0  0  0  0  0  0  0  0  0  0  0  0
    4.2581   -3.9107    1.1003 H   0  0  0  0  0  0  0  0  0  0  0  0
    3.1853   -3.8225    2.4652 H   0  0  0  0  0  0  0  0  0  0  0  0
    4.6048   -2.7773    2.4056 H   0  0  0  0  0  0  0  0  0  0  0  0
    0.6211   -3.2531    5.2489 H   0  0  0  0  0  0  0  0  0  0  0  0
  1  2  1  0
  1 18  1  0
  1 19  1  0
  1 20  1  0
  2 17  2  0
  2  3  1  0
  3  4  2  0
  3 21  1  0
  4  5  1  0
  4 22  1  0
  5 16  2  0
  5  6  1  0
  6  7  1  0
  6 13  2  0
  7 11  1  0
  7  8  1  0
  8  9  1  0
  8 23  1  0
  8 24  1  0
  9 10  1  0
 10 11  1  0
 10 25  1  0
 10 26  1  0
 11 12  1  0
 11 27  1  6
 12 28  1  0
 12 29  1  0
 12 30  1  0
 13 14  1  0
 14 15  2  0
 14 31  1  0
 15 16  1  0
 16 17  1  0
M  END
>  <i_m_ct_stereo_status>  (341) 
1

>  <s_m_source_file>  (341) 
/var/tmp/pbs.5076255.sched01/tmpbvzcvm50/120d7_yi5_y.sdf

>  <i_m_source_file_index>  (341) 
19

>  <i_lp_mmshare_version>  (341) 
48012

>  <i_f3d_flags>  (341) 
0

>  <s_epik_input>  (341) 
W2NIXTFbY0hdYyhbQ0gzXSluYyhjMTIpbltjSF1uYzJOM1tDSDJdT1tDSDJdW0NASF0zW0NIM10=

>  <s_epik_cmdline>  (341) 
J2VwaWtfcHl0aG9uJywgJy1waHQnLCAnMi4wJywgJy1waCcsICc3LjAnLCAnLXRuJywgJzgnLCAnLW1hJywgJzIwMCcsICctaW1hZScsICc8aW5maWxlLm1hZT4nLCAnLW9tYWUnLCAnPG91dGZpbGUubWFlPic=

>  <r_lp_tautomer_probability>  (341) 
1

>  <r_epik_Ionization_Penalty>  (341) 
0.00213592

>  <r_epik_Ionization_Penalty_Charging>  (341) 
0

>  <r_epik_Ionization_Penalty_Neutral>  (341) 
0.00213592

>  <r_epik_State_Penalty>  (341) 
0.00124151

>  <r_epik_Charging_Adjusted_Penalty>  (341) 
0.00124151

>  <i_epik_Tot_Q>  (341) 
0

>  <i_epik_Tot_abs_Q>  (341) 
0

>  <s_epik_Chemistry_Notes>  (341) 
This compound contains an acetal/aminal-like group ( X-CH(R)-Y where X, Y are N, S, or O) that may be acid/base labile, releasing an aldehyde.

>  <s_lp_Force_Field>  (341) 
OPLS3e

>  <r_lp_Energy>  (341) 
26.8521

>  <b_lp_Chiralities_Consistent>  (341) 
1

>  <s_lp_Variant>  (341) 
100:0-1

>  <s_i_glide_gridfile>  (341) 
pfpi4k_grid

>  <i_i_glide_lignum>  (341) 
19

>  <i_i_glide_rotatable_bonds>  (341) 
1

>  <r_i_docking_score>  (341) 
-2.9273

>  <r_i_glide_ligand_efficiency>  (341) 
-0.172194

>  <r_i_glide_ligand_efficiency_sa>  (341) 
-0.44276

>  <r_i_glide_ligand_efficiency_ln>  (341) 
-0.763667

>  <r_i_glide_gscore>  (341) 
-2.9273

>  <r_i_glide_lipo>  (341) 
-0.00263205

>  <r_i_glide_hbond>  (341) 
0

>  <r_i_glide_metal>  (341) 
-0

>  <r_i_glide_rewards>  (341) 
-1.91568

>  <r_i_glide_evdw>  (341) 
-19.0299

>  <r_i_glide_ecoul>  (341) 
-2.11479

>  <r_i_glide_erotb>  (341) 
0.322161

>  <r_i_glide_esite>  (341) 
-0.0624411

>  <r_i_glide_emodel>  (341) 
-25.2003

>  <r_i_glide_energy>  (341) 
-21.1447

>  <r_i_glide_einternal>  (341) 
0.45365

>  <r_i_glide_intrahb_reward>  (341) 
-0

>  <i_i_glide_confnum>  (341) 
6

>  <i_i_glide_posenum>  (341) 
23

>  <r_i_glide_eff_state_penalty>  (341) 
0

>  <ligand_id>  (341) 
100

>  <original_smiles>  (341) 
Cc1ccc2c(N3COCC3C)ncnc2n1

>  <smiles>  (341) 
[H]c1nc(N2C([H])([H])OC([H])([H])C2([H])C([H])([H])[H])c2c([H])c([H])c(C([H])([H])[H])nc2n1

$$$$
101:0:0
     RDKit          3D

 48 52  0  0  1  0  0  0  0  0999 V2000
    2.9627   -1.5673   -3.6682 C   0  0  0  0  0  0  0  0  0  0  0  0
    2.9633   -2.6823   -2.7941 O   0  0  0  0  0  0  0  0  0  0  0  0
    3.8967   -2.7010   -1.7872 C   0  0  0  0  0  0  0  0  0  0  0  0
    4.6577   -3.7976   -1.6370 C   0  0  0  0  0  0  0  0  0  0  0  0
    5.6141   -4.0953   -0.4996 C   0  0  1  0  0  0  0  0  0  0  0  0
    6.7791   -3.1303   -0.3754 C   0  0  0  0  0  0  0  0  0  0  0  0
    7.3062   -2.5401   -1.3139 O   0  0  0  0  0  0  0  0  0  0  0  0
    7.1117   -3.0434    0.9061 O   0  0  0  0  0  0  0  0  0  0  0  0
    6.2681   -3.7906    1.7823 C   0  0  2  0  0  0  0  0  0  0  0  0
    7.0049   -5.0558    2.3199 C   0  0  0  0  0  0  0  0  0  0  0  0
    6.6291   -6.3989    1.6693 C   0  0  0  0  0  0  0  0  0  0  0  0
    5.1288   -6.6058    1.5435 C   0  0  0  0  0  0  0  0  0  0  0  0
    4.3550   -7.7622    1.7564 C   0  0  0  0  0  0  0  0  0  0  0  0
    2.9403   -7.7005    1.6255 C   0  0  0  0  0  0  0  0  0  0  0  0
    2.2766   -6.4793    1.3033 C   0  0  0  0  0  0  0  0  0  0  0  0
    0.9102   -6.3394    1.1711 O   0  0  0  0  0  0  0  0  0  0  0  0
    0.0856   -7.3538    1.7172 C   0  0  0  0  0  0  0  0  0  0  0  0
    3.0504   -5.3196    1.1146 C   0  0  0  0  0  0  0  0  0  0  0  0
    4.4257   -5.4441    1.2096 C   0  0  0  0  0  0  0  0  0  0  0  0
    5.0232   -4.1005    0.9194 C   0  0  2  0  0  0  0  0  0  0  0  0
    3.7612   -3.2083    1.1910 C   0  0  2  0  0  0  0  0  0  0  0  0
    2.6229   -4.0379    0.8985 O   0  0  0  0  0  0  0  0  0  0  0  0
    3.5818   -1.7832    0.6151 C   0  0  1  0  0  0  0  0  0  0  0  0
    4.2951   -0.8790    1.4520 O   0  0  0  0  0  0  0  0  0  0  0  0
    3.5602    0.2766    1.8305 C   0  0  0  0  0  0  0  0  0  0  0  0
    3.9526   -1.4979   -0.8532 C   0  0  0  0  0  0  0  0  0  0  0  0
    2.1023   -1.6635   -4.3230 H   0  0  0  0  0  0  0  0  0  0  0  0
    3.8580   -1.5786   -4.2847 H   0  0  0  0  0  0  0  0  0  0  0  0
    2.8664   -0.5962   -3.1928 H   0  0  0  0  0  0  0  0  0  0  0  0
    4.5721   -4.6205   -2.3359 H   0  0  0  0  0  0  0  0  0  0  0  0
    6.0696   -5.0599   -0.7039 H   0  0  0  0  0  0  0  0  0  0  0  0
    6.0003   -3.1583    2.6277 H   0  0  0  0  0  0  0  0  0  0  0  0
    8.0858   -4.9176    2.2585 H   0  0  0  0  0  0  0  0  0  0  0  0
    6.7809   -5.1329    3.3842 H   0  0  0  0  0  0  0  0  0  0  0  0
    7.0855   -6.4794    0.6840 H   0  0  0  0  0  0  0  0  0  0  0  0
    7.0412   -7.2060    2.2743 H   0  0  0  0  0  0  0  0  0  0  0  0
    4.8328   -8.6967    2.0185 H   0  0  0  0  0  0  0  0  0  0  0  0
    2.3878   -8.6136    1.7655 H   0  0  0  0  0  0  0  0  0  0  0  0
   -0.9578   -7.1226    1.5173 H   0  0  0  0  0  0  0  0  0  0  0  0
    0.2170   -7.4193    2.7938 H   0  0  0  0  0  0  0  0  0  0  0  0
    0.2842   -8.3302    1.2847 H   0  0  0  0  0  0  0  0  0  0  0  0
    3.6982   -3.0732    2.2738 H   0  0  0  0  0  0  0  0  0  0  0  0
    2.5144   -1.5856    0.7217 H   0  0  0  0  0  0  0  0  0  0  0  0
    4.1967    0.9173    2.4390 H   0  0  0  0  0  0  0  0  0  0  0  0
    2.6970    0.0096    2.4412 H   0  0  0  0  0  0  0  0  0  0  0  0
    3.2193    0.8562    0.9702 H   0  0  0  0  0  0  0  0  0  0  0  0
    4.9772   -1.1338   -0.9024 H   0  0  0  0  0  0  0  0  0  0  0  0
    3.3331   -0.6700   -1.1829 H   0  0  0  0  0  0  0  0  0  0  0  0
  1  2  1  0
  1 27  1  0
  1 28  1  0
  1 29  1  0
  2  3  1  0
  3 26  1  0
  3  4  2  0
  4  5  1  0
  4 30  1  0
  5 20  1  0
  5  6  1  0
  5 31  1  6
  6  7  2  0
  6  8  1  0
  8  9  1  0
  9 20  1  0
  9 10  1  0
  9 32  1  1
 10 11  1  0
 10 33  1  0
 10 34  1  0
 11 12  1  0
 11 35  1  0
 11 36  1  0
 12 19  2  0
 12 13  1  0
 13 14  2  0
 13 37  1  0
 14 15  1  0
 14 38  1  0
 15 16  1  0
 15 18  2  0
 16 17  1  0
 17 39  1  0
 17 40  1  0
 17 41  1  0
 18 22  1  0
 18 19  1  0
 20 19  1  1
 20 21  1  0
 21 22  1  0
 21 23  1  0
 21 42  1  1
 23 24  1  0
 23 26  1  0
 23 43  1  6
 24 25  1  0
 25 44  1  0
 25 45  1  0
 25 46  1  0
 26 47  1  0
 26 48  1  0
M  END
>  <i_m_ct_stereo_status>  (342) 
1

>  <s_m_source_file>  (342) 
/var/tmp/pbs.5076255.sched01/tmpbvzcvm50/120d7_yi5_y.sdf

>  <i_m_source_file_index>  (342) 
20

>  <i_lp_mmshare_version>  (342) 
48012

>  <i_f3d_flags>  (342) 
0

>  <s_epik_input>  (342) 
W0NAQF0xMjNbQ0BIXTRbQ0hdPUMoT1tDSDNdKVtDSDJdW0NASF0oT1tDSDNdKVtDQEhdM09jNWMyYyhbQ0gyXVtDSDJdW0NASF0xT0M0PU8pW2NIXVtjSF1jNU9bQ0gzXQ==

>  <s_epik_cmdline>  (342) 
J2VwaWtfcHl0aG9uJywgJy1waHQnLCAnMi4wJywgJy1waCcsICc3LjAnLCAnLXRuJywgJzgnLCAnLW1hJywgJzIwMCcsICctaW1hZScsICc8aW5maWxlLm1hZT4nLCAnLW9tYWUnLCAnPG91dGZpbGUubWFlPic=

>  <r_lp_tautomer_probability>  (342) 
1

>  <r_epik_Ionization_Penalty>  (342) 
3.22712e-13

>  <r_epik_Ionization_Penalty_Charging>  (342) 
0

>  <r_epik_Ionization_Penalty_Neutral>  (342) 
3.22712e-13

>  <r_epik_State_Penalty>  (342) 
-0

>  <r_epik_Charging_Adjusted_Penalty>  (342) 
0

>  <i_epik_Tot_Q>  (342) 
0

>  <i_epik_Tot_abs_Q>  (342) 
0

>  <s_epik_Chemistry_Notes>  (342) 
This compound has an ester and may undergo hydrolysis at high or low pH.

>  <s_lp_Force_Field>  (342) 
OPLS3e

>  <r_lp_Energy>  (342) 
45.2266

>  <b_lp_Chiralities_Consistent>  (342) 
1

>  <s_lp_Variant>  (342) 
101:0-1

>  <s_i_glide_gridfile>  (342) 
pfpi4k_grid

>  <i_i_glide_lignum>  (342) 
20

>  <i_i_glide_rotatable_bonds>  (342) 
3

>  <r_i_docking_score>  (342) 
-3.82946

>  <r_i_glide_ligand_efficiency>  (342) 
-0.147287

>  <r_i_glide_ligand_efficiency_sa>  (342) 
-0.436337

>  <r_i_glide_ligand_efficiency_ln>  (342) 
-0.899335

>  <r_i_glide_gscore>  (342) 
-3.82946

>  <r_i_glide_lipo>  (342) 
-0.624143

>  <r_i_glide_hbond>  (342) 
-0.32

>  <r_i_glide_metal>  (342) 
-0

>  <r_i_glide_rewards>  (342) 
-1.08758

>  <r_i_glide_evdw>  (342) 
-26.7313

>  <r_i_glide_ecoul>  (342) 
-3.07442

>  <r_i_glide_erotb>  (342) 
0

>  <r_i_glide_esite>  (342) 
0

>  <r_i_glide_emodel>  (342) 
-34.1019

>  <r_i_glide_energy>  (342) 
-29.8057

>  <r_i_glide_einternal>  (342) 
6.0474

>  <r_i_glide_intrahb_reward>  (342) 
-0

>  <i_i_glide_confnum>  (342) 
1

>  <i_i_glide_posenum>  (342) 
30

>  <r_i_glide_eff_state_penalty>  (342) 
0

>  <ligand_id>  (342) 
101

>  <original_smiles>  (342) 
COC1=CC2C(=O)OC3CCc4ccc(OC)c5c4C32C(O5)C(OC)C1

>  <smiles>  (342) 
[H]C1=C(OC([H])([H])[H])C([H])([H])C([H])(OC([H])([H])[H])C2([H])Oc3c(OC([H])([H])[H])c([H])c([H])c4c3C23C1([H])C(=O)OC3([H])C([H])([H])C4([H])[H]

$$$$
101:0:1
     RDKit          3D

 48 52  0  0  1  0  0  0  0  0999 V2000
    3.2802   -2.7974   -3.8677 C   0  0  0  0  0  0  0  0  0  0  0  0
    3.2402   -1.9986   -2.6859 O   0  0  0  0  0  0  0  0  0  0  0  0
    4.1387   -2.3289   -1.6943 C   0  0  0  0  0  0  0  0  0  0  0  0
    4.8365   -3.4915   -1.6525 C   0  0  0  0  0  0  0  0  0  0  0  0
    5.8417   -3.8839   -0.5975 C   0  0  1  0  0  0  0  0  0  0  0  0
    7.0814   -3.0039   -0.5337 C   0  0  0  0  0  0  0  0  0  0  0  0
    7.5504   -2.3939   -1.4816 O   0  0  0  0  0  0  0  0  0  0  0  0
    7.5285   -3.0388    0.7046 O   0  0  0  0  0  0  0  0  0  0  0  0
    6.7016   -3.7807    1.5934 C   0  0  2  0  0  0  0  0  0  0  0  0
    7.3761   -5.1251    1.9832 C   0  0  0  0  0  0  0  0  0  0  0  0
    6.8622   -6.3869    1.2643 C   0  0  0  0  0  0  0  0  0  0  0  0
    5.3415   -6.4972    1.2528 C   0  0  0  0  0  0  0  0  0  0  0  0
    4.4971   -7.6037    1.4300 C   0  0  0  0  0  0  0  0  0  0  0  0
    3.0825   -7.4480    1.4156 C   0  0  0  0  0  0  0  0  0  0  0  0
    2.4898   -6.1670    1.2423 C   0  0  0  0  0  0  0  0  0  0  0  0
    1.1324   -5.9365    1.2372 O   0  0  0  0  0  0  0  0  0  0  0  0
    0.2592   -7.0414    1.3767 C   0  0  0  0  0  0  0  0  0  0  0  0
    3.3312   -5.0449    1.0958 C   0  0  0  0  0  0  0  0  0  0  0  0
    4.7028   -5.2638    1.0764 C   0  0  0  0  0  0  0  0  0  0  0  0
    5.3651   -3.9447    0.8509 C   0  0  2  0  0  0  0  0  0  0  0  0
    4.1893   -2.9967    1.2729 C   0  0  2  0  0  0  0  0  0  0  0  0
    2.9773   -3.7290    1.0022 O   0  0  0  0  0  0  0  0  0  0  0  0
    4.0790   -1.5182    0.7930 C   0  0  1  0  0  0  0  0  0  0  0  0
    4.9371   -0.6781    1.5689 O   0  0  0  0  0  0  0  0  0  0  0  0
    4.4139   -0.2607    2.8219 C   0  0  0  0  0  0  0  0  0  0  0  0
    4.3622   -1.2020   -0.7053 C   0  0  0  0  0  0  0  0  0  0  0  0
    2.5891   -2.4053   -4.6174 H   0  0  0  0  0  0  0  0  0  0  0  0
    3.0114   -3.8441   -3.6848 H   0  0  0  0  0  0  0  0  0  0  0  0
    4.2837   -2.7409   -4.3102 H   0  0  0  0  0  0  0  0  0  0  0  0
    4.7057   -4.2845   -2.3802 H   0  0  0  0  0  0  0  0  0  0  0  0
    6.2215   -4.8569   -0.8789 H   0  0  0  0  0  0  0  0  0  0  0  0
    6.5334   -3.1827    2.4836 H   0  0  0  0  0  0  0  0  0  0  0  0
    8.4579   -5.0467    1.8536 H   0  0  0  0  0  0  0  0  0  0  0  0
    7.2254   -5.2896    3.0485 H   0  0  0  0  0  0  0  0  0  0  0  0
    7.2342   -6.4046    0.2416 H   0  0  0  0  0  0  0  0  0  0  0  0
    7.2586   -7.2703    1.7675 H   0  0  0  0  0  0  0  0  0  0  0  0
    4.9088   -8.5909    1.5891 H   0  0  0  0  0  0  0  0  0  0  0  0
    2.4703   -8.3209    1.5501 H   0  0  0  0  0  0  0  0  0  0  0  0
   -0.7686   -6.6944    1.3368 H   0  0  0  0  0  0  0  0  0  0  0  0
    0.4028   -7.5386    2.3323 H   0  0  0  0  0  0  0  0  0  0  0  0
    0.4001   -7.7540    0.5698 H   0  0  0  0  0  0  0  0  0  0  0  0
    4.2291   -2.9631    2.3629 H   0  0  0  0  0  0  0  0  0  0  0  0
    3.0503   -1.2054    0.9910 H   0  0  0  0  0  0  0  0  0  0  0  0
    5.1588    0.3449    3.3348 H   0  0  0  0  0  0  0  0  0  0  0  0
    4.1701   -1.0960    3.4755 H   0  0  0  0  0  0  0  0  0  0  0  0
    3.5204    0.3484    2.6932 H   0  0  0  0  0  0  0  0  0  0  0  0
    5.4044   -0.8906   -0.7986 H   0  0  0  0  0  0  0  0  0  0  0  0
    3.8110   -0.3198   -1.0114 H   0  0  0  0  0  0  0  0  0  0  0  0
  1  2  1  0
  1 27  1  0
  1 28  1  0
  1 29  1  0
  2  3  1  0
  3 26  1  0
  3  4  2  0
  4  5  1  0
  4 30  1  0
  5 20  1  0
  5  6  1  0
  5 31  1  6
  6  7  2  0
  6  8  1  0
  8  9  1  0
  9 20  1  0
  9 10  1  0
  9 32  1  1
 10 11  1  0
 10 33  1  0
 10 34  1  0
 11 12  1  0
 11 35  1  0
 11 36  1  0
 12 19  2  0
 12 13  1  0
 13 14  2  0
 13 37  1  0
 14 15  1  0
 14 38  1  0
 15 16  1  0
 15 18  2  0
 16 17  1  0
 17 39  1  0
 17 40  1  0
 17 41  1  0
 18 22  1  0
 18 19  1  0
 20 19  1  6
 20 21  1  0
 21 22  1  0
 21 23  1  0
 21 42  1  1
 23 24  1  0
 23 26  1  0
 23 43  1  1
 24 25  1  0
 25 44  1  0
 25 45  1  0
 25 46  1  0
 26 47  1  0
 26 48  1  0
M  END
>  <i_m_ct_stereo_status>  (343) 
1

>  <s_m_source_file>  (343) 
/var/tmp/pbs.5076255.sched01/tmpbvzcvm50/120d7_yi5_y.sdf

>  <i_m_source_file_index>  (343) 
20

>  <i_lp_mmshare_version>  (343) 
48012

>  <i_f3d_flags>  (343) 
0

>  <s_epik_input>  (343) 
W0NAQF0xMjNbQ0BIXTRbQ0hdPUMoT1tDSDNdKVtDSDJdW0NASF0oT1tDSDNdKVtDQEhdM09jNWMyYyhbQ0gyXVtDSDJdW0NASF0xT0M0PU8pW2NIXVtjSF1jNU9bQ0gzXQ==

>  <s_epik_cmdline>  (343) 
J2VwaWtfcHl0aG9uJywgJy1waHQnLCAnMi4wJywgJy1waCcsICc3LjAnLCAnLXRuJywgJzgnLCAnLW1hJywgJzIwMCcsICctaW1hZScsICc8aW5maWxlLm1hZT4nLCAnLW9tYWUnLCAnPG91dGZpbGUubWFlPic=

>  <r_lp_tautomer_probability>  (343) 
1

>  <r_epik_Ionization_Penalty>  (343) 
3.22712e-13

>  <r_epik_Ionization_Penalty_Charging>  (343) 
0

>  <r_epik_Ionization_Penalty_Neutral>  (343) 
3.22712e-13

>  <r_epik_State_Penalty>  (343) 
-0

>  <r_epik_Charging_Adjusted_Penalty>  (343) 
0

>  <i_epik_Tot_Q>  (343) 
0

>  <i_epik_Tot_abs_Q>  (343) 
0

>  <s_epik_Chemistry_Notes>  (343) 
This compound has an ester and may undergo hydrolysis at high or low pH.

>  <s_lp_Force_Field>  (343) 
OPLS3e

>  <r_lp_Energy>  (343) 
45.2266

>  <b_lp_Chiralities_Consistent>  (343) 
1

>  <s_lp_Variant>  (343) 
101:0-1

>  <s_i_glide_gridfile>  (343) 
pfpi4k_grid

>  <i_i_glide_lignum>  (343) 
20

>  <i_i_glide_rotatable_bonds>  (343) 
3

>  <r_i_docking_score>  (343) 
-3.82376

>  <r_i_glide_ligand_efficiency>  (343) 
-0.147068

>  <r_i_glide_ligand_efficiency_sa>  (343) 
-0.435688

>  <r_i_glide_ligand_efficiency_ln>  (343) 
-0.897998

>  <r_i_glide_gscore>  (343) 
-3.82376

>  <r_i_glide_lipo>  (343) 
-0.770492

>  <r_i_glide_hbond>  (343) 
-0.32

>  <r_i_glide_metal>  (343) 
-0

>  <r_i_glide_rewards>  (343) 
-1.04794

>  <r_i_glide_evdw>  (343) 
-25.4404

>  <r_i_glide_ecoul>  (343) 
-2.75541

>  <r_i_glide_erotb>  (343) 
0

>  <r_i_glide_esite>  (343) 
0

>  <r_i_glide_emodel>  (343) 
-34.7536

>  <r_i_glide_energy>  (343) 
-28.1958

>  <r_i_glide_einternal>  (343) 
1.38126

>  <r_i_glide_intrahb_reward>  (343) 
-0

>  <i_i_glide_confnum>  (343) 
1

>  <i_i_glide_posenum>  (343) 
1

>  <r_i_glide_eff_state_penalty>  (343) 
0

>  <ligand_id>  (343) 
101

>  <original_smiles>  (343) 
COC1=CC2C(=O)OC3CCc4ccc(OC)c5c4C32C(O5)C(OC)C1

>  <smiles>  (343) 
[H]C1=C(OC([H])([H])[H])C([H])([H])C([H])(OC([H])([H])[H])C2([H])Oc3c(OC([H])([H])[H])c([H])c([H])c4c3C23C1([H])C(=O)OC3([H])C([H])([H])C4([H])[H]

$$$$
101:0:2
     RDKit          3D

 48 52  0  0  1  0  0  0  0  0999 V2000
    2.7999   -2.4940   -3.3955 C   0  0  0  0  0  0  0  0  0  0  0  0
    4.0469   -2.1460   -2.8099 O   0  0  0  0  0  0  0  0  0  0  0  0
    4.3447   -2.6982   -1.5853 C   0  0  0  0  0  0  0  0  0  0  0  0
    3.4081   -3.2391   -0.7724 C   0  0  0  0  0  0  0  0  0  0  0  0
    3.6341   -3.8798    0.5831 C   0  0  1  0  0  0  0  0  0  0  0  0
    4.5069   -5.1301    0.6035 C   0  0  0  0  0  0  0  0  0  0  0  0
    4.5690   -5.9561   -0.3015 O   0  0  0  0  0  0  0  0  0  0  0  0
    5.1680   -5.1722    1.7562 O   0  0  0  0  0  0  0  0  0  0  0  0
    4.8984   -4.0642    2.6066 C   0  0  2  0  0  0  0  0  0  0  0  0
    3.9494   -4.4912    3.7657 C   0  0  0  0  0  0  0  0  0  0  0  0
    2.4644   -4.0660    3.6404 C   0  0  0  0  0  0  0  0  0  0  0  0
    2.2888   -2.6101    3.2318 C   0  0  0  0  0  0  0  0  0  0  0  0
    1.3461   -1.6602    3.6902 C   0  0  0  0  0  0  0  0  0  0  0  0
    1.3918   -0.3338    3.1781 C   0  0  0  0  0  0  0  0  0  0  0  0
    2.3818    0.0662    2.2413 C   0  0  0  0  0  0  0  0  0  0  0  0
    2.5087    1.3426    1.7292 O   0  0  0  0  0  0  0  0  0  0  0  0
    1.5890    2.3265    2.1621 C   0  0  0  0  0  0  0  0  0  0  0  0
    3.3344   -0.8816    1.8133 C   0  0  0  0  0  0  0  0  0  0  0  0
    3.2222   -2.1716    2.3036 C   0  0  0  0  0  0  0  0  0  0  0  0
    4.2843   -3.0051    1.6573 C   0  0  2  0  0  0  0  0  0  0  0  0
    5.2427   -1.8574    1.1880 C   0  0  2  0  0  0  0  0  0  0  0  0
    4.4058   -0.7033    0.9953 O   0  0  0  0  0  0  0  0  0  0  0  0
    6.2676   -2.0045    0.0330 C   0  0  1  0  0  0  0  0  0  0  0  0
    7.4276   -2.6529    0.5527 O   0  0  0  0  0  0  0  0  0  0  0  0
    8.6536   -2.2892   -0.0695 C   0  0  0  0  0  0  0  0  0  0  0  0
    5.8226   -2.7063   -1.2840 C   0  0  0  0  0  0  0  0  0  0  0  0
    2.7049   -2.0700   -4.3974 H   0  0  0  0  0  0  0  0  0  0  0  0
    1.9411   -2.1559   -2.8074 H   0  0  0  0  0  0  0  0  0  0  0  0
    2.7548   -3.5768   -3.5014 H   0  0  0  0  0  0  0  0  0  0  0  0
    2.3452   -3.2299   -1.0101 H   0  0  0  0  0  0  0  0  0  0  0  0
    2.6620   -4.2422    0.9162 H   0  0  0  0  0  0  0  0  0  0  0  0
    5.8434   -3.7131    3.0199 H   0  0  0  0  0  0  0  0  0  0  0  0
    4.0195   -5.5699    3.9165 H   0  0  0  0  0  0  0  0  0  0  0  0
    4.3533   -4.0424    4.6720 H   0  0  0  0  0  0  0  0  0  0  0  0
    1.9478   -4.7043    2.9200 H   0  0  0  0  0  0  0  0  0  0  0  0
    1.9863   -4.2236    4.6091 H   0  0  0  0  0  0  0  0  0  0  0  0
    0.6070   -1.9197    4.4357 H   0  0  0  0  0  0  0  0  0  0  0  0
    0.6744    0.3750    3.5366 H   0  0  0  0  0  0  0  0  0  0  0  0
    1.8180    3.2722    1.6737 H   0  0  0  0  0  0  0  0  0  0  0  0
    1.6692    2.5030    3.2349 H   0  0  0  0  0  0  0  0  0  0  0  0
    0.5619    2.0667    1.9101 H   0  0  0  0  0  0  0  0  0  0  0  0
    5.8571   -1.5933    2.0520 H   0  0  0  0  0  0  0  0  0  0  0  0
    6.5498   -0.9776   -0.2164 H   0  0  0  0  0  0  0  0  0  0  0  0
    9.4655   -2.8630    0.3777 H   0  0  0  0  0  0  0  0  0  0  0  0
    8.8759   -1.2325    0.0790 H   0  0  0  0  0  0  0  0  0  0  0  0
    8.6428   -2.5047   -1.1392 H   0  0  0  0  0  0  0  0  0  0  0  0
    6.0991   -3.7621   -1.2289 H   0  0  0  0  0  0  0  0  0  0  0  0
    6.3634   -2.3096   -2.1462 H   0  0  0  0  0  0  0  0  0  0  0  0
  1  2  1  0
  1 27  1  0
  1 28  1  0
  1 29  1  0
  2  3  1  0
  3 26  1  0
  3  4  2  0
  4  5  1  0
  4 30  1  0
  5 20  1  0
  5  6  1  0
  5 31  1  1
  6  7  2  0
  6  8  1  0
  8  9  1  0
  9 20  1  0
  9 10  1  0
  9 32  1  1
 10 11  1  0
 10 33  1  0
 10 34  1  0
 11 12  1  0
 11 35  1  0
 11 36  1  0
 12 19  2  0
 12 13  1  0
 13 14  2  0
 13 37  1  0
 14 15  1  0
 14 38  1  0
 15 16  1  0
 15 18  2  0
 16 17  1  0
 17 39  1  0
 17 40  1  0
 17 41  1  0
 18 22  1  0
 18 19  1  0
 20 19  1  1
 20 21  1  0
 21 22  1  0
 21 23  1  0
 21 42  1  1
 23 24  1  0
 23 26  1  0
 23 43  1  6
 24 25  1  0
 25 44  1  0
 25 45  1  0
 25 46  1  0
 26 47  1  0
 26 48  1  0
M  END
>  <i_m_ct_stereo_status>  (344) 
1

>  <s_m_source_file>  (344) 
/var/tmp/pbs.5076255.sched01/tmpbvzcvm50/120d7_yi5_y.sdf

>  <i_m_source_file_index>  (344) 
20

>  <i_lp_mmshare_version>  (344) 
48012

>  <i_f3d_flags>  (344) 
0

>  <s_epik_input>  (344) 
W0NAQF0xMjNbQ0BIXTRbQ0hdPUMoT1tDSDNdKVtDSDJdW0NASF0oT1tDSDNdKVtDQEhdM09jNWMyYyhbQ0gyXVtDSDJdW0NASF0xT0M0PU8pW2NIXVtjSF1jNU9bQ0gzXQ==

>  <s_epik_cmdline>  (344) 
J2VwaWtfcHl0aG9uJywgJy1waHQnLCAnMi4wJywgJy1waCcsICc3LjAnLCAnLXRuJywgJzgnLCAnLW1hJywgJzIwMCcsICctaW1hZScsICc8aW5maWxlLm1hZT4nLCAnLW9tYWUnLCAnPG91dGZpbGUubWFlPic=

>  <r_lp_tautomer_probability>  (344) 
1

>  <r_epik_Ionization_Penalty>  (344) 
3.22712e-13

>  <r_epik_Ionization_Penalty_Charging>  (344) 
0

>  <r_epik_Ionization_Penalty_Neutral>  (344) 
3.22712e-13

>  <r_epik_State_Penalty>  (344) 
-0

>  <r_epik_Charging_Adjusted_Penalty>  (344) 
0

>  <i_epik_Tot_Q>  (344) 
0

>  <i_epik_Tot_abs_Q>  (344) 
0

>  <s_epik_Chemistry_Notes>  (344) 
This compound has an ester and may undergo hydrolysis at high or low pH.

>  <s_lp_Force_Field>  (344) 
OPLS3e

>  <r_lp_Energy>  (344) 
45.2266

>  <b_lp_Chiralities_Consistent>  (344) 
1

>  <s_lp_Variant>  (344) 
101:0-1

>  <s_i_glide_gridfile>  (344) 
pfpi4k_grid

>  <i_i_glide_lignum>  (344) 
20

>  <i_i_glide_rotatable_bonds>  (344) 
3

>  <r_i_docking_score>  (344) 
-2.71759

>  <r_i_glide_ligand_efficiency>  (344) 
-0.104523

>  <r_i_glide_ligand_efficiency_sa>  (344) 
-0.309648

>  <r_i_glide_ligand_efficiency_ln>  (344) 
-0.638216

>  <r_i_glide_gscore>  (344) 
-2.71759

>  <r_i_glide_lipo>  (344) 
-0.326126

>  <r_i_glide_hbond>  (344) 
0

>  <r_i_glide_metal>  (344) 
-0

>  <r_i_glide_rewards>  (344) 
-1.0387

>  <r_i_glide_evdw>  (344) 
-27.5153

>  <r_i_glide_ecoul>  (344) 
0.153387

>  <r_i_glide_erotb>  (344) 
0

>  <r_i_glide_esite>  (344) 
0

>  <r_i_glide_emodel>  (344) 
-31.4362

>  <r_i_glide_energy>  (344) 
-27.3619

>  <r_i_glide_einternal>  (344) 
1.8519

>  <r_i_glide_intrahb_reward>  (344) 
-0

>  <i_i_glide_confnum>  (344) 
2

>  <i_i_glide_posenum>  (344) 
20

>  <r_i_glide_eff_state_penalty>  (344) 
0

>  <ligand_id>  (344) 
101

>  <original_smiles>  (344) 
COC1=CC2C(=O)OC3CCc4ccc(OC)c5c4C32C(O5)C(OC)C1

>  <smiles>  (344) 
[H]C1=C(OC([H])([H])[H])C([H])([H])C([H])(OC([H])([H])[H])C2([H])Oc3c(OC([H])([H])[H])c([H])c([H])c4c3C23C1([H])C(=O)OC3([H])C([H])([H])C4([H])[H]

$$$$
102:0:0
     RDKit          3D

 55 61  0  0  1  0  0  0  0  0999 V2000
    1.0665   -2.4232    4.7798 C   0  0  0  0  0  0  0  0  0  0  0  0
    1.8956   -2.3597    3.4730 C   0  0  2  0  0  0  0  0  0  0  0  0
    2.8587   -3.5802    3.1868 C   0  0  0  0  0  0  0  0  0  0  0  0
    4.3291   -3.0186    3.0132 C   0  0  1  0  0  0  0  0  0  0  0  0
    5.2128   -3.9271    3.6551 O   0  0  0  0  0  0  0  0  0  0  0  0
    4.9204   -2.8734    1.5442 C   0  0  2  0  0  0  0  0  0  0  0  0
    5.9496   -1.7418    1.5403 C   0  0  2  0  0  0  0  0  0  0  0  0
    5.1691   -0.5577    1.3327 O   0  0  0  0  0  0  0  0  0  0  0  0
    3.8973   -0.9043    0.7871 C   0  0  2  0  0  0  0  0  0  0  0  0
    2.7309   -0.6986    1.7947 C   0  0  2  0  0  0  0  0  0  0  0  0
    2.0229    0.9653    1.8139 S   0  0  0  0  0  0  0  0  0  0  0  0
    2.2482    1.2235    3.5091 C   0  0  0  0  0  0  0  0  0  0  0  0
    2.7573    0.1418    4.1096 C   0  0  0  0  0  0  0  0  0  0  0  0
    3.9725    0.3565    4.9951 C   0  0  0  0  0  0  0  0  0  0  0  0
    5.0526   -0.5674    4.3478 C   0  0  0  0  0  0  0  0  0  0  0  0
    4.1539   -1.7446    3.8846 C   0  0  2  0  0  0  0  0  0  0  0  0
    4.0041   -2.2814    5.2065 O   0  0  0  0  0  0  0  0  0  0  0  0
    2.8604   -1.1495    3.3072 C   0  0  1  0  0  0  0  0  0  0  0  0
    4.0970   -2.3643    0.3352 C   0  0  2  0  0  0  0  0  0  0  0  0
    2.8178   -3.1704   -0.0144 C   0  0  0  0  0  0  0  0  0  0  0  0
    5.0129   -2.4383   -0.9572 C   0  0  1  0  0  0  0  0  0  0  0  0
    4.3683   -2.0752   -2.2694 C   0  0  0  0  0  0  0  0  0  0  0  0
    4.2000   -0.7575   -2.8042 C   0  0  0  0  0  0  0  0  0  0  0  0
    3.6019   -0.9103   -4.0226 C   0  0  0  0  0  0  0  0  0  0  0  0
    3.4228   -2.2270   -4.3107 O   0  0  0  0  0  0  0  0  0  0  0  0
    3.8673   -2.9104   -3.2185 C   0  0  0  0  0  0  0  0  0  0  0  0
    6.1930   -1.6594   -0.8047 O   0  0  0  0  0  0  0  0  0  0  0  0
    6.9100   -1.9372    0.3503 C   0  0  1  0  0  0  0  0  0  0  0  0
    8.0472   -1.0967    0.4986 O   0  0  0  0  0  0  0  0  0  0  0  0
    1.6577   -2.4808    5.6935 H   0  0  0  0  0  0  0  0  0  0  0  0
    0.4034   -3.2879    4.7713 H   0  0  0  0  0  0  0  0  0  0  0  0
    0.4456   -1.5333    4.8659 H   0  0  0  0  0  0  0  0  0  0  0  0
    1.1108   -2.3670    2.7228 H   0  0  0  0  0  0  0  0  0  0  0  0
    2.8220   -4.2278    4.0680 H   0  0  0  0  0  0  0  0  0  0  0  0
    2.5452   -4.2390    2.3795 H   0  0  0  0  0  0  0  0  0  0  0  0
    5.2044   -4.7356    3.1682 H   0  0  0  0  0  0  0  0  0  0  0  0
    5.3729   -3.8263    1.2606 H   0  0  0  0  0  0  0  0  0  0  0  0
    6.5506   -1.7188    2.4463 H   0  0  0  0  0  0  0  0  0  0  0  0
    3.7177   -0.2705   -0.0753 H   0  0  0  0  0  0  0  0  0  0  0  0
    1.8885   -1.1732    1.3088 H   0  0  0  0  0  0  0  0  0  0  0  0
    2.3658    2.2446    3.8468 H   0  0  0  0  0  0  0  0  0  0  0  0
    4.2831    1.4072    5.0229 H   0  0  0  0  0  0  0  0  0  0  0  0
    3.7112    0.0506    6.0152 H   0  0  0  0  0  0  0  0  0  0  0  0
    5.5215   -0.0022    3.5482 H   0  0  0  0  0  0  0  0  0  0  0  0
    5.8364   -0.8379    5.0543 H   0  0  0  0  0  0  0  0  0  0  0  0
    4.7887   -2.7785    5.3672 H   0  0  0  0  0  0  0  0  0  0  0  0
    2.3312   -2.7989   -0.9195 H   0  0  0  0  0  0  0  0  0  0  0  0
    2.0304   -3.1368    0.7266 H   0  0  0  0  0  0  0  0  0  0  0  0
    3.0616   -4.2235   -0.1725 H   0  0  0  0  0  0  0  0  0  0  0  0
    5.3274   -3.4774   -1.0834 H   0  0  0  0  0  0  0  0  0  0  0  0
    4.4881    0.1820   -2.3633 H   0  0  0  0  0  0  0  0  0  0  0  0
    3.2664   -0.2230   -4.7836 H   0  0  0  0  0  0  0  0  0  0  0  0
    3.7707   -3.9807   -3.2950 H   0  0  0  0  0  0  0  0  0  0  0  0
    7.3113   -2.9490    0.3052 H   0  0  0  0  0  0  0  0  0  0  0  0
    7.7798   -0.2962    0.9125 H   0  0  0  0  0  0  0  0  0  0  0  0
  1  2  1  0
  1 30  1  0
  1 31  1  0
  1 32  1  0
  2 18  1  0
  2  3  1  0
  2 33  1  6
  3  4  1  0
  3 34  1  0
  3 35  1  0
  4 16  1  0
  4  5  1  1
  4  6  1  0
  5 36  1  0
  6 19  1  0
  6  7  1  0
  6 37  1  6
  7 28  1  0
  7  8  1  0
  7 38  1  1
  8  9  1  0
  9 10  1  0
  9 19  1  0
  9 39  1  6
 10 18  1  0
 10 11  1  0
 10 40  1  6
 11 12  1  0
 12 13  2  0
 12 41  1  0
 18 13  1  1
 13 14  1  0
 14 15  1  0
 14 42  1  0
 14 43  1  0
 15 16  1  0
 15 44  1  0
 15 45  1  0
 16 17  1  1
 16 18  1  0
 17 46  1  0
 19 20  1  6
 19 21  1  0
 20 47  1  0
 20 48  1  0
 20 49  1  0
 21 22  1  0
 21 27  1  0
 21 50  1  6
 22 26  2  0
 22 23  1  0
 23 24  2  0
 23 51  1  0
 24 25  1  0
 24 52  1  0
 25 26  1  0
 26 53  1  0
 27 28  1  0
 28 29  1  0
 28 54  1  6
 29 55  1  0
M  END
>  <i_m_ct_stereo_status>  (345) 
1

>  <s_m_source_file>  (345) 
/var/tmp/pbs.5076255.sched01/tmpbvzcvm50/120d7_yi5_y.sdf

>  <i_m_source_file_index>  (345) 
21

>  <i_lp_mmshare_version>  (345) 
48012

>  <i_f3d_flags>  (345) 
0

>  <s_epik_input>  (345) 
UzFbQ0hdPUMyW0NIMl1bQ0gyXVtDQF0zKFtPSF0pW0NAQF0oW09IXSkoW0NIMl1bQ0BIXTRbQ0gzXSlbQ0BASF0oW0NAQF01KFtDSDNdKVtDQEhdNltDQEhdMVtDQF0yMzQpW0NASF0oTzYpW0NASF0oW09IXSlPW0NAQEhdNWM3W2NIXVtjSF1vW2NIXTc=

>  <s_epik_cmdline>  (345) 
J2VwaWtfcHl0aG9uJywgJy1waHQnLCAnMi4wJywgJy1waCcsICc3LjAnLCAnLXRuJywgJzgnLCAnLW1hJywgJzIwMCcsICctaW1hZScsICc8aW5maWxlLm1hZT4nLCAnLW9tYWUnLCAnPG91dGZpbGUubWFlPic=

>  <r_lp_tautomer_probability>  (345) 
1

>  <r_epik_Ionization_Penalty>  (345) 
5.39769e-07

>  <r_epik_Ionization_Penalty_Charging>  (345) 
0

>  <r_epik_Ionization_Penalty_Neutral>  (345) 
5.39769e-07

>  <r_epik_State_Penalty>  (345) 
-0

>  <r_epik_Charging_Adjusted_Penalty>  (345) 
0

>  <i_epik_Tot_Q>  (345) 
0

>  <i_epik_Tot_abs_Q>  (345) 
0

>  <s_epik_Chemistry_Notes>  (345) 
This compound contains an acetal/aminal-like group ( X-CH(R)-Y where X, Y are N, S, or O) that may be acid/base labile, releasing an aldehyde.

>  <s_lp_Force_Field>  (345) 
OPLS3e

>  <r_lp_Energy>  (345) 
114.248

>  <b_lp_Chiralities_Consistent>  (345) 
1

>  <s_lp_Variant>  (345) 
102:0-1

>  <s_i_glide_gridfile>  (345) 
pfpi4k_grid

>  <i_i_glide_lignum>  (345) 
21

>  <i_i_glide_rotatable_bonds>  (345) 
4

>  <r_i_docking_score>  (345) 
-4.39067

>  <r_i_glide_ligand_efficiency>  (345) 
-0.151402

>  <r_i_glide_ligand_efficiency_sa>  (345) 
-0.465156

>  <r_i_glide_ligand_efficiency_ln>  (345) 
-1.00535

>  <r_i_glide_gscore>  (345) 
-4.39067

>  <r_i_glide_lipo>  (345) 
-0.66451

>  <r_i_glide_hbond>  (345) 
-0.413463

>  <r_i_glide_metal>  (345) 
-0

>  <r_i_glide_rewards>  (345) 
-0.574266

>  <r_i_glide_evdw>  (345) 
-32.4438

>  <r_i_glide_ecoul>  (345) 
-8.19432

>  <r_i_glide_erotb>  (345) 
0.112905

>  <r_i_glide_esite>  (345) 
0

>  <r_i_glide_emodel>  (345) 
-50.8819

>  <r_i_glide_energy>  (345) 
-40.6381

>  <r_i_glide_einternal>  (345) 
0.661863

>  <r_i_glide_intrahb_reward>  (345) 
-0

>  <i_i_glide_confnum>  (345) 
3

>  <i_i_glide_posenum>  (345) 
26

>  <r_i_glide_eff_state_penalty>  (345) 
0

>  <ligand_id>  (345) 
102

>  <original_smiles>  (345) 
CC1CC2(O)C3C4OC(C5SC=C6CCC2(O)C615)C3(C)C(c1ccoc1)OC4O

>  <smiles>  (345) 
[H]OC1([H])OC([H])(c2c([H])oc([H])c2[H])C2(C([H])([H])[H])C3([H])OC1([H])C2([H])C1(O[H])C([H])([H])C([H])(C([H])([H])[H])C24C(=C([H])SC32[H])C([H])([H])C([H])([H])C14O[H]

$$$$
102:0:1
     RDKit          3D

 55 61  0  0  1  0  0  0  0  0999 V2000
    1.0485   -2.3860    4.7619 C   0  0  0  0  0  0  0  0  0  0  0  0
    1.8868   -2.3369    3.4579 C   0  0  2  0  0  0  0  0  0  0  0  0
    2.8562   -3.5623    3.1839 C   0  0  0  0  0  0  0  0  0  0  0  0
    4.3314   -3.0027    3.0112 C   0  0  1  0  0  0  0  0  0  0  0  0
    5.2383   -3.8855    3.6542 O   0  0  0  0  0  0  0  0  0  0  0  0
    4.9190   -2.8618    1.5466 C   0  0  2  0  0  0  0  0  0  0  0  0
    5.9463   -1.7320    1.5360 C   0  0  2  0  0  0  0  0  0  0  0  0
    5.1682   -0.5487    1.3191 O   0  0  0  0  0  0  0  0  0  0  0  0
    3.8980   -0.8975    0.7711 C   0  0  2  0  0  0  0  0  0  0  0  0
    2.7273   -0.6903    1.7735 C   0  0  2  0  0  0  0  0  0  0  0  0
    2.0161    0.9748    1.7765 S   0  0  0  0  0  0  0  0  0  0  0  0
    2.2392    1.2466    3.4685 C   0  0  0  0  0  0  0  0  0  0  0  0
    2.7449    0.1701    4.0793 C   0  0  0  0  0  0  0  0  0  0  0  0
    3.9568    0.3863    4.9687 C   0  0  0  0  0  0  0  0  0  0  0  0
    5.0379   -0.5438    4.3370 C   0  0  0  0  0  0  0  0  0  0  0  0
    4.1454   -1.7273    3.8782 C   0  0  2  0  0  0  0  0  0  0  0  0
    3.9819   -2.2726    5.1983 O   0  0  0  0  0  0  0  0  0  0  0  0
    2.8530   -1.1312    3.2883 C   0  0  1  0  0  0  0  0  0  0  0  0
    4.0983   -2.3625    0.3306 C   0  0  2  0  0  0  0  0  0  0  0  0
    2.8198   -3.1706   -0.0192 C   0  0  0  0  0  0  0  0  0  0  0  0
    5.0205   -2.4494   -0.9539 C   0  0  1  0  0  0  0  0  0  0  0  0
    4.3764   -2.0941   -2.2727 C   0  0  0  0  0  0  0  0  0  0  0  0
    4.1766   -0.7797   -2.7997 C   0  0  0  0  0  0  0  0  0  0  0  0
    3.5886   -0.9439   -4.0202 C   0  0  0  0  0  0  0  0  0  0  0  0
    3.4287   -2.2630   -4.2970 O   0  0  0  0  0  0  0  0  0  0  0  0
    3.9075   -2.9377   -3.2237 C   0  0  0  0  0  0  0  0  0  0  0  0
    6.1969   -1.6691   -0.8061 O   0  0  0  0  0  0  0  0  0  0  0  0
    6.9099   -1.9399    0.3516 C   0  0  1  0  0  0  0  0  0  0  0  0
    8.0464   -1.0992    0.4978 O   0  0  0  0  0  0  0  0  0  0  0  0
    1.6338   -2.4347    5.6801 H   0  0  0  0  0  0  0  0  0  0  0  0
    0.3854   -3.2490    4.7581 H   0  0  0  0  0  0  0  0  0  0  0  0
    0.4279   -1.4948    4.8382 H   0  0  0  0  0  0  0  0  0  0  0  0
    1.1027   -2.3455    2.7051 H   0  0  0  0  0  0  0  0  0  0  0  0
    2.8040   -4.2068    4.0660 H   0  0  0  0  0  0  0  0  0  0  0  0
    2.5425   -4.2208    2.3780 H   0  0  0  0  0  0  0  0  0  0  0  0
    4.8371   -4.1661    4.4609 H   0  0  0  0  0  0  0  0  0  0  0  0
    5.3657   -3.8206    1.2772 H   0  0  0  0  0  0  0  0  0  0  0  0
    6.5458   -1.7030    2.4445 H   0  0  0  0  0  0  0  0  0  0  0  0
    3.7236   -0.2672   -0.0952 H   0  0  0  0  0  0  0  0  0  0  0  0
    1.8883   -1.1653    1.2849 H   0  0  0  0  0  0  0  0  0  0  0  0
    2.3494    2.2749    3.7943 H   0  0  0  0  0  0  0  0  0  0  0  0
    4.2682    1.4391    4.9914 H   0  0  0  0  0  0  0  0  0  0  0  0
    3.6885    0.0876    5.9900 H   0  0  0  0  0  0  0  0  0  0  0  0
    5.5061    0.0183    3.5338 H   0  0  0  0  0  0  0  0  0  0  0  0
    5.8201   -0.8051    5.0457 H   0  0  0  0  0  0  0  0  0  0  0  0
    4.8293   -2.5628    5.4856 H   0  0  0  0  0  0  0  0  0  0  0  0
    2.3393   -2.8080   -0.9318 H   0  0  0  0  0  0  0  0  0  0  0  0
    2.0287   -3.1299    0.7168 H   0  0  0  0  0  0  0  0  0  0  0  0
    3.0644   -4.2252   -0.1658 H   0  0  0  0  0  0  0  0  0  0  0  0
    5.3345   -3.4896   -1.0725 H   0  0  0  0  0  0  0  0  0  0  0  0
    4.4338    0.1731   -2.3566 H   0  0  0  0  0  0  0  0  0  0  0  0
    3.2458   -0.2646   -4.7853 H   0  0  0  0  0  0  0  0  0  0  0  0
    3.8506   -4.0121   -3.3124 H   0  0  0  0  0  0  0  0  0  0  0  0
    7.3127   -2.9507    0.3182 H   0  0  0  0  0  0  0  0  0  0  0  0
    7.7730   -0.2921    0.8947 H   0  0  0  0  0  0  0  0  0  0  0  0
  1  2  1  0
  1 30  1  0
  1 31  1  0
  1 32  1  0
  2 18  1  0
  2  3  1  0
  2 33  1  6
  3  4  1  0
  3 34  1  0
  3 35  1  0
  4 16  1  0
  4  5  1  1
  4  6  1  0
  5 36  1  0
  6 19  1  0
  6  7  1  0
  6 37  1  6
  7 28  1  0
  7  8  1  0
  7 38  1  1
  8  9  1  0
  9 10  1  0
  9 19  1  0
  9 39  1  6
 10 18  1  0
 10 11  1  0
 10 40  1  6
 11 12  1  0
 12 13  2  0
 12 41  1  0
 18 13  1  1
 13 14  1  0
 14 15  1  0
 14 42  1  0
 14 43  1  0
 15 16  1  0
 15 44  1  0
 15 45  1  0
 16 17  1  1
 16 18  1  0
 17 46  1  0
 19 20  1  6
 19 21  1  0
 20 47  1  0
 20 48  1  0
 20 49  1  0
 21 22  1  0
 21 27  1  0
 21 50  1  6
 22 26  2  0
 22 23  1  0
 23 24  2  0
 23 51  1  0
 24 25  1  0
 24 52  1  0
 25 26  1  0
 26 53  1  0
 27 28  1  0
 28 29  1  0
 28 54  1  6
 29 55  1  0
M  END
>  <i_m_ct_stereo_status>  (346) 
1

>  <s_m_source_file>  (346) 
/var/tmp/pbs.5076255.sched01/tmpbvzcvm50/120d7_yi5_y.sdf

>  <i_m_source_file_index>  (346) 
21

>  <i_lp_mmshare_version>  (346) 
48012

>  <i_f3d_flags>  (346) 
0

>  <s_epik_input>  (346) 
UzFbQ0hdPUMyW0NIMl1bQ0gyXVtDQF0zKFtPSF0pW0NAQF0oW09IXSkoW0NIMl1bQ0BIXTRbQ0gzXSlbQ0BASF0oW0NAQF01KFtDSDNdKVtDQEhdNltDQEhdMVtDQF0yMzQpW0NASF0oTzYpW0NASF0oW09IXSlPW0NAQEhdNWM3W2NIXVtjSF1vW2NIXTc=

>  <s_epik_cmdline>  (346) 
J2VwaWtfcHl0aG9uJywgJy1waHQnLCAnMi4wJywgJy1waCcsICc3LjAnLCAnLXRuJywgJzgnLCAnLW1hJywgJzIwMCcsICctaW1hZScsICc8aW5maWxlLm1hZT4nLCAnLW9tYWUnLCAnPG91dGZpbGUubWFlPic=

>  <r_lp_tautomer_probability>  (346) 
1

>  <r_epik_Ionization_Penalty>  (346) 
5.39769e-07

>  <r_epik_Ionization_Penalty_Charging>  (346) 
0

>  <r_epik_Ionization_Penalty_Neutral>  (346) 
5.39769e-07

>  <r_epik_State_Penalty>  (346) 
-0

>  <r_epik_Charging_Adjusted_Penalty>  (346) 
0

>  <i_epik_Tot_Q>  (346) 
0

>  <i_epik_Tot_abs_Q>  (346) 
0

>  <s_epik_Chemistry_Notes>  (346) 
This compound contains an acetal/aminal-like group ( X-CH(R)-Y where X, Y are N, S, or O) that may be acid/base labile, releasing an aldehyde.

>  <s_lp_Force_Field>  (346) 
OPLS3e

>  <r_lp_Energy>  (346) 
114.248

>  <b_lp_Chiralities_Consistent>  (346) 
1

>  <s_lp_Variant>  (346) 
102:0-1

>  <s_i_glide_gridfile>  (346) 
pfpi4k_grid

>  <i_i_glide_lignum>  (346) 
21

>  <i_i_glide_rotatable_bonds>  (346) 
4

>  <r_i_docking_score>  (346) 
-4.36104

>  <r_i_glide_ligand_efficiency>  (346) 
-0.150381

>  <r_i_glide_ligand_efficiency_sa>  (346) 
-0.462017

>  <r_i_glide_ligand_efficiency_ln>  (346) 
-0.998568

>  <r_i_glide_gscore>  (346) 
-4.36104

>  <r_i_glide_lipo>  (346) 
-0.662514

>  <r_i_glide_hbond>  (346) 
-0.413759

>  <r_i_glide_metal>  (346) 
-0

>  <r_i_glide_rewards>  (346) 
-0.575613

>  <r_i_glide_evdw>  (346) 
-32.4872

>  <r_i_glide_ecoul>  (346) 
-7.98469

>  <r_i_glide_erotb>  (346) 
0.112905

>  <r_i_glide_esite>  (346) 
0

>  <r_i_glide_emodel>  (346) 
-50.8062

>  <r_i_glide_energy>  (346) 
-40.4718

>  <r_i_glide_einternal>  (346) 
0.616383

>  <r_i_glide_intrahb_reward>  (346) 
-0

>  <i_i_glide_confnum>  (346) 
3

>  <i_i_glide_posenum>  (346) 
1

>  <r_i_glide_eff_state_penalty>  (346) 
0

>  <ligand_id>  (346) 
102

>  <original_smiles>  (346) 
CC1CC2(O)C3C4OC(C5SC=C6CCC2(O)C615)C3(C)C(c1ccoc1)OC4O

>  <smiles>  (346) 
[H]OC1([H])OC([H])(c2c([H])oc([H])c2[H])C2(C([H])([H])[H])C3([H])OC1([H])C2([H])C1(O[H])C([H])([H])C([H])(C([H])([H])[H])C24C(=C([H])SC32[H])C([H])([H])C([H])([H])C14O[H]

$$$$
102:0:2
     RDKit          3D

 55 61  0  0  1  0  0  0  0  0999 V2000
    0.9923   -2.4802    4.6667 C   0  0  0  0  0  0  0  0  0  0  0  0
    1.8390   -2.4025    3.3752 C   0  0  2  0  0  0  0  0  0  0  0  0
    2.7743   -3.6401    3.0620 C   0  0  0  0  0  0  0  0  0  0  0  0
    4.2615   -3.1197    2.9260 C   0  0  1  0  0  0  0  0  0  0  0  0
    5.1171   -4.0651    3.5568 O   0  0  0  0  0  0  0  0  0  0  0  0
    4.8685   -2.9503    1.4631 C   0  0  2  0  0  0  0  0  0  0  0  0
    5.9300   -1.8439    1.4932 C   0  0  2  0  0  0  0  0  0  0  0  0
    5.1748   -0.6346    1.3145 O   0  0  0  0  0  0  0  0  0  0  0  0
    3.9018   -0.9325    0.7453 C   0  0  2  0  0  0  0  0  0  0  0  0
    2.7382   -0.7147    1.7533 C   0  0  2  0  0  0  0  0  0  0  0  0
    2.0608    0.9603    1.7886 S   0  0  0  0  0  0  0  0  0  0  0  0
    2.2707    1.1716    3.4965 C   0  0  0  0  0  0  0  0  0  0  0  0
    2.7664    0.0734    4.0747 C   0  0  0  0  0  0  0  0  0  0  0  0
    3.9717    0.2130    4.9910 C   0  0  0  0  0  0  0  0  0  0  0  0
    5.0250   -0.7198    4.3197 C   0  0  0  0  0  0  0  0  0  0  0  0
    4.0986   -1.8646    3.8304 C   0  0  2  0  0  0  0  0  0  0  0  0
    3.9119   -2.4216    5.1435 O   0  0  0  0  0  0  0  0  0  0  0  0
    2.8350   -1.2090    3.2520 C   0  0  1  0  0  0  0  0  0  0  0  0
    4.0723   -2.3851    0.2598 C   0  0  2  0  0  0  0  0  0  0  0  0
    2.7741   -3.1453   -0.1298 C   0  0  0  0  0  0  0  0  0  0  0  0
    5.0043   -2.4428   -1.0240 C   0  0  1  0  0  0  0  0  0  0  0  0
    4.3791   -2.0103   -2.3243 C   0  0  0  0  0  0  0  0  0  0  0  0
    4.2115   -0.6816   -2.8078 C   0  0  0  0  0  0  0  0  0  0  0  0
    3.6189   -0.7777   -4.0270 C   0  0  0  0  0  0  0  0  0  0  0  0
    3.4101   -2.0781   -4.3496 O   0  0  0  0  0  0  0  0  0  0  0  0
    3.8743   -2.8151   -3.3170 C   0  0  0  0  0  0  0  0  0  0  0  0
    6.2094   -1.7004   -0.8517 O   0  0  0  0  0  0  0  0  0  0  0  0
    6.9030   -2.0201    0.3083 C   0  0  1  0  0  0  0  0  0  0  0  0
    8.0389   -1.2090    0.4924 O   0  0  0  0  0  0  0  0  0  0  0  0
    1.5695   -2.5823    5.5828 H   0  0  0  0  0  0  0  0  0  0  0  0
    0.3053   -3.3263    4.6226 H   0  0  0  0  0  0  0  0  0  0  0  0
    0.3919   -1.5780    4.7709 H   0  0  0  0  0  0  0  0  0  0  0  0
    1.0600   -2.3733    2.6189 H   0  0  0  0  0  0  0  0  0  0  0  0
    2.7167   -4.3190    3.9173 H   0  0  0  0  0  0  0  0  0  0  0  0
    2.4565   -4.2638    2.2285 H   0  0  0  0  0  0  0  0  0  0  0  0
    6.0093   -3.7694    3.4795 H   0  0  0  0  0  0  0  0  0  0  0  0
    5.2919   -3.9102    1.1595 H   0  0  0  0  0  0  0  0  0  0  0  0
    6.5164   -1.8625    2.4074 H   0  0  0  0  0  0  0  0  0  0  0  0
    3.7486   -0.2664   -0.0999 H   0  0  0  0  0  0  0  0  0  0  0  0
    1.8841   -1.1592    1.2609 H   0  0  0  0  0  0  0  0  0  0  0  0
    2.4218    2.1732    3.8685 H   0  0  0  0  0  0  0  0  0  0  0  0
    4.3115    1.2526    5.0486 H   0  0  0  0  0  0  0  0  0  0  0  0
    3.6900   -0.1121    5.9994 H   0  0  0  0  0  0  0  0  0  0  0  0
    5.5241   -0.1480    3.5438 H   0  0  0  0  0  0  0  0  0  0  0  0
    5.7959   -1.0303    5.0291 H   0  0  0  0  0  0  0  0  0  0  0  0
    4.6930   -2.9122    5.3304 H   0  0  0  0  0  0  0  0  0  0  0  0
    2.3113   -2.7369   -1.0328 H   0  0  0  0  0  0  0  0  0  0  0  0
    1.9779   -3.1072    0.6010 H   0  0  0  0  0  0  0  0  0  0  0  0
    2.9915   -4.2000   -0.3136 H   0  0  0  0  0  0  0  0  0  0  0  0
    5.2857   -3.4867   -1.1830 H   0  0  0  0  0  0  0  0  0  0  0  0
    4.4936    0.2423   -2.3203 H   0  0  0  0  0  0  0  0  0  0  0  0
    3.3041   -0.0584   -4.7683 H   0  0  0  0  0  0  0  0  0  0  0  0
    3.7868   -3.8804   -3.4454 H   0  0  0  0  0  0  0  0  0  0  0  0
    7.2762   -3.0452    0.2405 H   0  0  0  0  0  0  0  0  0  0  0  0
    7.7544   -0.3971    0.8861 H   0  0  0  0  0  0  0  0  0  0  0  0
  1  2  1  0
  1 30  1  0
  1 31  1  0
  1 32  1  0
  2 18  1  0
  2  3  1  0
  2 33  1  6
  3  4  1  0
  3 34  1  0
  3 35  1  0
  4 16  1  0
  4  5  1  1
  4  6  1  0
  5 36  1  0
  6 19  1  0
  6  7  1  0
  6 37  1  6
  7 28  1  0
  7  8  1  0
  7 38  1  1
  8  9  1  0
  9 10  1  0
  9 19  1  0
  9 39  1  6
 10 18  1  0
 10 11  1  0
 10 40  1  6
 11 12  1  0
 12 13  2  0
 12 41  1  0
 18 13  1  1
 13 14  1  0
 14 15  1  0
 14 42  1  0
 14 43  1  0
 15 16  1  0
 15 44  1  0
 15 45  1  0
 16 17  1  1
 16 18  1  0
 17 46  1  0
 19 20  1  6
 19 21  1  0
 20 47  1  0
 20 48  1  0
 20 49  1  0
 21 22  1  0
 21 27  1  0
 21 50  1  6
 22 26  2  0
 22 23  1  0
 23 24  2  0
 23 51  1  0
 24 25  1  0
 24 52  1  0
 25 26  1  0
 26 53  1  0
 27 28  1  0
 28 29  1  0
 28 54  1  6
 29 55  1  0
M  END
>  <i_m_ct_stereo_status>  (347) 
1

>  <s_m_source_file>  (347) 
/var/tmp/pbs.5076255.sched01/tmpbvzcvm50/120d7_yi5_y.sdf

>  <i_m_source_file_index>  (347) 
21

>  <i_lp_mmshare_version>  (347) 
48012

>  <i_f3d_flags>  (347) 
0

>  <s_epik_input>  (347) 
UzFbQ0hdPUMyW0NIMl1bQ0gyXVtDQF0zKFtPSF0pW0NAQF0oW09IXSkoW0NIMl1bQ0BIXTRbQ0gzXSlbQ0BASF0oW0NAQF01KFtDSDNdKVtDQEhdNltDQEhdMVtDQF0yMzQpW0NASF0oTzYpW0NASF0oW09IXSlPW0NAQEhdNWM3W2NIXVtjSF1vW2NIXTc=

>  <s_epik_cmdline>  (347) 
J2VwaWtfcHl0aG9uJywgJy1waHQnLCAnMi4wJywgJy1waCcsICc3LjAnLCAnLXRuJywgJzgnLCAnLW1hJywgJzIwMCcsICctaW1hZScsICc8aW5maWxlLm1hZT4nLCAnLW9tYWUnLCAnPG91dGZpbGUubWFlPic=

>  <r_lp_tautomer_probability>  (347) 
1

>  <r_epik_Ionization_Penalty>  (347) 
5.39769e-07

>  <r_epik_Ionization_Penalty_Charging>  (347) 
0

>  <r_epik_Ionization_Penalty_Neutral>  (347) 
5.39769e-07

>  <r_epik_State_Penalty>  (347) 
-0

>  <r_epik_Charging_Adjusted_Penalty>  (347) 
0

>  <i_epik_Tot_Q>  (347) 
0

>  <i_epik_Tot_abs_Q>  (347) 
0

>  <s_epik_Chemistry_Notes>  (347) 
This compound contains an acetal/aminal-like group ( X-CH(R)-Y where X, Y are N, S, or O) that may be acid/base labile, releasing an aldehyde.

>  <s_lp_Force_Field>  (347) 
OPLS3e

>  <r_lp_Energy>  (347) 
114.248

>  <b_lp_Chiralities_Consistent>  (347) 
1

>  <s_lp_Variant>  (347) 
102:0-1

>  <s_i_glide_gridfile>  (347) 
pfpi4k_grid

>  <i_i_glide_lignum>  (347) 
21

>  <i_i_glide_rotatable_bonds>  (347) 
4

>  <r_i_docking_score>  (347) 
-4.33168

>  <r_i_glide_ligand_efficiency>  (347) 
-0.149368

>  <r_i_glide_ligand_efficiency_sa>  (347) 
-0.458907

>  <r_i_glide_ligand_efficiency_ln>  (347) 
-0.991845

>  <r_i_glide_gscore>  (347) 
-4.33168

>  <r_i_glide_lipo>  (347) 
-0.73318

>  <r_i_glide_hbond>  (347) 
-0.42041

>  <r_i_glide_metal>  (347) 
-0

>  <r_i_glide_rewards>  (347) 
-0.583824

>  <r_i_glide_evdw>  (347) 
-32.921

>  <r_i_glide_ecoul>  (347) 
-7.07413

>  <r_i_glide_erotb>  (347) 
0.112905

>  <r_i_glide_esite>  (347) 
0

>  <r_i_glide_emodel>  (347) 
-50.3337

>  <r_i_glide_energy>  (347) 
-39.9951

>  <r_i_glide_einternal>  (347) 
0.46639

>  <r_i_glide_intrahb_reward>  (347) 
-0

>  <i_i_glide_confnum>  (347) 
2

>  <i_i_glide_posenum>  (347) 
11

>  <r_i_glide_eff_state_penalty>  (347) 
0

>  <ligand_id>  (347) 
102

>  <original_smiles>  (347) 
CC1CC2(O)C3C4OC(C5SC=C6CCC2(O)C615)C3(C)C(c1ccoc1)OC4O

>  <smiles>  (347) 
[H]OC1([H])OC([H])(c2c([H])oc([H])c2[H])C2(C([H])([H])[H])C3([H])OC1([H])C2([H])C1(O[H])C([H])([H])C([H])(C([H])([H])[H])C24C(=C([H])SC32[H])C([H])([H])C([H])([H])C14O[H]

$$$$
103:0:0
     RDKit          3D

 12 13  0  0  1  0  0  0  0  0999 V2000
    1.8485  -10.4130    2.8822 C   0  0  0  0  0  0  0  0  0  0  0  0
    2.5061   -9.4331    2.1143 C   0  0  0  0  0  0  0  0  0  0  0  0
    1.9531   -8.2669    1.7176 N   0  0  0  0  0  0  0  0  0  0  0  0
    0.6652   -8.1079    2.1149 C   0  0  0  0  0  0  0  0  0  0  0  0
   -0.1773   -7.0967    1.9120 N   0  0  0  0  0  0  0  0  0  0  0  0
   -1.3602   -7.4671    2.5456 N   0  0  0  0  0  0  0  0  0  0  0  0
   -1.2992   -8.6330    3.1179 N   0  0  0  0  0  0  0  0  0  0  0  0
   -0.0403   -9.0554    2.8697 N   0  0  0  0  0  0  0  0  0  0  0  0
    0.5075  -10.2616    3.2974 C   0  0  0  0  0  0  0  0  0  0  0  0
    2.3792  -11.3166    3.1423 H   0  0  0  0  0  0  0  0  0  0  0  0
    3.5301   -9.5975    1.8062 H   0  0  0  0  0  0  0  0  0  0  0  0
   -0.0706  -10.9669    3.8796 H   0  0  0  0  0  0  0  0  0  0  0  0
  1  9  2  0
  1  2  1  0
  1 10  1  0
  2  3  2  0
  2 11  1  0
  3  4  1  0
  4  8  1  0
  4  5  2  0
  5  6  1  0
  6  7  2  0
  7  8  1  0
  8  9  1  0
  9 12  1  0
M  END
>  <i_m_ct_stereo_status>  (348) 
1

>  <s_m_source_file>  (348) 
/var/tmp/pbs.5076255.sched01/tmpbvzcvm50/120d7_yi5_y.sdf

>  <i_m_source_file_index>  (348) 
22

>  <i_lp_mmshare_version>  (348) 
48012

>  <i_f3d_flags>  (348) 
0

>  <s_epik_input>  (348) 
bjFbY0hdW2NIXVtjSF1uKGMxMilubm4y

>  <s_epik_cmdline>  (348) 
J2VwaWtfcHl0aG9uJywgJy1waHQnLCAnMi4wJywgJy1waCcsICc3LjAnLCAnLXRuJywgJzgnLCAnLW1hJywgJzIwMCcsICctaW1hZScsICc8aW5maWxlLm1hZT4nLCAnLW9tYWUnLCAnPG91dGZpbGUubWFlPic=

>  <r_lp_tautomer_probability>  (348) 
1

>  <r_epik_Ionization_Penalty>  (348) 
3.47943e-11

>  <r_epik_Ionization_Penalty_Charging>  (348) 
0

>  <r_epik_Ionization_Penalty_Neutral>  (348) 
3.47943e-11

>  <r_epik_State_Penalty>  (348) 
-0

>  <r_epik_Charging_Adjusted_Penalty>  (348) 
0

>  <i_epik_Tot_Q>  (348) 
0

>  <i_epik_Tot_abs_Q>  (348) 
0

>  <s_lp_Force_Field>  (348) 
OPLS3e

>  <r_lp_Energy>  (348) 
14.6899

>  <b_lp_Chiralities_Consistent>  (348) 
1

>  <s_lp_Variant>  (348) 
103:0-1

>  <s_i_glide_gridfile>  (348) 
pfpi4k_grid

>  <i_i_glide_lignum>  (348) 
22

>  <i_i_glide_rotatable_bonds>  (348) 
0

>  <r_i_docking_score>  (348) 
-3.98091

>  <r_i_glide_ligand_efficiency>  (348) 
-0.442324

>  <r_i_glide_ligand_efficiency_sa>  (348) 
-0.92007

>  <r_i_glide_ligand_efficiency_ln>  (348) 
-1.24512

>  <r_i_glide_gscore>  (348) 
-3.98091

>  <r_i_glide_lipo>  (348) 
-0.0957746

>  <r_i_glide_hbond>  (348) 
0

>  <r_i_glide_metal>  (348) 
-0

>  <r_i_glide_rewards>  (348) 
-2.25

>  <r_i_glide_evdw>  (348) 
-16.2133

>  <r_i_glide_ecoul>  (348) 
-3.44572

>  <r_i_glide_erotb>  (348) 
0

>  <r_i_glide_esite>  (348) 
-0.307614

>  <r_i_glide_emodel>  (348) 
-25.6428

>  <r_i_glide_energy>  (348) 
-19.659

>  <r_i_glide_einternal>  (348) 
0

>  <r_i_glide_intrahb_reward>  (348) 
-0

>  <i_i_glide_confnum>  (348) 
1

>  <i_i_glide_posenum>  (348) 
34

>  <r_i_glide_eff_state_penalty>  (348) 
0

>  <ligand_id>  (348) 
103

>  <original_smiles>  (348) 
c1cnc2nnnn2c1

>  <smiles>  (348) 
[H]c1nc2nnnn2c([H])c1[H]

$$$$
103:0:1
     RDKit          3D

 12 13  0  0  1  0  0  0  0  0999 V2000
    0.2407  -10.1176    3.0060 C   0  0  0  0  0  0  0  0  0  0  0  0
   -0.9620   -9.3967    2.8758 C   0  0  0  0  0  0  0  0  0  0  0  0
   -1.0607   -8.1442    2.3877 N   0  0  0  0  0  0  0  0  0  0  0  0
    0.1296   -7.6163    2.0083 C   0  0  0  0  0  0  0  0  0  0  0  0
    0.4035   -6.4260    1.4837 N   0  0  0  0  0  0  0  0  0  0  0  0
    1.7840   -6.4069    1.3025 N   0  0  0  0  0  0  0  0  0  0  0  0
    2.3692   -7.5061    1.6785 N   0  0  0  0  0  0  0  0  0  0  0  0
    1.3555   -8.2826    2.1184 N   0  0  0  0  0  0  0  0  0  0  0  0
    1.4859   -9.5734    2.6229 C   0  0  0  0  0  0  0  0  0  0  0  0
    0.2132  -11.1159    3.4166 H   0  0  0  0  0  0  0  0  0  0  0  0
   -1.8914   -9.8541    3.1832 H   0  0  0  0  0  0  0  0  0  0  0  0
    2.4497  -10.0580    2.6919 H   0  0  0  0  0  0  0  0  0  0  0  0
  1  9  2  0
  1  2  1  0
  1 10  1  0
  2  3  2  0
  2 11  1  0
  3  4  1  0
  4  8  1  0
  4  5  2  0
  5  6  1  0
  6  7  2  0
  7  8  1  0
  8  9  1  0
  9 12  1  0
M  END
>  <i_m_ct_stereo_status>  (349) 
1

>  <s_m_source_file>  (349) 
/var/tmp/pbs.5076255.sched01/tmpbvzcvm50/120d7_yi5_y.sdf

>  <i_m_source_file_index>  (349) 
22

>  <i_lp_mmshare_version>  (349) 
48012

>  <i_f3d_flags>  (349) 
0

>  <s_epik_input>  (349) 
bjFbY0hdW2NIXVtjSF1uKGMxMilubm4y

>  <s_epik_cmdline>  (349) 
J2VwaWtfcHl0aG9uJywgJy1waHQnLCAnMi4wJywgJy1waCcsICc3LjAnLCAnLXRuJywgJzgnLCAnLW1hJywgJzIwMCcsICctaW1hZScsICc8aW5maWxlLm1hZT4nLCAnLW9tYWUnLCAnPG91dGZpbGUubWFlPic=

>  <r_lp_tautomer_probability>  (349) 
1

>  <r_epik_Ionization_Penalty>  (349) 
3.47943e-11

>  <r_epik_Ionization_Penalty_Charging>  (349) 
0

>  <r_epik_Ionization_Penalty_Neutral>  (349) 
3.47943e-11

>  <r_epik_State_Penalty>  (349) 
-0

>  <r_epik_Charging_Adjusted_Penalty>  (349) 
0

>  <i_epik_Tot_Q>  (349) 
0

>  <i_epik_Tot_abs_Q>  (349) 
0

>  <s_lp_Force_Field>  (349) 
OPLS3e

>  <r_lp_Energy>  (349) 
14.6899

>  <b_lp_Chiralities_Consistent>  (349) 
1

>  <s_lp_Variant>  (349) 
103:0-1

>  <s_i_glide_gridfile>  (349) 
pfpi4k_grid

>  <i_i_glide_lignum>  (349) 
22

>  <i_i_glide_rotatable_bonds>  (349) 
0

>  <r_i_docking_score>  (349) 
-3.91551

>  <r_i_glide_ligand_efficiency>  (349) 
-0.435057

>  <r_i_glide_ligand_efficiency_sa>  (349) 
-0.904954

>  <r_i_glide_ligand_efficiency_ln>  (349) 
-1.22466

>  <r_i_glide_gscore>  (349) 
-3.91551

>  <r_i_glide_lipo>  (349) 
-0.077281

>  <r_i_glide_hbond>  (349) 
0

>  <r_i_glide_metal>  (349) 
-0

>  <r_i_glide_rewards>  (349) 
-2.25

>  <r_i_glide_evdw>  (349) 
-14.4358

>  <r_i_glide_ecoul>  (349) 
-4.08919

>  <r_i_glide_erotb>  (349) 
0

>  <r_i_glide_esite>  (349) 
-0.253061

>  <r_i_glide_emodel>  (349) 
-24.4107

>  <r_i_glide_energy>  (349) 
-18.525

>  <r_i_glide_einternal>  (349) 
0

>  <r_i_glide_intrahb_reward>  (349) 
-0

>  <i_i_glide_confnum>  (349) 
1

>  <i_i_glide_posenum>  (349) 
12

>  <r_i_glide_eff_state_penalty>  (349) 
0

>  <ligand_id>  (349) 
103

>  <original_smiles>  (349) 
c1cnc2nnnn2c1

>  <smiles>  (349) 
[H]c1nc2nnnn2c([H])c1[H]

$$$$
103:0:2
     RDKit          3D

 12 13  0  0  1  0  0  0  0  0999 V2000
    1.5031  -10.3229    2.9033 C   0  0  0  0  0  0  0  0  0  0  0  0
    0.1642   -9.9838    3.1758 C   0  0  0  0  0  0  0  0  0  0  0  0
   -0.4197   -8.8146    2.8498 N   0  0  0  0  0  0  0  0  0  0  0  0
    0.4095   -7.9518    2.2130 C   0  0  0  0  0  0  0  0  0  0  0  0
    0.1762   -6.7254    1.7500 N   0  0  0  0  0  0  0  0  0  0  0  0
    1.3836   -6.3014    1.2012 N   0  0  0  0  0  0  0  0  0  0  0  0
    2.3349   -7.1813    1.3029 N   0  0  0  0  0  0  0  0  0  0  0  0
    1.7504   -8.2288    1.9218 N   0  0  0  0  0  0  0  0  0  0  0  0
    2.3769   -9.4316    2.2436 C   0  0  0  0  0  0  0  0  0  0  0  0
    1.8712  -11.2941    3.2042 H   0  0  0  0  0  0  0  0  0  0  0  0
   -0.4731  -10.6934    3.6803 H   0  0  0  0  0  0  0  0  0  0  0  0
    3.4125   -9.6138    1.9980 H   0  0  0  0  0  0  0  0  0  0  0  0
  1  9  2  0
  1  2  1  0
  1 10  1  0
  2  3  2  0
  2 11  1  0
  3  4  1  0
  4  8  1  0
  4  5  2  0
  5  6  1  0
  6  7  2  0
  7  8  1  0
  8  9  1  0
  9 12  1  0
M  END
>  <i_m_ct_stereo_status>  (350) 
1

>  <s_m_source_file>  (350) 
/var/tmp/pbs.5076255.sched01/tmpbvzcvm50/120d7_yi5_y.sdf

>  <i_m_source_file_index>  (350) 
22

>  <i_lp_mmshare_version>  (350) 
48012

>  <i_f3d_flags>  (350) 
0

>  <s_epik_input>  (350) 
bjFbY0hdW2NIXVtjSF1uKGMxMilubm4y

>  <s_epik_cmdline>  (350) 
J2VwaWtfcHl0aG9uJywgJy1waHQnLCAnMi4wJywgJy1waCcsICc3LjAnLCAnLXRuJywgJzgnLCAnLW1hJywgJzIwMCcsICctaW1hZScsICc8aW5maWxlLm1hZT4nLCAnLW9tYWUnLCAnPG91dGZpbGUubWFlPic=

>  <r_lp_tautomer_probability>  (350) 
1

>  <r_epik_Ionization_Penalty>  (350) 
3.47943e-11

>  <r_epik_Ionization_Penalty_Charging>  (350) 
0

>  <r_epik_Ionization_Penalty_Neutral>  (350) 
3.47943e-11

>  <r_epik_State_Penalty>  (350) 
-0

>  <r_epik_Charging_Adjusted_Penalty>  (350) 
0

>  <i_epik_Tot_Q>  (350) 
0

>  <i_epik_Tot_abs_Q>  (350) 
0

>  <s_lp_Force_Field>  (350) 
OPLS3e

>  <r_lp_Energy>  (350) 
14.6899

>  <b_lp_Chiralities_Consistent>  (350) 
1

>  <s_lp_Variant>  (350) 
103:0-1

>  <s_i_glide_gridfile>  (350) 
pfpi4k_grid

>  <i_i_glide_lignum>  (350) 
22

>  <i_i_glide_rotatable_bonds>  (350) 
0

>  <r_i_docking_score>  (350) 
-3.90643

>  <r_i_glide_ligand_efficiency>  (350) 
-0.434048

>  <r_i_glide_ligand_efficiency_sa>  (350) 
-0.902857

>  <r_i_glide_ligand_efficiency_ln>  (350) 
-1.22182

>  <r_i_glide_gscore>  (350) 
-3.90643

>  <r_i_glide_lipo>  (350) 
-0.154441

>  <r_i_glide_hbond>  (350) 
0

>  <r_i_glide_metal>  (350) 
-0

>  <r_i_glide_rewards>  (350) 
-2.25

>  <r_i_glide_evdw>  (350) 
-13.9295

>  <r_i_glide_ecoul>  (350) 
-3.64994

>  <r_i_glide_erotb>  (350) 
0

>  <r_i_glide_esite>  (350) 
-0.258025

>  <r_i_glide_emodel>  (350) 
-23.451

>  <r_i_glide_energy>  (350) 
-17.5795

>  <r_i_glide_einternal>  (350) 
0

>  <r_i_glide_intrahb_reward>  (350) 
-0

>  <i_i_glide_confnum>  (350) 
2

>  <i_i_glide_posenum>  (350) 
19

>  <r_i_glide_eff_state_penalty>  (350) 
0

>  <ligand_id>  (350) 
103

>  <original_smiles>  (350) 
c1cnc2nnnn2c1

>  <smiles>  (350) 
[H]c1nc2nnnn2c([H])c1[H]

$$$$
104:0:0
     RDKit          3D

 82 87  0  0  1  0  0  0  0  0999 V2000
    2.4671    2.5729    2.9751 C   0  0  0  0  0  0  0  0  0  0  0  0
    0.9068    2.4412    3.8829 S   0  0  0  0  0  0  0  0  0  0  0  0
    1.1991    0.9441    4.9319 C   0  0  1  0  0  0  0  0  0  0  0  0
    2.0834    1.1473    6.1726 C   0  0  0  0  0  0  0  0  0  0  0  0
    1.0886    0.1390    6.7675 C   0  0  1  0  0  0  0  0  0  0  0  0
    0.1306    0.6555    5.8382 O   0  0  0  0  0  0  0  0  0  0  0  0
    1.2261   -1.3841    6.4821 C   0  0  2  0  0  0  0  0  0  0  0  0
   -0.1891   -2.0116    6.6564 C   0  0  0  0  0  0  0  0  0  0  0  0
   -0.4447   -2.6334    7.7200 O   0  0  0  0  0  0  0  0  0  0  0  0
   -1.0515   -1.8743    5.7617 O   0  0  0  0  0  0  0  0  0  0  0  0
    2.2436   -2.0896    7.4210 C   0  0  0  0  0  0  0  0  0  0  0  0
    2.6243   -3.5325    6.9588 C   0  0  0  0  0  0  0  0  0  0  0  0
    3.2158   -3.6587    5.5003 C   0  0  2  0  0  0  0  0  0  0  0  0
    4.5778   -2.8777    5.4565 C   0  0  0  0  0  0  0  0  0  0  0  0
    2.1942   -2.9410    4.5439 C   0  0  1  0  0  0  0  0  0  0  0  0
    0.9600   -3.8245    4.2958 C   0  0  0  0  0  0  0  0  0  0  0  0
    1.3407   -5.1797    3.7247 C   0  0  0  0  0  0  0  0  0  0  0  0
    2.2195   -6.0166    4.7120 C   0  0  1  0  0  0  0  0  0  0  0  0
    2.4134   -7.5019    4.1528 C   0  0  2  0  0  0  0  0  0  0  0  0
    0.9755   -8.0311    3.8446 C   0  0  0  0  0  0  0  0  0  0  0  0
    2.9969   -8.5198    5.1870 C   0  0  0  0  0  0  0  0  0  0  0  0
    3.2909   -9.9233    4.6182 C   0  0  0  0  0  0  0  0  0  0  0  0
    4.1889   -9.8773    3.3740 C   0  0  1  0  0  0  0  0  0  0  0  0
    4.3506  -11.2065    2.9179 O   0  0  0  0  0  0  0  0  0  0  0  0
    3.6740   -8.9123    2.2752 C   0  0  0  0  0  0  0  0  0  0  0  0
    4.7628   -8.7907    1.1709 C   0  0  0  0  0  0  0  0  0  0  0  0
    2.4373   -9.5002    1.5398 C   0  0  0  0  0  0  0  0  0  0  0  0
    3.3521   -7.4900    2.8936 C   0  0  2  0  0  0  0  0  0  0  0  0
    4.6412   -6.6809    3.2265 C   0  0  0  0  0  0  0  0  0  0  0  0
    4.4161   -5.2619    3.8001 C   0  0  0  0  0  0  0  0  0  0  0  0
    3.5164   -5.1878    5.0715 C   0  0  1  0  0  0  0  0  0  0  0  0
    4.2929   -5.8424    6.2601 C   0  0  0  0  0  0  0  0  0  0  0  0
    1.8454   -1.5041    5.0542 C   0  0  1  0  0  0  0  0  0  0  0  0
    1.4601   -0.3449    4.0871 C   0  0  1  0  0  0  0  0  0  0  0  0
    0.3709   -0.6552    3.0522 C   0  0  0  0  0  0  0  0  0  0  0  0
    2.4768    3.4892    2.3830 H   0  0  0  0  0  0  0  0  0  0  0  0
    2.5824    1.7355    2.2879 H   0  0  0  0  0  0  0  0  0  0  0  0
    3.3175    2.5912    3.6604 H   0  0  0  0  0  0  0  0  0  0  0  0
    3.1204    0.8110    6.0849 H   0  0  0  0  0  0  0  0  0  0  0  0
    2.0116    2.1376    6.6030 H   0  0  0  0  0  0  0  0  0  0  0  0
    0.8628    0.3905    7.8178 H   0  0  0  0  0  0  0  0  0  0  0  0
    3.1365   -1.4729    7.5228 H   0  0  0  0  0  0  0  0  0  0  0  0
    1.8523   -2.1363    8.4387 H   0  0  0  0  0  0  0  0  0  0  0  0
    3.3067   -3.9222    7.7119 H   0  0  0  0  0  0  0  0  0  0  0  0
    1.7362   -4.1638    7.0401 H   0  0  0  0  0  0  0  0  0  0  0  0
    4.8436   -2.6114    4.4335 H   0  0  0  0  0  0  0  0  0  0  0  0
    5.4200   -3.4317    5.8618 H   0  0  0  0  0  0  0  0  0  0  0  0
    4.5800   -1.9487    6.0208 H   0  0  0  0  0  0  0  0  0  0  0  0
    2.6784   -2.8059    3.5762 H   0  0  0  0  0  0  0  0  0  0  0  0
    0.4149   -4.0476    5.2119 H   0  0  0  0  0  0  0  0  0  0  0  0
    0.2499   -3.3366    3.6360 H   0  0  0  0  0  0  0  0  0  0  0  0
    0.3969   -5.6573    3.4904 H   0  0  0  0  0  0  0  0  0  0  0  0
    1.8411   -5.0200    2.7670 H   0  0  0  0  0  0  0  0  0  0  0  0
    1.6360   -6.1070    5.6311 H   0  0  0  0  0  0  0  0  0  0  0  0
    0.8680   -9.1106    3.9010 H   0  0  0  0  0  0  0  0  0  0  0  0
    0.6346   -7.7375    2.8508 H   0  0  0  0  0  0  0  0  0  0  0  0
    0.2530   -7.6610    4.5731 H   0  0  0  0  0  0  0  0  0  0  0  0
    3.9648   -8.2010    5.5485 H   0  0  0  0  0  0  0  0  0  0  0  0
    2.3584   -8.5923    6.0651 H   0  0  0  0  0  0  0  0  0  0  0  0
    3.7954  -10.5105    5.3861 H   0  0  0  0  0  0  0  0  0  0  0  0
    2.3771  -10.4764    4.4139 H   0  0  0  0  0  0  0  0  0  0  0  0
    5.1734   -9.5386    3.6905 H   0  0  0  0  0  0  0  0  0  0  0  0
    4.2124  -11.2757    1.9709 H   0  0  0  0  0  0  0  0  0  0  0  0
    4.5284   -8.0023    0.4535 H   0  0  0  0  0  0  0  0  0  0  0  0
    4.8820   -9.7200    0.6147 H   0  0  0  0  0  0  0  0  0  0  0  0
    5.7460   -8.5754    1.6031 H   0  0  0  0  0  0  0  0  0  0  0  0
    1.8629   -8.7345    1.0168 H   0  0  0  0  0  0  0  0  0  0  0  0
    1.7605  -10.0229    2.2176 H   0  0  0  0  0  0  0  0  0  0  0  0
    2.7149  -10.2475    0.8040 H   0  0  0  0  0  0  0  0  0  0  0  0
    2.8552   -6.9221    2.1059 H   0  0  0  0  0  0  0  0  0  0  0  0
    5.2768   -7.2485    3.9035 H   0  0  0  0  0  0  0  0  0  0  0  0
    5.2377   -6.5348    2.3298 H   0  0  0  0  0  0  0  0  0  0  0  0
    5.4020   -4.8464    4.0001 H   0  0  0  0  0  0  0  0  0  0  0  0
    3.9988   -4.6403    3.0077 H   0  0  0  0  0  0  0  0  0  0  0  0
    5.0793   -6.5189    5.9365 H   0  0  0  0  0  0  0  0  0  0  0  0
    3.6194   -6.3778    6.9303 H   0  0  0  0  0  0  0  0  0  0  0  0
    4.8346   -5.1422    6.8880 H   0  0  0  0  0  0  0  0  0  0  0  0
    2.8440   -1.1396    5.2269 H   0  0  0  0  0  0  0  0  0  0  0  0
    2.3508   -0.1817    3.4815 H   0  0  0  0  0  0  0  0  0  0  0  0
   -0.5914   -0.8818    3.5093 H   0  0  0  0  0  0  0  0  0  0  0  0
    0.6883   -1.5116    2.4569 H   0  0  0  0  0  0  0  0  0  0  0  0
    0.2307    0.1597    2.3456 H   0  0  0  0  0  0  0  0  0  0  0  0
  1  2  1  0
  1 36  1  0
  1 37  1  0
  1 38  1  0
  3  2  1  6
  3  6  1  0
  3 34  1  0
  3  4  1  0
  4  5  1  0
  4 39  1  0
  4 40  1  0
  5  6  1  0
  5  7  1  0
  5 41  1  1
  7 33  1  0
  7  8  1  6
  7 11  1  0
  8  9  2  0
  8 10  1  0
 11 12  1  0
 11 42  1  0
 11 43  1  0
 12 13  1  0
 12 44  1  0
 12 45  1  0
 13 31  1  0
 13 14  1  1
 13 15  1  0
 14 46  1  0
 14 47  1  0
 14 48  1  0
 15 16  1  0
 15 33  1  0
 15 49  1  6
 16 17  1  0
 16 50  1  0
 16 51  1  0
 17 18  1  0
 17 52  1  0
 17 53  1  0
 18 31  1  0
 18 19  1  0
 18 54  1  1
 19 28  1  0
 19 20  1  6
 19 21  1  0
 20 55  1  0
 20 56  1  0
 20 57  1  0
 21 22  1  0
 21 58  1  0
 21 59  1  0
 22 23  1  0
 22 60  1  0
 22 61  1  0
 23 24  1  0
 23 25  1  0
 23 62  1  1
 24 63  1  0
 25 26  1  0
 25 27  1  0
 25 28  1  0
 26 64  1  0
 26 65  1  0
 26 66  1  0
 27 67  1  0
 27 68  1  0
 27 69  1  0
 28 29  1  0
 28 70  1  6
 29 30  1  0
 29 71  1  0
 29 72  1  0
 30 31  1  0
 30 73  1  0
 30 74  1  0
 31 32  1  1
 32 75  1  0
 32 76  1  0
 32 77  1  0
 33 34  1  0
 33 78  1  1
 34 35  1  0
 34 79  1  6
 35 80  1  0
 35 81  1  0
 35 82  1  0
M  CHG  1  10  -1
M  END
>  <i_m_ct_stereo_status>  (351) 
1

>  <s_m_source_file>  (351) 
/var/tmp/pbs.5076255.sched01/tmpbvzcvm50/120d7_yi5_y.sdf

>  <i_m_source_file_index>  (351) 
23

>  <i_lp_mmshare_version>  (351) 
48012

>  <i_f3d_flags>  (351) 
0

>  <s_epik_input>  (351) 
W0NIM11TW0NAQF0xMltDSDJdW0NAQEhdKE8xKVtDQEBdMyhDKD1PKVtPSF0pW0NASF0oW0NASF0yW0NIM10pW0NASF00W0NAQF0oW0NIM10pKFtDSDJdW0NIMl0zKVtDQEBdNShbQ0gzXSlbQ0BASF0oW0NIMl1bQ0gyXTQpW0NAQF02KFtDSDNdKVtDQEBIXShbQ0gyXVtDSDJdNSlDKFtDSDNdKShbQ0gzXSlbQ0BIXShbT0hdKVtDSDJdW0NIMl02

>  <s_epik_cmdline>  (351) 
J2VwaWtfcHl0aG9uJywgJy1waHQnLCAnMi4wJywgJy1waCcsICc3LjAnLCAnLXRuJywgJzgnLCAnLW1hJywgJzIwMCcsICctaW1hZScsICc8aW5maWxlLm1hZT4nLCAnLW9tYWUnLCAnPG91dGZpbGUubWFlPic=

>  <r_epik_Ionization_Penalty>  (351) 
0.00256192

>  <r_epik_Ionization_Penalty_Charging>  (351) 
0.00255873

>  <r_epik_Ionization_Penalty_Neutral>  (351) 
3.18502e-06

>  <r_epik_State_Penalty>  (351) 
0.00177727

>  <r_epik_Charging_Adjusted_Penalty>  (351) 
0.004336

>  <i_epik_Tot_Q>  (351) 
-1

>  <i_epik_Tot_abs_Q>  (351) 
1

>  <s_lp_Force_Field>  (351) 
OPLS3e

>  <r_lp_Energy>  (351) 
110.612

>  <b_lp_Chiralities_Consistent>  (351) 
1

>  <s_lp_Variant>  (351) 
104:0-1

>  <s_i_glide_gridfile>  (351) 
pfpi4k_grid

>  <i_i_glide_lignum>  (351) 
23

>  <i_i_glide_rotatable_bonds>  (351) 
3

>  <r_i_docking_score>  (351) 
-2.07898

>  <r_i_glide_ligand_efficiency>  (351) 
-0.0593994

>  <r_i_glide_ligand_efficiency_sa>  (351) 
-0.194299

>  <r_i_glide_ligand_efficiency_ln>  (351) 
-0.456382

>  <r_i_glide_gscore>  (351) 
-2.07898

>  <r_i_glide_lipo>  (351) 
-0.0368052

>  <r_i_glide_hbond>  (351) 
-0.272842

>  <r_i_glide_metal>  (351) 
-0

>  <r_i_glide_rewards>  (351) 
0

>  <r_i_glide_evdw>  (351) 
-17.7687

>  <r_i_glide_ecoul>  (351) 
-5.59255

>  <r_i_glide_erotb>  (351) 
0

>  <r_i_glide_esite>  (351) 
-0.0420158

>  <r_i_glide_emodel>  (351) 
-27.3153

>  <r_i_glide_energy>  (351) 
-23.3612

>  <r_i_glide_einternal>  (351) 
1.77234

>  <r_i_glide_intrahb_reward>  (351) 
-0

>  <i_i_glide_confnum>  (351) 
1

>  <i_i_glide_posenum>  (351) 
29

>  <r_i_glide_eff_state_penalty>  (351) 
0

>  <ligand_id>  (351) 
104

>  <original_smiles>  (351) 
CSC12CC(O1)C1(C(=O)O)CCC3(C)C(CCC4C5(C)CCC(O)C(C)(C)C5CCC43C)C1C2C

>  <smiles>  (351) 
[H]OC1([H])C([H])([H])C([H])([H])C2(C([H])([H])[H])C([H])(C([H])([H])C([H])([H])C3(C([H])([H])[H])C2([H])C([H])([H])C([H])([H])C2([H])C4([H])C([H])(C([H])([H])[H])C5(SC([H])([H])[H])OC([H])(C5([H])[H])C4(C(=O)[O-])C([H])([H])C([H])([H])C23C([H])([H])[H])C1(C([H])([H])[H])C([H])([H])[H]

$$$$
104:0:1
     RDKit          3D

 82 87  0  0  1  0  0  0  0  0999 V2000
    2.4925    2.6459    2.7588 C   0  0  0  0  0  0  0  0  0  0  0  0
    1.0607    2.6632    3.8642 S   0  0  0  0  0  0  0  0  0  0  0  0
    1.4405    1.2416    4.9647 C   0  0  1  0  0  0  0  0  0  0  0  0
    2.6156    1.4226    5.9405 C   0  0  0  0  0  0  0  0  0  0  0  0
    1.7073    0.6135    6.8739 C   0  0  1  0  0  0  0  0  0  0  0  0
    0.5831    1.1720    6.1345 O   0  0  0  0  0  0  0  0  0  0  0  0
    1.6101   -0.9347    6.7223 C   0  0  2  0  0  0  0  0  0  0  0  0
    0.2090   -1.3435    7.2631 C   0  0  0  0  0  0  0  0  0  0  0  0
    0.1072   -1.7242    8.4522 O   0  0  0  0  0  0  0  0  0  0  0  0
   -0.7818   -1.2657    6.5016 O   0  0  0  0  0  0  0  0  0  0  0  0
    2.7313   -1.6915    7.4865 C   0  0  0  0  0  0  0  0  0  0  0  0
    2.8256   -3.2042    7.1112 C   0  0  0  0  0  0  0  0  0  0  0  0
    3.0374   -3.5270    5.5771 C   0  0  2  0  0  0  0  0  0  0  0  0
    4.4230   -2.9338    5.1337 C   0  0  0  0  0  0  0  0  0  0  0  0
    1.8953   -2.7679    4.8037 C   0  0  1  0  0  0  0  0  0  0  0  0
    0.5541   -3.5098    4.9490 C   0  0  0  0  0  0  0  0  0  0  0  0
    0.6432   -4.9397    4.4600 C   0  0  0  0  0  0  0  0  0  0  0  0
    1.6339   -5.7968    5.3102 C   0  0  1  0  0  0  0  0  0  0  0  0
    1.5294   -7.3407    4.8983 C   0  0  2  0  0  0  0  0  0  0  0  0
    0.0130   -7.7029    4.9854 C   0  0  0  0  0  0  0  0  0  0  0  0
    2.2433   -8.3341    5.8718 C   0  0  0  0  0  0  0  0  0  0  0  0
    2.2358   -9.8105    5.4161 C   0  0  0  0  0  0  0  0  0  0  0  0
    2.8093   -9.9764    3.9991 C   0  0  1  0  0  0  0  0  0  0  0  0
    2.7002  -11.3341    3.6171 O   0  0  0  0  0  0  0  0  0  0  0  0
    2.1398   -9.0502    2.9418 C   0  0  0  0  0  0  0  0  0  0  0  0
    2.9456   -9.1640    1.6215 C   0  0  0  0  0  0  0  0  0  0  0  0
    0.7063   -9.5416    2.5984 C   0  0  0  0  0  0  0  0  0  0  0  0
    2.1360   -7.5513    3.4612 C   0  0  2  0  0  0  0  0  0  0  0  0
    3.5449   -6.8907    3.3949 C   0  0  0  0  0  0  0  0  0  0  0  0
    3.6108   -5.4133    3.8363 C   0  0  0  0  0  0  0  0  0  0  0  0
    3.0652   -5.1167    5.2692 C   0  0  1  0  0  0  0  0  0  0  0  0
    4.0318   -5.7617    6.3097 C   0  0  0  0  0  0  0  0  0  0  0  0
    1.8404   -1.2565    5.2103 C   0  0  1  0  0  0  0  0  0  0  0  0
    1.3458   -0.1392    4.2390 C   0  0  1  0  0  0  0  0  0  0  0  0
    0.0192   -0.4102    3.5207 C   0  0  0  0  0  0  0  0  0  0  0  0
    2.4617    3.5050    2.0862 H   0  0  0  0  0  0  0  0  0  0  0  0
    2.5072    1.7410    2.1512 H   0  0  0  0  0  0  0  0  0  0  0  0
    3.4132    2.6934    3.3398 H   0  0  0  0  0  0  0  0  0  0  0  0
    3.5545    0.9491    5.6579 H   0  0  0  0  0  0  0  0  0  0  0  0
    2.7601    2.4521    6.2650 H   0  0  0  0  0  0  0  0  0  0  0  0
    1.7483    0.9740    7.9034 H   0  0  0  0  0  0  0  0  0  0  0  0
    3.6839   -1.1931    7.3068 H   0  0  0  0  0  0  0  0  0  0  0  0
    2.5883   -1.5979    8.5628 H   0  0  0  0  0  0  0  0  0  0  0  0
    3.6253   -3.6162    7.7245 H   0  0  0  0  0  0  0  0  0  0  0  0
    1.9236   -3.7021    7.4643 H   0  0  0  0  0  0  0  0  0  0  0  0
    4.4581   -2.7932    4.0528 H   0  0  0  0  0  0  0  0  0  0  0  0
    5.2737   -3.5570    5.3934 H   0  0  0  0  0  0  0  0  0  0  0  0
    4.6596   -1.9679    5.5716 H   0  0  0  0  0  0  0  0  0  0  0  0
    2.1424   -2.7811    3.7429 H   0  0  0  0  0  0  0  0  0  0  0  0
    0.2282   -3.5797    5.9839 H   0  0  0  0  0  0  0  0  0  0  0  0
   -0.2403   -2.9946    4.4140 H   0  0  0  0  0  0  0  0  0  0  0  0
   -0.3770   -5.3163    4.5081 H   0  0  0  0  0  0  0  0  0  0  0  0
    0.9055   -4.9323    3.4025 H   0  0  0  0  0  0  0  0  0  0  0  0
    1.2879   -5.7322    6.3432 H   0  0  0  0  0  0  0  0  0  0  0  0
   -0.1936   -8.7496    5.1909 H   0  0  0  0  0  0  0  0  0  0  0  0
   -0.5249   -7.4521    4.0700 H   0  0  0  0  0  0  0  0  0  0  0  0
   -0.4675   -7.1736    5.8097 H   0  0  0  0  0  0  0  0  0  0  0  0
    3.2953   -8.1123    5.9626 H   0  0  0  0  0  0  0  0  0  0  0  0
    1.8298   -8.2466    6.8782 H   0  0  0  0  0  0  0  0  0  0  0  0
    2.8448  -10.3930    6.1086 H   0  0  0  0  0  0  0  0  0  0  0  0
    1.2462  -10.2545    5.4904 H   0  0  0  0  0  0  0  0  0  0  0  0
    3.8745   -9.7516    4.0441 H   0  0  0  0  0  0  0  0  0  0  0  0
    3.1048  -11.4608    2.7721 H   0  0  0  0  0  0  0  0  0  0  0  0
    2.6273   -8.4157    0.8931 H   0  0  0  0  0  0  0  0  0  0  0  0
    2.8210  -10.1424    1.1555 H   0  0  0  0  0  0  0  0  0  0  0  0
    4.0172   -9.0470    1.7863 H   0  0  0  0  0  0  0  0  0  0  0  0
    0.1110   -8.7600    2.1261 H   0  0  0  0  0  0  0  0  0  0  0  0
    0.1614   -9.9091    3.4636 H   0  0  0  0  0  0  0  0  0  0  0  0
    0.7195  -10.3845    1.9097 H   0  0  0  0  0  0  0  0  0  0  0  0
    1.5215   -6.9977    2.7507 H   0  0  0  0  0  0  0  0  0  0  0  0
    4.2608   -7.4780    3.9647 H   0  0  0  0  0  0  0  0  0  0  0  0
    3.9165   -6.9037    2.3731 H   0  0  0  0  0  0  0  0  0  0  0  0
    4.6543   -5.1085    3.7557 H   0  0  0  0  0  0  0  0  0  0  0  0
    3.0827   -4.8116    3.0980 H   0  0  0  0  0  0  0  0  0  0  0  0
    4.6417   -6.5584    5.8941 H   0  0  0  0  0  0  0  0  0  0  0  0
    3.4883   -6.1474    7.1722 H   0  0  0  0  0  0  0  0  0  0  0  0
    4.7784   -5.0848    6.7141 H   0  0  0  0  0  0  0  0  0  0  0  0
    2.8862   -1.0088    5.1027 H   0  0  0  0  0  0  0  0  0  0  0  0
    2.0720   -0.1292    3.4274 H   0  0  0  0  0  0  0  0  0  0  0  0
   -0.8443   -0.4900    4.1817 H   0  0  0  0  0  0  0  0  0  0  0  0
    0.1420   -1.3413    2.9778 H   0  0  0  0  0  0  0  0  0  0  0  0
   -0.2035    0.3524    2.7750 H   0  0  0  0  0  0  0  0  0  0  0  0
  1  2  1  0
  1 36  1  0
  1 37  1  0
  1 38  1  0
  3  2  1  6
  3  6  1  0
  3 34  1  0
  3  4  1  0
  4  5  1  0
  4 39  1  0
  4 40  1  0
  5  6  1  0
  5  7  1  0
  5 41  1  1
  7 33  1  0
  7  8  1  1
  7 11  1  0
  8  9  2  0
  8 10  1  0
 11 12  1  0
 11 42  1  0
 11 43  1  0
 12 13  1  0
 12 44  1  0
 12 45  1  0
 13 31  1  0
 13 14  1  6
 13 15  1  0
 14 46  1  0
 14 47  1  0
 14 48  1  0
 15 16  1  0
 15 33  1  0
 15 49  1  6
 16 17  1  0
 16 50  1  0
 16 51  1  0
 17 18  1  0
 17 52  1  0
 17 53  1  0
 18 31  1  0
 18 19  1  0
 18 54  1  1
 19 28  1  0
 19 20  1  6
 19 21  1  0
 20 55  1  0
 20 56  1  0
 20 57  1  0
 21 22  1  0
 21 58  1  0
 21 59  1  0
 22 23  1  0
 22 60  1  0
 22 61  1  0
 23 24  1  0
 23 25  1  0
 23 62  1  1
 24 63  1  0
 25 26  1  0
 25 27  1  0
 25 28  1  0
 26 64  1  0
 26 65  1  0
 26 66  1  0
 27 67  1  0
 27 68  1  0
 27 69  1  0
 28 29  1  0
 28 70  1  6
 29 30  1  0
 29 71  1  0
 29 72  1  0
 30 31  1  0
 30 73  1  0
 30 74  1  0
 31 32  1  1
 32 75  1  0
 32 76  1  0
 32 77  1  0
 33 34  1  0
 33 78  1  1
 34 35  1  0
 34 79  1  6
 35 80  1  0
 35 81  1  0
 35 82  1  0
M  CHG  1  10  -1
M  END
>  <i_m_ct_stereo_status>  (352) 
1

>  <s_m_source_file>  (352) 
/var/tmp/pbs.5076255.sched01/tmpbvzcvm50/120d7_yi5_y.sdf

>  <i_m_source_file_index>  (352) 
23

>  <i_lp_mmshare_version>  (352) 
48012

>  <i_f3d_flags>  (352) 
0

>  <s_epik_input>  (352) 
W0NIM11TW0NAQF0xMltDSDJdW0NAQEhdKE8xKVtDQEBdMyhDKD1PKVtPSF0pW0NASF0oW0NASF0yW0NIM10pW0NASF00W0NAQF0oW0NIM10pKFtDSDJdW0NIMl0zKVtDQEBdNShbQ0gzXSlbQ0BASF0oW0NIMl1bQ0gyXTQpW0NAQF02KFtDSDNdKVtDQEBIXShbQ0gyXVtDSDJdNSlDKFtDSDNdKShbQ0gzXSlbQ0BIXShbT0hdKVtDSDJdW0NIMl02

>  <s_epik_cmdline>  (352) 
J2VwaWtfcHl0aG9uJywgJy1waHQnLCAnMi4wJywgJy1waCcsICc3LjAnLCAnLXRuJywgJzgnLCAnLW1hJywgJzIwMCcsICctaW1hZScsICc8aW5maWxlLm1hZT4nLCAnLW9tYWUnLCAnPG91dGZpbGUubWFlPic=

>  <r_epik_Ionization_Penalty>  (352) 
0.00256192

>  <r_epik_Ionization_Penalty_Charging>  (352) 
0.00255873

>  <r_epik_Ionization_Penalty_Neutral>  (352) 
3.18502e-06

>  <r_epik_State_Penalty>  (352) 
0.00177727

>  <r_epik_Charging_Adjusted_Penalty>  (352) 
0.004336

>  <i_epik_Tot_Q>  (352) 
-1

>  <i_epik_Tot_abs_Q>  (352) 
1

>  <s_lp_Force_Field>  (352) 
OPLS3e

>  <r_lp_Energy>  (352) 
110.612

>  <b_lp_Chiralities_Consistent>  (352) 
1

>  <s_lp_Variant>  (352) 
104:0-1

>  <s_i_glide_gridfile>  (352) 
pfpi4k_grid

>  <i_i_glide_lignum>  (352) 
23

>  <i_i_glide_rotatable_bonds>  (352) 
3

>  <r_i_docking_score>  (352) 
-1.80304

>  <r_i_glide_ligand_efficiency>  (352) 
-0.0515153

>  <r_i_glide_ligand_efficiency_sa>  (352) 
-0.16851

>  <r_i_glide_ligand_efficiency_ln>  (352) 
-0.395807

>  <r_i_glide_gscore>  (352) 
-1.80304

>  <r_i_glide_lipo>  (352) 
-0.035173

>  <r_i_glide_hbond>  (352) 
-0.172003

>  <r_i_glide_metal>  (352) 
-0

>  <r_i_glide_rewards>  (352) 
0

>  <r_i_glide_evdw>  (352) 
-18.4338

>  <r_i_glide_ecoul>  (352) 
-4.18379

>  <r_i_glide_erotb>  (352) 
0

>  <r_i_glide_esite>  (352) 
-0.0466038

>  <r_i_glide_emodel>  (352) 
-26.7044

>  <r_i_glide_energy>  (352) 
-22.6176

>  <r_i_glide_einternal>  (352) 
0.344973

>  <r_i_glide_intrahb_reward>  (352) 
-0

>  <i_i_glide_confnum>  (352) 
2

>  <i_i_glide_posenum>  (352) 
8

>  <r_i_glide_eff_state_penalty>  (352) 
0

>  <ligand_id>  (352) 
104

>  <original_smiles>  (352) 
CSC12CC(O1)C1(C(=O)O)CCC3(C)C(CCC4C5(C)CCC(O)C(C)(C)C5CCC43C)C1C2C

>  <smiles>  (352) 
[H]OC1([H])C([H])([H])C([H])([H])C2(C([H])([H])[H])C([H])(C([H])([H])C([H])([H])C3(C([H])([H])[H])C2([H])C([H])([H])C([H])([H])C2([H])C4([H])C([H])(C([H])([H])[H])C5(SC([H])([H])[H])OC([H])(C5([H])[H])C4(C(=O)[O-])C([H])([H])C([H])([H])C23C([H])([H])[H])C1(C([H])([H])[H])C([H])([H])[H]

$$$$
104:0:2
     RDKit          3D

 82 87  0  0  1  0  0  0  0  0999 V2000
    0.5008    3.3851    3.2869 C   0  0  0  0  0  0  0  0  0  0  0  0
   -0.2503    1.7573    2.9522 S   0  0  0  0  0  0  0  0  0  0  0  0
    1.1589    0.6338    3.3193 C   0  0  1  0  0  0  0  0  0  0  0  0
    2.4596    0.8317    2.5221 C   0  0  0  0  0  0  0  0  0  0  0  0
    3.0994    0.4559    3.8659 C   0  0  1  0  0  0  0  0  0  0  0  0
    1.9055    0.9884    4.5095 O   0  0  0  0  0  0  0  0  0  0  0  0
    3.1850   -1.0372    4.3010 C   0  0  2  0  0  0  0  0  0  0  0  0
    3.2312   -1.0343    5.8589 C   0  0  0  0  0  0  0  0  0  0  0  0
    4.3584   -1.0130    6.4063 O   0  0  0  0  0  0  0  0  0  0  0  0
    2.1565   -1.0318    6.5035 O   0  0  0  0  0  0  0  0  0  0  0  0
    4.4398   -1.7561    3.7264 C   0  0  0  0  0  0  0  0  0  0  0  0
    4.3954   -3.3074    3.8977 C   0  0  0  0  0  0  0  0  0  0  0  0
    3.1427   -4.0388    3.2678 C   0  0  2  0  0  0  0  0  0  0  0  0
    3.1760   -3.8245    1.7132 C   0  0  0  0  0  0  0  0  0  0  0  0
    1.8672   -3.3164    3.8486 C   0  0  1  0  0  0  0  0  0  0  0  0
    1.6130   -3.7572    5.3009 C   0  0  0  0  0  0  0  0  0  0  0  0
    1.4466   -5.2567    5.4186 C   0  0  0  0  0  0  0  0  0  0  0  0
    2.7489   -6.0251    5.0251 C   0  0  1  0  0  0  0  0  0  0  0  0
    2.6009   -7.5810    5.3723 C   0  0  2  0  0  0  0  0  0  0  0  0
    2.1584   -7.6424    6.8680 C   0  0  0  0  0  0  0  0  0  0  0  0
    3.9298   -8.4018    5.3067 C   0  0  0  0  0  0  0  0  0  0  0  0
    3.7675   -9.9186    5.5368 C   0  0  0  0  0  0  0  0  0  0  0  0
    2.7318  -10.5360    4.5842 C   0  0  1  0  0  0  0  0  0  0  0  0
    2.5931  -11.9099    4.8791 O   0  0  0  0  0  0  0  0  0  0  0  0
    1.3567   -9.8064    4.5928 C   0  0  0  0  0  0  0  0  0  0  0  0
    0.4933  -10.3920    3.4461 C   0  0  0  0  0  0  0  0  0  0  0  0
    0.5752  -10.1140    5.8974 C   0  0  0  0  0  0  0  0  0  0  0  0
    1.5656   -8.2488    4.3908 C   0  0  2  0  0  0  0  0  0  0  0  0
    1.9342   -7.8805    2.9235 C   0  0  0  0  0  0  0  0  0  0  0  0
    2.1079   -6.3739    2.6377 C   0  0  0  0  0  0  0  0  0  0  0  0
    3.1454   -5.6352    3.5411 C   0  0  1  0  0  0  0  0  0  0  0  0
    4.5723   -6.1521    3.1798 C   0  0  0  0  0  0  0  0  0  0  0  0
    1.9548   -1.7618    3.6588 C   0  0  1  0  0  0  0  0  0  0  0  0
    0.6938   -0.8504    3.4981 C   0  0  1  0  0  0  0  0  0  0  0  0
   -0.4261   -1.0731    4.5310 C   0  0  0  0  0  0  0  0  0  0  0  0
   -0.2274    4.1773    3.1148 H   0  0  0  0  0  0  0  0  0  0  0  0
    1.3623    3.5900    2.6479 H   0  0  0  0  0  0  0  0  0  0  0  0
    0.8267    3.4441    4.3276 H   0  0  0  0  0  0  0  0  0  0  0  0
    2.6378    0.1438    1.6968 H   0  0  0  0  0  0  0  0  0  0  0  0
    2.6709    1.8570    2.2258 H   0  0  0  0  0  0  0  0  0  0  0  0
    3.9852    1.0533    4.0836 H   0  0  0  0  0  0  0  0  0  0  0  0
    4.5559   -1.4875    2.6774 H   0  0  0  0  0  0  0  0  0  0  0  0
    5.3459   -1.3716    4.1933 H   0  0  0  0  0  0  0  0  0  0  0  0
    5.3307   -3.6799    3.4830 H   0  0  0  0  0  0  0  0  0  0  0  0
    4.4549   -3.5363    4.9611 H   0  0  0  0  0  0  0  0  0  0  0  0
    2.1891   -3.9714    1.2780 H   0  0  0  0  0  0  0  0  0  0  0  0
    3.8469   -4.4980    1.1877 H   0  0  0  0  0  0  0  0  0  0  0  0
    3.4967   -2.8335    1.4027 H   0  0  0  0  0  0  0  0  0  0  0  0
    1.0048   -3.6382    3.2674 H   0  0  0  0  0  0  0  0  0  0  0  0
    2.4408   -3.5073    5.9594 H   0  0  0  0  0  0  0  0  0  0  0  0
    0.7348   -3.2672    5.7149 H   0  0  0  0  0  0  0  0  0  0  0  0
    1.1620   -5.4236    6.4562 H   0  0  0  0  0  0  0  0  0  0  0  0
    0.5874   -5.5666    4.8247 H   0  0  0  0  0  0  0  0  0  0  0  0
    3.5408   -5.6440    5.6717 H   0  0  0  0  0  0  0  0  0  0  0  0
    2.4417   -8.5529    7.3866 H   0  0  0  0  0  0  0  0  0  0  0  0
    1.0781   -7.5403    6.9821 H   0  0  0  0  0  0  0  0  0  0  0  0
    2.6343   -6.8512    7.4514 H   0  0  0  0  0  0  0  0  0  0  0  0
    4.3777   -8.3497    4.3268 H   0  0  0  0  0  0  0  0  0  0  0  0
    4.6672   -7.9899    5.9973 H   0  0  0  0  0  0  0  0  0  0  0  0
    4.7275  -10.4020    5.3570 H   0  0  0  0  0  0  0  0  0  0  0  0
    3.5289  -10.1522    6.5707 H   0  0  0  0  0  0  0  0  0  0  0  0
    3.1414  -10.4864    3.5743 H   0  0  0  0  0  0  0  0  0  0  0  0
    2.2502  -12.0168    5.7635 H   0  0  0  0  0  0  0  0  0  0  0  0
   -0.4301   -9.8254    3.3081 H   0  0  0  0  0  0  0  0  0  0  0  0
    0.2203  -11.4268    3.6549 H   0  0  0  0  0  0  0  0  0  0  0  0
    1.0286  -10.4161    2.4964 H   0  0  0  0  0  0  0  0  0  0  0  0
   -0.2203   -9.3899    6.0765 H   0  0  0  0  0  0  0  0  0  0  0  0
    1.2107  -10.1504    6.7771 H   0  0  0  0  0  0  0  0  0  0  0  0
    0.1036  -11.0943    5.8607 H   0  0  0  0  0  0  0  0  0  0  0  0
    0.5895   -7.7969    4.5692 H   0  0  0  0  0  0  0  0  0  0  0  0
    2.8269   -8.4199    2.6153 H   0  0  0  0  0  0  0  0  0  0  0  0
    1.1536   -8.2171    2.2453 H   0  0  0  0  0  0  0  0  0  0  0  0
    2.3863   -6.2846    1.5876 H   0  0  0  0  0  0  0  0  0  0  0  0
    1.1327   -5.8972    2.7169 H   0  0  0  0  0  0  0  0  0  0  0  0
    4.5663   -7.1210    2.6889 H   0  0  0  0  0  0  0  0  0  0  0  0
    5.2105   -6.2065    4.0613 H   0  0  0  0  0  0  0  0  0  0  0  0
    5.1102   -5.5343    2.4680 H   0  0  0  0  0  0  0  0  0  0  0  0
    2.2187   -1.7346    2.6120 H   0  0  0  0  0  0  0  0  0  0  0  0
    0.2400   -1.1419    2.5505 H   0  0  0  0  0  0  0  0  0  0  0  0
   -0.1315   -0.8221    5.5514 H   0  0  0  0  0  0  0  0  0  0  0  0
   -0.7310   -2.1166    4.5049 H   0  0  0  0  0  0  0  0  0  0  0  0
   -1.3143   -0.4915    4.2873 H   0  0  0  0  0  0  0  0  0  0  0  0
  1  2  1  0
  1 36  1  0
  1 37  1  0
  1 38  1  0
  3  2  1  6
  3  6  1  0
  3 34  1  0
  3  4  1  0
  4  5  1  0
  4 39  1  0
  4 40  1  0
  5  6  1  0
  5  7  1  0
  5 41  1  1
  7 33  1  0
  7  8  1  1
  7 11  1  0
  8  9  2  0
  8 10  1  0
 11 12  1  0
 11 42  1  0
 11 43  1  0
 12 13  1  0
 12 44  1  0
 12 45  1  0
 13 31  1  0
 13 14  1  6
 13 15  1  0
 14 46  1  0
 14 47  1  0
 14 48  1  0
 15 16  1  0
 15 33  1  0
 15 49  1  6
 16 17  1  0
 16 50  1  0
 16 51  1  0
 17 18  1  0
 17 52  1  0
 17 53  1  0
 18 31  1  0
 18 19  1  0
 18 54  1  1
 19 28  1  0
 19 20  1  1
 19 21  1  0
 20 55  1  0
 20 56  1  0
 20 57  1  0
 21 22  1  0
 21 58  1  0
 21 59  1  0
 22 23  1  0
 22 60  1  0
 22 61  1  0
 23 24  1  0
 23 25  1  0
 23 62  1  6
 24 63  1  0
 25 26  1  0
 25 27  1  0
 25 28  1  0
 26 64  1  0
 26 65  1  0
 26 66  1  0
 27 67  1  0
 27 68  1  0
 27 69  1  0
 28 29  1  0
 28 70  1  1
 29 30  1  0
 29 71  1  0
 29 72  1  0
 30 31  1  0
 30 73  1  0
 30 74  1  0
 31 32  1  6
 32 75  1  0
 32 76  1  0
 32 77  1  0
 33 34  1  0
 33 78  1  6
 34 35  1  0
 34 79  1  6
 35 80  1  0
 35 81  1  0
 35 82  1  0
M  CHG  1  10  -1
M  END
>  <i_m_ct_stereo_status>  (353) 
1

>  <s_m_source_file>  (353) 
/var/tmp/pbs.5076255.sched01/tmpbvzcvm50/120d7_yi5_y.sdf

>  <i_m_source_file_index>  (353) 
23

>  <i_lp_mmshare_version>  (353) 
48012

>  <i_f3d_flags>  (353) 
0

>  <s_epik_input>  (353) 
W0NIM11TW0NAQF0xMltDSDJdW0NAQEhdKE8xKVtDQEBdMyhDKD1PKVtPSF0pW0NASF0oW0NASF0yW0NIM10pW0NASF00W0NAQF0oW0NIM10pKFtDSDJdW0NIMl0zKVtDQEBdNShbQ0gzXSlbQ0BASF0oW0NIMl1bQ0gyXTQpW0NAQF02KFtDSDNdKVtDQEBIXShbQ0gyXVtDSDJdNSlDKFtDSDNdKShbQ0gzXSlbQ0BIXShbT0hdKVtDSDJdW0NIMl02

>  <s_epik_cmdline>  (353) 
J2VwaWtfcHl0aG9uJywgJy1waHQnLCAnMi4wJywgJy1waCcsICc3LjAnLCAnLXRuJywgJzgnLCAnLW1hJywgJzIwMCcsICctaW1hZScsICc8aW5maWxlLm1hZT4nLCAnLW9tYWUnLCAnPG91dGZpbGUubWFlPic=

>  <r_epik_Ionization_Penalty>  (353) 
0.00256192

>  <r_epik_Ionization_Penalty_Charging>  (353) 
0.00255873

>  <r_epik_Ionization_Penalty_Neutral>  (353) 
3.18502e-06

>  <r_epik_State_Penalty>  (353) 
0.00177727

>  <r_epik_Charging_Adjusted_Penalty>  (353) 
0.004336

>  <i_epik_Tot_Q>  (353) 
-1

>  <i_epik_Tot_abs_Q>  (353) 
1

>  <s_lp_Force_Field>  (353) 
OPLS3e

>  <r_lp_Energy>  (353) 
110.612

>  <b_lp_Chiralities_Consistent>  (353) 
1

>  <s_lp_Variant>  (353) 
104:0-1

>  <s_i_glide_gridfile>  (353) 
pfpi4k_grid

>  <i_i_glide_lignum>  (353) 
23

>  <i_i_glide_rotatable_bonds>  (353) 
3

>  <r_i_docking_score>  (353) 
-1.5252

>  <r_i_glide_ligand_efficiency>  (353) 
-0.043577

>  <r_i_glide_ligand_efficiency_sa>  (353) 
-0.142543

>  <r_i_glide_ligand_efficiency_ln>  (353) 
-0.334814

>  <r_i_glide_gscore>  (353) 
-1.5252

>  <r_i_glide_lipo>  (353) 
-0.0536398

>  <r_i_glide_hbond>  (353) 
-0.128912

>  <r_i_glide_metal>  (353) 
-0

>  <r_i_glide_rewards>  (353) 
0

>  <r_i_glide_evdw>  (353) 
-21.3353

>  <r_i_glide_ecoul>  (353) 
-1.8392

>  <r_i_glide_erotb>  (353) 
0

>  <r_i_glide_esite>  (353) 
0

>  <r_i_glide_emodel>  (353) 
-26.4716

>  <r_i_glide_energy>  (353) 
-23.1745

>  <r_i_glide_einternal>  (353) 
0.493155

>  <r_i_glide_intrahb_reward>  (353) 
-0

>  <i_i_glide_confnum>  (353) 
2

>  <i_i_glide_posenum>  (353) 
39

>  <r_i_glide_eff_state_penalty>  (353) 
0

>  <ligand_id>  (353) 
104

>  <original_smiles>  (353) 
CSC12CC(O1)C1(C(=O)O)CCC3(C)C(CCC4C5(C)CCC(O)C(C)(C)C5CCC43C)C1C2C

>  <smiles>  (353) 
[H]OC1([H])C([H])([H])C([H])([H])C2(C([H])([H])[H])C([H])(C([H])([H])C([H])([H])C3(C([H])([H])[H])C2([H])C([H])([H])C([H])([H])C2([H])C4([H])C([H])(C([H])([H])[H])C5(SC([H])([H])[H])OC([H])(C5([H])[H])C4(C(=O)[O-])C([H])([H])C([H])([H])C23C([H])([H])[H])C1(C([H])([H])[H])C([H])([H])[H]

$$$$
105:0:0
     RDKit          3D

 75 80  0  0  1  0  0  0  0  0999 V2000
   -1.6531   -8.9985    2.5301 C   0  0  0  0  0  0  0  0  0  0  0  0
   -0.4382   -8.6824    2.9964 C   0  0  0  0  0  0  0  0  0  0  0  0
    0.4760   -7.7164    2.3938 C   0  0  0  0  0  0  0  0  0  0  0  0
    0.1678   -6.9395    1.4867 O   0  0  0  0  0  0  0  0  0  0  0  0
    1.8771   -7.7674    3.1115 C   0  0  1  0  0  0  0  0  0  0  0  0
    2.9082   -7.5911    1.9141 C   0  0  0  0  0  0  0  0  0  0  0  0
    3.4323   -6.1883    1.5008 C   0  0  0  0  0  0  0  0  0  0  0  0
    4.5363   -6.3208    0.4247 C   0  0  0  0  0  0  0  0  0  0  0  0
    2.3817   -5.2063    0.9540 C   0  0  0  0  0  0  0  0  0  0  0  0
    3.8998   -5.5277    2.6557 O   0  0  0  0  0  0  0  0  0  0  0  0
    5.1120   -5.9515    3.2343 C   0  0  2  0  0  0  0  0  0  0  0  0
    5.1321   -7.2469    4.0586 C   0  0  0  0  0  0  0  0  0  0  0  0
    4.6333   -6.4649    5.2697 C   0  0  1  0  0  0  0  0  0  0  0  0
    5.4724   -6.8202    6.5227 C   0  0  0  0  0  0  0  0  0  0  0  0
    5.2656   -5.2299    4.5686 C   0  0  2  0  0  0  0  0  0  0  0  0
    4.7445   -3.8036    4.8433 C   0  0  1  0  0  0  0  0  0  0  0  0
    5.5319   -3.1742    6.0237 C   0  0  0  0  0  0  0  0  0  0  0  0
    5.3520   -1.6744    6.0306 C   0  0  0  0  0  0  0  0  0  0  0  0
    5.0310   -0.9741    4.9270 C   0  0  0  0  0  0  0  0  0  0  0  0
    4.8537    0.5263    4.9228 C   0  0  0  0  0  0  0  0  0  0  0  0
    4.9013   -1.6627    3.6136 C   0  0  0  0  0  0  0  0  0  0  0  0
    4.7621   -1.0600    2.5550 O   0  0  0  0  0  0  0  0  0  0  0  0
    5.0100   -3.0264    3.6642 O   0  0  0  0  0  0  0  0  0  0  0  0
    3.2249   -3.7754    5.1984 C   0  0  1  0  0  0  0  0  0  0  0  0
    2.3935   -3.6175    4.0686 O   0  0  0  0  0  0  0  0  0  0  0  0
    2.7809   -4.9695    6.0741 C   0  0  0  0  0  0  0  0  0  0  0  0
    3.0435   -6.4327    5.5596 C   0  0  2  0  0  0  0  0  0  0  0  0
    2.7632   -7.3023    6.8377 C   0  0  0  0  0  0  0  0  0  0  0  0
    1.8874   -6.7501    4.4001 C   0  0  2  0  0  0  0  0  0  0  0  0
    0.4795   -6.8971    5.0960 C   0  0  0  0  0  0  0  0  0  0  0  0
    0.0801   -8.3758    5.3730 C   0  0  0  0  0  0  0  0  0  0  0  0
    0.3014   -9.2906    4.1473 C   0  0  2  0  0  0  0  0  0  0  0  0
    1.7658   -9.2456    3.6359 C   0  0  1  0  0  0  0  0  0  0  0  0
    2.0060  -10.3560    2.5778 C   0  0  0  0  0  0  0  0  0  0  0  0
    2.6651   -9.5780    4.6643 O   0  0  0  0  0  0  0  0  0  0  0  0
   -2.2538   -9.7490    3.0128 H   0  0  0  0  0  0  0  0  0  0  0  0
   -2.0668   -8.5132    1.6679 H   0  0  0  0  0  0  0  0  0  0  0  0
    3.7569   -8.2585    2.0137 H   0  0  0  0  0  0  0  0  0  0  0  0
    2.4778   -8.0090    1.0026 H   0  0  0  0  0  0  0  0  0  0  0  0
    4.1182   -6.6844   -0.5108 H   0  0  0  0  0  0  0  0  0  0  0  0
    5.3131   -7.0268    0.7161 H   0  0  0  0  0  0  0  0  0  0  0  0
    5.0103   -5.3615    0.2133 H   0  0  0  0  0  0  0  0  0  0  0  0
    1.8921   -5.5991    0.0630 H   0  0  0  0  0  0  0  0  0  0  0  0
    2.8402   -4.2549    0.6791 H   0  0  0  0  0  0  0  0  0  0  0  0
    1.6252   -4.9689    1.7016 H   0  0  0  0  0  0  0  0  0  0  0  0
    5.9805   -5.8107    2.5892 H   0  0  0  0  0  0  0  0  0  0  0  0
    4.4945   -8.0856    3.8411 H   0  0  0  0  0  0  0  0  0  0  0  0
    6.1541   -7.6111    4.1745 H   0  0  0  0  0  0  0  0  0  0  0  0
    5.3109   -6.1216    7.3405 H   0  0  0  0  0  0  0  0  0  0  0  0
    6.5429   -6.7831    6.3165 H   0  0  0  0  0  0  0  0  0  0  0  0
    5.2952   -7.8349    6.8743 H   0  0  0  0  0  0  0  0  0  0  0  0
    6.3464   -5.2410    4.7259 H   0  0  0  0  0  0  0  0  0  0  0  0
    5.1873   -3.5710    6.9769 H   0  0  0  0  0  0  0  0  0  0  0  0
    6.6014   -3.3780    5.9724 H   0  0  0  0  0  0  0  0  0  0  0  0
    5.5003   -1.1732    6.9762 H   0  0  0  0  0  0  0  0  0  0  0  0
    5.5547    0.9691    4.2187 H   0  0  0  0  0  0  0  0  0  0  0  0
    5.0408    0.9474    5.9095 H   0  0  0  0  0  0  0  0  0  0  0  0
    3.8419    0.7931    4.6202 H   0  0  0  0  0  0  0  0  0  0  0  0
    3.0062   -2.8819    5.7830 H   0  0  0  0  0  0  0  0  0  0  0  0
    2.6613   -4.2645    3.4257 H   0  0  0  0  0  0  0  0  0  0  0  0
    3.3223   -4.8526    7.0135 H   0  0  0  0  0  0  0  0  0  0  0  0
    1.7515   -4.8123    6.3743 H   0  0  0  0  0  0  0  0  0  0  0  0
    1.7585   -7.2157    7.2293 H   0  0  0  0  0  0  0  0  0  0  0  0
    3.3367   -6.9899    7.7083 H   0  0  0  0  0  0  0  0  0  0  0  0
    2.9848   -8.3557    6.6995 H   0  0  0  0  0  0  0  0  0  0  0  0
    1.7806   -5.8249    3.8689 H   0  0  0  0  0  0  0  0  0  0  0  0
    0.3705   -6.3135    6.0037 H   0  0  0  0  0  0  0  0  0  0  0  0
   -0.2822   -6.4180    4.4778 H   0  0  0  0  0  0  0  0  0  0  0  0
    0.6232   -8.7797    6.2221 H   0  0  0  0  0  0  0  0  0  0  0  0
   -0.9738   -8.4106    5.6527 H   0  0  0  0  0  0  0  0  0  0  0  0
   -0.0458  -10.3039    4.3499 H   0  0  0  0  0  0  0  0  0  0  0  0
    1.3984  -10.2328    1.6827 H   0  0  0  0  0  0  0  0  0  0  0  0
    1.7638  -11.3374    2.9898 H   0  0  0  0  0  0  0  0  0  0  0  0
    3.0487  -10.3982    2.2583 H   0  0  0  0  0  0  0  0  0  0  0  0
    2.4589  -10.4485    4.9749 H   0  0  0  0  0  0  0  0  0  0  0  0
  1  2  2  0
  1 36  1  0
  1 37  1  0
  2 32  1  0
  2  3  1  0
  3  4  2  0
  5  3  1  6
  5 29  1  0
  5 33  1  0
  5  6  1  0
  6  7  1  0
  6 38  1  0
  6 39  1  0
  7  8  1  0
  7  9  1  0
  7 10  1  0
  8 40  1  0
  8 41  1  0
  8 42  1  0
  9 43  1  0
  9 44  1  0
  9 45  1  0
 10 11  1  0
 11 15  1  0
 11 12  1  0
 11 46  1  6
 12 13  1  0
 12 47  1  0
 12 48  1  0
 13 27  1  0
 13 14  1  1
 13 15  1  0
 14 49  1  0
 14 50  1  0
 14 51  1  0
 15 16  1  0
 15 52  1  1
 16 23  1  6
 16 17  1  0
 16 24  1  0
 17 18  1  0
 17 53  1  0
 17 54  1  0
 18 19  2  0
 18 55  1  0
 19 20  1  0
 19 21  1  0
 20 56  1  0
 20 57  1  0
 20 58  1  0
 21 22  2  0
 21 23  1  0
 24 25  1  0
 24 26  1  0
 24 59  1  1
 25 60  1  0
 26 27  1  0
 26 61  1  0
 26 62  1  0
 27 28  1  1
 27 29  1  0
 28 63  1  0
 28 64  1  0
 28 65  1  0
 29 30  1  0
 29 66  1  6
 30 31  1  0
 30 67  1  0
 30 68  1  0
 31 32  1  0
 31 69  1  0
 31 70  1  0
 32 33  1  0
 32 71  1  1
 33 34  1  0
 33 35  1  1
 34 72  1  0
 34 73  1  0
 34 74  1  0
 35 75  1  0
M  END
>  <i_m_ct_stereo_status>  (354) 
1

>  <s_m_source_file>  (354) 
/var/tmp/pbs.5076255.sched01/tmpbvzcvm50/120d7_yi5_y.sdf

>  <i_m_source_file_index>  (354) 
24

>  <i_lp_mmshare_version>  (354) 
48012

>  <i_f3d_flags>  (354) 
0

>  <s_epik_input>  (354) 
Tz1DMUMoPVtDSDJdKVtDQEBIXShbQ0BdMihbQ0gzXSlbT0hdKVtDSDJdW0NIMl1bQ0BIXShbQ0BdMTIzKVtDQEBdNChbQ0gzXSlbQ0BdNShbQ0gzXSlbQ0BASF0oW0NAQEhdKFtDSDJdNSlPQyhbQ0gyXTMpKFtDSDNdKVtDSDNdKVtDQEBdNihbQ0BASF0oW09IXSlbQ0gyXTQpW0NIMl1bQ0hdPUMoW0NIM10pQyg9TylPNg==

>  <s_epik_cmdline>  (354) 
J2VwaWtfcHl0aG9uJywgJy1waHQnLCAnMi4wJywgJy1waCcsICc3LjAnLCAnLXRuJywgJzgnLCAnLW1hJywgJzIwMCcsICctaW1hZScsICc8aW5maWxlLm1hZT4nLCAnLW9tYWUnLCAnPG91dGZpbGUubWFlPic=

>  <r_lp_tautomer_probability>  (354) 
1

>  <r_epik_Ionization_Penalty>  (354) 
3.11344e-07

>  <r_epik_Ionization_Penalty_Charging>  (354) 
0

>  <r_epik_Ionization_Penalty_Neutral>  (354) 
3.11344e-07

>  <r_epik_State_Penalty>  (354) 
-0

>  <r_epik_Charging_Adjusted_Penalty>  (354) 
0

>  <i_epik_Tot_Q>  (354) 
0

>  <i_epik_Tot_abs_Q>  (354) 
0

>  <s_epik_Chemistry_Notes>  (354) 
This compound has an ester and may undergo hydrolysis at high or low pH.

>  <s_lp_Force_Field>  (354) 
OPLS3e

>  <r_lp_Energy>  (354) 
111.791

>  <b_lp_Chiralities_Consistent>  (354) 
1

>  <s_lp_Variant>  (354) 
105:0-1

>  <s_i_glide_gridfile>  (354) 
pfpi4k_grid

>  <i_i_glide_lignum>  (354) 
24

>  <i_i_glide_rotatable_bonds>  (354) 
2

>  <r_i_docking_score>  (354) 
-2.85272

>  <r_i_glide_ligand_efficiency>  (354) 
-0.0815063

>  <r_i_glide_ligand_efficiency_sa>  (354) 
-0.266613

>  <r_i_glide_ligand_efficiency_ln>  (354) 
-0.626235

>  <r_i_glide_gscore>  (354) 
-2.85272

>  <r_i_glide_lipo>  (354) 
-0.596691

>  <r_i_glide_hbond>  (354) 
-0.00580468

>  <r_i_glide_metal>  (354) 
-0

>  <r_i_glide_rewards>  (354) 
-0.686795

>  <r_i_glide_evdw>  (354) 
-25.6285

>  <r_i_glide_ecoul>  (354) 
-1.57781

>  <r_i_glide_erotb>  (354) 
0

>  <r_i_glide_esite>  (354) 
-0.0453337

>  <r_i_glide_emodel>  (354) 
-37.427

>  <r_i_glide_energy>  (354) 
-27.2063

>  <r_i_glide_einternal>  (354) 
0.0443978

>  <r_i_glide_intrahb_reward>  (354) 
-0.5

>  <i_i_glide_confnum>  (354) 
2

>  <i_i_glide_posenum>  (354) 
35

>  <r_i_glide_eff_state_penalty>  (354) 
0

>  <ligand_id>  (354) 
105

>  <original_smiles>  (354) 
C=C1C(=O)C23CC(C)(C)OC4CC5(C)C4C4(CC=C(C)C(=O)O4)C(O)CC5(C)C2CCC1C3(C)O

>  <smiles>  (354) 
[H]OC1([H])C([H])([H])C2(C([H])([H])[H])C3([H])C([H])([H])C([H])([H])C4([H])C(=C([H])[H])C(=O)C3(C([H])([H])C(C([H])([H])[H])(C([H])([H])[H])OC3([H])C([H])([H])C2(C([H])([H])[H])C3([H])C12OC(=O)C(C([H])([H])[H])=C([H])C2([H])[H])C4(O[H])C([H])([H])[H]

$$$$
105:0:1
     RDKit          3D

 75 80  0  0  1  0  0  0  0  0999 V2000
   -1.6065   -8.9411    2.5356 C   0  0  0  0  0  0  0  0  0  0  0  0
   -0.3865   -8.6211    2.9864 C   0  0  0  0  0  0  0  0  0  0  0  0
    0.5048   -7.6312    2.3862 C   0  0  0  0  0  0  0  0  0  0  0  0
    0.1711   -6.8405    1.4997 O   0  0  0  0  0  0  0  0  0  0  0  0
    1.9199   -7.6808    3.0781 C   0  0  1  0  0  0  0  0  0  0  0  0
    2.9304   -7.4682    1.8687 C   0  0  0  0  0  0  0  0  0  0  0  0
    3.4337   -6.0508    1.4802 C   0  0  0  0  0  0  0  0  0  0  0  0
    4.5205   -6.1495    0.3846 C   0  0  0  0  0  0  0  0  0  0  0  0
    2.3629   -5.0701    0.9723 C   0  0  0  0  0  0  0  0  0  0  0  0
    3.9116   -5.4121    2.6432 O   0  0  0  0  0  0  0  0  0  0  0  0
    5.1384   -5.8306    3.1911 C   0  0  2  0  0  0  0  0  0  0  0  0
    5.1881   -7.1424    3.9864 C   0  0  0  0  0  0  0  0  0  0  0  0
    4.6965   -6.3945    5.2222 C   0  0  1  0  0  0  0  0  0  0  0  0
    5.5592   -6.7673    6.4534 C   0  0  0  0  0  0  0  0  0  0  0  0
    5.3044   -5.1381    4.5380 C   0  0  2  0  0  0  0  0  0  0  0  0
    4.7714   -3.7225    4.8511 C   0  0  1  0  0  0  0  0  0  0  0  0
    5.5730   -3.1109    6.0323 C   0  0  0  0  0  0  0  0  0  0  0  0
    5.3808   -1.6140    6.0754 C   0  0  0  0  0  0  0  0  0  0  0  0
    5.0346   -0.8913    4.9910 C   0  0  0  0  0  0  0  0  0  0  0  0
    4.8358    0.6064    5.0240 C   0  0  0  0  0  0  0  0  0  0  0  0
    4.8891   -1.5555    3.6669 C   0  0  0  0  0  0  0  0  0  0  0  0
    4.7283   -0.9293    2.6219 O   0  0  0  0  0  0  0  0  0  0  0  0
    5.0096   -2.9173    3.6844 O   0  0  0  0  0  0  0  0  0  0  0  0
    3.2600   -3.7192    5.2322 C   0  0  1  0  0  0  0  0  0  0  0  0
    2.4085   -3.5473    4.1201 O   0  0  0  0  0  0  0  0  0  0  0  0
    2.8426   -4.9365    6.0886 C   0  0  0  0  0  0  0  0  0  0  0  0
    3.1123   -6.3866    5.5361 C   0  0  2  0  0  0  0  0  0  0  0  0
    2.8612   -7.2873    6.7997 C   0  0  0  0  0  0  0  0  0  0  0  0
    1.9403   -6.6915    4.3893 C   0  0  2  0  0  0  0  0  0  0  0  0
    0.5466   -6.8703    5.1062 C   0  0  0  0  0  0  0  0  0  0  0  0
    0.1700   -8.3596    5.3583 C   0  0  0  0  0  0  0  0  0  0  0  0
    0.3843   -9.2449    4.1100 C   0  0  2  0  0  0  0  0  0  0  0  0
    1.8386   -9.1681    3.5737 C   0  0  1  0  0  0  0  0  0  0  0  0
    2.0699  -10.2550    2.4893 C   0  0  0  0  0  0  0  0  0  0  0  0
    2.7679   -9.5105    4.5713 O   0  0  0  0  0  0  0  0  0  0  0  0
   -2.1900   -9.7099    3.0113 H   0  0  0  0  0  0  0  0  0  0  0  0
   -2.0422   -8.4399    1.6898 H   0  0  0  0  0  0  0  0  0  0  0  0
    3.7883   -8.1282    1.9398 H   0  0  0  0  0  0  0  0  0  0  0  0
    2.4879   -7.8706    0.9546 H   0  0  0  0  0  0  0  0  0  0  0  0
    4.0933   -6.5072   -0.5489 H   0  0  0  0  0  0  0  0  0  0  0  0
    5.3131   -6.8472    0.6500 H   0  0  0  0  0  0  0  0  0  0  0  0
    4.9765   -5.1806    0.1820 H   0  0  0  0  0  0  0  0  0  0  0  0
    1.8601   -5.4503    0.0826 H   0  0  0  0  0  0  0  0  0  0  0  0
    2.8066   -4.1091    0.7079 H   0  0  0  0  0  0  0  0  0  0  0  0
    1.6192   -4.8561    1.7390 H   0  0  0  0  0  0  0  0  0  0  0  0
    5.9944   -5.6653    2.5355 H   0  0  0  0  0  0  0  0  0  0  0  0
    4.5570   -7.9798    3.7540 H   0  0  0  0  0  0  0  0  0  0  0  0
    6.2168   -7.4959    4.0785 H   0  0  0  0  0  0  0  0  0  0  0  0
    5.4038   -6.0860    7.2873 H   0  0  0  0  0  0  0  0  0  0  0  0
    6.6260   -6.7147    6.2311 H   0  0  0  0  0  0  0  0  0  0  0  0
    5.3978   -7.7900    6.7884 H   0  0  0  0  0  0  0  0  0  0  0  0
    6.3880   -5.1395    4.6790 H   0  0  0  0  0  0  0  0  0  0  0  0
    5.2477   -3.5311    6.9832 H   0  0  0  0  0  0  0  0  0  0  0  0
    6.6432   -3.3031    5.9587 H   0  0  0  0  0  0  0  0  0  0  0  0
    5.5373   -1.1309    7.0293 H   0  0  0  0  0  0  0  0  0  0  0  0
    5.5137    1.0820    4.3188 H   0  0  0  0  0  0  0  0  0  0  0  0
    5.0349    1.0080    6.0173 H   0  0  0  0  0  0  0  0  0  0  0  0
    3.8138    0.8632    4.7463 H   0  0  0  0  0  0  0  0  0  0  0  0
    3.0409   -2.8414    5.8394 H   0  0  0  0  0  0  0  0  0  0  0  0
    2.6745   -4.1761    3.4588 H   0  0  0  0  0  0  0  0  0  0  0  0
    3.3967   -4.8355    7.0225 H   0  0  0  0  0  0  0  0  0  0  0  0
    1.8152   -4.7995    6.4072 H   0  0  0  0  0  0  0  0  0  0  0  0
    1.8634   -7.2186    7.2124 H   0  0  0  0  0  0  0  0  0  0  0  0
    3.4463   -6.9903    7.6684 H   0  0  0  0  0  0  0  0  0  0  0  0
    3.0863   -8.3361    6.6336 H   0  0  0  0  0  0  0  0  0  0  0  0
    1.8140   -5.7554    3.8829 H   0  0  0  0  0  0  0  0  0  0  0  0
    0.4465   -6.3079    6.0282 H   0  0  0  0  0  0  0  0  0  0  0  0
   -0.2306   -6.3864    4.5110 H   0  0  0  0  0  0  0  0  0  0  0  0
    0.7349   -8.7760    6.1874 H   0  0  0  0  0  0  0  0  0  0  0  0
   -0.8775   -8.4111    5.6594 H   0  0  0  0  0  0  0  0  0  0  0  0
    0.0555  -10.2669    4.2991 H   0  0  0  0  0  0  0  0  0  0  0  0
    1.4380  -10.1194    1.6128 H   0  0  0  0  0  0  0  0  0  0  0  0
    1.8441  -11.2447    2.8909 H   0  0  0  0  0  0  0  0  0  0  0  0
    3.1044  -10.2838    2.1424 H   0  0  0  0  0  0  0  0  0  0  0  0
    3.6009   -9.6604    4.1543 H   0  0  0  0  0  0  0  0  0  0  0  0
  1  2  2  0
  1 36  1  0
  1 37  1  0
  2 32  1  0
  2  3  1  0
  3  4  2  0
  5  3  1  6
  5 29  1  0
  5 33  1  0
  5  6  1  0
  6  7  1  0
  6 38  1  0
  6 39  1  0
  7  8  1  0
  7  9  1  0
  7 10  1  0
  8 40  1  0
  8 41  1  0
  8 42  1  0
  9 43  1  0
  9 44  1  0
  9 45  1  0
 10 11  1  0
 11 15  1  0
 11 12  1  0
 11 46  1  6
 12 13  1  0
 12 47  1  0
 12 48  1  0
 13 27  1  0
 13 14  1  1
 13 15  1  0
 14 49  1  0
 14 50  1  0
 14 51  1  0
 15 16  1  0
 15 52  1  1
 16 23  1  6
 16 17  1  0
 16 24  1  0
 17 18  1  0
 17 53  1  0
 17 54  1  0
 18 19  2  0
 18 55  1  0
 19 20  1  0
 19 21  1  0
 20 56  1  0
 20 57  1  0
 20 58  1  0
 21 22  2  0
 21 23  1  0
 24 25  1  0
 24 26  1  0
 24 59  1  1
 25 60  1  0
 26 27  1  0
 26 61  1  0
 26 62  1  0
 27 28  1  1
 27 29  1  0
 28 63  1  0
 28 64  1  0
 28 65  1  0
 29 30  1  0
 29 66  1  6
 30 31  1  0
 30 67  1  0
 30 68  1  0
 31 32  1  0
 31 69  1  0
 31 70  1  0
 32 33  1  0
 32 71  1  1
 33 34  1  0
 33 35  1  1
 34 72  1  0
 34 73  1  0
 34 74  1  0
 35 75  1  0
M  END
>  <i_m_ct_stereo_status>  (355) 
1

>  <s_m_source_file>  (355) 
/var/tmp/pbs.5076255.sched01/tmpbvzcvm50/120d7_yi5_y.sdf

>  <i_m_source_file_index>  (355) 
24

>  <i_lp_mmshare_version>  (355) 
48012

>  <i_f3d_flags>  (355) 
0

>  <s_epik_input>  (355) 
Tz1DMUMoPVtDSDJdKVtDQEBIXShbQ0BdMihbQ0gzXSlbT0hdKVtDSDJdW0NIMl1bQ0BIXShbQ0BdMTIzKVtDQEBdNChbQ0gzXSlbQ0BdNShbQ0gzXSlbQ0BASF0oW0NAQEhdKFtDSDJdNSlPQyhbQ0gyXTMpKFtDSDNdKVtDSDNdKVtDQEBdNihbQ0BASF0oW09IXSlbQ0gyXTQpW0NIMl1bQ0hdPUMoW0NIM10pQyg9TylPNg==

>  <s_epik_cmdline>  (355) 
J2VwaWtfcHl0aG9uJywgJy1waHQnLCAnMi4wJywgJy1waCcsICc3LjAnLCAnLXRuJywgJzgnLCAnLW1hJywgJzIwMCcsICctaW1hZScsICc8aW5maWxlLm1hZT4nLCAnLW9tYWUnLCAnPG91dGZpbGUubWFlPic=

>  <r_lp_tautomer_probability>  (355) 
1

>  <r_epik_Ionization_Penalty>  (355) 
3.11344e-07

>  <r_epik_Ionization_Penalty_Charging>  (355) 
0

>  <r_epik_Ionization_Penalty_Neutral>  (355) 
3.11344e-07

>  <r_epik_State_Penalty>  (355) 
-0

>  <r_epik_Charging_Adjusted_Penalty>  (355) 
0

>  <i_epik_Tot_Q>  (355) 
0

>  <i_epik_Tot_abs_Q>  (355) 
0

>  <s_epik_Chemistry_Notes>  (355) 
This compound has an ester and may undergo hydrolysis at high or low pH.

>  <s_lp_Force_Field>  (355) 
OPLS3e

>  <r_lp_Energy>  (355) 
111.791

>  <b_lp_Chiralities_Consistent>  (355) 
1

>  <s_lp_Variant>  (355) 
105:0-1

>  <s_i_glide_gridfile>  (355) 
pfpi4k_grid

>  <i_i_glide_lignum>  (355) 
24

>  <i_i_glide_rotatable_bonds>  (355) 
2

>  <r_i_docking_score>  (355) 
-2.76978

>  <r_i_glide_ligand_efficiency>  (355) 
-0.0791367

>  <r_i_glide_ligand_efficiency_sa>  (355) 
-0.258861

>  <r_i_glide_ligand_efficiency_ln>  (355) 
-0.608029

>  <r_i_glide_gscore>  (355) 
-2.76978

>  <r_i_glide_lipo>  (355) 
-0.563457

>  <r_i_glide_hbond>  (355) 
-0.0412274

>  <r_i_glide_metal>  (355) 
-0

>  <r_i_glide_rewards>  (355) 
-0.686254

>  <r_i_glide_evdw>  (355) 
-25.3082

>  <r_i_glide_ecoul>  (355) 
-1.11723

>  <r_i_glide_erotb>  (355) 
0

>  <r_i_glide_esite>  (355) 
-0.0458498

>  <r_i_glide_emodel>  (355) 
-36.4345

>  <r_i_glide_energy>  (355) 
-26.4254

>  <r_i_glide_einternal>  (355) 
0.161211

>  <r_i_glide_intrahb_reward>  (355) 
-0.5

>  <i_i_glide_confnum>  (355) 
1

>  <i_i_glide_posenum>  (355) 
15

>  <r_i_glide_eff_state_penalty>  (355) 
0

>  <ligand_id>  (355) 
105

>  <original_smiles>  (355) 
C=C1C(=O)C23CC(C)(C)OC4CC5(C)C4C4(CC=C(C)C(=O)O4)C(O)CC5(C)C2CCC1C3(C)O

>  <smiles>  (355) 
[H]OC1([H])C([H])([H])C2(C([H])([H])[H])C3([H])C([H])([H])C([H])([H])C4([H])C(=C([H])[H])C(=O)C3(C([H])([H])C(C([H])([H])[H])(C([H])([H])[H])OC3([H])C([H])([H])C2(C([H])([H])[H])C3([H])C12OC(=O)C(C([H])([H])[H])=C([H])C2([H])[H])C4(O[H])C([H])([H])[H]

$$$$
105:0:2
     RDKit          3D

 75 80  0  0  1  0  0  0  0  0999 V2000
    0.6185  -10.2535    4.0126 C   0  0  0  0  0  0  0  0  0  0  0  0
    1.3935   -9.1669    4.1260 C   0  0  0  0  0  0  0  0  0  0  0  0
    2.3962   -8.7513    3.1536 C   0  0  0  0  0  0  0  0  0  0  0  0
    2.5369   -9.2601    2.0437 O   0  0  0  0  0  0  0  0  0  0  0  0
    3.2507   -7.5584    3.7207 C   0  0  1  0  0  0  0  0  0  0  0  0
    4.7177   -7.8891    3.2046 C   0  0  0  0  0  0  0  0  0  0  0  0
    5.2466   -7.3216    1.8600 C   0  0  0  0  0  0  0  0  0  0  0  0
    6.7444   -7.6719    1.6892 C   0  0  0  0  0  0  0  0  0  0  0  0
    4.5156   -7.7947    0.5920 C   0  0  0  0  0  0  0  0  0  0  0  0
    5.0219   -5.9298    1.8400 O   0  0  0  0  0  0  0  0  0  0  0  0
    5.8210   -5.1038    2.6535 C   0  0  2  0  0  0  0  0  0  0  0  0
    5.5446   -5.0553    4.1640 C   0  0  0  0  0  0  0  0  0  0  0  0
    4.4460   -4.0270    3.9136 C   0  0  1  0  0  0  0  0  0  0  0  0
    4.5837   -2.8373    4.8977 C   0  0  0  0  0  0  0  0  0  0  0  0
    5.2247   -3.7012    2.6073 C   0  0  2  0  0  0  0  0  0  0  0  0
    4.5101   -3.1065    1.3765 C   0  0  1  0  0  0  0  0  0  0  0  0
    4.5515   -1.5567    1.4496 C   0  0  0  0  0  0  0  0  0  0  0  0
    4.2640   -0.9622    0.0922 C   0  0  0  0  0  0  0  0  0  0  0  0
    4.4720   -1.6291   -1.0578 C   0  0  0  0  0  0  0  0  0  0  0  0
    4.1698   -1.0542   -2.4254 C   0  0  0  0  0  0  0  0  0  0  0  0
    5.0651   -2.9932   -1.0317 C   0  0  0  0  0  0  0  0  0  0  0  0
    5.4167   -3.5851   -2.0465 O   0  0  0  0  0  0  0  0  0  0  0  0
    5.2579   -3.5153    0.2192 O   0  0  0  0  0  0  0  0  0  0  0  0
    3.0166   -3.5504    1.2724 C   0  0  1  0  0  0  0  0  0  0  0  0
    2.8326   -4.7299    0.5186 O   0  0  0  0  0  0  0  0  0  0  0  0
    2.3130   -3.6335    2.6473 C   0  0  0  0  0  0  0  0  0  0  0  0
    2.9258   -4.5541    3.7653 C   0  0  2  0  0  0  0  0  0  0  0  0
    2.1286   -4.1143    5.0456 C   0  0  0  0  0  0  0  0  0  0  0  0
    2.5284   -6.1258    3.3717 C   0  0  2  0  0  0  0  0  0  0  0  0
    0.9804   -6.3400    3.5839 C   0  0  0  0  0  0  0  0  0  0  0  0
    0.6284   -6.9836    4.9560 C   0  0  0  0  0  0  0  0  0  0  0  0
    1.5091   -8.2156    5.2766 C   0  0  2  0  0  0  0  0  0  0  0  0
    3.0259   -7.8828    5.2421 C   0  0  1  0  0  0  0  0  0  0  0  0
    3.8602   -9.0640    5.8116 C   0  0  0  0  0  0  0  0  0  0  0  0
    3.3294   -6.8279    6.1212 O   0  0  0  0  0  0  0  0  0  0  0  0
   -0.0805  -10.5187    4.7859 H   0  0  0  0  0  0  0  0  0  0  0  0
    0.6496  -10.8870    3.1418 H   0  0  0  0  0  0  0  0  0  0  0  0
    5.4617   -7.7082    3.9713 H   0  0  0  0  0  0  0  0  0  0  0  0
    4.8376   -8.9709    3.1120 H   0  0  0  0  0  0  0  0  0  0  0  0
    6.8699   -8.7435    1.5387 H   0  0  0  0  0  0  0  0  0  0  0  0
    7.3351   -7.4036    2.5646 H   0  0  0  0  0  0  0  0  0  0  0  0
    7.1845   -7.1629    0.8329 H   0  0  0  0  0  0  0  0  0  0  0  0
    4.5685   -8.8777    0.4767 H   0  0  0  0  0  0  0  0  0  0  0  0
    4.9459   -7.3418   -0.3008 H   0  0  0  0  0  0  0  0  0  0  0  0
    3.4683   -7.4947    0.5957 H   0  0  0  0  0  0  0  0  0  0  0  0
    6.8785   -5.1123    2.3843 H   0  0  0  0  0  0  0  0  0  0  0  0
    5.1741   -5.9010    4.7146 H   0  0  0  0  0  0  0  0  0  0  0  0
    6.4019   -4.6535    4.7043 H   0  0  0  0  0  0  0  0  0  0  0  0
    3.9768   -1.9832    4.6039 H   0  0  0  0  0  0  0  0  0  0  0  0
    5.6075   -2.4637    4.9402 H   0  0  0  0  0  0  0  0  0  0  0  0
    4.3480   -3.1098    5.9249 H   0  0  0  0  0  0  0  0  0  0  0  0
    6.0765   -3.0627    2.8456 H   0  0  0  0  0  0  0  0  0  0  0  0
    3.8147   -1.1784    2.1565 H   0  0  0  0  0  0  0  0  0  0  0  0
    5.5187   -1.1744    1.7758 H   0  0  0  0  0  0  0  0  0  0  0  0
    3.8732    0.0451    0.0907 H   0  0  0  0  0  0  0  0  0  0  0  0
    5.0625   -1.0523   -3.0427 H   0  0  0  0  0  0  0  0  0  0  0  0
    3.8191   -0.0275   -2.3494 H   0  0  0  0  0  0  0  0  0  0  0  0
    3.4092   -1.6489   -2.9321 H   0  0  0  0  0  0  0  0  0  0  0  0
    2.4589   -2.8120    0.6959 H   0  0  0  0  0  0  0  0  0  0  0  0
    3.4810   -5.3611    0.8100 H   0  0  0  0  0  0  0  0  0  0  0  0
    2.3081   -2.6114    3.0291 H   0  0  0  0  0  0  0  0  0  0  0  0
    1.2617   -3.8293    2.4835 H   0  0  0  0  0  0  0  0  0  0  0  0
    1.0582   -4.2601    4.9821 H   0  0  0  0  0  0  0  0  0  0  0  0
    2.1648   -3.0422    5.2303 H   0  0  0  0  0  0  0  0  0  0  0  0
    2.4831   -4.5867    5.9561 H   0  0  0  0  0  0  0  0  0  0  0  0
    2.6160   -6.1658    2.3036 H   0  0  0  0  0  0  0  0  0  0  0  0
    0.3847   -5.4456    3.4370 H   0  0  0  0  0  0  0  0  0  0  0  0
    0.5861   -6.9607    2.7772 H   0  0  0  0  0  0  0  0  0  0  0  0
    0.7152   -6.2637    5.7647 H   0  0  0  0  0  0  0  0  0  0  0  0
   -0.4212   -7.2826    4.9373 H   0  0  0  0  0  0  0  0  0  0  0  0
    1.2032   -8.6847    6.2125 H   0  0  0  0  0  0  0  0  0  0  0  0
    3.7730   -9.9790    5.2259 H   0  0  0  0  0  0  0  0  0  0  0  0
    3.5346   -9.3116    6.8226 H   0  0  0  0  0  0  0  0  0  0  0  0
    4.9210   -8.8193    5.8714 H   0  0  0  0  0  0  0  0  0  0  0  0
    3.1802   -7.1279    7.0043 H   0  0  0  0  0  0  0  0  0  0  0  0
  1  2  2  0
  1 36  1  0
  1 37  1  0
  2 32  1  0
  2  3  1  0
  3  4  2  0
  5  3  1  6
  5 29  1  0
  5 33  1  0
  5  6  1  0
  6  7  1  0
  6 38  1  0
  6 39  1  0
  7  8  1  0
  7  9  1  0
  7 10  1  0
  8 40  1  0
  8 41  1  0
  8 42  1  0
  9 43  1  0
  9 44  1  0
  9 45  1  0
 10 11  1  0
 11 15  1  0
 11 12  1  0
 11 46  1  1
 12 13  1  0
 12 47  1  0
 12 48  1  0
 13 27  1  0
 13 14  1  1
 13 15  1  0
 14 49  1  0
 14 50  1  0
 14 51  1  0
 15 16  1  0
 15 52  1  1
 16 23  1  6
 16 17  1  0
 16 24  1  0
 17 18  1  0
 17 53  1  0
 17 54  1  0
 18 19  2  0
 18 55  1  0
 19 20  1  0
 19 21  1  0
 20 56  1  0
 20 57  1  0
 20 58  1  0
 21 22  2  0
 21 23  1  0
 24 25  1  0
 24 26  1  0
 24 59  1  6
 25 60  1  0
 26 27  1  0
 26 61  1  0
 26 62  1  0
 27 28  1  1
 27 29  1  0
 28 63  1  0
 28 64  1  0
 28 65  1  0
 29 30  1  0
 29 66  1  6
 30 31  1  0
 30 67  1  0
 30 68  1  0
 31 32  1  0
 31 69  1  0
 31 70  1  0
 32 33  1  0
 32 71  1  1
 33 34  1  0
 33 35  1  1
 34 72  1  0
 34 73  1  0
 34 74  1  0
 35 75  1  0
M  END
>  <i_m_ct_stereo_status>  (356) 
1

>  <s_m_source_file>  (356) 
/var/tmp/pbs.5076255.sched01/tmpbvzcvm50/120d7_yi5_y.sdf

>  <i_m_source_file_index>  (356) 
24

>  <i_lp_mmshare_version>  (356) 
48012

>  <i_f3d_flags>  (356) 
0

>  <s_epik_input>  (356) 
Tz1DMUMoPVtDSDJdKVtDQEBIXShbQ0BdMihbQ0gzXSlbT0hdKVtDSDJdW0NIMl1bQ0BIXShbQ0BdMTIzKVtDQEBdNChbQ0gzXSlbQ0BdNShbQ0gzXSlbQ0BASF0oW0NAQEhdKFtDSDJdNSlPQyhbQ0gyXTMpKFtDSDNdKVtDSDNdKVtDQEBdNihbQ0BASF0oW09IXSlbQ0gyXTQpW0NIMl1bQ0hdPUMoW0NIM10pQyg9TylPNg==

>  <s_epik_cmdline>  (356) 
J2VwaWtfcHl0aG9uJywgJy1waHQnLCAnMi4wJywgJy1waCcsICc3LjAnLCAnLXRuJywgJzgnLCAnLW1hJywgJzIwMCcsICctaW1hZScsICc8aW5maWxlLm1hZT4nLCAnLW9tYWUnLCAnPG91dGZpbGUubWFlPic=

>  <r_lp_tautomer_probability>  (356) 
1

>  <r_epik_Ionization_Penalty>  (356) 
3.11344e-07

>  <r_epik_Ionization_Penalty_Charging>  (356) 
0

>  <r_epik_Ionization_Penalty_Neutral>  (356) 
3.11344e-07

>  <r_epik_State_Penalty>  (356) 
-0

>  <r_epik_Charging_Adjusted_Penalty>  (356) 
0

>  <i_epik_Tot_Q>  (356) 
0

>  <i_epik_Tot_abs_Q>  (356) 
0

>  <s_epik_Chemistry_Notes>  (356) 
This compound has an ester and may undergo hydrolysis at high or low pH.

>  <s_lp_Force_Field>  (356) 
OPLS3e

>  <r_lp_Energy>  (356) 
111.791

>  <b_lp_Chiralities_Consistent>  (356) 
1

>  <s_lp_Variant>  (356) 
105:0-1

>  <s_i_glide_gridfile>  (356) 
pfpi4k_grid

>  <i_i_glide_lignum>  (356) 
24

>  <i_i_glide_rotatable_bonds>  (356) 
2

>  <r_i_docking_score>  (356) 
-2.29435

>  <r_i_glide_ligand_efficiency>  (356) 
-0.0655527

>  <r_i_glide_ligand_efficiency_sa>  (356) 
-0.214427

>  <r_i_glide_ligand_efficiency_ln>  (356) 
-0.50366

>  <r_i_glide_gscore>  (356) 
-2.29435

>  <r_i_glide_lipo>  (356) 
-0.313746

>  <r_i_glide_hbond>  (356) 
0

>  <r_i_glide_metal>  (356) 
-0

>  <r_i_glide_rewards>  (356) 
-0.635065

>  <r_i_glide_evdw>  (356) 
-26.6381

>  <r_i_glide_ecoul>  (356) 
-0.0523956

>  <r_i_glide_erotb>  (356) 
0

>  <r_i_glide_esite>  (356) 
-0.00577056

>  <r_i_glide_emodel>  (356) 
-35.7647

>  <r_i_glide_energy>  (356) 
-26.6905

>  <r_i_glide_einternal>  (356) 
0.100828

>  <r_i_glide_intrahb_reward>  (356) 
-0.5

>  <i_i_glide_confnum>  (356) 
2

>  <i_i_glide_posenum>  (356) 
23

>  <r_i_glide_eff_state_penalty>  (356) 
0

>  <ligand_id>  (356) 
105

>  <original_smiles>  (356) 
C=C1C(=O)C23CC(C)(C)OC4CC5(C)C4C4(CC=C(C)C(=O)O4)C(O)CC5(C)C2CCC1C3(C)O

>  <smiles>  (356) 
[H]OC1([H])C([H])([H])C2(C([H])([H])[H])C3([H])C([H])([H])C([H])([H])C4([H])C(=C([H])[H])C(=O)C3(C([H])([H])C(C([H])([H])[H])(C([H])([H])[H])OC3([H])C([H])([H])C2(C([H])([H])[H])C3([H])C12OC(=O)C(C([H])([H])[H])=C([H])C2([H])[H])C4(O[H])C([H])([H])[H]

$$$$
106:0:0
     RDKit          3D

 65 71  0  0  1  0  0  0  0  0999 V2000
    7.5364   -3.5567   -0.3755 C   0  0  0  0  0  0  0  0  0  0  0  0
    6.3950   -3.1354    0.1740 C   0  0  0  0  0  0  0  0  0  0  0  0
    6.4051   -2.3578    1.4811 C   0  0  2  0  0  0  0  0  0  0  0  0
    5.2608   -2.7758    2.1125 O   0  0  0  0  0  0  0  0  0  0  0  0
    3.9820   -2.1048    2.2571 C   0  0  2  0  0  0  0  0  0  0  0  0
    4.4249   -2.9896    3.5401 C   0  0  1  0  0  0  0  0  0  0  0  0
    3.5851   -2.6506    4.6237 O   0  0  0  0  0  0  0  0  0  0  0  0
    4.2741   -4.5864    3.2578 C   0  0  0  0  0  0  0  0  0  0  0  0
    4.6891   -5.1840    1.8115 C   0  0  1  0  0  0  0  0  0  0  0  0
    4.3181   -6.6731    1.7607 C   0  0  0  0  0  0  0  0  0  0  0  0
    4.0867   -4.4147    0.5315 C   0  0  1  0  0  0  0  0  0  0  0  0
    2.7097   -3.9298    1.0103 C   0  0  2  0  0  0  0  0  0  0  0  0
    2.2133   -2.6634    0.5183 O   0  0  0  0  0  0  0  0  0  0  0  0
    2.6652   -2.7306    1.8619 C   0  0  2  0  0  0  0  0  0  0  0  0
    1.6290   -2.7261    2.8188 O   0  0  0  0  0  0  0  0  0  0  0  0
    1.0730   -1.4367    3.0079 C   0  0  0  0  0  0  0  0  0  0  0  0
    4.9649   -3.3370   -0.3725 C   0  0  2  0  0  0  0  0  0  0  0  0
    4.7014   -3.6279   -1.9001 C   0  0  2  0  0  0  0  0  0  0  0  0
    5.1649   -2.4540   -2.7491 C   0  0  0  0  0  0  0  0  0  0  0  0
    3.9429   -1.8293   -1.8974 C   0  0  1  0  0  0  0  0  0  0  0  0
    3.2672   -0.6640   -2.3259 O   0  0  0  0  0  0  0  0  0  0  0  0
    3.3668   -0.2460   -3.6896 C   0  0  0  0  0  0  0  0  0  0  0  0
    3.2904   -3.1639   -2.4539 C   0  0  0  0  0  0  0  0  0  0  0  0
    2.9664   -3.3660   -3.9791 C   0  0  0  0  0  0  0  0  0  0  0  0
    1.9867   -3.7638   -1.8969 C   0  0  0  0  0  0  0  0  0  0  0  0
    4.5368   -1.8356   -0.4144 C   0  0  2  0  0  0  0  0  0  0  0  0
    5.4460   -0.8391   -0.8991 O   0  0  0  0  0  0  0  0  0  0  0  0
    4.4918   -1.1184    1.0904 C   0  0  1  0  0  0  0  0  0  0  0  0
    3.6774    0.1794    1.1028 C   0  0  0  0  0  0  0  0  0  0  0  0
    5.9712   -0.8980    1.5531 C   0  0  1  0  0  0  0  0  0  0  0  0
    6.0589   -0.3442    2.8650 O   0  0  0  0  0  0  0  0  0  0  0  0
    7.5238   -4.0711   -1.3117 H   0  0  0  0  0  0  0  0  0  0  0  0
    8.5081   -3.3973    0.0826 H   0  0  0  0  0  0  0  0  0  0  0  0
    7.2598   -2.7340    2.0052 H   0  0  0  0  0  0  0  0  0  0  0  0
    5.3656   -2.7650    4.0927 H   0  0  0  0  0  0  0  0  0  0  0  0
    2.6908   -2.8169    4.3580 H   0  0  0  0  0  0  0  0  0  0  0  0
    4.8611   -5.1011    4.0166 H   0  0  0  0  0  0  0  0  0  0  0  0
    3.2400   -4.8772    3.4608 H   0  0  0  0  0  0  0  0  0  0  0  0
    5.7758   -5.1668    1.7400 H   0  0  0  0  0  0  0  0  0  0  0  0
    3.2381   -6.8218    1.8038 H   0  0  0  0  0  0  0  0  0  0  0  0
    4.7608   -7.2082    2.6002 H   0  0  0  0  0  0  0  0  0  0  0  0
    4.6829   -7.1411    0.8460 H   0  0  0  0  0  0  0  0  0  0  0  0
    3.9010   -5.2199   -0.1886 H   0  0  0  0  0  0  0  0  0  0  0  0
    1.9607   -4.6946    1.1586 H   0  0  0  0  0  0  0  0  0  0  0  0
    0.2916   -1.4889    3.7735 H   0  0  0  0  0  0  0  0  0  0  0  0
    0.6184   -1.0382    2.0973 H   0  0  0  0  0  0  0  0  0  0  0  0
    1.8202   -0.7256    3.3595 H   0  0  0  0  0  0  0  0  0  0  0  0
    5.0654   -4.5842   -2.2572 H   0  0  0  0  0  0  0  0  0  0  0  0
    6.2121   -2.2367   -2.5233 H   0  0  0  0  0  0  0  0  0  0  0  0
    5.1702   -2.5514   -3.8151 H   0  0  0  0  0  0  0  0  0  0  0  0
    2.8469    0.7021   -3.8097 H   0  0  0  0  0  0  0  0  0  0  0  0
    2.9013   -0.9079   -4.3981 H   0  0  0  0  0  0  0  0  0  0  0  0
    4.4069   -0.0457   -3.9461 H   0  0  0  0  0  0  0  0  0  0  0  0
    1.9375   -3.0864   -4.2118 H   0  0  0  0  0  0  0  0  0  0  0  0
    3.0975   -4.4244   -4.2422 H   0  0  0  0  0  0  0  0  0  0  0  0
    3.4698   -2.7472   -4.7210 H   0  0  0  0  0  0  0  0  0  0  0  0
    1.2875   -3.0152   -1.5423 H   0  0  0  0  0  0  0  0  0  0  0  0
    2.1519   -4.5406   -1.1847 H   0  0  0  0  0  0  0  0  0  0  0  0
    1.4160   -4.3241   -2.6258 H   0  0  0  0  0  0  0  0  0  0  0  0
    4.9628   -0.0272   -0.9339 H   0  0  0  0  0  0  0  0  0  0  0  0
    4.1727    0.9413    0.5059 H   0  0  0  0  0  0  0  0  0  0  0  0
    3.5800    0.5732    2.1159 H   0  0  0  0  0  0  0  0  0  0  0  0
    2.6722    0.0237    0.7036 H   0  0  0  0  0  0  0  0  0  0  0  0
    6.5984   -0.2583    0.9370 H   0  0  0  0  0  0  0  0  0  0  0  0
    5.5781   -0.9025    3.4490 H   0  0  0  0  0  0  0  0  0  0  0  0
  1  2  2  0
  1 32  1  0
  1 33  1  0
 17  2  1  6
  2  3  1  0
  3 30  1  0
  3  4  1  0
  3 34  1  1
  5  4  1  6
  5 14  1  0
  5 28  1  0
  5  6  1  0
  6  7  1  0
  6  8  1  0
  6 35  1  1
  7 36  1  0
  8  9  1  0
  8 37  1  0
  8 38  1  0
  9 10  1  0
  9 11  1  0
  9 39  1  6
 10 40  1  0
 10 41  1  0
 10 42  1  0
 11 12  1  0
 11 17  1  0
 11 43  1  6
 12 14  1  0
 12 13  1  0
 12 44  1  1
 13 14  1  0
 14 15  1  1
 15 16  1  0
 16 45  1  0
 16 46  1  0
 16 47  1  0
 17 26  1  0
 17 18  1  0
 18 23  1  0
 18 19  1  0
 18 48  1  6
 19 20  1  0
 19 49  1  0
 19 50  1  0
 20 21  1  6
 20 23  1  0
 20 26  1  0
 21 22  1  0
 22 51  1  0
 22 52  1  0
 22 53  1  0
 23 24  1  0
 23 25  1  0
 24 54  1  0
 24 55  1  0
 24 56  1  0
 25 57  1  0
 25 58  1  0
 25 59  1  0
 26 27  1  6
 26 28  1  0
 27 60  1  0
 28 29  1  6
 28 30  1  0
 29 61  1  0
 29 62  1  0
 29 63  1  0
 30 31  1  0
 30 64  1  6
 31 65  1  0
M  END
>  <i_m_ct_stereo_status>  (357) 
1

>  <s_m_source_file>  (357) 
/var/tmp/pbs.5076255.sched01/tmpbvzcvm50/120d7_yi5_y.sdf

>  <i_m_source_file_index>  (357) 
25

>  <i_lp_mmshare_version>  (357) 
48012

>  <i_f3d_flags>  (357) 
0

>  <s_epik_input>  (357) 
W0NIMl09QzFbQ0BIXShPMilbQ0BIXShbT0hdKVtDQEBdMyhbQ0gzXSlbQ0BdNChbT0hdKVtDQF0oT1tDSDNdKShDNShbQ0gzXSlbQ0gzXSlbQ0gyXVtDQEhdNVtDQEBdMTRbQ0BASF0oW0NASF0oW0NIM10pW0NIMl1bQ0BASF02W09IXSlbQ0BIXShPNylbQ0BdNyhbQ0BAXTIzNilPW0NIM10=

>  <s_epik_cmdline>  (357) 
J2VwaWtfcHl0aG9uJywgJy1waHQnLCAnMi4wJywgJy1waCcsICc3LjAnLCAnLXRuJywgJzgnLCAnLW1hJywgJzIwMCcsICctaW1hZScsICc8aW5maWxlLm1hZT4nLCAnLW9tYWUnLCAnPG91dGZpbGUubWFlPic=

>  <r_lp_tautomer_probability>  (357) 
1

>  <r_epik_Ionization_Penalty>  (357) 
2.58821e-07

>  <r_epik_Ionization_Penalty_Charging>  (357) 
0

>  <r_epik_Ionization_Penalty_Neutral>  (357) 
2.58821e-07

>  <r_epik_State_Penalty>  (357) 
-0

>  <r_epik_Charging_Adjusted_Penalty>  (357) 
0

>  <i_epik_Tot_Q>  (357) 
0

>  <i_epik_Tot_abs_Q>  (357) 
0

>  <s_lp_Force_Field>  (357) 
OPLS3e

>  <r_lp_Energy>  (357) 
328.976

>  <b_lp_Chiralities_Consistent>  (357) 
1

>  <s_lp_Variant>  (357) 
106:0-1

>  <s_i_glide_gridfile>  (357) 
pfpi4k_grid

>  <i_i_glide_lignum>  (357) 
25

>  <i_i_glide_rotatable_bonds>  (357) 
5

>  <r_i_docking_score>  (357) 
-2.92943

>  <r_i_glide_ligand_efficiency>  (357) 
-0.0944976

>  <r_i_glide_ligand_efficiency_sa>  (357) 
-0.296853

>  <r_i_glide_ligand_efficiency_ln>  (357) 
-0.660675

>  <r_i_glide_gscore>  (357) 
-2.92943

>  <r_i_glide_lipo>  (357) 
-1.1001

>  <r_i_glide_hbond>  (357) 
-0.0170694

>  <r_i_glide_metal>  (357) 
-0

>  <r_i_glide_rewards>  (357) 
-0.946437

>  <r_i_glide_evdw>  (357) 
-14.3435

>  <r_i_glide_ecoul>  (357) 
-0.900084

>  <r_i_glide_erotb>  (357) 
0

>  <r_i_glide_esite>  (357) 
-0.0136316

>  <r_i_glide_emodel>  (357) 
-21.4987

>  <r_i_glide_energy>  (357) 
-15.2436

>  <r_i_glide_einternal>  (357) 
2.89682

>  <r_i_glide_intrahb_reward>  (357) 
-0.5

>  <i_i_glide_confnum>  (357) 
1

>  <i_i_glide_posenum>  (357) 
23

>  <r_i_glide_eff_state_penalty>  (357) 
0

>  <ligand_id>  (357) 
106

>  <original_smiles>  (357) 
C=C1C2OC34C(O)CC(C)C(C5OC53OC)C13C1CC(OC)(C1(C)C)C3(O)C4(C)C2O

>  <smiles>  (357) 
[H]OC1([H])C([H])([H])C([H])(C([H])([H])[H])C2([H])C3([H])OC3(OC([H])([H])[H])C13OC1([H])C(=C([H])[H])C24C2([H])C([H])([H])C(OC([H])([H])[H])(C4(O[H])C3(C([H])([H])[H])C1([H])O[H])C2(C([H])([H])[H])C([H])([H])[H]

$$$$
106:0:1
     RDKit          3D

 65 71  0  0  1  0  0  0  0  0999 V2000
    7.5390   -3.5870   -0.3538 C   0  0  0  0  0  0  0  0  0  0  0  0
    6.3840   -3.1286    0.1663 C   0  0  0  0  0  0  0  0  0  0  0  0
    6.3943   -2.3402    1.4586 C   0  0  2  0  0  0  0  0  0  0  0  0
    5.2267   -2.7311    2.0750 O   0  0  0  0  0  0  0  0  0  0  0  0
    3.9751   -2.0440    2.2234 C   0  0  2  0  0  0  0  0  0  0  0  0
    4.3965   -2.9170    3.5163 C   0  0  1  0  0  0  0  0  0  0  0  0
    3.5495   -2.5685    4.5907 O   0  0  0  0  0  0  0  0  0  0  0  0
    4.2116   -4.5107    3.2428 C   0  0  0  0  0  0  0  0  0  0  0  0
    4.6330   -5.1357    1.8088 C   0  0  1  0  0  0  0  0  0  0  0  0
    4.2333   -6.6189    1.7700 C   0  0  0  0  0  0  0  0  0  0  0  0
    4.0554   -4.3810    0.5129 C   0  0  1  0  0  0  0  0  0  0  0  0
    2.6901   -3.8749    0.9717 C   0  0  2  0  0  0  0  0  0  0  0  0
    2.2232   -2.6213    0.4765 O   0  0  0  0  0  0  0  0  0  0  0  0
    2.6497   -2.6592    1.8228 C   0  0  2  0  0  0  0  0  0  0  0  0
    1.5714   -2.6228    2.7543 O   0  0  0  0  0  0  0  0  0  0  0  0
    1.0490   -1.3119    2.9053 C   0  0  0  0  0  0  0  0  0  0  0  0
    4.9580   -3.3225   -0.3868 C   0  0  2  0  0  0  0  0  0  0  0  0
    4.7103   -3.6240   -1.9145 C   0  0  2  0  0  0  0  0  0  0  0  0
    5.1936   -2.4653   -2.7710 C   0  0  0  0  0  0  0  0  0  0  0  0
    3.9710   -1.8298   -1.9328 C   0  0  1  0  0  0  0  0  0  0  0  0
    3.2904   -0.6634   -2.3787 O   0  0  0  0  0  0  0  0  0  0  0  0
    3.5332   -0.1552   -3.6978 C   0  0  0  0  0  0  0  0  0  0  0  0
    3.3102   -3.1618   -2.4864 C   0  0  0  0  0  0  0  0  0  0  0  0
    2.9948   -3.3492   -4.0154 C   0  0  0  0  0  0  0  0  0  0  0  0
    2.0093   -3.7830   -1.9335 C   0  0  0  0  0  0  0  0  0  0  0  0
    4.5543   -1.8232   -0.4449 C   0  0  2  0  0  0  0  0  0  0  0  0
    5.4702   -0.8393   -0.9476 O   0  0  0  0  0  0  0  0  0  0  0  0
    4.4945   -1.0898    1.0478 C   0  0  1  0  0  0  0  0  0  0  0  0
    3.7033    0.2262    1.0473 C   0  0  0  0  0  0  0  0  0  0  0  0
    5.9833   -0.8777    1.4975 C   0  0  1  0  0  0  0  0  0  0  0  0
    6.1050   -0.3283    2.7987 O   0  0  0  0  0  0  0  0  0  0  0  0
    7.5156   -4.1200   -1.2646 H   0  0  0  0  0  0  0  0  0  0  0  0
    8.5032   -3.4296    0.1120 H   0  0  0  0  0  0  0  0  0  0  0  0
    7.2256   -2.7348    2.0146 H   0  0  0  0  0  0  0  0  0  0  0  0
    5.3425   -2.6863    4.0631 H   0  0  0  0  0  0  0  0  0  0  0  0
    3.6857   -1.6556    4.7967 H   0  0  0  0  0  0  0  0  0  0  0  0
    4.7740   -5.0259    4.0157 H   0  0  0  0  0  0  0  0  0  0  0  0
    3.1686   -4.7695    3.4421 H   0  0  0  0  0  0  0  0  0  0  0  0
    5.7235   -5.1395    1.7495 H   0  0  0  0  0  0  0  0  0  0  0  0
    3.1513   -6.7477    1.8037 H   0  0  0  0  0  0  0  0  0  0  0  0
    4.6576   -7.1511    2.6214 H   0  0  0  0  0  0  0  0  0  0  0  0
    4.5995   -7.1019    0.8634 H   0  0  0  0  0  0  0  0  0  0  0  0
    3.8705   -5.1798   -0.2003 H   0  0  0  0  0  0  0  0  0  0  0  0
    1.9148   -4.6215    1.1136 H   0  0  0  0  0  0  0  0  0  0  0  0
    0.2650   -1.3456    3.6599 H   0  0  0  0  0  0  0  0  0  0  0  0
    0.6180   -0.9108    1.9842 H   0  0  0  0  0  0  0  0  0  0  0  0
    1.8122   -0.6224    3.2626 H   0  0  0  0  0  0  0  0  0  0  0  0
    5.0659   -4.5864   -2.2647 H   0  0  0  0  0  0  0  0  0  0  0  0
    6.2446   -2.2657   -2.5435 H   0  0  0  0  0  0  0  0  0  0  0  0
    5.2083   -2.5853   -3.8377 H   0  0  0  0  0  0  0  0  0  0  0  0
    3.0383    0.8062   -3.8445 H   0  0  0  0  0  0  0  0  0  0  0  0
    3.1842   -0.7694   -4.5024 H   0  0  0  0  0  0  0  0  0  0  0  0
    4.6031    0.0694   -3.8185 H   0  0  0  0  0  0  0  0  0  0  0  0
    1.9721   -3.0504   -4.2512 H   0  0  0  0  0  0  0  0  0  0  0  0
    3.1248   -4.4106   -4.2476 H   0  0  0  0  0  0  0  0  0  0  0  0
    3.5328   -2.7655   -4.7479 H   0  0  0  0  0  0  0  0  0  0  0  0
    1.3167   -3.0311   -1.5855 H   0  0  0  0  0  0  0  0  0  0  0  0
    2.1412   -4.5981   -1.2356 H   0  0  0  0  0  0  0  0  0  0  0  0
    1.4442   -4.2980   -2.6919 H   0  0  0  0  0  0  0  0  0  0  0  0
    4.9852   -0.0276   -0.9959 H   0  0  0  0  0  0  0  0  0  0  0  0
    4.2185    0.9829    0.4798 H   0  0  0  0  0  0  0  0  0  0  0  0
    3.5966    0.6255    2.0578 H   0  0  0  0  0  0  0  0  0  0  0  0
    2.7099    0.0868    0.6147 H   0  0  0  0  0  0  0  0  0  0  0  0
    6.6216   -0.2489    0.8730 H   0  0  0  0  0  0  0  0  0  0  0  0
    6.9617    0.0735    2.8312 H   0  0  0  0  0  0  0  0  0  0  0  0
  1  2  2  0
  1 32  1  0
  1 33  1  0
 17  2  1  1
  2  3  1  0
  3 30  1  0
  3  4  1  0
  3 34  1  1
  5  4  1  6
  5 14  1  0
  5 28  1  0
  5  6  1  0
  6  7  1  0
  6  8  1  0
  6 35  1  1
  7 36  1  0
  8  9  1  0
  8 37  1  0
  8 38  1  0
  9 10  1  0
  9 11  1  0
  9 39  1  6
 10 40  1  0
 10 41  1  0
 10 42  1  0
 11 12  1  0
 11 17  1  0
 11 43  1  6
 12 14  1  0
 12 13  1  0
 12 44  1  1
 13 14  1  0
 14 15  1  1
 15 16  1  0
 16 45  1  0
 16 46  1  0
 16 47  1  0
 17 26  1  0
 17 18  1  0
 18 23  1  0
 18 19  1  0
 18 48  1  6
 19 20  1  0
 19 49  1  0
 19 50  1  0
 20 21  1  6
 20 23  1  0
 20 26  1  0
 21 22  1  0
 22 51  1  0
 22 52  1  0
 22 53  1  0
 23 24  1  0
 23 25  1  0
 24 54  1  0
 24 55  1  0
 24 56  1  0
 25 57  1  0
 25 58  1  0
 25 59  1  0
 26 27  1  6
 26 28  1  0
 27 60  1  0
 28 29  1  6
 28 30  1  0
 29 61  1  0
 29 62  1  0
 29 63  1  0
 30 31  1  0
 30 64  1  6
 31 65  1  0
M  END
>  <i_m_ct_stereo_status>  (358) 
1

>  <s_m_source_file>  (358) 
/var/tmp/pbs.5076255.sched01/tmpbvzcvm50/120d7_yi5_y.sdf

>  <i_m_source_file_index>  (358) 
25

>  <i_lp_mmshare_version>  (358) 
48012

>  <i_f3d_flags>  (358) 
0

>  <s_epik_input>  (358) 
W0NIMl09QzFbQ0BIXShPMilbQ0BIXShbT0hdKVtDQEBdMyhbQ0gzXSlbQ0BdNChbT0hdKVtDQF0oT1tDSDNdKShDNShbQ0gzXSlbQ0gzXSlbQ0gyXVtDQEhdNVtDQEBdMTRbQ0BASF0oW0NASF0oW0NIM10pW0NIMl1bQ0BASF02W09IXSlbQ0BIXShPNylbQ0BdNyhbQ0BAXTIzNilPW0NIM10=

>  <s_epik_cmdline>  (358) 
J2VwaWtfcHl0aG9uJywgJy1waHQnLCAnMi4wJywgJy1waCcsICc3LjAnLCAnLXRuJywgJzgnLCAnLW1hJywgJzIwMCcsICctaW1hZScsICc8aW5maWxlLm1hZT4nLCAnLW9tYWUnLCAnPG91dGZpbGUubWFlPic=

>  <r_lp_tautomer_probability>  (358) 
1

>  <r_epik_Ionization_Penalty>  (358) 
2.58821e-07

>  <r_epik_Ionization_Penalty_Charging>  (358) 
0

>  <r_epik_Ionization_Penalty_Neutral>  (358) 
2.58821e-07

>  <r_epik_State_Penalty>  (358) 
-0

>  <r_epik_Charging_Adjusted_Penalty>  (358) 
0

>  <i_epik_Tot_Q>  (358) 
0

>  <i_epik_Tot_abs_Q>  (358) 
0

>  <s_lp_Force_Field>  (358) 
OPLS3e

>  <r_lp_Energy>  (358) 
328.976

>  <b_lp_Chiralities_Consistent>  (358) 
1

>  <s_lp_Variant>  (358) 
106:0-1

>  <s_i_glide_gridfile>  (358) 
pfpi4k_grid

>  <i_i_glide_lignum>  (358) 
25

>  <i_i_glide_rotatable_bonds>  (358) 
5

>  <r_i_docking_score>  (358) 
-2.59475

>  <r_i_glide_ligand_efficiency>  (358) 
-0.0837017

>  <r_i_glide_ligand_efficiency_sa>  (358) 
-0.262939

>  <r_i_glide_ligand_efficiency_ln>  (358) 
-0.585196

>  <r_i_glide_gscore>  (358) 
-2.59475

>  <r_i_glide_lipo>  (358) 
-1.03344

>  <r_i_glide_hbond>  (358) 
-0.017806

>  <r_i_glide_metal>  (358) 
-0

>  <r_i_glide_rewards>  (358) 
-0.446437

>  <r_i_glide_evdw>  (358) 
-13.3237

>  <r_i_glide_ecoul>  (358) 
-2.76782

>  <r_i_glide_erotb>  (358) 
0

>  <r_i_glide_esite>  (358) 
-0.0157178

>  <r_i_glide_emodel>  (358) 
-15.9615

>  <r_i_glide_energy>  (358) 
-16.0915

>  <r_i_glide_einternal>  (358) 
3.37126

>  <r_i_glide_intrahb_reward>  (358) 
-0

>  <i_i_glide_confnum>  (358) 
2

>  <i_i_glide_posenum>  (358) 
17

>  <r_i_glide_eff_state_penalty>  (358) 
0

>  <ligand_id>  (358) 
106

>  <original_smiles>  (358) 
C=C1C2OC34C(O)CC(C)C(C5OC53OC)C13C1CC(OC)(C1(C)C)C3(O)C4(C)C2O

>  <smiles>  (358) 
[H]OC1([H])C([H])([H])C([H])(C([H])([H])[H])C2([H])C3([H])OC3(OC([H])([H])[H])C13OC1([H])C(=C([H])[H])C24C2([H])C([H])([H])C(OC([H])([H])[H])(C4(O[H])C3(C([H])([H])[H])C1([H])O[H])C2(C([H])([H])[H])C([H])([H])[H]

$$$$
106:0:2
     RDKit          3D

 65 71  0  0  1  0  0  0  0  0999 V2000
   -0.6476    4.4582    8.8182 C   0  0  0  0  0  0  0  0  0  0  0  0
    0.0584    3.4710    8.2313 C   0  0  0  0  0  0  0  0  0  0  0  0
    1.0251    2.5481    9.0074 C   0  0  2  0  0  0  0  0  0  0  0  0
    2.0559    2.3721    8.0921 O   0  0  0  0  0  0  0  0  0  0  0  0
    2.3147    1.2495    7.2180 C   0  0  2  0  0  0  0  0  0  0  0  0
    3.6537    1.9753    7.7473 C   0  0  1  0  0  0  0  0  0  0  0  0
    4.7839    1.1644    7.5226 O   0  0  0  0  0  0  0  0  0  0  0  0
    3.8890    3.3942    6.9857 C   0  0  0  0  0  0  0  0  0  0  0  0
    2.6152    4.3245    6.6305 C   0  0  1  0  0  0  0  0  0  0  0  0
    3.0986    5.5379    5.8121 C   0  0  0  0  0  0  0  0  0  0  0  0
    1.3711    3.6038    5.9167 C   0  0  1  0  0  0  0  0  0  0  0  0
    1.9933    2.5199    5.0191 C   0  0  2  0  0  0  0  0  0  0  0  0
    1.3465    1.2530    4.8533 O   0  0  0  0  0  0  0  0  0  0  0  0
    2.4681    1.3029    5.6872 C   0  0  2  0  0  0  0  0  0  0  0  0
    3.6292    0.7418    5.0822 O   0  0  0  0  0  0  0  0  0  0  0  0
    3.6067   -0.6798    5.0774 C   0  0  0  0  0  0  0  0  0  0  0  0
    0.0208    3.1185    6.7282 C   0  0  2  0  0  0  0  0  0  0  0  0
   -1.2327    3.5549    5.8477 C   0  0  2  0  0  0  0  0  0  0  0  0
   -2.4534    2.7775    6.2978 C   0  0  0  0  0  0  0  0  0  0  0  0
   -1.4810    1.6211    5.7166 C   0  0  1  0  0  0  0  0  0  0  0  0
   -2.1139    0.3892    5.3623 O   0  0  0  0  0  0  0  0  0  0  0  0
   -1.3675   -0.4197    4.4541 C   0  0  0  0  0  0  0  0  0  0  0  0
   -1.4884    2.6973    4.5358 C   0  0  0  0  0  0  0  0  0  0  0  0
   -2.8068    2.8801    3.6444 C   0  0  0  0  0  0  0  0  0  0  0  0
   -0.4738    2.7603    3.3681 C   0  0  0  0  0  0  0  0  0  0  0  0
   -0.3332    1.6025    6.8522 C   0  0  2  0  0  0  0  0  0  0  0  0
   -1.3471    1.1246    7.7619 O   0  0  0  0  0  0  0  0  0  0  0  0
    0.8653    0.7183    7.5663 C   0  0  1  0  0  0  0  0  0  0  0  0
    0.7911   -0.8079    7.3477 C   0  0  0  0  0  0  0  0  0  0  0  0
    0.7886    1.0444    9.0949 C   0  0  1  0  0  0  0  0  0  0  0  0
    1.7688    0.4001    9.8753 O   0  0  0  0  0  0  0  0  0  0  0  0
   -1.3167    5.0876    8.2516 H   0  0  0  0  0  0  0  0  0  0  0  0
   -0.5686    4.6368    9.8872 H   0  0  0  0  0  0  0  0  0  0  0  0
    1.3757    3.0079    9.9505 H   0  0  0  0  0  0  0  0  0  0  0  0
    3.8553    2.0680    8.8422 H   0  0  0  0  0  0  0  0  0  0  0  0
    5.5544    1.6288    7.8413 H   0  0  0  0  0  0  0  0  0  0  0  0
    4.5779    3.9844    7.5959 H   0  0  0  0  0  0  0  0  0  0  0  0
    4.4391    3.2080    6.0568 H   0  0  0  0  0  0  0  0  0  0  0  0
    2.2603    4.7668    7.5604 H   0  0  0  0  0  0  0  0  0  0  0  0
    3.4746    5.2400    4.8322 H   0  0  0  0  0  0  0  0  0  0  0  0
    3.9045    6.0660    6.3260 H   0  0  0  0  0  0  0  0  0  0  0  0
    2.2958    6.2596    5.6531 H   0  0  0  0  0  0  0  0  0  0  0  0
    1.0062    4.3696    5.2454 H   0  0  0  0  0  0  0  0  0  0  0  0
    2.5744    2.8648    4.1506 H   0  0  0  0  0  0  0  0  0  0  0  0
    4.5402   -1.0589    4.6606 H   0  0  0  0  0  0  0  0  0  0  0  0
    2.7849   -1.0674    4.4695 H   0  0  0  0  0  0  0  0  0  0  0  0
    3.5143   -1.0859    6.0876 H   0  0  0  0  0  0  0  0  0  0  0  0
   -1.3878    4.6228    5.7255 H   0  0  0  0  0  0  0  0  0  0  0  0
   -2.6288    2.9601    7.3626 H   0  0  0  0  0  0  0  0  0  0  0  0
   -3.4315    3.0682    5.8813 H   0  0  0  0  0  0  0  0  0  0  0  0
   -1.9040   -1.3514    4.2640 H   0  0  0  0  0  0  0  0  0  0  0  0
   -0.4066   -0.6750    4.8669 H   0  0  0  0  0  0  0  0  0  0  0  0
   -1.2087    0.0461    3.4728 H   0  0  0  0  0  0  0  0  0  0  0  0
   -2.7567    2.2786    2.7381 H   0  0  0  0  0  0  0  0  0  0  0  0
   -2.9491    3.9153    3.3421 H   0  0  0  0  0  0  0  0  0  0  0  0
   -3.7439    2.5353    4.0494 H   0  0  0  0  0  0  0  0  0  0  0  0
   -0.0558    1.7903    3.0986 H   0  0  0  0  0  0  0  0  0  0  0  0
    0.3338    3.4743    3.4996 H   0  0  0  0  0  0  0  0  0  0  0  0
   -0.9013    3.1241    2.4367 H   0  0  0  0  0  0  0  0  0  0  0  0
   -1.8400    1.8772    8.0728 H   0  0  0  0  0  0  0  0  0  0  0  0
   -0.1569   -1.2266    7.6995 H   0  0  0  0  0  0  0  0  0  0  0  0
    1.5855   -1.3322    7.8968 H   0  0  0  0  0  0  0  0  0  0  0  0
    0.9273   -1.0834    6.3061 H   0  0  0  0  0  0  0  0  0  0  0  0
   -0.1291    0.8177    9.6368 H   0  0  0  0  0  0  0  0  0  0  0  0
    2.6235    0.6234    9.5082 H   0  0  0  0  0  0  0  0  0  0  0  0
  1  2  2  0
  1 32  1  0
  1 33  1  0
 17  2  1  1
  2  3  1  0
  3 30  1  0
  3  4  1  0
  3 34  1  1
  5  4  1  6
  5 14  1  0
  5 28  1  0
  5  6  1  0
  6  7  1  0
  6  8  1  0
  6 35  1  1
  7 36  1  0
  8  9  1  0
  8 37  1  0
  8 38  1  0
  9 10  1  0
  9 11  1  0
  9 39  1  1
 10 40  1  0
 10 41  1  0
 10 42  1  0
 11 12  1  0
 11 17  1  0
 11 43  1  6
 12 14  1  0
 12 13  1  0
 12 44  1  6
 13 14  1  0
 14 15  1  6
 15 16  1  0
 16 45  1  0
 16 46  1  0
 16 47  1  0
 17 26  1  0
 17 18  1  0
 18 23  1  0
 18 19  1  0
 18 48  1  6
 19 20  1  0
 19 49  1  0
 19 50  1  0
 20 21  1  6
 20 23  1  0
 20 26  1  0
 21 22  1  0
 22 51  1  0
 22 52  1  0
 22 53  1  0
 23 24  1  0
 23 25  1  0
 24 54  1  0
 24 55  1  0
 24 56  1  0
 25 57  1  0
 25 58  1  0
 25 59  1  0
 26 27  1  1
 26 28  1  0
 27 60  1  0
 28 29  1  1
 28 30  1  0
 29 61  1  0
 29 62  1  0
 29 63  1  0
 30 31  1  0
 30 64  1  1
 31 65  1  0
M  END
>  <i_m_ct_stereo_status>  (359) 
1

>  <s_m_source_file>  (359) 
/var/tmp/pbs.5076255.sched01/tmpbvzcvm50/120d7_yi5_y.sdf

>  <i_m_source_file_index>  (359) 
25

>  <i_lp_mmshare_version>  (359) 
48012

>  <i_f3d_flags>  (359) 
0

>  <s_epik_input>  (359) 
W0NIMl09QzFbQ0BIXShPMilbQ0BIXShbT0hdKVtDQEBdMyhbQ0gzXSlbQ0BdNChbT0hdKVtDQF0oT1tDSDNdKShDNShbQ0gzXSlbQ0gzXSlbQ0gyXVtDQEhdNVtDQEBdMTRbQ0BASF0oW0NASF0oW0NIM10pW0NIMl1bQ0BASF02W09IXSlbQ0BIXShPNylbQ0BdNyhbQ0BAXTIzNilPW0NIM10=

>  <s_epik_cmdline>  (359) 
J2VwaWtfcHl0aG9uJywgJy1waHQnLCAnMi4wJywgJy1waCcsICc3LjAnLCAnLXRuJywgJzgnLCAnLW1hJywgJzIwMCcsICctaW1hZScsICc8aW5maWxlLm1hZT4nLCAnLW9tYWUnLCAnPG91dGZpbGUubWFlPic=

>  <r_lp_tautomer_probability>  (359) 
1

>  <r_epik_Ionization_Penalty>  (359) 
2.58821e-07

>  <r_epik_Ionization_Penalty_Charging>  (359) 
0

>  <r_epik_Ionization_Penalty_Neutral>  (359) 
2.58821e-07

>  <r_epik_State_Penalty>  (359) 
-0

>  <r_epik_Charging_Adjusted_Penalty>  (359) 
0

>  <i_epik_Tot_Q>  (359) 
0

>  <i_epik_Tot_abs_Q>  (359) 
0

>  <s_lp_Force_Field>  (359) 
OPLS3e

>  <r_lp_Energy>  (359) 
328.976

>  <b_lp_Chiralities_Consistent>  (359) 
1

>  <s_lp_Variant>  (359) 
106:0-1

>  <s_i_glide_gridfile>  (359) 
pfpi4k_grid

>  <i_i_glide_lignum>  (359) 
25

>  <i_i_glide_rotatable_bonds>  (359) 
5

>  <r_i_docking_score>  (359) 
-1.77749

>  <r_i_glide_ligand_efficiency>  (359) 
-0.0573383

>  <r_i_glide_ligand_efficiency_sa>  (359) 
-0.180121

>  <r_i_glide_ligand_efficiency_ln>  (359) 
-0.400878

>  <r_i_glide_gscore>  (359) 
-1.77749

>  <r_i_glide_lipo>  (359) 
-0.133793

>  <r_i_glide_hbond>  (359) 
0

>  <r_i_glide_metal>  (359) 
-0

>  <r_i_glide_rewards>  (359) 
-0.446437

>  <r_i_glide_evdw>  (359) 
-14.874

>  <r_i_glide_ecoul>  (359) 
-3.0237

>  <r_i_glide_erotb>  (359) 
0

>  <r_i_glide_esite>  (359) 
0

>  <r_i_glide_emodel>  (359) 
-18.4107

>  <r_i_glide_energy>  (359) 
-17.8977

>  <r_i_glide_einternal>  (359) 
1.14435

>  <r_i_glide_intrahb_reward>  (359) 
-0

>  <i_i_glide_confnum>  (359) 
2

>  <i_i_glide_posenum>  (359) 
3

>  <r_i_glide_eff_state_penalty>  (359) 
0

>  <ligand_id>  (359) 
106

>  <original_smiles>  (359) 
C=C1C2OC34C(O)CC(C)C(C5OC53OC)C13C1CC(OC)(C1(C)C)C3(O)C4(C)C2O

>  <smiles>  (359) 
[H]OC1([H])C([H])([H])C([H])(C([H])([H])[H])C2([H])C3([H])OC3(OC([H])([H])[H])C13OC1([H])C(=C([H])[H])C24C2([H])C([H])([H])C(OC([H])([H])[H])(C4(O[H])C3(C([H])([H])[H])C1([H])O[H])C2(C([H])([H])[H])C([H])([H])[H]

$$$$
107:0:0
     RDKit          3D

 61 65  0  0  1  0  0  0  0  0999 V2000
    7.4937   -7.6751    3.9241 C   0  0  0  0  0  0  0  0  0  0  0  0
    6.2074   -7.3855    3.1102 C   0  0  2  0  0  0  0  0  0  0  0  0
    5.8957   -8.5015    2.1050 C   0  0  0  0  0  0  0  0  0  0  0  0
    6.4656   -9.5945    2.1578 O   0  0  0  0  0  0  0  0  0  0  0  0
    4.8366   -8.1813    1.0466 C   0  0  0  0  0  0  0  0  0  0  0  0
    4.0798   -9.0419    0.5962 O   0  0  0  0  0  0  0  0  0  0  0  0
    4.7179   -6.7508    0.5380 C   0  0  0  0  0  0  0  0  0  0  0  0
    4.8863   -5.6658    1.6284 C   0  0  1  0  0  0  0  0  0  0  0  0
    3.6614   -5.7413    2.5852 C   0  0  0  0  0  0  0  0  0  0  0  0
    6.1910   -5.9702    2.4555 C   0  0  2  0  0  0  0  0  0  0  0  0
    7.4652   -5.7686    1.6111 C   0  0  0  0  0  0  0  0  0  0  0  0
    7.4765   -4.4229    0.9328 C   0  0  0  0  0  0  0  0  0  0  0  0
    8.4508   -3.6958    1.0760 O   0  0  0  0  0  0  0  0  0  0  0  0
    6.2533   -4.0808    0.0504 C   0  0  1  0  0  0  0  0  0  0  0  0
    4.9637   -4.2254    0.9490 C   0  0  1  0  0  0  0  0  0  0  0  0
    3.6128   -3.8838    0.2451 C   0  0  0  0  0  0  0  0  0  0  0  0
    3.4036   -2.4713   -0.3206 C   0  0  0  0  0  0  0  0  0  0  0  0
    3.9799   -2.2451   -1.7129 C   0  0  2  0  0  0  0  0  0  0  0  0
    3.5290   -0.9135   -2.3227 C   0  0  0  0  0  0  0  0  0  0  0  0
    3.3462   -1.1630   -3.8219 C   0  0  0  0  0  0  0  0  0  0  0  0
    2.9264   -2.6335   -3.8516 C   0  0  0  0  0  0  0  0  0  0  0  0
    3.5480   -3.2719   -2.6753 N   0  0  1  0  0  0  0  0  0  0  0  0
    4.9027   -3.7886   -2.8339 C   0  0  0  0  0  0  0  0  0  0  0  0
    5.4173   -2.6385   -1.9765 C   0  0  2  0  0  0  0  0  0  0  0  0
    6.4681   -2.7985   -0.8485 C   0  0  0  0  0  0  0  0  0  0  0  0
    6.5662   -1.4968   -0.0158 C   0  0  0  0  0  0  0  0  0  0  0  0
    7.8060   -2.9531   -1.6381 C   0  0  0  0  0  0  0  0  0  0  0  0
    7.3567   -8.5673    4.5433 H   0  0  0  0  0  0  0  0  0  0  0  0
    7.7328   -6.8451    4.5907 H   0  0  0  0  0  0  0  0  0  0  0  0
    8.3612   -7.8628    3.2773 H   0  0  0  0  0  0  0  0  0  0  0  0
    5.4097   -7.4259    3.8465 H   0  0  0  0  0  0  0  0  0  0  0  0
    5.4739   -6.6363   -0.2290 H   0  0  0  0  0  0  0  0  0  0  0  0
    3.7534   -6.6552    0.0370 H   0  0  0  0  0  0  0  0  0  0  0  0
    3.6385   -4.8811    3.2619 H   0  0  0  0  0  0  0  0  0  0  0  0
    3.6441   -6.6467    3.1919 H   0  0  0  0  0  0  0  0  0  0  0  0
    2.7272   -5.7730    2.0182 H   0  0  0  0  0  0  0  0  0  0  0  0
    6.2194   -5.2487    3.2766 H   0  0  0  0  0  0  0  0  0  0  0  0
    8.3397   -5.8081    2.2544 H   0  0  0  0  0  0  0  0  0  0  0  0
    7.5878   -6.5371    0.8452 H   0  0  0  0  0  0  0  0  0  0  0  0
    6.2009   -4.8995   -0.6688 H   0  0  0  0  0  0  0  0  0  0  0  0
    5.0526   -3.4993    1.7631 H   0  0  0  0  0  0  0  0  0  0  0  0
    3.3389   -4.6505   -0.4858 H   0  0  0  0  0  0  0  0  0  0  0  0
    2.8458   -3.9255    1.0140 H   0  0  0  0  0  0  0  0  0  0  0  0
    2.3360   -2.3010   -0.3340 H   0  0  0  0  0  0  0  0  0  0  0  0
    3.7884   -1.7249    0.3759 H   0  0  0  0  0  0  0  0  0  0  0  0
    2.5574   -0.6366   -1.9267 H   0  0  0  0  0  0  0  0  0  0  0  0
    4.2294   -0.0879   -2.1232 H   0  0  0  0  0  0  0  0  0  0  0  0
    2.5914   -0.5053   -4.2799 H   0  0  0  0  0  0  0  0  0  0  0  0
    4.3040   -1.0048   -4.3492 H   0  0  0  0  0  0  0  0  0  0  0  0
    1.8336   -2.6823   -3.7449 H   0  0  0  0  0  0  0  0  0  0  0  0
    3.2034   -3.1171   -4.7852 H   0  0  0  0  0  0  0  0  0  0  0  0
    5.0009   -4.7696   -2.3723 H   0  0  0  0  0  0  0  0  0  0  0  0
    5.2747   -3.7540   -3.8557 H   0  0  0  0  0  0  0  0  0  0  0  0
    5.7775   -1.9053   -2.6988 H   0  0  0  0  0  0  0  0  0  0  0  0
    6.2722   -0.6406   -0.6159 H   0  0  0  0  0  0  0  0  0  0  0  0
    7.5760   -1.3166    0.3521 H   0  0  0  0  0  0  0  0  0  0  0  0
    5.9171   -1.4998    0.8476 H   0  0  0  0  0  0  0  0  0  0  0  0
    7.9546   -2.1152   -2.3148 H   0  0  0  0  0  0  0  0  0  0  0  0
    7.8283   -3.8565   -2.2495 H   0  0  0  0  0  0  0  0  0  0  0  0
    8.7263   -2.9466   -1.0576 H   0  0  0  0  0  0  0  0  0  0  0  0
    2.9582   -3.9829   -2.2615 H   0  0  0  0  0  0  0  0  0  0  0  0
  1  2  1  0
  1 28  1  0
  1 29  1  0
  1 30  1  0
  2 10  1  0
  2  3  1  0
  2 31  1  1
  3  4  2  0
  3  5  1  0
  5  6  2  0
  5  7  1  0
  7  8  1  0
  7 32  1  0
  7 33  1  0
  8 15  1  0
  8  9  1  1
  8 10  1  0
  9 34  1  0
  9 35  1  0
  9 36  1  0
 10 11  1  0
 10 37  1  1
 11 12  1  0
 11 38  1  0
 11 39  1  0
 12 13  2  0
 12 14  1  0
 14 25  1  0
 14 15  1  0
 14 40  1  6
 15 16  1  0
 15 41  1  1
 16 17  1  0
 16 42  1  0
 16 43  1  0
 18 17  1  1
 17 44  1  0
 17 45  1  0
 18 22  1  0
 18 24  1  0
 18 19  1  0
 19 20  1  0
 19 46  1  0
 19 47  1  0
 20 21  1  0
 20 48  1  0
 20 49  1  0
 21 22  1  0
 21 50  1  0
 21 51  1  0
 22 23  1  0
 22 61  1  1
 23 24  1  0
 23 52  1  0
 23 53  1  0
 24 25  1  0
 24 54  1  6
 25 26  1  0
 25 27  1  0
 26 55  1  0
 26 56  1  0
 26 57  1  0
 27 58  1  0
 27 59  1  0
 27 60  1  0
M  CHG  1  22   1
M  END
>  <i_m_ct_stereo_status>  (360) 
1

>  <s_m_source_file>  (360) 
/var/tmp/pbs.5076255.sched01/tmpbvzcvm50/120d7_yi5_y.sdf

>  <i_m_source_file_index>  (360) 
26

>  <i_lp_mmshare_version>  (360) 
48012

>  <i_f3d_flags>  (360) 
0

>  <s_epik_input>  (360) 
Tz1DKFtDSDJdMSlDKD1PKVtDQEBIXShbQ0gzXSlbQ0BASF0oW0NIMl1DMj1PKVtDQEBdMShbQ0gzXSlbQ0BIXShbQ0gyXVtDSDJdMylbQ0BIXTJDKFtDSDNdKShbQ0gzXSlbQ0BIXTRbQ0gyXU4oW0NAQF0zNDUpW0NIMl1bQ0gyXVtDSDJdNQ==

>  <s_epik_cmdline>  (360) 
J2VwaWtfcHl0aG9uJywgJy1waHQnLCAnMi4wJywgJy1waCcsICc3LjAnLCAnLXRuJywgJzgnLCAnLW1hJywgJzIwMCcsICctaW1hZScsICc8aW5maWxlLm1hZT4nLCAnLW9tYWUnLCAnPG91dGZpbGUubWFlPic=

>  <r_lp_tautomer_probability>  (360) 
1

>  <r_epik_Ionization_Penalty>  (360) 
0.000154702

>  <r_epik_Ionization_Penalty_Charging>  (360) 
0.000154702

>  <r_epik_Ionization_Penalty_Neutral>  (360) 
1.58936e-12

>  <r_epik_State_Penalty>  (360) 
-0

>  <r_epik_Charging_Adjusted_Penalty>  (360) 
0.000154702

>  <i_epik_Tot_Q>  (360) 
1

>  <i_epik_Tot_abs_Q>  (360) 
1

>  <s_lp_Force_Field>  (360) 
OPLS3e

>  <r_lp_Energy>  (360) 
55.4743

>  <b_lp_Chiralities_Consistent>  (360) 
1

>  <s_lp_Variant>  (360) 
107:0-1

>  <s_i_glide_gridfile>  (360) 
pfpi4k_grid

>  <i_i_glide_lignum>  (360) 
26

>  <i_i_glide_rotatable_bonds>  (360) 
0

>  <r_i_docking_score>  (360) 
-4.26059

>  <r_i_glide_ligand_efficiency>  (360) 
-0.1578

>  <r_i_glide_ligand_efficiency_sa>  (360) 
-0.473399

>  <r_i_glide_ligand_efficiency_ln>  (360) 
-0.991795

>  <r_i_glide_gscore>  (360) 
-4.26059

>  <r_i_glide_lipo>  (360) 
-0.733214

>  <r_i_glide_hbond>  (360) 
0

>  <r_i_glide_metal>  (360) 
-0

>  <r_i_glide_rewards>  (360) 
-1.13951

>  <r_i_glide_evdw>  (360) 
-31.5846

>  <r_i_glide_ecoul>  (360) 
-5.16867

>  <r_i_glide_erotb>  (360) 
0

>  <r_i_glide_esite>  (360) 
-0.0333354

>  <r_i_glide_emodel>  (360) 
-44.0572

>  <r_i_glide_energy>  (360) 
-36.7533

>  <r_i_glide_einternal>  (360) 
0

>  <r_i_glide_intrahb_reward>  (360) 
-0

>  <i_i_glide_confnum>  (360) 
2

>  <i_i_glide_posenum>  (360) 
1

>  <r_i_glide_eff_state_penalty>  (360) 
0

>  <ligand_id>  (360) 
107

>  <original_smiles>  (360) 
CC1C(=O)C(=O)CC2(C)C1CC(=O)C1C2CCC23CCCN2CC3C1(C)C

>  <smiles>  (360) 
[H]C([H])([H])C1([H])C(=O)C(=O)C([H])([H])C2(C([H])([H])[H])C1([H])C([H])([H])C(=O)C1([H])C2([H])C([H])([H])C([H])([H])C23C([H])([H])C([H])([H])C([H])([H])[N+]2([H])C([H])([H])C3([H])C1(C([H])([H])[H])C([H])([H])[H]

$$$$
108:0:0
     RDKit          3D

 45 48  0  0  1  0  0  0  0  0999 V2000
    3.7663   -1.9909   -1.8822 C   0  0  0  0  0  0  0  0  0  0  0  0
    4.3663   -2.9847   -0.8986 C   0  0  0  0  0  0  0  0  0  0  0  0
    3.7235   -3.8052   -0.0523 C   0  0  0  0  0  0  0  0  0  0  0  0
    4.6945   -4.5512    0.7548 C   0  0  0  0  0  0  0  0  0  0  0  0
    4.4483   -5.6840    1.4711 C   0  0  0  0  0  0  0  0  0  0  0  0
    5.3886   -6.5309    2.2996 C   0  0  1  0  0  0  0  0  0  0  0  0
    6.0272   -5.8160    3.5074 C   0  0  0  0  0  0  0  0  0  0  0  0
    4.3311   -7.5580    2.7330 C   0  0  1  0  0  0  0  0  0  0  0  0
    4.8058   -8.7911    3.4939 C   0  0  0  0  0  0  0  0  0  0  0  0
    3.0215   -6.8567    3.0929 C   0  0  0  0  0  0  0  0  0  0  0  0
    3.1809   -6.5338    1.6027 C   0  0  1  0  0  0  0  0  0  0  0  0
    1.9583   -6.2581    0.7423 C   0  0  0  0  0  0  0  0  0  0  0  0
    3.6971   -7.8740    1.4700 O   0  0  0  0  0  0  0  0  0  0  0  0
    5.9923   -3.7589    0.6313 C   0  0  1  0  0  0  0  0  0  0  0  0
    5.9521   -2.6074    1.6783 C   0  0  0  0  0  0  0  0  0  0  0  0
    7.4126   -4.3247    0.5217 C   0  0  0  0  0  0  0  0  0  0  0  0
    8.1238   -3.2830   -0.4164 C   0  0  0  0  0  0  0  0  0  0  0  0
    7.0229   -2.4305   -1.1171 C   0  0  0  0  0  0  0  0  0  0  0  0
    5.8266   -3.3048   -0.8176 C   0  0  2  0  0  0  0  0  0  0  0  0
    4.0890   -2.2209   -2.8981 H   0  0  0  0  0  0  0  0  0  0  0  0
    4.0627   -0.9669   -1.6409 H   0  0  0  0  0  0  0  0  0  0  0  0
    2.6757   -2.0350   -1.8536 H   0  0  0  0  0  0  0  0  0  0  0  0
    2.6557   -3.8108    0.0624 H   0  0  0  0  0  0  0  0  0  0  0  0
    6.1457   -6.9782    1.6548 H   0  0  0  0  0  0  0  0  0  0  0  0
    6.7709   -5.0828    3.2116 H   0  0  0  0  0  0  0  0  0  0  0  0
    6.5365   -6.5371    4.1467 H   0  0  0  0  0  0  0  0  0  0  0  0
    5.2843   -5.3101    4.1247 H   0  0  0  0  0  0  0  0  0  0  0  0
    5.1624   -8.5292    4.4912 H   0  0  0  0  0  0  0  0  0  0  0  0
    5.6062   -9.3137    2.9687 H   0  0  0  0  0  0  0  0  0  0  0  0
    3.9825   -9.4938    3.6221 H   0  0  0  0  0  0  0  0  0  0  0  0
    2.2003   -7.5394    3.3121 H   0  0  0  0  0  0  0  0  0  0  0  0
    3.0940   -6.0058    3.7747 H   0  0  0  0  0  0  0  0  0  0  0  0
    1.4567   -5.3558    1.0736 H   0  0  0  0  0  0  0  0  0  0  0  0
    1.2409   -7.0752    0.8423 H   0  0  0  0  0  0  0  0  0  0  0  0
    2.2060   -6.1654   -0.3155 H   0  0  0  0  0  0  0  0  0  0  0  0
    6.7907   -1.9162    1.6082 H   0  0  0  0  0  0  0  0  0  0  0  0
    5.9686   -3.0114    2.6851 H   0  0  0  0  0  0  0  0  0  0  0  0
    5.0457   -2.0113    1.6153 H   0  0  0  0  0  0  0  0  0  0  0  0
    7.9240   -4.3835    1.4813 H   0  0  0  0  0  0  0  0  0  0  0  0
    7.4117   -5.3252    0.0826 H   0  0  0  0  0  0  0  0  0  0  0  0
    8.7859   -2.6275    0.1513 H   0  0  0  0  0  0  0  0  0  0  0  0
    8.7443   -3.7951   -1.1521 H   0  0  0  0  0  0  0  0  0  0  0  0
    6.9271   -1.4428   -0.6747 H   0  0  0  0  0  0  0  0  0  0  0  0
    7.2055   -2.3288   -2.1869 H   0  0  0  0  0  0  0  0  0  0  0  0
    5.9231   -4.1696   -1.4804 H   0  0  0  0  0  0  0  0  0  0  0  0
  1  2  1  0
  1 20  1  0
  1 21  1  0
  1 22  1  0
  2 19  1  0
  2  3  2  0
  3  4  1  0
  3 23  1  0
  4  5  2  3
  4 14  1  0
  5 11  1  0
  5  6  1  0
  6  7  1  0
  6  8  1  0
  6 24  1  6
  7 25  1  0
  7 26  1  0
  7 27  1  0
  8 13  1  0
  8  9  1  1
  8 10  1  0
  9 28  1  0
  9 29  1  0
  9 30  1  0
 10 11  1  0
 10 31  1  0
 10 32  1  0
 11 12  1  6
 11 13  1  0
 12 33  1  0
 12 34  1  0
 12 35  1  0
 14 19  1  0
 14 15  1  1
 14 16  1  0
 15 36  1  0
 15 37  1  0
 15 38  1  0
 16 17  1  0
 16 39  1  0
 16 40  1  0
 17 18  1  0
 17 41  1  0
 17 42  1  0
 18 19  1  0
 18 43  1  0
 18 44  1  0
 19 45  1  6
M  END
>  <i_m_ct_stereo_status>  (361) 
1

>  <s_m_source_file>  (361) 
/var/tmp/pbs.5076255.sched01/tmpbvzcvm50/120d7_yi5_y.sdf

>  <i_m_source_file_index>  (361) 
27

>  <i_lp_mmshare_version>  (361) 
48012

>  <i_f3d_flags>  (361) 
0

>  <s_epik_input>  (361) 
W0NIMl0xW0NIMl1bQ0gyXVtDQEBIXShbQ0BdMTJbQ0gzXSlDKFtDSDNdKT1bQ0hdL0MyPUMoW0NAQF0oTzMpKFtDSDJdNClbQ0gzXSlcW0NAQEhdKFtDSDNdKVtDQF0zNFtDSDNd

>  <s_epik_cmdline>  (361) 
J2VwaWtfcHl0aG9uJywgJy1waHQnLCAnMi4wJywgJy1waCcsICc3LjAnLCAnLXRuJywgJzgnLCAnLW1hJywgJzIwMCcsICctaW1hZScsICc8aW5maWxlLm1hZT4nLCAnLW9tYWUnLCAnPG91dGZpbGUubWFlPic=

>  <r_lp_tautomer_probability>  (361) 
1

>  <r_epik_Ionization_Penalty>  (361) 
6.91694e-12

>  <r_epik_Ionization_Penalty_Charging>  (361) 
0

>  <r_epik_Ionization_Penalty_Neutral>  (361) 
6.91694e-12

>  <r_epik_State_Penalty>  (361) 
-0

>  <r_epik_Charging_Adjusted_Penalty>  (361) 
0

>  <i_epik_Tot_Q>  (361) 
0

>  <i_epik_Tot_abs_Q>  (361) 
0

>  <s_lp_Force_Field>  (361) 
OPLS3e

>  <r_lp_Energy>  (361) 
44.445

>  <b_lp_Chiralities_Consistent>  (361) 
1

>  <s_lp_Variant>  (361) 
108:0-1

>  <s_i_glide_gridfile>  (361) 
pfpi4k_grid

>  <i_i_glide_lignum>  (361) 
27

>  <i_i_glide_rotatable_bonds>  (361) 
0

>  <r_i_docking_score>  (361) 
-3.20222

>  <r_i_glide_ligand_efficiency>  (361) 
-0.168538

>  <r_i_glide_ligand_efficiency_sa>  (361) 
-0.449727

>  <r_i_glide_ligand_efficiency_ln>  (361) 
-0.811832

>  <r_i_glide_gscore>  (361) 
-3.20222

>  <r_i_glide_lipo>  (361) 
-0.739389

>  <r_i_glide_hbond>  (361) 
0

>  <r_i_glide_metal>  (361) 
-0

>  <r_i_glide_rewards>  (361) 
-1.64728

>  <r_i_glide_evdw>  (361) 
-16.8854

>  <r_i_glide_ecoul>  (361) 
0.191492

>  <r_i_glide_erotb>  (361) 
0

>  <r_i_glide_esite>  (361) 
0

>  <r_i_glide_emodel>  (361) 
-19.5121

>  <r_i_glide_energy>  (361) 
-16.6939

>  <r_i_glide_einternal>  (361) 
0

>  <r_i_glide_intrahb_reward>  (361) 
-0

>  <i_i_glide_confnum>  (361) 
1

>  <i_i_glide_posenum>  (361) 
1

>  <r_i_glide_eff_state_penalty>  (361) 
0

>  <ligand_id>  (361) 
108

>  <original_smiles>  (361) 
CC1=CC(=C2C(C)C3(C)CC2(C)O3)C2(C)CCCC12

>  <smiles>  (361) 
[H]C1=C(C([H])([H])[H])C2([H])C([H])([H])C([H])([H])C([H])([H])C2(C([H])([H])[H])C1=C1C([H])(C([H])([H])[H])C2(C([H])([H])[H])OC1(C([H])([H])[H])C2([H])[H]

$$$$
108:0:1
     RDKit          3D

 45 48  0  0  1  0  0  0  0  0999 V2000
    3.9405   -3.2893   -3.1213 C   0  0  0  0  0  0  0  0  0  0  0  0
    4.0586   -3.2939   -1.6029 C   0  0  0  0  0  0  0  0  0  0  0  0
    3.2204   -3.8392   -0.7062 C   0  0  0  0  0  0  0  0  0  0  0  0
    3.6958   -3.5674    0.6536 C   0  0  0  0  0  0  0  0  0  0  0  0
    3.3110   -4.2141    1.7892 C   0  0  0  0  0  0  0  0  0  0  0  0
    3.7712   -4.0210    3.2157 C   0  0  1  0  0  0  0  0  0  0  0  0
    3.4803   -2.6310    3.8162 C   0  0  0  0  0  0  0  0  0  0  0  0
    2.8667   -5.1072    3.8195 C   0  0  1  0  0  0  0  0  0  0  0  0
    3.0627   -5.4610    5.2892 C   0  0  0  0  0  0  0  0  0  0  0  0
    1.4732   -5.0580    3.1898 C   0  0  0  0  0  0  0  0  0  0  0  0
    2.3733   -5.4091    1.9981 C   0  0  1  0  0  0  0  0  0  0  0  0
    1.8364   -6.1974    0.8137 C   0  0  0  0  0  0  0  0  0  0  0  0
    3.1187   -6.2204    2.9311 O   0  0  0  0  0  0  0  0  0  0  0  0
    4.6657   -2.4004    0.4973 C   0  0  1  0  0  0  0  0  0  0  0  0
    3.8388   -1.0809    0.4853 C   0  0  0  0  0  0  0  0  0  0  0  0
    5.9848   -2.1924    1.2463 C   0  0  0  0  0  0  0  0  0  0  0  0
    6.8759   -1.4800    0.1687 C   0  0  0  0  0  0  0  0  0  0  0  0
    6.2122   -1.6881   -1.2291 C   0  0  0  0  0  0  0  0  0  0  0  0
    5.2512   -2.7884   -0.8586 C   0  0  2  0  0  0  0  0  0  0  0  0
    4.8124   -3.7664   -3.5729 H   0  0  0  0  0  0  0  0  0  0  0  0
    3.8546   -2.2696   -3.5053 H   0  0  0  0  0  0  0  0  0  0  0  0
    3.0509   -3.8403   -3.4344 H   0  0  0  0  0  0  0  0  0  0  0  0
    2.2969   -4.3131   -0.9819 H   0  0  0  0  0  0  0  0  0  0  0  0
    4.8270   -4.2796    3.2996 H   0  0  0  0  0  0  0  0  0  0  0  0
    4.1070   -1.8487    3.3958 H   0  0  0  0  0  0  0  0  0  0  0  0
    3.6693   -2.6386    4.8902 H   0  0  0  0  0  0  0  0  0  0  0  0
    2.4395   -2.3374    3.6761 H   0  0  0  0  0  0  0  0  0  0  0  0
    2.7460   -4.6429    5.9390 H   0  0  0  0  0  0  0  0  0  0  0  0
    4.1027   -5.6989    5.5175 H   0  0  0  0  0  0  0  0  0  0  0  0
    2.4601   -6.3320    5.5487 H   0  0  0  0  0  0  0  0  0  0  0  0
    0.8202   -5.8720    3.5012 H   0  0  0  0  0  0  0  0  0  0  0  0
    0.9902   -4.0791    3.1482 H   0  0  0  0  0  0  0  0  0  0  0  0
    1.0821   -5.6349    0.2726 H   0  0  0  0  0  0  0  0  0  0  0  0
    1.3526   -7.1147    1.1579 H   0  0  0  0  0  0  0  0  0  0  0  0
    2.6315   -6.4671    0.1221 H   0  0  0  0  0  0  0  0  0  0  0  0
    4.4252   -0.1887    0.2770 H   0  0  0  0  0  0  0  0  0  0  0  0
    3.3634   -0.9205    1.4473 H   0  0  0  0  0  0  0  0  0  0  0  0
    3.0336   -1.1053   -0.2439 H   0  0  0  0  0  0  0  0  0  0  0  0
    5.8809   -1.5636    2.1279 H   0  0  0  0  0  0  0  0  0  0  0  0
    6.4242   -3.1414    1.5646 H   0  0  0  0  0  0  0  0  0  0  0  0
    6.9581   -0.4149    0.3909 H   0  0  0  0  0  0  0  0  0  0  0  0
    7.8858   -1.8925    0.1935 H   0  0  0  0  0  0  0  0  0  0  0  0
    5.7195   -0.7906   -1.6058 H   0  0  0  0  0  0  0  0  0  0  0  0
    6.9283   -2.0294   -1.9757 H   0  0  0  0  0  0  0  0  0  0  0  0
    5.8706   -3.6842   -0.7374 H   0  0  0  0  0  0  0  0  0  0  0  0
  1  2  1  0
  1 20  1  0
  1 21  1  0
  1 22  1  0
  2 19  1  0
  2  3  2  0
  3  4  1  0
  3 23  1  0
  4  5  2  3
  4 14  1  0
  5 11  1  0
  5  6  1  0
  6  7  1  0
  6  8  1  0
  6 24  1  6
  7 25  1  0
  7 26  1  0
  7 27  1  0
  8 13  1  0
  8  9  1  1
  8 10  1  0
  9 28  1  0
  9 29  1  0
  9 30  1  0
 10 11  1  0
 10 31  1  0
 10 32  1  0
 11 12  1  6
 11 13  1  0
 12 33  1  0
 12 34  1  0
 12 35  1  0
 14 19  1  0
 14 15  1  6
 14 16  1  0
 15 36  1  0
 15 37  1  0
 15 38  1  0
 16 17  1  0
 16 39  1  0
 16 40  1  0
 17 18  1  0
 17 41  1  0
 17 42  1  0
 18 19  1  0
 18 43  1  0
 18 44  1  0
 19 45  1  1
M  END
>  <i_m_ct_stereo_status>  (362) 
1

>  <s_m_source_file>  (362) 
/var/tmp/pbs.5076255.sched01/tmpbvzcvm50/120d7_yi5_y.sdf

>  <i_m_source_file_index>  (362) 
27

>  <i_lp_mmshare_version>  (362) 
48012

>  <i_f3d_flags>  (362) 
0

>  <s_epik_input>  (362) 
W0NIMl0xW0NIMl1bQ0gyXVtDQEBIXShbQ0BdMTJbQ0gzXSlDKFtDSDNdKT1bQ0hdL0MyPUMoW0NAQF0oTzMpKFtDSDJdNClbQ0gzXSlcW0NAQEhdKFtDSDNdKVtDQF0zNFtDSDNd

>  <s_epik_cmdline>  (362) 
J2VwaWtfcHl0aG9uJywgJy1waHQnLCAnMi4wJywgJy1waCcsICc3LjAnLCAnLXRuJywgJzgnLCAnLW1hJywgJzIwMCcsICctaW1hZScsICc8aW5maWxlLm1hZT4nLCAnLW9tYWUnLCAnPG91dGZpbGUubWFlPic=

>  <r_lp_tautomer_probability>  (362) 
1

>  <r_epik_Ionization_Penalty>  (362) 
6.91694e-12

>  <r_epik_Ionization_Penalty_Charging>  (362) 
0

>  <r_epik_Ionization_Penalty_Neutral>  (362) 
6.91694e-12

>  <r_epik_State_Penalty>  (362) 
-0

>  <r_epik_Charging_Adjusted_Penalty>  (362) 
0

>  <i_epik_Tot_Q>  (362) 
0

>  <i_epik_Tot_abs_Q>  (362) 
0

>  <s_lp_Force_Field>  (362) 
OPLS3e

>  <r_lp_Energy>  (362) 
44.445

>  <b_lp_Chiralities_Consistent>  (362) 
1

>  <s_lp_Variant>  (362) 
108:0-1

>  <s_i_glide_gridfile>  (362) 
pfpi4k_grid

>  <i_i_glide_lignum>  (362) 
27

>  <i_i_glide_rotatable_bonds>  (362) 
0

>  <r_i_docking_score>  (362) 
-2.66132

>  <r_i_glide_ligand_efficiency>  (362) 
-0.14007

>  <r_i_glide_ligand_efficiency_sa>  (362) 
-0.373762

>  <r_i_glide_ligand_efficiency_ln>  (362) 
-0.674703

>  <r_i_glide_gscore>  (362) 
-2.66132

>  <r_i_glide_lipo>  (362) 
-0.17442

>  <r_i_glide_hbond>  (362) 
0

>  <r_i_glide_metal>  (362) 
-0

>  <r_i_glide_rewards>  (362) 
-1.64728

>  <r_i_glide_evdw>  (362) 
-16.7286

>  <r_i_glide_ecoul>  (362) 
-0.0212641

>  <r_i_glide_erotb>  (362) 
0

>  <r_i_glide_esite>  (362) 
0

>  <r_i_glide_emodel>  (362) 
-19.0689

>  <r_i_glide_energy>  (362) 
-16.7499

>  <r_i_glide_einternal>  (362) 
0

>  <r_i_glide_intrahb_reward>  (362) 
-0

>  <i_i_glide_confnum>  (362) 
1

>  <i_i_glide_posenum>  (362) 
5

>  <r_i_glide_eff_state_penalty>  (362) 
0

>  <ligand_id>  (362) 
108

>  <original_smiles>  (362) 
CC1=CC(=C2C(C)C3(C)CC2(C)O3)C2(C)CCCC12

>  <smiles>  (362) 
[H]C1=C(C([H])([H])[H])C2([H])C([H])([H])C([H])([H])C([H])([H])C2(C([H])([H])[H])C1=C1C([H])(C([H])([H])[H])C2(C([H])([H])[H])OC1(C([H])([H])[H])C2([H])[H]

$$$$
108:0:2
     RDKit          3D

 45 48  0  0  1  0  0  0  0  0999 V2000
    3.0030   -2.0346   -2.4164 C   0  0  0  0  0  0  0  0  0  0  0  0
    3.6294   -2.7743   -1.2444 C   0  0  0  0  0  0  0  0  0  0  0  0
    3.0391   -3.6097   -0.3774 C   0  0  0  0  0  0  0  0  0  0  0  0
    4.0084   -4.0584    0.6266 C   0  0  0  0  0  0  0  0  0  0  0  0
    3.8801   -5.1364    1.4544 C   0  0  0  0  0  0  0  0  0  0  0  0
    4.8396   -5.6827    2.4894 C   0  0  1  0  0  0  0  0  0  0  0  0
    5.1629   -4.7283    3.6566 C   0  0  0  0  0  0  0  0  0  0  0  0
    3.9397   -6.8482    2.9317 C   0  0  1  0  0  0  0  0  0  0  0  0
    4.5221   -7.8741    3.8968 C   0  0  0  0  0  0  0  0  0  0  0  0
    2.4869   -6.3883    3.0427 C   0  0  0  0  0  0  0  0  0  0  0  0
    2.7914   -6.2060    1.5506 C   0  0  1  0  0  0  0  0  0  0  0  0
    1.6750   -6.2791    0.5290 C   0  0  0  0  0  0  0  0  0  0  0  0
    3.5578   -7.4213    1.6590 O   0  0  0  0  0  0  0  0  0  0  0  0
    5.1420   -3.0406    0.5495 C   0  0  1  0  0  0  0  0  0  0  0  0
    4.7544   -1.8144    1.4276 C   0  0  0  0  0  0  0  0  0  0  0  0
    6.6430   -3.3234    0.6655 C   0  0  0  0  0  0  0  0  0  0  0  0
    7.2713   -2.2604   -0.3039 C   0  0  0  0  0  0  0  0  0  0  0  0
    6.1341   -1.7228   -1.2282 C   0  0  0  0  0  0  0  0  0  0  0  0
    5.0960   -2.7814   -0.9521 C   0  0  2  0  0  0  0  0  0  0  0  0
    3.4954   -2.3047   -3.3512 H   0  0  0  0  0  0  0  0  0  0  0  0
    3.0624   -0.9523   -2.2778 H   0  0  0  0  0  0  0  0  0  0  0  0
    1.9460   -2.2921   -2.5038 H   0  0  0  0  0  0  0  0  0  0  0  0
    1.9865   -3.8177   -0.3933 H   0  0  0  0  0  0  0  0  0  0  0  0
    5.7452   -6.0374    1.9981 H   0  0  0  0  0  0  0  0  0  0  0  0
    5.7936   -3.8954    3.3586 H   0  0  0  0  0  0  0  0  0  0  0  0
    5.7023   -5.2626    4.4386 H   0  0  0  0  0  0  0  0  0  0  0  0
    4.2604   -4.3194    4.1125 H   0  0  0  0  0  0  0  0  0  0  0  0
    4.6822   -7.4408    4.8851 H   0  0  0  0  0  0  0  0  0  0  0  0
    5.4689   -8.2788    3.5382 H   0  0  0  0  0  0  0  0  0  0  0  0
    3.8327   -8.7096    4.0166 H   0  0  0  0  0  0  0  0  0  0  0  0
    1.7796   -7.1906    3.2553 H   0  0  0  0  0  0  0  0  0  0  0  0
    2.3080   -5.4709    3.6090 H   0  0  0  0  0  0  0  0  0  0  0  0
    1.0034   -5.4559    0.6811 H   0  0  0  0  0  0  0  0  0  0  0  0
    1.0914   -7.1928    0.6572 H   0  0  0  0  0  0  0  0  0  0  0  0
    2.0312   -6.2442   -0.4921 H   0  0  0  0  0  0  0  0  0  0  0  0
    5.4546   -0.9830    1.3603 H   0  0  0  0  0  0  0  0  0  0  0  0
    4.7112   -2.0973    2.4754 H   0  0  0  0  0  0  0  0  0  0  0  0
    3.7717   -1.4207    1.1850 H   0  0  0  0  0  0  0  0  0  0  0  0
    7.0175   -3.1840    1.6762 H   0  0  0  0  0  0  0  0  0  0  0  0
    6.8852   -4.3406    0.3509 H   0  0  0  0  0  0  0  0  0  0  0  0
    7.7186   -1.4398    0.2596 H   0  0  0  0  0  0  0  0  0  0  0  0
    8.0729   -2.7166   -0.8879 H   0  0  0  0  0  0  0  0  0  0  0  0
    5.8006   -0.7184   -0.9651 H   0  0  0  0  0  0  0  0  0  0  0  0
    6.4221   -1.7431   -2.2763 H   0  0  0  0  0  0  0  0  0  0  0  0
    5.4472   -3.6729   -1.4814 H   0  0  0  0  0  0  0  0  0  0  0  0
  1  2  1  0
  1 20  1  0
  1 21  1  0
  1 22  1  0
  2 19  1  0
  2  3  2  0
  3  4  1  0
  3 23  1  0
  4  5  2  3
  4 14  1  0
  5 11  1  0
  5  6  1  0
  6  7  1  0
  6  8  1  0
  6 24  1  6
  7 25  1  0
  7 26  1  0
  7 27  1  0
  8 13  1  0
  8  9  1  1
  8 10  1  0
  9 28  1  0
  9 29  1  0
  9 30  1  0
 10 11  1  0
 10 31  1  0
 10 32  1  0
 11 12  1  6
 11 13  1  0
 12 33  1  0
 12 34  1  0
 12 35  1  0
 14 19  1  0
 14 15  1  1
 14 16  1  0
 15 36  1  0
 15 37  1  0
 15 38  1  0
 16 17  1  0
 16 39  1  0
 16 40  1  0
 17 18  1  0
 17 41  1  0
 17 42  1  0
 18 19  1  0
 18 43  1  0
 18 44  1  0
 19 45  1  6
M  END
>  <i_m_ct_stereo_status>  (363) 
1

>  <s_m_source_file>  (363) 
/var/tmp/pbs.5076255.sched01/tmpbvzcvm50/120d7_yi5_y.sdf

>  <i_m_source_file_index>  (363) 
27

>  <i_lp_mmshare_version>  (363) 
48012

>  <i_f3d_flags>  (363) 
0

>  <s_epik_input>  (363) 
W0NIMl0xW0NIMl1bQ0gyXVtDQEBIXShbQ0BdMTJbQ0gzXSlDKFtDSDNdKT1bQ0hdL0MyPUMoW0NAQF0oTzMpKFtDSDJdNClbQ0gzXSlcW0NAQEhdKFtDSDNdKVtDQF0zNFtDSDNd

>  <s_epik_cmdline>  (363) 
J2VwaWtfcHl0aG9uJywgJy1waHQnLCAnMi4wJywgJy1waCcsICc3LjAnLCAnLXRuJywgJzgnLCAnLW1hJywgJzIwMCcsICctaW1hZScsICc8aW5maWxlLm1hZT4nLCAnLW9tYWUnLCAnPG91dGZpbGUubWFlPic=

>  <r_lp_tautomer_probability>  (363) 
1

>  <r_epik_Ionization_Penalty>  (363) 
6.91694e-12

>  <r_epik_Ionization_Penalty_Charging>  (363) 
0

>  <r_epik_Ionization_Penalty_Neutral>  (363) 
6.91694e-12

>  <r_epik_State_Penalty>  (363) 
-0

>  <r_epik_Charging_Adjusted_Penalty>  (363) 
0

>  <i_epik_Tot_Q>  (363) 
0

>  <i_epik_Tot_abs_Q>  (363) 
0

>  <s_lp_Force_Field>  (363) 
OPLS3e

>  <r_lp_Energy>  (363) 
44.445

>  <b_lp_Chiralities_Consistent>  (363) 
1

>  <s_lp_Variant>  (363) 
108:0-1

>  <s_i_glide_gridfile>  (363) 
pfpi4k_grid

>  <i_i_glide_lignum>  (363) 
27

>  <i_i_glide_rotatable_bonds>  (363) 
0

>  <r_i_docking_score>  (363) 
-2.54059

>  <r_i_glide_ligand_efficiency>  (363) 
-0.133715

>  <r_i_glide_ligand_efficiency_sa>  (363) 
-0.356806

>  <r_i_glide_ligand_efficiency_ln>  (363) 
-0.644094

>  <r_i_glide_gscore>  (363) 
-2.54059

>  <r_i_glide_lipo>  (363) 
-0.204244

>  <r_i_glide_hbond>  (363) 
0

>  <r_i_glide_metal>  (363) 
-0

>  <r_i_glide_rewards>  (363) 
-1.64728

>  <r_i_glide_evdw>  (363) 
-15.9239

>  <r_i_glide_ecoul>  (363) 
0.714233

>  <r_i_glide_erotb>  (363) 
0

>  <r_i_glide_esite>  (363) 
0

>  <r_i_glide_emodel>  (363) 
-17.3616

>  <r_i_glide_energy>  (363) 
-15.2097

>  <r_i_glide_einternal>  (363) 
0

>  <r_i_glide_intrahb_reward>  (363) 
-0

>  <i_i_glide_confnum>  (363) 
2

>  <i_i_glide_posenum>  (363) 
20

>  <r_i_glide_eff_state_penalty>  (363) 
0

>  <ligand_id>  (363) 
108

>  <original_smiles>  (363) 
CC1=CC(=C2C(C)C3(C)CC2(C)O3)C2(C)CCCC12

>  <smiles>  (363) 
[H]C1=C(C([H])([H])[H])C2([H])C([H])([H])C([H])([H])C([H])([H])C2(C([H])([H])[H])C1=C1C([H])(C([H])([H])[H])C2(C([H])([H])[H])OC1(C([H])([H])[H])C2([H])[H]

$$$$
110:0:0
     RDKit          3D

 52 56  0  0  1  0  0  0  0  0999 V2000
    2.6582   -3.5267    3.4798 C   0  0  0  0  0  0  0  0  0  0  0  0
    3.5561   -4.7955    3.5314 C   0  0  0  0  0  0  0  0  0  0  0  0
    4.0804   -4.8372    4.9853 C   0  0  0  0  0  0  0  0  0  0  0  0
    2.6878   -6.0472    3.2972 C   0  0  0  0  0  0  0  0  0  0  0  0
    2.1357   -6.1223    1.8694 C   0  0  0  0  0  0  0  0  0  0  0  0
    3.2432   -5.9656    0.8176 C   0  0  0  0  0  0  0  0  0  0  0  0
    4.1510   -4.6878    0.9759 C   0  0  2  0  0  0  0  0  0  0  0  0
    3.4692   -3.3521    0.5599 C   0  0  0  0  0  0  0  0  0  0  0  0
    2.6994   -3.4476   -0.5458 C   0  0  0  0  0  0  0  0  0  0  0  0
    3.4069   -2.8272   -1.7174 C   0  0  1  0  0  0  0  0  0  0  0  0
    2.6255   -1.8027   -2.3154 O   0  0  0  0  0  0  0  0  0  0  0  0
    4.7218   -2.3421   -1.0518 C   0  0  2  0  0  0  0  0  0  0  0  0
    5.2946   -1.2491   -1.7642 O   0  0  0  0  0  0  0  0  0  0  0  0
    5.8238   -3.4434   -0.7555 C   0  0  1  0  0  0  0  0  0  0  0  0
    6.5203   -2.8036    0.3010 O   0  0  0  0  0  0  0  0  0  0  0  0
    5.7307   -2.0501    1.0273 C   0  0  0  0  0  0  0  0  0  0  0  0
    6.0354   -1.4012    2.0155 O   0  0  0  0  0  0  0  0  0  0  0  0
    4.3413   -2.0827    0.3987 C   0  0  2  0  0  0  0  0  0  0  0  0
    3.5565   -0.7928    0.7169 C   0  0  0  0  0  0  0  0  0  0  0  0
    5.2694   -4.7977   -0.1306 C   0  0  1  0  0  0  0  0  0  0  0  0
    6.2454   -5.7945    0.1679 O   0  0  0  0  0  0  0  0  0  0  0  0
    6.8413   -5.8243    1.4308 C   0  0  1  0  0  0  0  0  0  0  0  0
    7.7668   -4.7908    1.6435 O   0  0  0  0  0  0  0  0  0  0  0  0
    5.7757   -5.9119    2.5532 C   0  0  1  0  0  0  0  0  0  0  0  0
    6.4531   -5.9601    3.7925 O   0  0  0  0  0  0  0  0  0  0  0  0
    4.7208   -4.7441    2.4564 C   0  0  2  0  0  0  0  0  0  0  0  0
    1.9649   -3.4821    4.3233 H   0  0  0  0  0  0  0  0  0  0  0  0
    2.0168   -3.4825    2.6033 H   0  0  0  0  0  0  0  0  0  0  0  0
    3.2530   -2.6101    3.4911 H   0  0  0  0  0  0  0  0  0  0  0  0
    4.4690   -5.8189    5.2474 H   0  0  0  0  0  0  0  0  0  0  0  0
    3.2902   -4.6367    5.7102 H   0  0  0  0  0  0  0  0  0  0  0  0
    4.8717   -4.1047    5.1499 H   0  0  0  0  0  0  0  0  0  0  0  0
    3.2778   -6.9414    3.4881 H   0  0  0  0  0  0  0  0  0  0  0  0
    1.8678   -6.0829    4.0157 H   0  0  0  0  0  0  0  0  0  0  0  0
    1.6350   -7.0815    1.7341 H   0  0  0  0  0  0  0  0  0  0  0  0
    1.3724   -5.3647    1.7176 H   0  0  0  0  0  0  0  0  0  0  0  0
    3.8581   -6.8611    0.8602 H   0  0  0  0  0  0  0  0  0  0  0  0
    2.8097   -6.0564   -0.1726 H   0  0  0  0  0  0  0  0  0  0  0  0
    2.1002   -4.2975   -0.8039 H   0  0  0  0  0  0  0  0  0  0  0  0
    3.6264   -3.5803   -2.4754 H   0  0  0  0  0  0  0  0  0  0  0  0
    1.9756   -1.4600   -1.6869 H   0  0  0  0  0  0  0  0  0  0  0  0
    4.6270   -0.5757   -1.8062 H   0  0  0  0  0  0  0  0  0  0  0  0
    6.4695   -3.6216   -1.6201 H   0  0  0  0  0  0  0  0  0  0  0  0
    3.2847   -0.7551    1.7737 H   0  0  0  0  0  0  0  0  0  0  0  0
    2.6227   -0.7326    0.1543 H   0  0  0  0  0  0  0  0  0  0  0  0
    4.1381    0.1016    0.4897 H   0  0  0  0  0  0  0  0  0  0  0  0
    4.7953   -5.2455   -1.0010 H   0  0  0  0  0  0  0  0  0  0  0  0
    7.4583   -6.7263    1.4388 H   0  0  0  0  0  0  0  0  0  0  0  0
    7.2810   -3.9858    1.7700 H   0  0  0  0  0  0  0  0  0  0  0  0
    5.2915   -6.8835    2.4436 H   0  0  0  0  0  0  0  0  0  0  0  0
    7.0944   -6.6547    3.7588 H   0  0  0  0  0  0  0  0  0  0  0  0
    5.2812   -3.8513    2.7020 H   0  0  0  0  0  0  0  0  0  0  0  0
  1  2  1  0
  1 27  1  0
  1 28  1  0
  1 29  1  0
  2 26  1  0
  2  3  1  0
  2  4  1  0
  3 30  1  0
  3 31  1  0
  3 32  1  0
  4  5  1  0
  4 33  1  0
  4 34  1  0
  5  6  1  0
  5 35  1  0
  5 36  1  0
  7  6  1  6
  6 37  1  0
  6 38  1  0
  7 20  1  0
  7 26  1  0
  7  8  1  0
  8 18  1  0
  8  9  2  0
  9 10  1  0
  9 39  1  0
 10 11  1  0
 10 12  1  0
 10 40  1  6
 11 41  1  0
 12 18  1  0
 12 13  1  6
 12 14  1  0
 13 42  1  0
 14 15  1  0
 14 20  1  0
 14 43  1  6
 15 16  1  0
 16 17  2  0
 16 18  1  0
 18 19  1  6
 19 44  1  0
 19 45  1  0
 19 46  1  0
 20 21  1  0
 20 47  1  6
 21 22  1  0
 22 23  1  0
 22 24  1  0
 22 48  1  6
 23 49  1  0
 24 25  1  0
 24 26  1  0
 24 50  1  6
 25 51  1  0
 26 52  1  1
M  END
>  <i_m_ct_stereo_status>  (364) 
1

>  <s_m_source_file>  (364) 
/var/tmp/pbs.5076255.sched01/tmpbvzcvm50/120d7_yi5_y.sdf

>  <i_m_source_file_index>  (364) 
29

>  <i_lp_mmshare_version>  (364) 
48012

>  <i_f3d_flags>  (364) 
0

>  <s_epik_input>  (364) 
W0NIMl0xW0NIMl1bQ0gyXUMoW0NIM10pKFtDSDNdKVtDQEhdMltDQEhdKFtPSF0pW0NASF0oW09IXSlPW0NAQEhdM1tDQEhdKE9DND1PKVtDQEBdKFtPSF0pKFtDQEBIXShbQ0hdNSlbT0hdKVtDQF00KEM9NVtDQF0xMjMpW0NIM10=

>  <s_epik_cmdline>  (364) 
J2VwaWtfcHl0aG9uJywgJy1waHQnLCAnMi4wJywgJy1waCcsICc3LjAnLCAnLXRuJywgJzgnLCAnLW1hJywgJzIwMCcsICctaW1hZScsICc8aW5maWxlLm1hZT4nLCAnLW9tYWUnLCAnPG91dGZpbGUubWFlPic=

>  <r_lp_tautomer_probability>  (364) 
1

>  <r_epik_Ionization_Penalty>  (364) 
2.05975e-05

>  <r_epik_Ionization_Penalty_Charging>  (364) 
0

>  <r_epik_Ionization_Penalty_Neutral>  (364) 
2.05975e-05

>  <r_epik_State_Penalty>  (364) 
-0

>  <r_epik_Charging_Adjusted_Penalty>  (364) 
0

>  <i_epik_Tot_Q>  (364) 
0

>  <i_epik_Tot_abs_Q>  (364) 
0

>  <s_epik_Chemistry_Notes>  (364) 
This compound has an ester and may undergo hydrolysis at high or low pH. This compound contains an acetal/aminal-like group ( X-CH(R)-Y where X, Y are N, S, or O) that may be acid/base labile, releasing an aldehyde.

>  <s_lp_Force_Field>  (364) 
OPLS3e

>  <r_lp_Energy>  (364) 
97.2289

>  <b_lp_Chiralities_Consistent>  (364) 
1

>  <s_lp_Variant>  (364) 
110:0-1

>  <s_i_glide_gridfile>  (364) 
pfpi4k_grid

>  <i_i_glide_lignum>  (364) 
29

>  <i_i_glide_rotatable_bonds>  (364) 
4

>  <r_i_docking_score>  (364) 
-4.19393

>  <r_i_glide_ligand_efficiency>  (364) 
-0.161305

>  <r_i_glide_ligand_efficiency_sa>  (364) 
-0.477865

>  <r_i_glide_ligand_efficiency_ln>  (364) 
-0.98493

>  <r_i_glide_gscore>  (364) 
-4.19393

>  <r_i_glide_lipo>  (364) 
-0.172057

>  <r_i_glide_hbond>  (364) 
0

>  <r_i_glide_metal>  (364) 
-0

>  <r_i_glide_rewards>  (364) 
-1.66646

>  <r_i_glide_evdw>  (364) 
-22.7171

>  <r_i_glide_ecoul>  (364) 
-8.13036

>  <r_i_glide_erotb>  (364) 
0

>  <r_i_glide_esite>  (364) 
0

>  <r_i_glide_emodel>  (364) 
-44.417

>  <r_i_glide_energy>  (364) 
-30.8474

>  <r_i_glide_einternal>  (364) 
1.05911

>  <r_i_glide_intrahb_reward>  (364) 
-0.5

>  <i_i_glide_confnum>  (364) 
1

>  <i_i_glide_posenum>  (364) 
1

>  <r_i_glide_eff_state_penalty>  (364) 
0

>  <ligand_id>  (364) 
110

>  <original_smiles>  (364) 
CC1(C)CCCC23C4=CC(O)C5(O)C(OC(=O)C45C)C2OC(O)C(O)C13

>  <smiles>  (364) 
[H]OC1([H])OC2([H])C3([H])OC(=O)C4(C([H])([H])[H])C(=C([H])C([H])(O[H])C34O[H])C23C([H])([H])C([H])([H])C([H])([H])C(C([H])([H])[H])(C([H])([H])[H])C3([H])C1([H])O[H]

$$$$
110:0:1
     RDKit          3D

 52 56  0  0  1  0  0  0  0  0999 V2000
    2.6540   -3.4531    3.5001 C   0  0  0  0  0  0  0  0  0  0  0  0
    3.5264   -4.7353    3.5660 C   0  0  0  0  0  0  0  0  0  0  0  0
    4.0564   -4.7631    5.0160 C   0  0  0  0  0  0  0  0  0  0  0  0
    2.6335   -5.9746    3.3554 C   0  0  0  0  0  0  0  0  0  0  0  0
    2.0718   -6.0642    1.9317 C   0  0  0  0  0  0  0  0  0  0  0  0
    3.1760   -5.9432    0.8717 C   0  0  0  0  0  0  0  0  0  0  0  0
    4.1077   -4.6787    1.0056 C   0  0  2  0  0  0  0  0  0  0  0  0
    3.4464   -3.3409    0.5674 C   0  0  0  0  0  0  0  0  0  0  0  0
    2.6728   -3.4384   -0.5257 C   0  0  0  0  0  0  0  0  0  0  0  0
    3.3825   -2.8467   -1.7181 C   0  0  1  0  0  0  0  0  0  0  0  0
    2.6179   -1.8149   -2.3221 O   0  0  0  0  0  0  0  0  0  0  0  0
    4.7112   -2.3813   -1.0642 C   0  0  2  0  0  0  0  0  0  0  0  0
    5.2948   -1.3102   -1.8007 O   0  0  0  0  0  0  0  0  0  0  0  0
    5.7910   -3.4968   -0.7564 C   0  0  1  0  0  0  0  0  0  0  0  0
    6.5056   -2.8583    0.2908 O   0  0  0  0  0  0  0  0  0  0  0  0
    5.7278   -2.0767    1.0011 C   0  0  0  0  0  0  0  0  0  0  0  0
    6.0567   -1.4181    1.9878 O   0  0  0  0  0  0  0  0  0  0  0  0
    4.3408   -2.0884    0.3829 C   0  0  2  0  0  0  0  0  0  0  0  0
    3.5840   -0.7798    0.6876 C   0  0  0  0  0  0  0  0  0  0  0  0
    5.2149   -4.8311   -0.1062 C   0  0  1  0  0  0  0  0  0  0  0  0
    6.1802   -5.8403    0.2078 O   0  0  0  0  0  0  0  0  0  0  0  0
    6.7793   -5.8591    1.4736 C   0  0  1  0  0  0  0  0  0  0  0  0
    7.7220   -4.8375    1.6718 O   0  0  0  0  0  0  0  0  0  0  0  0
    5.7170   -5.9054    2.5977 C   0  0  1  0  0  0  0  0  0  0  0  0
    6.3933   -5.9565    3.8358 O   0  0  0  0  0  0  0  0  0  0  0  0
    4.6842   -4.7190    2.4829 C   0  0  2  0  0  0  0  0  0  0  0  0
    1.9679   -3.3826    4.3482 H   0  0  0  0  0  0  0  0  0  0  0  0
    2.0085   -3.4120    2.6274 H   0  0  0  0  0  0  0  0  0  0  0  0
    3.2669   -2.5478    3.4899 H   0  0  0  0  0  0  0  0  0  0  0  0
    4.4267   -5.7484    5.2926 H   0  0  0  0  0  0  0  0  0  0  0  0
    3.2734   -4.5367    5.7382 H   0  0  0  0  0  0  0  0  0  0  0  0
    4.8621   -4.0442    5.1641 H   0  0  0  0  0  0  0  0  0  0  0  0
    3.2063   -6.8795    3.5554 H   0  0  0  0  0  0  0  0  0  0  0  0
    1.8164   -5.9843    4.0777 H   0  0  0  0  0  0  0  0  0  0  0  0
    1.5545   -7.0151    1.8154 H   0  0  0  0  0  0  0  0  0  0  0  0
    1.3231   -5.2934    1.7747 H   0  0  0  0  0  0  0  0  0  0  0  0
    3.7768   -6.8468    0.9240 H   0  0  0  0  0  0  0  0  0  0  0  0
    2.7354   -6.0459   -0.1141 H   0  0  0  0  0  0  0  0  0  0  0  0
    2.0665   -4.2884   -0.7688 H   0  0  0  0  0  0  0  0  0  0  0  0
    3.5818   -3.6188   -2.4630 H   0  0  0  0  0  0  0  0  0  0  0  0
    1.9730   -1.4705   -1.6884 H   0  0  0  0  0  0  0  0  0  0  0  0
    4.6297   -0.6362   -1.8669 H   0  0  0  0  0  0  0  0  0  0  0  0
    6.4280   -3.6976   -1.6224 H   0  0  0  0  0  0  0  0  0  0  0  0
    3.3199   -0.7215    1.7469 H   0  0  0  0  0  0  0  0  0  0  0  0
    2.6484   -0.7115    0.1300 H   0  0  0  0  0  0  0  0  0  0  0  0
    4.1790    0.1015    0.4419 H   0  0  0  0  0  0  0  0  0  0  0  0
    4.7263   -5.2832   -0.9661 H   0  0  0  0  0  0  0  0  0  0  0  0
    7.3785   -6.7708    1.4982 H   0  0  0  0  0  0  0  0  0  0  0  0
    7.2642   -4.0050    1.6866 H   0  0  0  0  0  0  0  0  0  0  0  0
    5.2131   -6.8668    2.5038 H   0  0  0  0  0  0  0  0  0  0  0  0
    6.9631   -5.2046    3.8922 H   0  0  0  0  0  0  0  0  0  0  0  0
    5.2611   -3.8339    2.7082 H   0  0  0  0  0  0  0  0  0  0  0  0
  1  2  1  0
  1 27  1  0
  1 28  1  0
  1 29  1  0
  2 26  1  0
  2  3  1  0
  2  4  1  0
  3 30  1  0
  3 31  1  0
  3 32  1  0
  4  5  1  0
  4 33  1  0
  4 34  1  0
  5  6  1  0
  5 35  1  0
  5 36  1  0
  7  6  1  1
  6 37  1  0
  6 38  1  0
  7 20  1  0
  7 26  1  0
  7  8  1  0
  8 18  1  0
  8  9  2  0
  9 10  1  0
  9 39  1  0
 10 11  1  0
 10 12  1  0
 10 40  1  6
 11 41  1  0
 12 18  1  0
 12 13  1  6
 12 14  1  0
 13 42  1  0
 14 15  1  0
 14 20  1  0
 14 43  1  6
 15 16  1  0
 16 17  2  0
 16 18  1  0
 18 19  1  6
 19 44  1  0
 19 45  1  0
 19 46  1  0
 20 21  1  0
 20 47  1  6
 21 22  1  0
 22 23  1  0
 22 24  1  0
 22 48  1  6
 23 49  1  0
 24 25  1  0
 24 26  1  0
 24 50  1  6
 25 51  1  0
 26 52  1  1
M  END
>  <i_m_ct_stereo_status>  (365) 
1

>  <s_m_source_file>  (365) 
/var/tmp/pbs.5076255.sched01/tmpbvzcvm50/120d7_yi5_y.sdf

>  <i_m_source_file_index>  (365) 
29

>  <i_lp_mmshare_version>  (365) 
48012

>  <i_f3d_flags>  (365) 
0

>  <s_epik_input>  (365) 
W0NIMl0xW0NIMl1bQ0gyXUMoW0NIM10pKFtDSDNdKVtDQEhdMltDQEhdKFtPSF0pW0NASF0oW09IXSlPW0NAQEhdM1tDQEhdKE9DND1PKVtDQEBdKFtPSF0pKFtDQEBIXShbQ0hdNSlbT0hdKVtDQF00KEM9NVtDQF0xMjMpW0NIM10=

>  <s_epik_cmdline>  (365) 
J2VwaWtfcHl0aG9uJywgJy1waHQnLCAnMi4wJywgJy1waCcsICc3LjAnLCAnLXRuJywgJzgnLCAnLW1hJywgJzIwMCcsICctaW1hZScsICc8aW5maWxlLm1hZT4nLCAnLW9tYWUnLCAnPG91dGZpbGUubWFlPic=

>  <r_lp_tautomer_probability>  (365) 
1

>  <r_epik_Ionization_Penalty>  (365) 
2.05975e-05

>  <r_epik_Ionization_Penalty_Charging>  (365) 
0

>  <r_epik_Ionization_Penalty_Neutral>  (365) 
2.05975e-05

>  <r_epik_State_Penalty>  (365) 
-0

>  <r_epik_Charging_Adjusted_Penalty>  (365) 
0

>  <i_epik_Tot_Q>  (365) 
0

>  <i_epik_Tot_abs_Q>  (365) 
0

>  <s_epik_Chemistry_Notes>  (365) 
This compound has an ester and may undergo hydrolysis at high or low pH. This compound contains an acetal/aminal-like group ( X-CH(R)-Y where X, Y are N, S, or O) that may be acid/base labile, releasing an aldehyde.

>  <s_lp_Force_Field>  (365) 
OPLS3e

>  <r_lp_Energy>  (365) 
97.2289

>  <b_lp_Chiralities_Consistent>  (365) 
1

>  <s_lp_Variant>  (365) 
110:0-1

>  <s_i_glide_gridfile>  (365) 
pfpi4k_grid

>  <i_i_glide_lignum>  (365) 
29

>  <i_i_glide_rotatable_bonds>  (365) 
4

>  <r_i_docking_score>  (365) 
-4.13147

>  <r_i_glide_ligand_efficiency>  (365) 
-0.158903

>  <r_i_glide_ligand_efficiency_sa>  (365) 
-0.470749

>  <r_i_glide_ligand_efficiency_ln>  (365) 
-0.970263

>  <r_i_glide_gscore>  (365) 
-4.13147

>  <r_i_glide_lipo>  (365) 
-0.162237

>  <r_i_glide_hbond>  (365) 
0

>  <r_i_glide_metal>  (365) 
-0

>  <r_i_glide_rewards>  (365) 
-1.65719

>  <r_i_glide_evdw>  (365) 
-23.001

>  <r_i_glide_ecoul>  (365) 
-7.74664

>  <r_i_glide_erotb>  (365) 
0

>  <r_i_glide_esite>  (365) 
0

>  <r_i_glide_emodel>  (365) 
-44.4077

>  <r_i_glide_energy>  (365) 
-30.7477

>  <r_i_glide_einternal>  (365) 
0.708827

>  <r_i_glide_intrahb_reward>  (365) 
-0.5

>  <i_i_glide_confnum>  (365) 
2

>  <i_i_glide_posenum>  (365) 
7

>  <r_i_glide_eff_state_penalty>  (365) 
0

>  <ligand_id>  (365) 
110

>  <original_smiles>  (365) 
CC1(C)CCCC23C4=CC(O)C5(O)C(OC(=O)C45C)C2OC(O)C(O)C13

>  <smiles>  (365) 
[H]OC1([H])OC2([H])C3([H])OC(=O)C4(C([H])([H])[H])C(=C([H])C([H])(O[H])C34O[H])C23C([H])([H])C([H])([H])C([H])([H])C(C([H])([H])[H])(C([H])([H])[H])C3([H])C1([H])O[H]

$$$$
110:0:2
     RDKit          3D

 52 56  0  0  1  0  0  0  0  0999 V2000
    2.7580   -3.4610    3.4832 C   0  0  0  0  0  0  0  0  0  0  0  0
    3.6750   -4.7172    3.5209 C   0  0  0  0  0  0  0  0  0  0  0  0
    4.2188   -4.7452    4.9680 C   0  0  0  0  0  0  0  0  0  0  0  0
    2.8152   -5.9799    3.3024 C   0  0  0  0  0  0  0  0  0  0  0  0
    2.2437   -6.0658    1.8834 C   0  0  0  0  0  0  0  0  0  0  0  0
    3.3356   -5.8996    0.8174 C   0  0  0  0  0  0  0  0  0  0  0  0
    4.2301   -4.6091    0.9582 C   0  0  2  0  0  0  0  0  0  0  0  0
    3.5242   -3.2895    0.5420 C   0  0  0  0  0  0  0  0  0  0  0  0
    2.7421   -3.4027   -0.5447 C   0  0  0  0  0  0  0  0  0  0  0  0
    3.4243   -2.7779   -1.7349 C   0  0  1  0  0  0  0  0  0  0  0  0
    2.6182   -1.7697   -2.3208 O   0  0  0  0  0  0  0  0  0  0  0  0
    4.7410   -2.2679   -1.0873 C   0  0  2  0  0  0  0  0  0  0  0  0
    5.2769   -1.1722   -1.8170 O   0  0  0  0  0  0  0  0  0  0  0  0
    5.8652   -3.3489   -0.8008 C   0  0  1  0  0  0  0  0  0  0  0  0
    6.5619   -2.6868    0.2325 O   0  0  0  0  0  0  0  0  0  0  0  0
    5.7682   -1.9537    0.9757 C   0  0  0  0  0  0  0  0  0  0  0  0
    6.0764   -1.2897    1.9640 O   0  0  0  0  0  0  0  0  0  0  0  0
    4.3726   -2.0066    0.3649 C   0  0  2  0  0  0  0  0  0  0  0  0
    3.5713   -0.7280    0.6927 C   0  0  0  0  0  0  0  0  0  0  0  0
    5.3386   -4.7119   -0.1640 C   0  0  1  0  0  0  0  0  0  0  0  0
    6.3354   -5.6936    0.1153 O   0  0  0  0  0  0  0  0  0  0  0  0
    6.9501   -5.7157    1.3662 C   0  0  1  0  0  0  0  0  0  0  0  0
    7.8970   -4.6892    1.5490 O   0  0  0  0  0  0  0  0  0  0  0  0
    5.9098   -5.7950    2.5147 C   0  0  1  0  0  0  0  0  0  0  0  0
    6.6147   -5.8309    3.7405 O   0  0  0  0  0  0  0  0  0  0  0  0
    4.8254   -4.6481    2.4275 C   0  0  2  0  0  0  0  0  0  0  0  0
    2.0790   -3.4271    4.3377 H   0  0  0  0  0  0  0  0  0  0  0  0
    2.1019   -3.4302    2.6139 H   0  0  0  0  0  0  0  0  0  0  0  0
    3.3440   -2.5389    3.4847 H   0  0  0  0  0  0  0  0  0  0  0  0
    4.6284   -5.7211    5.2260 H   0  0  0  0  0  0  0  0  0  0  0  0
    3.4326   -4.5526    5.6992 H   0  0  0  0  0  0  0  0  0  0  0  0
    4.9973   -3.9955    5.1143 H   0  0  0  0  0  0  0  0  0  0  0  0
    3.4180   -6.8685    3.4891 H   0  0  0  0  0  0  0  0  0  0  0  0
    2.0054   -6.0217    4.0305 H   0  0  0  0  0  0  0  0  0  0  0  0
    1.7600   -7.0358    1.7561 H   0  0  0  0  0  0  0  0  0  0  0  0
    1.4638   -5.3229    1.7372 H   0  0  0  0  0  0  0  0  0  0  0  0
    3.9683   -6.7840    0.8539 H   0  0  0  0  0  0  0  0  0  0  0  0
    2.8948   -6.0058   -0.1682 H   0  0  0  0  0  0  0  0  0  0  0  0
    2.1651   -4.2704   -0.7973 H   0  0  0  0  0  0  0  0  0  0  0  0
    3.6440   -3.5340   -2.4911 H   0  0  0  0  0  0  0  0  0  0  0  0
    1.9588   -1.4583   -1.6915 H   0  0  0  0  0  0  0  0  0  0  0  0
    4.5874   -0.5253   -1.8772 H   0  0  0  0  0  0  0  0  0  0  0  0
    6.4916   -3.5247   -1.6771 H   0  0  0  0  0  0  0  0  0  0  0  0
    3.3196   -0.6897    1.7550 H   0  0  0  0  0  0  0  0  0  0  0  0
    2.6326   -0.6828    0.1479 H   0  0  0  0  0  0  0  0  0  0  0  0
    4.1392    0.1754    0.4556 H   0  0  0  0  0  0  0  0  0  0  0  0
    4.8458   -5.1640   -1.0232 H   0  0  0  0  0  0  0  0  0  0  0  0
    7.5466   -6.6283    1.3696 H   0  0  0  0  0  0  0  0  0  0  0  0
    8.3826   -4.8794    2.3404 H   0  0  0  0  0  0  0  0  0  0  0  0
    5.4315   -6.7661    2.4226 H   0  0  0  0  0  0  0  0  0  0  0  0
    7.2329   -6.5494    3.7146 H   0  0  0  0  0  0  0  0  0  0  0  0
    5.3793   -3.7529    2.6643 H   0  0  0  0  0  0  0  0  0  0  0  0
  1  2  1  0
  1 27  1  0
  1 28  1  0
  1 29  1  0
  2 26  1  0
  2  3  1  0
  2  4  1  0
  3 30  1  0
  3 31  1  0
  3 32  1  0
  4  5  1  0
  4 33  1  0
  4 34  1  0
  5  6  1  0
  5 35  1  0
  5 36  1  0
  7  6  1  1
  6 37  1  0
  6 38  1  0
  7 20  1  0
  7 26  1  0
  7  8  1  0
  8 18  1  0
  8  9  2  0
  9 10  1  0
  9 39  1  0
 10 11  1  0
 10 12  1  0
 10 40  1  6
 11 41  1  0
 12 18  1  0
 12 13  1  6
 12 14  1  0
 13 42  1  0
 14 15  1  0
 14 20  1  0
 14 43  1  6
 15 16  1  0
 16 17  2  0
 16 18  1  0
 18 19  1  6
 19 44  1  0
 19 45  1  0
 19 46  1  0
 20 21  1  0
 20 47  1  6
 21 22  1  0
 22 23  1  0
 22 24  1  0
 22 48  1  6
 23 49  1  0
 24 25  1  0
 24 26  1  0
 24 50  1  6
 25 51  1  0
 26 52  1  1
M  END
>  <i_m_ct_stereo_status>  (366) 
1

>  <s_m_source_file>  (366) 
/var/tmp/pbs.5076255.sched01/tmpbvzcvm50/120d7_yi5_y.sdf

>  <i_m_source_file_index>  (366) 
29

>  <i_lp_mmshare_version>  (366) 
48012

>  <i_f3d_flags>  (366) 
0

>  <s_epik_input>  (366) 
W0NIMl0xW0NIMl1bQ0gyXUMoW0NIM10pKFtDSDNdKVtDQEhdMltDQEhdKFtPSF0pW0NASF0oW09IXSlPW0NAQEhdM1tDQEhdKE9DND1PKVtDQEBdKFtPSF0pKFtDQEBIXShbQ0hdNSlbT0hdKVtDQF00KEM9NVtDQF0xMjMpW0NIM10=

>  <s_epik_cmdline>  (366) 
J2VwaWtfcHl0aG9uJywgJy1waHQnLCAnMi4wJywgJy1waCcsICc3LjAnLCAnLXRuJywgJzgnLCAnLW1hJywgJzIwMCcsICctaW1hZScsICc8aW5maWxlLm1hZT4nLCAnLW9tYWUnLCAnPG91dGZpbGUubWFlPic=

>  <r_lp_tautomer_probability>  (366) 
1

>  <r_epik_Ionization_Penalty>  (366) 
2.05975e-05

>  <r_epik_Ionization_Penalty_Charging>  (366) 
0

>  <r_epik_Ionization_Penalty_Neutral>  (366) 
2.05975e-05

>  <r_epik_State_Penalty>  (366) 
-0

>  <r_epik_Charging_Adjusted_Penalty>  (366) 
0

>  <i_epik_Tot_Q>  (366) 
0

>  <i_epik_Tot_abs_Q>  (366) 
0

>  <s_epik_Chemistry_Notes>  (366) 
This compound has an ester and may undergo hydrolysis at high or low pH. This compound contains an acetal/aminal-like group ( X-CH(R)-Y where X, Y are N, S, or O) that may be acid/base labile, releasing an aldehyde.

>  <s_lp_Force_Field>  (366) 
OPLS3e

>  <r_lp_Energy>  (366) 
97.2289

>  <b_lp_Chiralities_Consistent>  (366) 
1

>  <s_lp_Variant>  (366) 
110:0-1

>  <s_i_glide_gridfile>  (366) 
pfpi4k_grid

>  <i_i_glide_lignum>  (366) 
29

>  <i_i_glide_rotatable_bonds>  (366) 
4

>  <r_i_docking_score>  (366) 
-3.88069

>  <r_i_glide_ligand_efficiency>  (366) 
-0.149257

>  <r_i_glide_ligand_efficiency_sa>  (366) 
-0.442174

>  <r_i_glide_ligand_efficiency_ln>  (366) 
-0.911367

>  <r_i_glide_gscore>  (366) 
-3.88069

>  <r_i_glide_lipo>  (366) 
-0.195428

>  <r_i_glide_hbond>  (366) 
0

>  <r_i_glide_metal>  (366) 
-0

>  <r_i_glide_rewards>  (366) 
-1.18107

>  <r_i_glide_evdw>  (366) 
-22.5791

>  <r_i_glide_ecoul>  (366) 
-9.16825

>  <r_i_glide_erotb>  (366) 
0

>  <r_i_glide_esite>  (366) 
0

>  <r_i_glide_emodel>  (366) 
-38.6913

>  <r_i_glide_energy>  (366) 
-31.7473

>  <r_i_glide_einternal>  (366) 
3.04328

>  <r_i_glide_intrahb_reward>  (366) 
-0

>  <i_i_glide_confnum>  (366) 
1

>  <i_i_glide_posenum>  (366) 
35

>  <r_i_glide_eff_state_penalty>  (366) 
0

>  <ligand_id>  (366) 
110

>  <original_smiles>  (366) 
CC1(C)CCCC23C4=CC(O)C5(O)C(OC(=O)C45C)C2OC(O)C(O)C13

>  <smiles>  (366) 
[H]OC1([H])OC2([H])C3([H])OC(=O)C4(C([H])([H])[H])C(=C([H])C([H])(O[H])C34O[H])C23C([H])([H])C([H])([H])C([H])([H])C(C([H])([H])[H])(C([H])([H])[H])C3([H])C1([H])O[H]

$$$$
111:0:0
     RDKit          3D

 68 76  0  0  1  0  0  0  0  0999 V2000
    0.4954   -9.2455    7.8298 C   0  0  0  0  0  0  0  0  0  0  0  0
    1.2633   -9.0918    6.5231 C   0  0  0  0  0  0  0  0  0  0  0  0
    0.5600   -9.1084    5.3117 C   0  0  0  0  0  0  0  0  0  0  0  0
    0.9445   -8.9019    3.8160 C   0  0  1  0  0  0  0  0  0  0  0  0
    1.4537   -9.7512    2.6133 C   0  0  1  0  0  0  0  0  0  0  0  0
    2.5779   -9.2761    1.8132 O   0  0  0  0  0  0  0  0  0  0  0  0
    3.7694   -8.9372    2.5799 C   0  0  2  0  0  0  0  0  0  0  0  0
    3.3406   -9.1587    3.9814 C   0  0  1  0  0  0  0  0  0  0  0  0
    3.2978   -7.6213    4.3289 C   0  0  2  0  0  0  0  0  0  0  0  0
    2.0757   -6.6253    4.8429 C   0  0  0  0  0  0  0  0  0  0  0  0
    0.7286   -6.5061    4.2331 C   0  0  0  0  0  0  0  0  0  0  0  0
   -0.1435   -5.7344    4.6300 O   0  0  0  0  0  0  0  0  0  0  0  0
    0.5646   -7.4805    3.1710 C   0  0  2  0  0  0  0  0  0  0  0  0
   -0.9372   -7.5830    2.7743 C   0  0  0  0  0  0  0  0  0  0  0  0
    1.3244   -6.7198    1.9898 C   0  0  0  0  0  0  0  0  0  0  0  0
    0.8467   -6.9315    0.8779 O   0  0  0  0  0  0  0  0  0  0  0  0
    2.6274   -5.7241    2.0086 C   0  0  2  0  0  0  0  0  0  0  0  0
    2.5704   -4.8986    0.6763 C   0  0  0  0  0  0  0  0  0  0  0  0
    3.8301   -6.6125    1.8621 C   0  0  0  0  0  0  0  0  0  0  0  0
    4.0341   -7.5356    3.0001 N   0  0  0  0  0  0  0  0  0  0  0  0
    3.0896   -4.6451    3.1292 C   0  0  1  0  0  0  0  0  0  0  0  0
    2.0082   -3.8651    3.6118 O   0  0  0  0  0  0  0  0  0  0  0  0
    4.3952   -4.7542    4.1282 C   0  0  1  0  0  0  0  0  0  0  0  0
    4.5523   -3.3301    4.7919 C   0  0  0  0  0  0  0  0  0  0  0  0
    4.1789   -3.6417    6.1702 C   0  0  0  0  0  0  0  0  0  0  0  0
    3.7476   -2.7914    7.1252 O   0  0  0  0  0  0  0  0  0  0  0  0
    3.4775   -3.6400    8.1719 C   0  0  0  0  0  0  0  0  0  0  0  0
    3.7498   -4.9572    7.8721 C   0  0  0  0  0  0  0  0  0  0  0  0
    4.2147   -4.9163    6.5324 C   0  0  0  0  0  0  0  0  0  0  0  0
    4.6773   -5.7865    5.4007 C   0  0  2  0  0  0  0  0  0  0  0  0
    6.2123   -5.8726    5.5796 C   0  0  0  0  0  0  0  0  0  0  0  0
    4.1750   -7.2994    5.4771 C   0  0  1  0  0  0  0  0  0  0  0  0
    3.4376   -7.7212    6.6758 O   0  0  0  0  0  0  0  0  0  0  0  0
    2.7803   -8.9752    6.8385 C   0  0  0  0  0  0  0  0  0  0  0  0
    3.4164   -9.9188    7.3021 O   0  0  0  0  0  0  0  0  0  0  0  0
    2.1083   -9.8770    3.8651 C   0  0  1  0  0  0  0  0  0  0  0  0
    2.1167  -11.3238    4.3765 C   0  0  0  0  0  0  0  0  0  0  0  0
    0.8683  -10.1038    8.3930 H   0  0  0  0  0  0  0  0  0  0  0  0
   -0.5726   -9.3934    7.6695 H   0  0  0  0  0  0  0  0  0  0  0  0
    0.6285   -8.3608    8.4559 H   0  0  0  0  0  0  0  0  0  0  0  0
   -0.5041   -9.2415    5.4247 H   0  0  0  0  0  0  0  0  0  0  0  0
    0.8545  -10.5684    2.2083 H   0  0  0  0  0  0  0  0  0  0  0  0
    4.7121   -9.4310    2.3127 H   0  0  0  0  0  0  0  0  0  0  0  0
    4.1251   -9.6942    4.5115 H   0  0  0  0  0  0  0  0  0  0  0  0
    1.6938   -6.8514    5.8260 H   0  0  0  0  0  0  0  0  0  0  0  0
    2.3696   -5.6246    5.0916 H   0  0  0  0  0  0  0  0  0  0  0  0
   -1.3153   -6.6591    2.3270 H   0  0  0  0  0  0  0  0  0  0  0  0
   -1.5746   -7.8119    3.6274 H   0  0  0  0  0  0  0  0  0  0  0  0
   -1.0975   -8.3743    2.0405 H   0  0  0  0  0  0  0  0  0  0  0  0
    3.5167   -4.4137    0.4364 H   0  0  0  0  0  0  0  0  0  0  0  0
    1.8285   -4.1074    0.7368 H   0  0  0  0  0  0  0  0  0  0  0  0
    2.3376   -5.4769   -0.2153 H   0  0  0  0  0  0  0  0  0  0  0  0
    3.7452   -7.1932    0.9367 H   0  0  0  0  0  0  0  0  0  0  0  0
    4.7378   -6.0171    1.7223 H   0  0  0  0  0  0  0  0  0  0  0  0
    3.5159   -3.8564    2.5091 H   0  0  0  0  0  0  0  0  0  0  0  0
    1.7139   -3.2782    2.9263 H   0  0  0  0  0  0  0  0  0  0  0  0
    5.2411   -4.8848    3.4469 H   0  0  0  0  0  0  0  0  0  0  0  0
    5.6009   -3.0398    4.7819 H   0  0  0  0  0  0  0  0  0  0  0  0
    3.9856   -2.5027    4.3587 H   0  0  0  0  0  0  0  0  0  0  0  0
    3.0815   -3.1581    9.0555 H   0  0  0  0  0  0  0  0  0  0  0  0
    3.6009   -5.8045    8.5229 H   0  0  0  0  0  0  0  0  0  0  0  0
    6.6860   -6.3506    4.7203 H   0  0  0  0  0  0  0  0  0  0  0  0
    6.4823   -6.4418    6.4708 H   0  0  0  0  0  0  0  0  0  0  0  0
    6.6784   -4.8919    5.6919 H   0  0  0  0  0  0  0  0  0  0  0  0
    5.0578   -7.9361    5.4196 H   0  0  0  0  0  0  0  0  0  0  0  0
    2.8244  -11.9148    3.7948 H   0  0  0  0  0  0  0  0  0  0  0  0
    1.1305  -11.7767    4.2486 H   0  0  0  0  0  0  0  0  0  0  0  0
    2.3788  -11.4089    5.4302 H   0  0  0  0  0  0  0  0  0  0  0  0
  1  2  1  0
  1 38  1  0
  1 39  1  0
  1 40  1  0
  2 34  1  0
  2  3  2  3
  4  3  1  1
  3 41  1  0
  4 13  1  0
  4 36  1  0
  4  5  1  0
  5 36  1  0
  5  6  1  0
  5 42  1  6
  6  7  1  0
  7 20  1  0
  7  8  1  0
  7 43  1  6
  8  9  1  0
  8 36  1  0
  8 44  1  1
  9 20  1  0
  9 32  1  0
  9 10  1  6
 10 11  1  0
 10 45  1  0
 10 46  1  0
 11 12  2  0
 11 13  1  0
 13 14  1  6
 13 15  1  0
 14 47  1  0
 14 48  1  0
 14 49  1  0
 15 16  2  0
 15 17  1  0
 17 18  1  6
 17 19  1  0
 17 21  1  0
 18 50  1  0
 18 51  1  0
 18 52  1  0
 19 20  1  0
 19 53  1  0
 19 54  1  0
 21 22  1  0
 21 23  1  0
 21 55  1  6
 22 56  1  0
 23 30  1  0
 23 24  1  0
 23 57  1  6
 24 25  1  0
 24 58  1  0
 24 59  1  0
 25 29  2  0
 25 26  1  0
 26 27  1  0
 27 28  2  0
 27 60  1  0
 28 29  1  0
 28 61  1  0
 29 30  1  0
 30 31  1  1
 30 32  1  0
 31 62  1  0
 31 63  1  0
 31 64  1  0
 32 33  1  0
 32 65  1  6
 33 34  1  0
 34 35  2  0
 36 37  1  1
 37 66  1  0
 37 67  1  0
 37 68  1  0
M  END
>  <i_m_ct_stereo_status>  (367) 
1

>  <s_m_source_file>  (367) 
/var/tmp/pbs.5076255.sched01/tmpbvzcvm50/120d7_yi5_y.sdf

>  <i_m_source_file_index>  (367) 
30

>  <i_lp_mmshare_version>  (367) 
48012

>  <i_f3d_flags>  (367) 
0

>  <s_epik_input>  (367) 
W0NIM10vQyg9W0NIXS8xKUMoPU8pT1tDQEBIXTJbQ0BdKFtDSDNdKShjM2MoW0NIMl00KW9bY0hdW2NIXTMpW0NASF00W0NASF0oW09IXSlbQ0BdKFtDSDNdKShDKD1PKVtDQF01KFtDSDNdKUMoPU8pW0NIMl02KVtDSDJdTihbQ0BASF03TzgpW0NAQF0yNltDQEhdN1tDQEBdOShbQ0BIXThbQ0BdMTU5KVtDSDNd

>  <s_epik_cmdline>  (367) 
J2VwaWtfcHl0aG9uJywgJy1waHQnLCAnMi4wJywgJy1waCcsICc3LjAnLCAnLXRuJywgJzgnLCAnLW1hJywgJzIwMCcsICctaW1hZScsICc8aW5maWxlLm1hZT4nLCAnLW9tYWUnLCAnPG91dGZpbGUubWFlPic=

>  <r_epik_Ionization_Penalty>  (367) 
0.123636

>  <r_epik_Ionization_Penalty_Charging>  (367) 
0

>  <r_epik_Ionization_Penalty_Neutral>  (367) 
0.123636

>  <r_epik_State_Penalty>  (367) 
0.113127

>  <r_epik_Charging_Adjusted_Penalty>  (367) 
0.113127

>  <i_epik_Tot_Q>  (367) 
0

>  <i_epik_Tot_abs_Q>  (367) 
0

>  <s_epik_Chemistry_Notes>  (367) 
This compound has an ester and may undergo hydrolysis at high or low pH. This compound contains an acetal/aminal-like group ( X-CH(R)-Y where X, Y are N, S, or O) that may be acid/base labile, releasing an aldehyde.

>  <s_lp_Force_Field>  (367) 
OPLS3e

>  <r_lp_Energy>  (367) 
278.606

>  <b_lp_Chiralities_Consistent>  (367) 
1

>  <s_lp_Variant>  (367) 
111:0-1

>  <s_i_glide_gridfile>  (367) 
pfpi4k_grid

>  <i_i_glide_lignum>  (367) 
30

>  <i_i_glide_rotatable_bonds>  (367) 
1

>  <r_i_docking_score>  (367) 
-2.05959

>  <r_i_glide_ligand_efficiency>  (367) 
-0.0556645

>  <r_i_glide_ligand_efficiency_sa>  (367) 
-0.185487

>  <r_i_glide_ligand_efficiency_ln>  (367) 
-0.446676

>  <r_i_glide_gscore>  (367) 
-2.05959

>  <r_i_glide_lipo>  (367) 
-0.142328

>  <r_i_glide_hbond>  (367) 
0

>  <r_i_glide_metal>  (367) 
-0

>  <r_i_glide_rewards>  (367) 
0

>  <r_i_glide_evdw>  (367) 
-30.8288

>  <r_i_glide_ecoul>  (367) 
-1.7714

>  <r_i_glide_erotb>  (367) 
0

>  <r_i_glide_esite>  (367) 
-0.110113

>  <r_i_glide_emodel>  (367) 
-36.0782

>  <r_i_glide_energy>  (367) 
-32.6002

>  <r_i_glide_einternal>  (367) 
0.504321

>  <r_i_glide_intrahb_reward>  (367) 
-0

>  <i_i_glide_confnum>  (367) 
1

>  <i_i_glide_posenum>  (367) 
2

>  <r_i_glide_eff_state_penalty>  (367) 
0

>  <ligand_id>  (367) 
111

>  <original_smiles>  (367) 
CC1=CC23C4OC5C(C67CC(=O)C2(C)C(=O)C(C)(CN56)C(O)C2Cc5occc5C2(C)C7OC1=O)C43C

>  <smiles>  (367) 
[H]OC1([H])C2([H])C([H])([H])c3oc([H])c([H])c3C2(C([H])([H])[H])C2([H])OC(=O)C(C([H])([H])[H])=C([H])C34C5([H])OC6([H])N7C([H])([H])C1(C([H])([H])[H])C(=O)C3(C([H])([H])[H])C(=O)C([H])([H])C72C6([H])C54C([H])([H])[H]

$$$$
111:0:1
     RDKit          3D

 68 76  0  0  1  0  0  0  0  0999 V2000
    0.5315   -9.2270    7.9196 C   0  0  0  0  0  0  0  0  0  0  0  0
    1.2657   -9.1179    6.5889 C   0  0  0  0  0  0  0  0  0  0  0  0
    0.5269   -9.1271    5.3987 C   0  0  0  0  0  0  0  0  0  0  0  0
    0.8731   -8.9553    3.8887 C   0  0  1  0  0  0  0  0  0  0  0  0
    1.3191   -9.8395    2.6869 C   0  0  1  0  0  0  0  0  0  0  0  0
    2.4343   -9.4134    1.8477 O   0  0  0  0  0  0  0  0  0  0  0  0
    3.6589   -9.1037    2.5739 C   0  0  2  0  0  0  0  0  0  0  0  0
    3.2635   -9.2906    3.9904 C   0  0  1  0  0  0  0  0  0  0  0  0
    3.2813   -7.7476    4.3155 C   0  0  2  0  0  0  0  0  0  0  0  0
    2.1072   -6.7036    4.8484 C   0  0  0  0  0  0  0  0  0  0  0  0
    0.7480   -6.5476    4.2745 C   0  0  0  0  0  0  0  0  0  0  0  0
   -0.0859   -5.7426    4.6882 O   0  0  0  0  0  0  0  0  0  0  0  0
    0.5214   -7.5309    3.2304 C   0  0  2  0  0  0  0  0  0  0  0  0
   -0.9948   -7.5869    2.8810 C   0  0  0  0  0  0  0  0  0  0  0  0
    1.2716   -6.8134    2.0154 C   0  0  0  0  0  0  0  0  0  0  0  0
    0.7583   -7.0248    0.9163 O   0  0  0  0  0  0  0  0  0  0  0  0
    2.6074   -5.8644    1.9851 C   0  0  2  0  0  0  0  0  0  0  0  0
    2.5328   -5.0553    0.6451 C   0  0  0  0  0  0  0  0  0  0  0  0
    3.7753   -6.7930    1.8202 C   0  0  0  0  0  0  0  0  0  0  0  0
    3.9818   -7.7058    2.9661 N   0  0  0  0  0  0  0  0  0  0  0  0
    3.1370   -4.7836    3.0746 C   0  0  1  0  0  0  0  0  0  0  0  0
    2.0819   -3.9692    3.5552 O   0  0  0  0  0  0  0  0  0  0  0  0
    4.4643   -4.9199    4.0396 C   0  0  1  0  0  0  0  0  0  0  0  0
    4.6880   -3.4925    4.6768 C   0  0  0  0  0  0  0  0  0  0  0  0
    4.3434   -3.7718    6.0690 C   0  0  0  0  0  0  0  0  0  0  0  0
    3.9681   -2.8948    7.0225 O   0  0  0  0  0  0  0  0  0  0  0  0
    3.7023   -3.7186    8.0900 C   0  0  0  0  0  0  0  0  0  0  0  0
    3.9233   -5.0483    7.8033 C   0  0  0  0  0  0  0  0  0  0  0  0
    4.3489   -5.0419    6.4499 C   0  0  0  0  0  0  0  0  0  0  0  0
    4.7503   -5.9434    5.3193 C   0  0  2  0  0  0  0  0  0  0  0  0
    6.2865   -6.0779    5.4565 C   0  0  0  0  0  0  0  0  0  0  0  0
    4.2015   -7.4380    5.4336 C   0  0  1  0  0  0  0  0  0  0  0  0
    3.4857   -7.8176    6.6586 O   0  0  0  0  0  0  0  0  0  0  0  0
    2.7948   -9.0469    6.8596 C   0  0  0  0  0  0  0  0  0  0  0  0
    3.4153  -10.0028    7.3195 O   0  0  0  0  0  0  0  0  0  0  0  0
    2.0055   -9.9681    3.9205 C   0  0  1  0  0  0  0  0  0  0  0  0
    1.9818  -11.4066    4.4536 C   0  0  0  0  0  0  0  0  0  0  0  0
    0.8923  -10.0909    8.4814 H   0  0  0  0  0  0  0  0  0  0  0  0
   -0.5451   -9.3399    7.7925 H   0  0  0  0  0  0  0  0  0  0  0  0
    0.7121   -8.3390    8.5289 H   0  0  0  0  0  0  0  0  0  0  0  0
   -0.5373   -9.2245    5.5444 H   0  0  0  0  0  0  0  0  0  0  0  0
    0.6842  -10.6444    2.3122 H   0  0  0  0  0  0  0  0  0  0  0  0
    4.5770   -9.6327    2.2877 H   0  0  0  0  0  0  0  0  0  0  0  0
    4.0451   -9.8433    4.5063 H   0  0  0  0  0  0  0  0  0  0  0  0
    1.7468   -6.9038    5.8452 H   0  0  0  0  0  0  0  0  0  0  0  0
    2.4417   -5.7096    5.0734 H   0  0  0  0  0  0  0  0  0  0  0  0
   -1.3538   -6.6608    2.4335 H   0  0  0  0  0  0  0  0  0  0  0  0
   -1.6127   -7.7857    3.7572 H   0  0  0  0  0  0  0  0  0  0  0  0
   -1.2008   -8.3856    2.1656 H   0  0  0  0  0  0  0  0  0  0  0  0
    3.4864   -4.6060    0.3698 H   0  0  0  0  0  0  0  0  0  0  0  0
    1.8199   -4.2382    0.7203 H   0  0  0  0  0  0  0  0  0  0  0  0
    2.2557   -5.6362   -0.2314 H   0  0  0  0  0  0  0  0  0  0  0  0
    3.6429   -7.3828    0.9069 H   0  0  0  0  0  0  0  0  0  0  0  0
    4.6959   -6.2287    1.6447 H   0  0  0  0  0  0  0  0  0  0  0  0
    3.5647   -4.0188    2.4270 H   0  0  0  0  0  0  0  0  0  0  0  0
    2.4345   -3.1315    3.8310 H   0  0  0  0  0  0  0  0  0  0  0  0
    5.2870   -5.0890    3.3382 H   0  0  0  0  0  0  0  0  0  0  0  0
    5.7451   -3.2396    4.6358 H   0  0  0  0  0  0  0  0  0  0  0  0
    4.1441   -2.6494    4.2460 H   0  0  0  0  0  0  0  0  0  0  0  0
    3.3481   -3.2113    8.9778 H   0  0  0  0  0  0  0  0  0  0  0  0
    3.7661   -5.8808    8.4715 H   0  0  0  0  0  0  0  0  0  0  0  0
    6.7192   -6.5837    4.5914 H   0  0  0  0  0  0  0  0  0  0  0  0
    6.5637   -6.6431    6.3480 H   0  0  0  0  0  0  0  0  0  0  0  0
    6.7876   -5.1119    5.5404 H   0  0  0  0  0  0  0  0  0  0  0  0
    5.0611   -8.1046    5.3604 H   0  0  0  0  0  0  0  0  0  0  0  0
    2.6526  -12.0294    3.8612 H   0  0  0  0  0  0  0  0  0  0  0  0
    0.9780  -11.8284    4.3618 H   0  0  0  0  0  0  0  0  0  0  0  0
    2.2730  -11.4823    5.4998 H   0  0  0  0  0  0  0  0  0  0  0  0
  1  2  1  0
  1 38  1  0
  1 39  1  0
  1 40  1  0
  2 34  1  0
  2  3  2  3
  4  3  1  1
  3 41  1  0
  4 13  1  0
  4 36  1  0
  4  5  1  0
  5 36  1  0
  5  6  1  0
  5 42  1  6
  6  7  1  0
  7 20  1  0
  7  8  1  0
  7 43  1  6
  8  9  1  0
  8 36  1  0
  8 44  1  1
  9 20  1  0
  9 32  1  0
  9 10  1  6
 10 11  1  0
 10 45  1  0
 10 46  1  0
 11 12  2  0
 11 13  1  0
 13 14  1  6
 13 15  1  0
 14 47  1  0
 14 48  1  0
 14 49  1  0
 15 16  2  0
 15 17  1  0
 17 18  1  6
 17 19  1  0
 17 21  1  0
 18 50  1  0
 18 51  1  0
 18 52  1  0
 19 20  1  0
 19 53  1  0
 19 54  1  0
 21 22  1  0
 21 23  1  0
 21 55  1  6
 22 56  1  0
 23 30  1  0
 23 24  1  0
 23 57  1  6
 24 25  1  0
 24 58  1  0
 24 59  1  0
 25 29  2  0
 25 26  1  0
 26 27  1  0
 27 28  2  0
 27 60  1  0
 28 29  1  0
 28 61  1  0
 29 30  1  0
 30 31  1  1
 30 32  1  0
 31 62  1  0
 31 63  1  0
 31 64  1  0
 32 33  1  0
 32 65  1  6
 33 34  1  0
 34 35  2  0
 36 37  1  1
 37 66  1  0
 37 67  1  0
 37 68  1  0
M  END
>  <i_m_ct_stereo_status>  (368) 
1

>  <s_m_source_file>  (368) 
/var/tmp/pbs.5076255.sched01/tmpbvzcvm50/120d7_yi5_y.sdf

>  <i_m_source_file_index>  (368) 
30

>  <i_lp_mmshare_version>  (368) 
48012

>  <i_f3d_flags>  (368) 
0

>  <s_epik_input>  (368) 
W0NIM10vQyg9W0NIXS8xKUMoPU8pT1tDQEBIXTJbQ0BdKFtDSDNdKShjM2MoW0NIMl00KW9bY0hdW2NIXTMpW0NASF00W0NASF0oW09IXSlbQ0BdKFtDSDNdKShDKD1PKVtDQF01KFtDSDNdKUMoPU8pW0NIMl02KVtDSDJdTihbQ0BASF03TzgpW0NAQF0yNltDQEhdN1tDQEBdOShbQ0BIXThbQ0BdMTU5KVtDSDNd

>  <s_epik_cmdline>  (368) 
J2VwaWtfcHl0aG9uJywgJy1waHQnLCAnMi4wJywgJy1waCcsICc3LjAnLCAnLXRuJywgJzgnLCAnLW1hJywgJzIwMCcsICctaW1hZScsICc8aW5maWxlLm1hZT4nLCAnLW9tYWUnLCAnPG91dGZpbGUubWFlPic=

>  <r_epik_Ionization_Penalty>  (368) 
0.123636

>  <r_epik_Ionization_Penalty_Charging>  (368) 
0

>  <r_epik_Ionization_Penalty_Neutral>  (368) 
0.123636

>  <r_epik_State_Penalty>  (368) 
0.113127

>  <r_epik_Charging_Adjusted_Penalty>  (368) 
0.113127

>  <i_epik_Tot_Q>  (368) 
0

>  <i_epik_Tot_abs_Q>  (368) 
0

>  <s_epik_Chemistry_Notes>  (368) 
This compound has an ester and may undergo hydrolysis at high or low pH. This compound contains an acetal/aminal-like group ( X-CH(R)-Y where X, Y are N, S, or O) that may be acid/base labile, releasing an aldehyde.

>  <s_lp_Force_Field>  (368) 
OPLS3e

>  <r_lp_Energy>  (368) 
278.606

>  <b_lp_Chiralities_Consistent>  (368) 
1

>  <s_lp_Variant>  (368) 
111:0-1

>  <s_i_glide_gridfile>  (368) 
pfpi4k_grid

>  <i_i_glide_lignum>  (368) 
30

>  <i_i_glide_rotatable_bonds>  (368) 
1

>  <r_i_docking_score>  (368) 
-1.86351

>  <r_i_glide_ligand_efficiency>  (368) 
-0.0503651

>  <r_i_glide_ligand_efficiency_sa>  (368) 
-0.167828

>  <r_i_glide_ligand_efficiency_ln>  (368) 
-0.404151

>  <r_i_glide_gscore>  (368) 
-1.86351

>  <r_i_glide_lipo>  (368) 
-0.160574

>  <r_i_glide_hbond>  (368) 
0

>  <r_i_glide_metal>  (368) 
-0

>  <r_i_glide_rewards>  (368) 
0

>  <r_i_glide_evdw>  (368) 
-31.536

>  <r_i_glide_ecoul>  (368) 
-0.0809714

>  <r_i_glide_erotb>  (368) 
0

>  <r_i_glide_esite>  (368) 
-0.11399

>  <r_i_glide_emodel>  (368) 
-34.8053

>  <r_i_glide_energy>  (368) 
-31.6169

>  <r_i_glide_einternal>  (368) 
0.361767

>  <r_i_glide_intrahb_reward>  (368) 
-0

>  <i_i_glide_confnum>  (368) 
1

>  <i_i_glide_posenum>  (368) 
24

>  <r_i_glide_eff_state_penalty>  (368) 
0

>  <ligand_id>  (368) 
111

>  <original_smiles>  (368) 
CC1=CC23C4OC5C(C67CC(=O)C2(C)C(=O)C(C)(CN56)C(O)C2Cc5occc5C2(C)C7OC1=O)C43C

>  <smiles>  (368) 
[H]OC1([H])C2([H])C([H])([H])c3oc([H])c([H])c3C2(C([H])([H])[H])C2([H])OC(=O)C(C([H])([H])[H])=C([H])C34C5([H])OC6([H])N7C([H])([H])C1(C([H])([H])[H])C(=O)C3(C([H])([H])[H])C(=O)C([H])([H])C72C6([H])C54C([H])([H])[H]

$$$$
111:0:2
     RDKit          3D

 68 76  0  0  1  0  0  0  0  0999 V2000
   -0.6197   -1.7751    5.5062 C   0  0  0  0  0  0  0  0  0  0  0  0
    0.1488   -0.4817    5.2705 C   0  0  0  0  0  0  0  0  0  0  0  0
   -0.3427    0.4498    4.3478 C   0  0  0  0  0  0  0  0  0  0  0  0
    0.0871    1.8796    3.8921 C   0  0  1  0  0  0  0  0  0  0  0  0
    1.0447    2.5365    2.8539 C   0  0  1  0  0  0  0  0  0  0  0  0
    1.9628    3.5901    3.2659 O   0  0  0  0  0  0  0  0  0  0  0  0
    2.7992    3.2658    4.4002 C   0  0  2  0  0  0  0  0  0  0  0  0
    2.3407    1.9108    4.7802 C   0  0  1  0  0  0  0  0  0  0  0  0
    1.6240    2.4106    6.0922 C   0  0  2  0  0  0  0  0  0  0  0  0
    0.0505    2.3140    6.5977 C   0  0  0  0  0  0  0  0  0  0  0  0
   -1.1498    2.7278    5.8283 C   0  0  0  0  0  0  0  0  0  0  0  0
   -2.3013    2.6688    6.2672 O   0  0  0  0  0  0  0  0  0  0  0  0
   -0.7745    3.1057    4.4766 C   0  0  2  0  0  0  0  0  0  0  0  0
   -2.0445    3.1984    3.5802 C   0  0  0  0  0  0  0  0  0  0  0  0
   -0.2611    4.5961    4.7433 C   0  0  0  0  0  0  0  0  0  0  0  0
   -0.4364    5.3564    3.7913 O   0  0  0  0  0  0  0  0  0  0  0  0
    0.4866    5.2578    6.0438 C   0  0  2  0  0  0  0  0  0  0  0  0
    0.2285    6.8019    5.9600 C   0  0  0  0  0  0  0  0  0  0  0  0
    1.9571    5.0918    5.7956 C   0  0  0  0  0  0  0  0  0  0  0  0
    2.4021    3.6800    5.7698 N   0  0  0  0  0  0  0  0  0  0  0  0
    0.3328    4.9098    7.6258 C   0  0  1  0  0  0  0  0  0  0  0  0
   -1.0254    4.7642    8.0056 O   0  0  0  0  0  0  0  0  0  0  0  0
    1.4475    4.1729    8.5888 C   0  0  1  0  0  0  0  0  0  0  0  0
    0.9316    4.3579   10.0703 C   0  0  0  0  0  0  0  0  0  0  0  0
    0.5555    2.9816   10.3908 C   0  0  0  0  0  0  0  0  0  0  0  0
   -0.2940    2.5404   11.3408 O   0  0  0  0  0  0  0  0  0  0  0  0
   -0.3048    1.1796   11.1315 C   0  0  0  0  0  0  0  0  0  0  0  0
    0.5255    0.8028   10.0970 C   0  0  0  0  0  0  0  0  0  0  0  0
    1.0783    2.0236    9.6292 C   0  0  0  0  0  0  0  0  0  0  0  0
    1.9871    2.5986    8.5877 C   0  0  2  0  0  0  0  0  0  0  0  0
    3.3920    2.6036    9.2433 C   0  0  0  0  0  0  0  0  0  0  0  0
    2.1555    1.7022    7.2786 C   0  0  1  0  0  0  0  0  0  0  0  0
    1.5408    0.3604    7.2677 O   0  0  0  0  0  0  0  0  0  0  0  0
    1.4368   -0.4970    6.1336 C   0  0  0  0  0  0  0  0  0  0  0  0
    2.3365   -1.3037    5.9048 O   0  0  0  0  0  0  0  0  0  0  0  0
    1.5422    1.4897    3.6626 C   0  0  1  0  0  0  0  0  0  0  0  0
    2.0927    0.3203    2.8307 C   0  0  0  0  0  0  0  0  0  0  0  0
    0.0101   -2.6432    5.3071 H   0  0  0  0  0  0  0  0  0  0  0  0
   -1.5059   -1.8485    4.8778 H   0  0  0  0  0  0  0  0  0  0  0  0
   -0.9380   -1.8356    6.5470 H   0  0  0  0  0  0  0  0  0  0  0  0
   -1.2717    0.1605    3.8769 H   0  0  0  0  0  0  0  0  0  0  0  0
    0.9034    2.3923    1.7815 H   0  0  0  0  0  0  0  0  0  0  0  0
    3.8774    3.3723    4.2709 H   0  0  0  0  0  0  0  0  0  0  0  0
    3.2158    1.2844    4.9617 H   0  0  0  0  0  0  0  0  0  0  0  0
   -0.3057    1.3100    6.7704 H   0  0  0  0  0  0  0  0  0  0  0  0
   -0.1283    2.6474    7.5980 H   0  0  0  0  0  0  0  0  0  0  0  0
   -2.7195    3.9963    3.8938 H   0  0  0  0  0  0  0  0  0  0  0  0
   -2.6202    2.2716    3.5843 H   0  0  0  0  0  0  0  0  0  0  0  0
   -1.7794    3.3977    2.5397 H   0  0  0  0  0  0  0  0  0  0  0  0
    0.9140    7.3733    6.5859 H   0  0  0  0  0  0  0  0  0  0  0  0
   -0.7744    7.0551    6.2943 H   0  0  0  0  0  0  0  0  0  0  0  0
    0.3577    7.2383    4.9704 H   0  0  0  0  0  0  0  0  0  0  0  0
    2.2291    5.5627    4.8510 H   0  0  0  0  0  0  0  0  0  0  0  0
    2.5450    5.6229    6.5440 H   0  0  0  0  0  0  0  0  0  0  0  0
    0.4527    5.8950    8.0764 H   0  0  0  0  0  0  0  0  0  0  0  0
   -1.0849    4.7484    8.9529 H   0  0  0  0  0  0  0  0  0  0  0  0
    2.3374    4.7951    8.4899 H   0  0  0  0  0  0  0  0  0  0  0  0
    1.7642    4.6455   10.7141 H   0  0  0  0  0  0  0  0  0  0  0  0
    0.1366    5.0835   10.2455 H   0  0  0  0  0  0  0  0  0  0  0  0
   -0.9666    0.6358   11.7901 H   0  0  0  0  0  0  0  0  0  0  0  0
    0.6768   -0.2012    9.7333 H   0  0  0  0  0  0  0  0  0  0  0  0
    4.1120    3.1576    8.6384 H   0  0  0  0  0  0  0  0  0  0  0  0
    3.7739    1.5915    9.3798 H   0  0  0  0  0  0  0  0  0  0  0  0
    3.3914    3.0647   10.2322 H   0  0  0  0  0  0  0  0  0  0  0  0
    3.2250    1.5435    7.1300 H   0  0  0  0  0  0  0  0  0  0  0  0
    3.0421    0.6071    2.3788 H   0  0  0  0  0  0  0  0  0  0  0  0
    1.4064    0.0741    2.0150 H   0  0  0  0  0  0  0  0  0  0  0  0
    2.2490   -0.5860    3.4159 H   0  0  0  0  0  0  0  0  0  0  0  0
  1  2  1  0
  1 38  1  0
  1 39  1  0
  1 40  1  0
  2 34  1  0
  2  3  2  3
  4  3  1  6
  3 41  1  0
  4 13  1  0
  4 36  1  0
  4  5  1  0
  5 36  1  0
  5  6  1  0
  5 42  1  6
  6  7  1  0
  7 20  1  0
  7  8  1  0
  7 43  1  6
  8  9  1  0
  8 36  1  0
  8 44  1  1
  9 20  1  0
  9 32  1  0
  9 10  1  6
 10 11  1  0
 10 45  1  0
 10 46  1  0
 11 12  2  0
 11 13  1  0
 13 14  1  6
 13 15  1  0
 14 47  1  0
 14 48  1  0
 14 49  1  0
 15 16  2  0
 15 17  1  0
 17 18  1  1
 17 19  1  0
 17 21  1  0
 18 50  1  0
 18 51  1  0
 18 52  1  0
 19 20  1  0
 19 53  1  0
 19 54  1  0
 21 22  1  0
 21 23  1  0
 21 55  1  1
 22 56  1  0
 23 30  1  0
 23 24  1  0
 23 57  1  1
 24 25  1  0
 24 58  1  0
 24 59  1  0
 25 29  2  0
 25 26  1  0
 26 27  1  0
 27 28  2  0
 27 60  1  0
 28 29  1  0
 28 61  1  0
 29 30  1  0
 30 31  1  1
 30 32  1  0
 31 62  1  0
 31 63  1  0
 31 64  1  0
 32 33  1  0
 32 65  1  6
 33 34  1  0
 34 35  2  0
 36 37  1  6
 37 66  1  0
 37 67  1  0
 37 68  1  0
M  END
>  <i_m_ct_stereo_status>  (369) 
1

>  <s_m_source_file>  (369) 
/var/tmp/pbs.5076255.sched01/tmpbvzcvm50/120d7_yi5_y.sdf

>  <i_m_source_file_index>  (369) 
30

>  <i_lp_mmshare_version>  (369) 
48012

>  <i_f3d_flags>  (369) 
0

>  <s_epik_input>  (369) 
W0NIM10vQyg9W0NIXS8xKUMoPU8pT1tDQEBIXTJbQ0BdKFtDSDNdKShjM2MoW0NIMl00KW9bY0hdW2NIXTMpW0NASF00W0NASF0oW09IXSlbQ0BdKFtDSDNdKShDKD1PKVtDQF01KFtDSDNdKUMoPU8pW0NIMl02KVtDSDJdTihbQ0BASF03TzgpW0NAQF0yNltDQEhdN1tDQEBdOShbQ0BIXThbQ0BdMTU5KVtDSDNd

>  <s_epik_cmdline>  (369) 
J2VwaWtfcHl0aG9uJywgJy1waHQnLCAnMi4wJywgJy1waCcsICc3LjAnLCAnLXRuJywgJzgnLCAnLW1hJywgJzIwMCcsICctaW1hZScsICc8aW5maWxlLm1hZT4nLCAnLW9tYWUnLCAnPG91dGZpbGUubWFlPic=

>  <r_epik_Ionization_Penalty>  (369) 
0.123636

>  <r_epik_Ionization_Penalty_Charging>  (369) 
0

>  <r_epik_Ionization_Penalty_Neutral>  (369) 
0.123636

>  <r_epik_State_Penalty>  (369) 
0.113127

>  <r_epik_Charging_Adjusted_Penalty>  (369) 
0.113127

>  <i_epik_Tot_Q>  (369) 
0

>  <i_epik_Tot_abs_Q>  (369) 
0

>  <s_epik_Chemistry_Notes>  (369) 
This compound has an ester and may undergo hydrolysis at high or low pH. This compound contains an acetal/aminal-like group ( X-CH(R)-Y where X, Y are N, S, or O) that may be acid/base labile, releasing an aldehyde.

>  <s_lp_Force_Field>  (369) 
OPLS3e

>  <r_lp_Energy>  (369) 
278.606

>  <b_lp_Chiralities_Consistent>  (369) 
1

>  <s_lp_Variant>  (369) 
111:0-1

>  <s_i_glide_gridfile>  (369) 
pfpi4k_grid

>  <i_i_glide_lignum>  (369) 
30

>  <i_i_glide_rotatable_bonds>  (369) 
1

>  <r_i_docking_score>  (369) 
-1.74623

>  <r_i_glide_ligand_efficiency>  (369) 
-0.0471953

>  <r_i_glide_ligand_efficiency_sa>  (369) 
-0.157265

>  <r_i_glide_ligand_efficiency_ln>  (369) 
-0.378715

>  <r_i_glide_gscore>  (369) 
-1.74623

>  <r_i_glide_lipo>  (369) 
0

>  <r_i_glide_hbond>  (369) 
-0.051109

>  <r_i_glide_metal>  (369) 
-0

>  <r_i_glide_rewards>  (369) 
-0.0113335

>  <r_i_glide_evdw>  (369) 
-27.1808

>  <r_i_glide_ecoul>  (369) 
-1.78901

>  <r_i_glide_erotb>  (369) 
0

>  <r_i_glide_esite>  (369) 
-0.0563916

>  <r_i_glide_emodel>  (369) 
-31.9876

>  <r_i_glide_energy>  (369) 
-28.9698

>  <r_i_glide_einternal>  (369) 
0.34656

>  <r_i_glide_intrahb_reward>  (369) 
-0

>  <i_i_glide_confnum>  (369) 
2

>  <i_i_glide_posenum>  (369) 
3

>  <r_i_glide_eff_state_penalty>  (369) 
0

>  <ligand_id>  (369) 
111

>  <original_smiles>  (369) 
CC1=CC23C4OC5C(C67CC(=O)C2(C)C(=O)C(C)(CN56)C(O)C2Cc5occc5C2(C)C7OC1=O)C43C

>  <smiles>  (369) 
[H]OC1([H])C2([H])C([H])([H])c3oc([H])c([H])c3C2(C([H])([H])[H])C2([H])OC(=O)C(C([H])([H])[H])=C([H])C34C5([H])OC6([H])N7C([H])([H])C1(C([H])([H])[H])C(=O)C3(C([H])([H])[H])C(=O)C([H])([H])C72C6([H])C54C([H])([H])[H]

$$$$
111:2:0
     RDKit          3D

 69 77  0  0  1  0  0  0  0  0999 V2000
    2.1606   -0.7562   10.0187 C   0  0  0  0  0  0  0  0  0  0  0  0
    2.4865   -0.1301    8.6699 C   0  0  0  0  0  0  0  0  0  0  0  0
    2.7824   -0.9606    7.5829 C   0  0  0  0  0  0  0  0  0  0  0  0
    3.0773   -0.7224    6.0692 C   0  0  1  0  0  0  0  0  0  0  0  0
    4.2887   -0.3782    5.1516 C   0  0  1  0  0  0  0  0  0  0  0  0
    4.1515    0.6796    4.1667 O   0  0  0  0  0  0  0  0  0  0  0  0
    3.8156    1.9759    4.7239 C   0  0  2  0  0  0  0  0  0  0  0  0
    3.5503    1.6701    6.1356 C   0  0  1  0  0  0  0  0  0  0  0  0
    1.9970    1.7899    5.9347 C   0  0  2  0  0  0  0  0  0  0  0  0
    0.7638    0.7206    6.2256 C   0  0  0  0  0  0  0  0  0  0  0  0
    0.6527   -0.6721    5.7218 C   0  0  0  0  0  0  0  0  0  0  0  0
   -0.3149   -1.4075    5.9404 O   0  0  0  0  0  0  0  0  0  0  0  0
    1.8776   -1.0537    5.0401 C   0  0  2  0  0  0  0  0  0  0  0  0
    1.9206   -2.5862    4.8035 C   0  0  0  0  0  0  0  0  0  0  0  0
    1.6228   -0.3663    3.6172 C   0  0  0  0  0  0  0  0  0  0  0  0
    2.2580   -0.8850    2.6968 O   0  0  0  0  0  0  0  0  0  0  0  0
    0.8119    1.0012    3.2293 C   0  0  2  0  0  0  0  0  0  0  0  0
    0.3762    0.8232    1.7427 C   0  0  0  0  0  0  0  0  0  0  0  0
    1.8632    2.0750    3.2446 C   0  0  0  0  0  0  0  0  0  0  0  0
    2.4069    2.3641    4.5874 N   0  0  2  0  0  0  0  0  0  0  0  0
   -0.4796    1.7109    3.9252 C   0  0  1  0  0  0  0  0  0  0  0  0
   -1.4972    0.7720    4.2384 O   0  0  0  0  0  0  0  0  0  0  0  0
   -0.4986    3.1083    4.8030 C   0  0  1  0  0  0  0  0  0  0  0  0
   -2.0251    3.4677    4.9753 C   0  0  0  0  0  0  0  0  0  0  0  0
   -2.2112    3.2006    6.4039 C   0  0  0  0  0  0  0  0  0  0  0  0
   -3.3570    2.9485    7.0800 O   0  0  0  0  0  0  0  0  0  0  0  0
   -2.9085    2.7507    8.3677 C   0  0  0  0  0  0  0  0  0  0  0  0
   -1.5379    2.8447    8.4668 C   0  0  0  0  0  0  0  0  0  0  0  0
   -1.1128    3.1620    7.1457 C   0  0  0  0  0  0  0  0  0  0  0  0
    0.1102    3.4295    6.3202 C   0  0  2  0  0  0  0  0  0  0  0  0
    0.3274    4.9648    6.4136 C   0  0  0  0  0  0  0  0  0  0  0  0
    1.4657    2.8122    6.8791 C   0  0  1  0  0  0  0  0  0  0  0  0
    1.4223    2.1694    8.2113 O   0  0  0  0  0  0  0  0  0  0  0  0
    2.4723    1.4143    8.8052 C   0  0  0  0  0  0  0  0  0  0  0  0
    3.3268    1.9948    9.4683 O   0  0  0  0  0  0  0  0  0  0  0  0
    4.1223    0.3690    6.3391 C   0  0  1  0  0  0  0  0  0  0  0  0
    5.3514    0.3075    7.2585 C   0  0  0  0  0  0  0  0  0  0  0  0
    2.8420   -0.3989   10.7931 H   0  0  0  0  0  0  0  0  0  0  0  0
    2.2203   -1.8446   10.0044 H   0  0  0  0  0  0  0  0  0  0  0  0
    1.1494   -0.4842   10.3254 H   0  0  0  0  0  0  0  0  0  0  0  0
    2.7386   -2.0150    7.8070 H   0  0  0  0  0  0  0  0  0  0  0  0
    5.1256   -1.0549    5.0235 H   0  0  0  0  0  0  0  0  0  0  0  0
    4.5336    2.7643    4.5544 H   0  0  0  0  0  0  0  0  0  0  0  0
    3.9896    2.4535    6.7602 H   0  0  0  0  0  0  0  0  0  0  0  0
    0.6642    0.4240    7.2571 H   0  0  0  0  0  0  0  0  0  0  0  0
   -0.2208    1.1277    6.1458 H   0  0  0  0  0  0  0  0  0  0  0  0
    1.1379   -2.9227    4.1199 H   0  0  0  0  0  0  0  0  0  0  0  0
    1.8077   -3.1437    5.7340 H   0  0  0  0  0  0  0  0  0  0  0  0
    2.8769   -2.8868    4.3690 H   0  0  0  0  0  0  0  0  0  0  0  0
    0.0862    1.7593    1.2592 H   0  0  0  0  0  0  0  0  0  0  0  0
   -0.4842    0.1576    1.6853 H   0  0  0  0  0  0  0  0  0  0  0  0
    1.1429    0.4110    1.0886 H   0  0  0  0  0  0  0  0  0  0  0  0
    2.6658    1.8483    2.5386 H   0  0  0  0  0  0  0  0  0  0  0  0
    1.4550    3.0025    2.8435 H   0  0  0  0  0  0  0  0  0  0  0  0
   -0.9837    2.1461    3.0587 H   0  0  0  0  0  0  0  0  0  0  0  0
   -2.2528    0.9310    3.6838 H   0  0  0  0  0  0  0  0  0  0  0  0
   -0.0644    3.8582    4.1404 H   0  0  0  0  0  0  0  0  0  0  0  0
   -2.1515    4.5353    4.8006 H   0  0  0  0  0  0  0  0  0  0  0  0
   -2.7435    2.9621    4.3354 H   0  0  0  0  0  0  0  0  0  0  0  0
   -3.6831    2.5390    9.0817 H   0  0  0  0  0  0  0  0  0  0  0  0
   -0.9597    2.6952    9.3646 H   0  0  0  0  0  0  0  0  0  0  0  0
    1.0977    5.3065    5.7209 H   0  0  0  0  0  0  0  0  0  0  0  0
    0.6282    5.2640    7.4206 H   0  0  0  0  0  0  0  0  0  0  0  0
   -0.5779    5.5304    6.1897 H   0  0  0  0  0  0  0  0  0  0  0  0
    2.1946    3.6195    6.9643 H   0  0  0  0  0  0  0  0  0  0  0  0
    6.1714    0.8881    6.8330 H   0  0  0  0  0  0  0  0  0  0  0  0
    5.6991   -0.7244    7.3716 H   0  0  0  0  0  0  0  0  0  0  0  0
    5.1470    0.6936    8.2546 H   0  0  0  0  0  0  0  0  0  0  0  0
    2.4054    3.3701    4.7012 H   0  0  0  0  0  0  0  0  0  0  0  0
  1  2  1  0
  1 38  1  0
  1 39  1  0
  1 40  1  0
  2 34  1  0
  2  3  2  3
  4  3  1  1
  3 41  1  0
  4 13  1  0
  4 36  1  0
  4  5  1  0
  5 36  1  0
  5  6  1  0
  5 42  1  1
  6  7  1  0
  7 20  1  0
  7  8  1  0
  7 43  1  1
  8  9  1  0
  8 36  1  0
  8 44  1  1
  9 20  1  0
  9 32  1  0
  9 10  1  6
 10 11  1  0
 10 45  1  0
 10 46  1  0
 11 12  2  0
 11 13  1  0
 13 14  1  6
 13 15  1  0
 14 47  1  0
 14 48  1  0
 14 49  1  0
 15 16  2  0
 15 17  1  0
 17 18  1  6
 17 19  1  0
 17 21  1  0
 18 50  1  0
 18 51  1  0
 18 52  1  0
 19 20  1  0
 19 53  1  0
 19 54  1  0
 20 69  1  1
 21 22  1  0
 21 23  1  0
 21 55  1  6
 22 56  1  0
 23 30  1  0
 23 24  1  0
 23 57  1  6
 24 25  1  0
 24 58  1  0
 24 59  1  0
 25 29  2  0
 25 26  1  0
 26 27  1  0
 27 28  2  0
 27 60  1  0
 28 29  1  0
 28 61  1  0
 29 30  1  0
 30 31  1  6
 30 32  1  0
 31 62  1  0
 31 63  1  0
 31 64  1  0
 32 33  1  0
 32 65  1  1
 33 34  1  0
 34 35  2  0
 36 37  1  1
 37 66  1  0
 37 67  1  0
 37 68  1  0
M  CHG  1  20   1
M  END
>  <i_m_ct_stereo_status>  (370) 
1

>  <s_m_source_file>  (370) 
/var/tmp/pbs.5076255.sched01/tmpbvzcvm50/120d7_yi5_y.sdf

>  <i_m_source_file_index>  (370) 
32

>  <i_lp_mmshare_version>  (370) 
48012

>  <i_f3d_flags>  (370) 
0

>  <s_epik_input>  (370) 
W0NIM10vQyg9W0NIXS8xKUMoPU8pT1tDQEBIXTJbQ0BdKFtDSDNdKShjM2MoW0NIMl00KW9bY0hdW2NIXTMpW0NASF00W0NASF0oW09IXSlbQ0BdKFtDSDNdKShDKD1PKVtDQF01KFtDSDNdKUMoPU8pW0NIMl02KVtDSDJdTihbQ0BASF03TzgpW0NAQF0yNltDQEhdN1tDQEBdOShbQ0BIXThbQ0BdMTU5KVtDSDNd

>  <s_epik_cmdline>  (370) 
J2VwaWtfcHl0aG9uJywgJy1waHQnLCAnMi4wJywgJy1waCcsICc3LjAnLCAnLXRuJywgJzgnLCAnLW1hJywgJzIwMCcsICctaW1hZScsICc8aW5maWxlLm1hZT4nLCAnLW9tYWUnLCAnPG91dGZpbGUubWFlPic=

>  <r_epik_Ionization_Penalty>  (370) 
0.989176

>  <r_epik_Ionization_Penalty_Charging>  (370) 
0.989162

>  <r_epik_Ionization_Penalty_Neutral>  (370) 
1.40007e-05

>  <r_epik_State_Penalty>  (370) 
1.03671

>  <r_epik_Charging_Adjusted_Penalty>  (370) 
2.02587

>  <i_epik_Tot_Q>  (370) 
1

>  <i_epik_Tot_abs_Q>  (370) 
1

>  <s_epik_Chemistry_Notes>  (370) 
This compound has an ester and may undergo hydrolysis at high or low pH. This compound contains an acetal/aminal-like group ( X-CH(R)-Y where X, Y are N, S, or O) that may be acid/base labile, releasing an aldehyde.

>  <s_lp_Force_Field>  (370) 
OPLS3e

>  <r_lp_Energy>  (370) 
279.876

>  <b_lp_Chiralities_Consistent>  (370) 
1

>  <s_lp_Variant>  (370) 
111:0-3

>  <s_i_glide_gridfile>  (370) 
pfpi4k_grid

>  <i_i_glide_lignum>  (370) 
32

>  <i_i_glide_rotatable_bonds>  (370) 
1

>  <r_i_docking_score>  (370) 
-2.29818

>  <r_i_glide_ligand_efficiency>  (370) 
-0.062113

>  <r_i_glide_ligand_efficiency_sa>  (370) 
-0.206974

>  <r_i_glide_ligand_efficiency_ln>  (370) 
-0.498422

>  <r_i_glide_gscore>  (370) 
-2.29818

>  <r_i_glide_lipo>  (370) 
-0.223056

>  <r_i_glide_hbond>  (370) 
0

>  <r_i_glide_metal>  (370) 
-0

>  <r_i_glide_rewards>  (370) 
0

>  <r_i_glide_evdw>  (370) 
-25.4796

>  <r_i_glide_ecoul>  (370) 
-5.15669

>  <r_i_glide_erotb>  (370) 
0

>  <r_i_glide_esite>  (370) 
-0.0276412

>  <r_i_glide_emodel>  (370) 
-34.7472

>  <r_i_glide_energy>  (370) 
-30.6363

>  <r_i_glide_einternal>  (370) 
0.865193

>  <r_i_glide_intrahb_reward>  (370) 
-0

>  <i_i_glide_confnum>  (370) 
1

>  <i_i_glide_posenum>  (370) 
1

>  <r_i_glide_eff_state_penalty>  (370) 
0

>  <ligand_id>  (370) 
111

>  <original_smiles>  (370) 
CC1=CC23C4OC5C(C67CC(=O)C2(C)C(=O)C(C)(CN56)C(O)C2Cc5occc5C2(C)C7OC1=O)C43C

>  <smiles>  (370) 
[H]OC1([H])C2([H])C([H])([H])c3oc([H])c([H])c3C2(C([H])([H])[H])C2([H])OC(=O)C(C([H])([H])[H])=C([H])C34C5([H])OC6([H])C([H])(C53C([H])([H])[H])C23C([H])([H])C(=O)C4(C([H])([H])[H])C(=O)C1(C([H])([H])[H])C([H])([H])[N+]63[H]

$$$$
111:2:1
     RDKit          3D

 69 77  0  0  1  0  0  0  0  0999 V2000
    3.3916   -1.9804    5.4908 C   0  0  0  0  0  0  0  0  0  0  0  0
    3.4502   -3.3839    6.0801 C   0  0  0  0  0  0  0  0  0  0  0  0
    2.6334   -3.7070    7.1682 C   0  0  0  0  0  0  0  0  0  0  0  0
    2.3480   -5.0082    7.9789 C   0  0  1  0  0  0  0  0  0  0  0  0
    2.9531   -5.8005    9.1741 C   0  0  1  0  0  0  0  0  0  0  0  0
    3.1432   -7.2359    9.0363 O   0  0  0  0  0  0  0  0  0  0  0  0
    4.0341   -7.6208    7.9635 C   0  0  2  0  0  0  0  0  0  0  0  0
    4.2554   -6.3522    7.2566 C   0  0  1  0  0  0  0  0  0  0  0  0
    3.2777   -6.7526    6.0907 C   0  0  2  0  0  0  0  0  0  0  0  0
    1.9214   -6.0245    5.4831 C   0  0  0  0  0  0  0  0  0  0  0  0
    0.7279   -5.5901    6.2496 C   0  0  0  0  0  0  0  0  0  0  0  0
   -0.2761   -5.0895    5.7412 O   0  0  0  0  0  0  0  0  0  0  0  0
    0.9519   -5.7531    7.6719 C   0  0  2  0  0  0  0  0  0  0  0  0
   -0.1333   -5.0059    8.4905 C   0  0  0  0  0  0  0  0  0  0  0  0
    0.6425   -7.3137    7.8097 C   0  0  0  0  0  0  0  0  0  0  0  0
    0.2759   -7.6477    8.9383 O   0  0  0  0  0  0  0  0  0  0  0  0
    0.8835   -8.5375    6.7479 C   0  0  2  0  0  0  0  0  0  0  0  0
   -0.1360   -9.6518    7.1632 C   0  0  0  0  0  0  0  0  0  0  0  0
    2.2562   -9.0539    7.0754 C   0  0  0  0  0  0  0  0  0  0  0  0
    3.3528   -8.1089    6.7634 N   0  0  2  0  0  0  0  0  0  0  0  0
    0.8350   -8.5728    5.1179 C   0  0  1  0  0  0  0  0  0  0  0  0
   -0.2946   -7.8866    4.6045 O   0  0  0  0  0  0  0  0  0  0  0  0
    2.1089   -8.7325    4.0795 C   0  0  1  0  0  0  0  0  0  0  0  0
    1.4721   -8.9962    2.6584 C   0  0  0  0  0  0  0  0  0  0  0  0
    1.7712   -7.7259    1.9892 C   0  0  0  0  0  0  0  0  0  0  0  0
    1.1567   -7.1616    0.9220 O   0  0  0  0  0  0  0  0  0  0  0  0
    1.8327   -5.9730    0.7780 C   0  0  0  0  0  0  0  0  0  0  0  0
    2.8064   -5.8029    1.7421 C   0  0  0  0  0  0  0  0  0  0  0  0
    2.7409   -6.9805    2.5260 C   0  0  0  0  0  0  0  0  0  0  0  0
    3.3333   -7.6614    3.7252 C   0  0  2  0  0  0  0  0  0  0  0  0
    4.5196   -8.4899    3.1667 C   0  0  0  0  0  0  0  0  0  0  0  0
    4.0067   -6.6925    4.7944 C   0  0  1  0  0  0  0  0  0  0  0  0
    4.1075   -5.2593    4.4421 O   0  0  0  0  0  0  0  0  0  0  0  0
    4.5160   -4.2119    5.3178 C   0  0  0  0  0  0  0  0  0  0  0  0
    5.7103   -3.9398    5.4169 O   0  0  0  0  0  0  0  0  0  0  0  0
    3.8338   -5.3331    8.1756 C   0  0  1  0  0  0  0  0  0  0  0  0
    4.9426   -4.4311    8.7323 C   0  0  0  0  0  0  0  0  0  0  0  0
    4.3754   -1.5075    5.5041 H   0  0  0  0  0  0  0  0  0  0  0  0
    2.7035   -1.3255    6.0260 H   0  0  0  0  0  0  0  0  0  0  0  0
    3.0631   -2.0213    4.4505 H   0  0  0  0  0  0  0  0  0  0  0  0
    2.0064   -2.8959    7.5021 H   0  0  0  0  0  0  0  0  0  0  0  0
    2.9740   -5.3915   10.1799 H   0  0  0  0  0  0  0  0  0  0  0  0
    4.9398   -8.1505    8.2506 H   0  0  0  0  0  0  0  0  0  0  0  0
    5.3030   -6.2829    6.9534 H   0  0  0  0  0  0  0  0  0  0  0  0
    2.0864   -5.0455    5.0664 H   0  0  0  0  0  0  0  0  0  0  0  0
    1.5370   -6.4462    4.5778 H   0  0  0  0  0  0  0  0  0  0  0  0
   -1.1304   -5.4305    8.3431 H   0  0  0  0  0  0  0  0  0  0  0  0
   -0.1846   -3.9498    8.2251 H   0  0  0  0  0  0  0  0  0  0  0  0
    0.0822   -5.0546    9.5606 H   0  0  0  0  0  0  0  0  0  0  0  0
    0.1060  -10.6292    6.7419 H   0  0  0  0  0  0  0  0  0  0  0  0
   -1.1552   -9.4420    6.8321 H   0  0  0  0  0  0  0  0  0  0  0  0
   -0.1600   -9.8329    8.2336 H   0  0  0  0  0  0  0  0  0  0  0  0
    2.3068   -9.3879    8.1139 H   0  0  0  0  0  0  0  0  0  0  0  0
    2.4424   -9.9800    6.5337 H   0  0  0  0  0  0  0  0  0  0  0  0
    0.4468   -9.5763    4.9281 H   0  0  0  0  0  0  0  0  0  0  0  0
   -1.0392   -8.4725    4.6605 H   0  0  0  0  0  0  0  0  0  0  0  0
    2.6007   -9.6557    4.3872 H   0  0  0  0  0  0  0  0  0  0  0  0
    2.0247   -9.7914    2.1561 H   0  0  0  0  0  0  0  0  0  0  0  0
    0.4171   -9.2770    2.6193 H   0  0  0  0  0  0  0  0  0  0  0  0
    1.5112   -5.3659   -0.0524 H   0  0  0  0  0  0  0  0  0  0  0  0
    3.4470   -4.9418    1.8455 H   0  0  0  0  0  0  0  0  0  0  0  0
    4.9380   -9.1563    3.9219 H   0  0  0  0  0  0  0  0  0  0  0  0
    5.3258   -7.8472    2.8072 H   0  0  0  0  0  0  0  0  0  0  0  0
    4.2355   -9.1174    2.3201 H   0  0  0  0  0  0  0  0  0  0  0  0
    5.0296   -7.0295    4.9528 H   0  0  0  0  0  0  0  0  0  0  0  0
    5.6596   -5.0234    9.3022 H   0  0  0  0  0  0  0  0  0  0  0  0
    4.5246   -3.6794    9.4068 H   0  0  0  0  0  0  0  0  0  0  0  0
    5.4867   -3.9047    7.9500 H   0  0  0  0  0  0  0  0  0  0  0  0
    4.0506   -8.6275    6.2605 H   0  0  0  0  0  0  0  0  0  0  0  0
  1  2  1  0
  1 38  1  0
  1 39  1  0
  1 40  1  0
  2 34  1  0
  2  3  2  3
  4  3  1  1
  3 41  1  0
  4 13  1  0
  4 36  1  0
  4  5  1  0
  5 36  1  0
  5  6  1  0
  5 42  1  1
  6  7  1  0
  7 20  1  0
  7  8  1  0
  7 43  1  1
  8  9  1  0
  8 36  1  0
  8 44  1  6
  9 20  1  0
  9 32  1  0
  9 10  1  6
 10 11  1  0
 10 45  1  0
 10 46  1  0
 11 12  2  0
 11 13  1  0
 13 14  1  1
 13 15  1  0
 14 47  1  0
 14 48  1  0
 14 49  1  0
 15 16  2  0
 15 17  1  0
 17 18  1  1
 17 19  1  0
 17 21  1  0
 18 50  1  0
 18 51  1  0
 18 52  1  0
 19 20  1  0
 19 53  1  0
 19 54  1  0
 20 69  1  6
 21 22  1  0
 21 23  1  0
 21 55  1  1
 22 56  1  0
 23 30  1  0
 23 24  1  0
 23 57  1  1
 24 25  1  0
 24 58  1  0
 24 59  1  0
 25 29  2  0
 25 26  1  0
 26 27  1  0
 27 28  2  0
 27 60  1  0
 28 29  1  0
 28 61  1  0
 29 30  1  0
 30 31  1  6
 30 32  1  0
 31 62  1  0
 31 63  1  0
 31 64  1  0
 32 33  1  0
 32 65  1  1
 33 34  1  0
 34 35  2  0
 36 37  1  1
 37 66  1  0
 37 67  1  0
 37 68  1  0
M  CHG  1  20   1
M  END
>  <i_m_ct_stereo_status>  (371) 
1

>  <s_m_source_file>  (371) 
/var/tmp/pbs.5076255.sched01/tmpbvzcvm50/120d7_yi5_y.sdf

>  <i_m_source_file_index>  (371) 
32

>  <i_lp_mmshare_version>  (371) 
48012

>  <i_f3d_flags>  (371) 
0

>  <s_epik_input>  (371) 
W0NIM10vQyg9W0NIXS8xKUMoPU8pT1tDQEBIXTJbQ0BdKFtDSDNdKShjM2MoW0NIMl00KW9bY0hdW2NIXTMpW0NASF00W0NASF0oW09IXSlbQ0BdKFtDSDNdKShDKD1PKVtDQF01KFtDSDNdKUMoPU8pW0NIMl02KVtDSDJdTihbQ0BASF03TzgpW0NAQF0yNltDQEhdN1tDQEBdOShbQ0BIXThbQ0BdMTU5KVtDSDNd

>  <s_epik_cmdline>  (371) 
J2VwaWtfcHl0aG9uJywgJy1waHQnLCAnMi4wJywgJy1waCcsICc3LjAnLCAnLXRuJywgJzgnLCAnLW1hJywgJzIwMCcsICctaW1hZScsICc8aW5maWxlLm1hZT4nLCAnLW9tYWUnLCAnPG91dGZpbGUubWFlPic=

>  <r_epik_Ionization_Penalty>  (371) 
0.989176

>  <r_epik_Ionization_Penalty_Charging>  (371) 
0.989162

>  <r_epik_Ionization_Penalty_Neutral>  (371) 
1.40007e-05

>  <r_epik_State_Penalty>  (371) 
1.03671

>  <r_epik_Charging_Adjusted_Penalty>  (371) 
2.02587

>  <i_epik_Tot_Q>  (371) 
1

>  <i_epik_Tot_abs_Q>  (371) 
1

>  <s_epik_Chemistry_Notes>  (371) 
This compound has an ester and may undergo hydrolysis at high or low pH. This compound contains an acetal/aminal-like group ( X-CH(R)-Y where X, Y are N, S, or O) that may be acid/base labile, releasing an aldehyde.

>  <s_lp_Force_Field>  (371) 
OPLS3e

>  <r_lp_Energy>  (371) 
279.876

>  <b_lp_Chiralities_Consistent>  (371) 
1

>  <s_lp_Variant>  (371) 
111:0-3

>  <s_i_glide_gridfile>  (371) 
pfpi4k_grid

>  <i_i_glide_lignum>  (371) 
32

>  <i_i_glide_rotatable_bonds>  (371) 
1

>  <r_i_docking_score>  (371) 
-2.1349

>  <r_i_glide_ligand_efficiency>  (371) 
-0.0577

>  <r_i_glide_ligand_efficiency_sa>  (371) 
-0.192269

>  <r_i_glide_ligand_efficiency_ln>  (371) 
-0.46301

>  <r_i_glide_gscore>  (371) 
-2.1349

>  <r_i_glide_lipo>  (371) 
-0.0084747

>  <r_i_glide_hbond>  (371) 
-0.114954

>  <r_i_glide_metal>  (371) 
-0

>  <r_i_glide_rewards>  (371) 
-0.00132313

>  <r_i_glide_evdw>  (371) 
-23.5328

>  <r_i_glide_ecoul>  (371) 
-5.42162

>  <r_i_glide_erotb>  (371) 
0

>  <r_i_glide_esite>  (371) 
-0.0202631

>  <r_i_glide_emodel>  (371) 
-32.844

>  <r_i_glide_energy>  (371) 
-28.9544

>  <r_i_glide_einternal>  (371) 
0.663492

>  <r_i_glide_intrahb_reward>  (371) 
-0

>  <i_i_glide_confnum>  (371) 
2

>  <i_i_glide_posenum>  (371) 
12

>  <r_i_glide_eff_state_penalty>  (371) 
0

>  <ligand_id>  (371) 
111

>  <original_smiles>  (371) 
CC1=CC23C4OC5C(C67CC(=O)C2(C)C(=O)C(C)(CN56)C(O)C2Cc5occc5C2(C)C7OC1=O)C43C

>  <smiles>  (371) 
[H]OC1([H])C2([H])C([H])([H])c3oc([H])c([H])c3C2(C([H])([H])[H])C2([H])OC(=O)C(C([H])([H])[H])=C([H])C34C5([H])OC6([H])C([H])(C53C([H])([H])[H])C23C([H])([H])C(=O)C4(C([H])([H])[H])C(=O)C1(C([H])([H])[H])C([H])([H])[N+]63[H]

$$$$
111:2:2
     RDKit          3D

 69 77  0  0  1  0  0  0  0  0999 V2000
    3.1764   -1.8976    9.4648 C   0  0  0  0  0  0  0  0  0  0  0  0
    3.1628   -1.1069    8.1653 C   0  0  0  0  0  0  0  0  0  0  0  0
    3.0097   -1.7870    6.9516 C   0  0  0  0  0  0  0  0  0  0  0  0
    2.8642   -1.3511    5.4606 C   0  0  1  0  0  0  0  0  0  0  0  0
    3.7793   -0.9736    4.2530 C   0  0  1  0  0  0  0  0  0  0  0  0
    3.4855    0.2278    3.4918 O   0  0  0  0  0  0  0  0  0  0  0  0
    3.4945    1.4473    4.2766 C   0  0  2  0  0  0  0  0  0  0  0  0
    3.6320    0.9608    5.6525 C   0  0  1  0  0  0  0  0  0  0  0  0
    2.1171    1.2371    5.9709 C   0  0  2  0  0  0  0  0  0  0  0  0
    0.9080    0.2408    6.5082 C   0  0  0  0  0  0  0  0  0  0  0  0
    0.4758   -1.0443    5.9026 C   0  0  0  0  0  0  0  0  0  0  0  0
   -0.4806   -1.7096    6.3088 O   0  0  0  0  0  0  0  0  0  0  0  0
    1.3781   -1.4204    4.8287 C   0  0  2  0  0  0  0  0  0  0  0  0
    1.1540   -2.8963    4.4154 C   0  0  0  0  0  0  0  0  0  0  0  0
    0.8010   -0.5073    3.6503 C   0  0  0  0  0  0  0  0  0  0  0  0
    1.0500   -0.9402    2.5223 O   0  0  0  0  0  0  0  0  0  0  0  0
    0.0882    0.9637    3.6954 C   0  0  2  0  0  0  0  0  0  0  0  0
   -0.8041    1.0444    2.4100 C   0  0  0  0  0  0  0  0  0  0  0  0
    1.2181    1.9331    3.5045 C   0  0  0  0  0  0  0  0  0  0  0  0
    2.1726    1.9676    4.6365 N   0  0  2  0  0  0  0  0  0  0  0  0
   -0.8283    1.6684    4.8456 C   0  0  1  0  0  0  0  0  0  0  0  0
   -1.7982    0.7750    5.3571 O   0  0  0  0  0  0  0  0  0  0  0  0
   -0.4139    2.9151    5.8444 C   0  0  1  0  0  0  0  0  0  0  0  0
   -1.7583    3.3811    6.5308 C   0  0  0  0  0  0  0  0  0  0  0  0
   -1.5448    2.9174    7.9025 C   0  0  0  0  0  0  0  0  0  0  0  0
   -2.4540    2.6752    8.8757 O   0  0  0  0  0  0  0  0  0  0  0  0
   -1.6747    2.2236    9.9198 C   0  0  0  0  0  0  0  0  0  0  0  0
   -0.3379    2.1925    9.5888 C   0  0  0  0  0  0  0  0  0  0  0  0
   -0.2844    2.6654    8.2541 C   0  0  0  0  0  0  0  0  0  0  0  0
    0.6568    2.9530    7.1161 C   0  0  2  0  0  0  0  0  0  0  0  0
    1.0834    4.4324    7.3159 C   0  0  0  0  0  0  0  0  0  0  0  0
    2.0291    2.1465    7.1449 C   0  0  1  0  0  0  0  0  0  0  0  0
    2.3078    1.3185    8.3394 O   0  0  0  0  0  0  0  0  0  0  0  0
    3.3856    0.3959    8.4796 C   0  0  0  0  0  0  0  0  0  0  0  0
    4.4656    0.7944    8.9060 O   0  0  0  0  0  0  0  0  0  0  0  0
    4.0714   -0.4009    5.5132 C   0  0  1  0  0  0  0  0  0  0  0  0
    5.5007   -0.7026    5.9852 C   0  0  0  0  0  0  0  0  0  0  0  0
    4.0979   -1.7208   10.0231 H   0  0  0  0  0  0  0  0  0  0  0  0
    3.0899   -2.9734    9.3051 H   0  0  0  0  0  0  0  0  0  0  0  0
    2.3436   -1.5922   10.1013 H   0  0  0  0  0  0  0  0  0  0  0  0
    2.9017   -2.8550    7.0526 H   0  0  0  0  0  0  0  0  0  0  0  0
    4.4454   -1.6923    3.7887 H   0  0  0  0  0  0  0  0  0  0  0  0
    4.2061    2.2056    3.9784 H   0  0  0  0  0  0  0  0  0  0  0  0
    4.3334    1.5992    6.1941 H   0  0  0  0  0  0  0  0  0  0  0  0
    1.0850   -0.1955    7.4755 H   0  0  0  0  0  0  0  0  0  0  0  0
    0.0059    0.7381    6.7909 H   0  0  0  0  0  0  0  0  0  0  0  0
    0.1667   -3.0592    3.9781 H   0  0  0  0  0  0  0  0  0  0  0  0
    1.2541   -3.5781    5.2618 H   0  0  0  0  0  0  0  0  0  0  0  0
    1.8884   -3.2106    3.6686 H   0  0  0  0  0  0  0  0  0  0  0  0
   -1.0904    2.0684    2.1535 H   0  0  0  0  0  0  0  0  0  0  0  0
   -1.7306    0.4877    2.5481 H   0  0  0  0  0  0  0  0  0  0  0  0
   -0.3336    0.6646    1.5011 H   0  0  0  0  0  0  0  0  0  0  0  0
    1.7373    1.7488    2.5608 H   0  0  0  0  0  0  0  0  0  0  0  0
    0.8317    2.9411    3.3686 H   0  0  0  0  0  0  0  0  0  0  0  0
   -1.5226    2.2626    4.2464 H   0  0  0  0  0  0  0  0  0  0  0  0
   -2.3926    0.5539    4.6522 H   0  0  0  0  0  0  0  0  0  0  0  0
   -0.1067    3.7135    5.1733 H   0  0  0  0  0  0  0  0  0  0  0  0
   -1.7909    4.4709    6.5421 H   0  0  0  0  0  0  0  0  0  0  0  0
   -2.6947    3.0381    6.0919 H   0  0  0  0  0  0  0  0  0  0  0  0
   -2.2203    1.9495   10.8078 H   0  0  0  0  0  0  0  0  0  0  0  0
    0.4627    1.8572   10.2336 H   0  0  0  0  0  0  0  0  0  0  0  0
    1.6433    4.8091    6.4611 H   0  0  0  0  0  0  0  0  0  0  0  0
    1.7076    4.5518    8.2038 H   0  0  0  0  0  0  0  0  0  0  0  0
    0.2326    5.1000    7.4570 H   0  0  0  0  0  0  0  0  0  0  0  0
    2.8433    2.8678    7.0895 H   0  0  0  0  0  0  0  0  0  0  0  0
    6.2198   -0.1369    5.3931 H   0  0  0  0  0  0  0  0  0  0  0  0
    5.7321   -1.7651    5.8625 H   0  0  0  0  0  0  0  0  0  0  0  0
    5.6566   -0.4530    7.0333 H   0  0  0  0  0  0  0  0  0  0  0  0
    2.3356    2.9440    4.8594 H   0  0  0  0  0  0  0  0  0  0  0  0
  1  2  1  0
  1 38  1  0
  1 39  1  0
  1 40  1  0
  2 34  1  0
  2  3  2  3
  4  3  1  1
  3 41  1  0
  4 13  1  0
  4 36  1  0
  4  5  1  0
  5 36  1  0
  5  6  1  0
  5 42  1  6
  6  7  1  0
  7 20  1  0
  7  8  1  0
  7 43  1  6
  8  9  1  0
  8 36  1  0
  8 44  1  1
  9 20  1  0
  9 32  1  0
  9 10  1  6
 10 11  1  0
 10 45  1  0
 10 46  1  0
 11 12  2  0
 11 13  1  0
 13 14  1  6
 13 15  1  0
 14 47  1  0
 14 48  1  0
 14 49  1  0
 15 16  2  0
 15 17  1  0
 17 18  1  6
 17 19  1  0
 17 21  1  0
 18 50  1  0
 18 51  1  0
 18 52  1  0
 19 20  1  0
 19 53  1  0
 19 54  1  0
 20 69  1  1
 21 22  1  0
 21 23  1  0
 21 55  1  6
 22 56  1  0
 23 30  1  0
 23 24  1  0
 23 57  1  6
 24 25  1  0
 24 58  1  0
 24 59  1  0
 25 29  2  0
 25 26  1  0
 26 27  1  0
 27 28  2  0
 27 60  1  0
 28 29  1  0
 28 61  1  0
 29 30  1  0
 30 31  1  1
 30 32  1  0
 31 62  1  0
 31 63  1  0
 31 64  1  0
 32 33  1  0
 32 65  1  6
 33 34  1  0
 34 35  2  0
 36 37  1  1
 37 66  1  0
 37 67  1  0
 37 68  1  0
M  CHG  1  20   1
M  END
>  <i_m_ct_stereo_status>  (372) 
1

>  <s_m_source_file>  (372) 
/var/tmp/pbs.5076255.sched01/tmpbvzcvm50/120d7_yi5_y.sdf

>  <i_m_source_file_index>  (372) 
32

>  <i_lp_mmshare_version>  (372) 
48012

>  <i_f3d_flags>  (372) 
0

>  <s_epik_input>  (372) 
W0NIM10vQyg9W0NIXS8xKUMoPU8pT1tDQEBIXTJbQ0BdKFtDSDNdKShjM2MoW0NIMl00KW9bY0hdW2NIXTMpW0NASF00W0NASF0oW09IXSlbQ0BdKFtDSDNdKShDKD1PKVtDQF01KFtDSDNdKUMoPU8pW0NIMl02KVtDSDJdTihbQ0BASF03TzgpW0NAQF0yNltDQEhdN1tDQEBdOShbQ0BIXThbQ0BdMTU5KVtDSDNd

>  <s_epik_cmdline>  (372) 
J2VwaWtfcHl0aG9uJywgJy1waHQnLCAnMi4wJywgJy1waCcsICc3LjAnLCAnLXRuJywgJzgnLCAnLW1hJywgJzIwMCcsICctaW1hZScsICc8aW5maWxlLm1hZT4nLCAnLW9tYWUnLCAnPG91dGZpbGUubWFlPic=

>  <r_epik_Ionization_Penalty>  (372) 
0.989176

>  <r_epik_Ionization_Penalty_Charging>  (372) 
0.989162

>  <r_epik_Ionization_Penalty_Neutral>  (372) 
1.40007e-05

>  <r_epik_State_Penalty>  (372) 
1.03671

>  <r_epik_Charging_Adjusted_Penalty>  (372) 
2.02587

>  <i_epik_Tot_Q>  (372) 
1

>  <i_epik_Tot_abs_Q>  (372) 
1

>  <s_epik_Chemistry_Notes>  (372) 
This compound has an ester and may undergo hydrolysis at high or low pH. This compound contains an acetal/aminal-like group ( X-CH(R)-Y where X, Y are N, S, or O) that may be acid/base labile, releasing an aldehyde.

>  <s_lp_Force_Field>  (372) 
OPLS3e

>  <r_lp_Energy>  (372) 
279.876

>  <b_lp_Chiralities_Consistent>  (372) 
1

>  <s_lp_Variant>  (372) 
111:0-3

>  <s_i_glide_gridfile>  (372) 
pfpi4k_grid

>  <i_i_glide_lignum>  (372) 
32

>  <i_i_glide_rotatable_bonds>  (372) 
1

>  <r_i_docking_score>  (372) 
-2.12996

>  <r_i_glide_ligand_efficiency>  (372) 
-0.0575665

>  <r_i_glide_ligand_efficiency_sa>  (372) 
-0.191824

>  <r_i_glide_ligand_efficiency_ln>  (372) 
-0.461938

>  <r_i_glide_gscore>  (372) 
-2.12996

>  <r_i_glide_lipo>  (372) 
-0.0961128

>  <r_i_glide_hbond>  (372) 
0

>  <r_i_glide_metal>  (372) 
-0

>  <r_i_glide_rewards>  (372) 
0

>  <r_i_glide_evdw>  (372) 
-24.2201

>  <r_i_glide_ecoul>  (372) 
-5.26838

>  <r_i_glide_erotb>  (372) 
0

>  <r_i_glide_esite>  (372) 
-0.0325855

>  <r_i_glide_emodel>  (372) 
-33.504

>  <r_i_glide_energy>  (372) 
-29.4884

>  <r_i_glide_einternal>  (372) 
0.378695

>  <r_i_glide_intrahb_reward>  (372) 
-0

>  <i_i_glide_confnum>  (372) 
2

>  <i_i_glide_posenum>  (372) 
9

>  <r_i_glide_eff_state_penalty>  (372) 
0

>  <ligand_id>  (372) 
111

>  <original_smiles>  (372) 
CC1=CC23C4OC5C(C67CC(=O)C2(C)C(=O)C(C)(CN56)C(O)C2Cc5occc5C2(C)C7OC1=O)C43C

>  <smiles>  (372) 
[H]OC1([H])C2([H])C([H])([H])c3oc([H])c([H])c3C2(C([H])([H])[H])C2([H])OC(=O)C(C([H])([H])[H])=C([H])C34C5([H])OC6([H])C([H])(C53C([H])([H])[H])C23C([H])([H])C(=O)C4(C([H])([H])[H])C(=O)C1(C([H])([H])[H])C([H])([H])[N+]63[H]

$$$$
111:3:0
     RDKit          3D

 69 77  0  0  1  0  0  0  0  0999 V2000
    0.8354   -8.6234    2.1339 C   0  0  0  0  0  0  0  0  0  0  0  0
    1.5938   -8.0152    3.3089 C   0  0  0  0  0  0  0  0  0  0  0  0
    2.4142   -8.7357    4.1870 C   0  0  0  0  0  0  0  0  0  0  0  0
    3.8788   -9.3303    3.9413 C   0  0  2  0  0  0  0  0  0  0  0  0
    3.5703   -9.3545    2.2912 C   0  0  1  0  0  0  0  0  0  0  0  0
    3.7638   -8.1240    1.4837 O   0  0  0  0  0  0  0  0  0  0  0  0
    5.0483   -7.4093    1.6308 C   0  0  2  0  0  0  0  0  0  0  0  0
    5.1441   -8.1661    2.6579 C   0  0  1  0  0  0  0  0  0  0  0  0
    4.2940   -6.8052    3.4167 C   0  0  2  0  0  0  0  0  0  0  0  0
    4.0986   -6.5844    4.9892 C   0  0  0  0  0  0  0  0  0  0  0  0
    4.7051   -7.7174    5.8230 C   0  0  0  0  0  0  0  0  0  0  0  0
    4.8074   -7.6341    7.0445 O   0  0  0  0  0  0  0  0  0  0  0  0
    5.2208   -8.8987    5.0050 C   0  0  1  0  0  0  0  0  0  0  0  0
    5.3560  -10.1206    5.9586 C   0  0  0  0  0  0  0  0  0  0  0  0
    6.8815   -8.4450    4.6076 C   0  0  0  0  0  0  0  0  0  0  0  0
    7.7233   -9.3100    4.8313 O   0  0  0  0  0  0  0  0  0  0  0  0
    7.5394   -7.0360    3.8094 C   0  0  2  0  0  0  0  0  0  0  0  0
    8.8221   -6.6697    4.5949 C   0  0  0  0  0  0  0  0  0  0  0  0
    6.4894   -6.1200    3.9767 C   0  0  0  0  0  0  0  0  0  0  0  0
    5.3682   -6.5446    3.0123 N   0  0  1  0  0  0  0  0  0  0  0  0
    7.7273   -6.3080    2.2352 C   0  0  1  0  0  0  0  0  0  0  0  0
    8.2094   -7.2716    1.3208 O   0  0  0  0  0  0  0  0  0  0  0  0
    6.6751   -5.1391    1.4080 C   0  0  2  0  0  0  0  0  0  0  0  0
    7.1986   -4.1143    0.3594 C   0  0  0  0  0  0  0  0  0  0  0  0
    5.8828   -3.7284   -0.2433 C   0  0  0  0  0  0  0  0  0  0  0  0
    5.6682   -3.2046   -1.4728 O   0  0  0  0  0  0  0  0  0  0  0  0
    4.2947   -3.1535   -1.5547 C   0  0  0  0  0  0  0  0  0  0  0  0
    3.6816   -3.6255   -0.4101 C   0  0  0  0  0  0  0  0  0  0  0  0
    4.7567   -4.0017    0.4414 C   0  0  0  0  0  0  0  0  0  0  0  0
    5.0599   -4.5414    1.8080 C   0  0  2  0  0  0  0  0  0  0  0  0
    5.2299   -3.2405    2.6417 C   0  0  0  0  0  0  0  0  0  0  0  0
    3.8277   -5.4498    2.6937 C   0  0  1  0  0  0  0  0  0  0  0  0
    2.5076   -5.8919    2.2492 O   0  0  0  0  0  0  0  0  0  0  0  0
    1.5669   -6.4885    3.1882 C   0  0  0  0  0  0  0  0  0  0  0  0
    0.7645   -5.7976    3.8122 O   0  0  0  0  0  0  0  0  0  0  0  0
    4.7190   -9.4951    2.7822 C   0  0  1  0  0  0  0  0  0  0  0  0
    5.6139  -10.6859    2.4506 C   0  0  0  0  0  0  0  0  0  0  0  0
   -0.2196   -8.3596    2.2019 H   0  0  0  0  0  0  0  0  0  0  0  0
    0.8846   -9.7111    2.1345 H   0  0  0  0  0  0  0  0  0  0  0  0
    1.2014   -8.2582    1.1727 H   0  0  0  0  0  0  0  0  0  0  0  0
    2.3692   -8.3329    5.1794 H   0  0  0  0  0  0  0  0  0  0  0  0
    3.1197  -10.2118    1.8002 H   0  0  0  0  0  0  0  0  0  0  0  0
    5.7500   -7.6580    0.8306 H   0  0  0  0  0  0  0  0  0  0  0  0
    6.2066   -8.3891    2.4152 H   0  0  0  0  0  0  0  0  0  0  0  0
    4.4485   -5.6141    5.3592 H   0  0  0  0  0  0  0  0  0  0  0  0
    3.0537   -6.5092    5.2755 H   0  0  0  0  0  0  0  0  0  0  0  0
    6.1109   -9.9681    6.7352 H   0  0  0  0  0  0  0  0  0  0  0  0
    5.6477  -11.0207    5.4161 H   0  0  0  0  0  0  0  0  0  0  0  0
    4.4202  -10.3554    6.4697 H   0  0  0  0  0  0  0  0  0  0  0  0
    8.9947   -5.5931    4.6421 H   0  0  0  0  0  0  0  0  0  0  0  0
    9.6900   -7.1131    4.1050 H   0  0  0  0  0  0  0  0  0  0  0  0
    8.8149   -7.0364    5.6223 H   0  0  0  0  0  0  0  0  0  0  0  0
    6.3534   -6.0157    5.0496 H   0  0  0  0  0  0  0  0  0  0  0  0
    6.7883   -5.0810    3.8472 H   0  0  0  0  0  0  0  0  0  0  0  0
    8.6133   -5.6869    2.3487 H   0  0  0  0  0  0  0  0  0  0  0  0
    9.1448   -7.4512    1.4701 H   0  0  0  0  0  0  0  0  0  0  0  0
    6.4420   -5.8126    0.5940 H   0  0  0  0  0  0  0  0  0  0  0  0
    7.6708   -3.2537    0.8302 H   0  0  0  0  0  0  0  0  0  0  0  0
    7.8948   -4.5300   -0.3663 H   0  0  0  0  0  0  0  0  0  0  0  0
    3.8940   -2.7759   -2.4856 H   0  0  0  0  0  0  0  0  0  0  0  0
    2.6171   -3.6802   -0.2501 H   0  0  0  0  0  0  0  0  0  0  0  0
    5.5321   -3.4095    3.6730 H   0  0  0  0  0  0  0  0  0  0  0  0
    4.3002   -2.6681    2.6738 H   0  0  0  0  0  0  0  0  0  0  0  0
    5.9684   -2.5589    2.2137 H   0  0  0  0  0  0  0  0  0  0  0  0
    3.5271   -4.7291    3.4585 H   0  0  0  0  0  0  0  0  0  0  0  0
    5.9464  -10.6307    1.4121 H   0  0  0  0  0  0  0  0  0  0  0  0
    5.0438  -11.6107    2.5528 H   0  0  0  0  0  0  0  0  0  0  0  0
    6.4792  -10.7671    3.1070 H   0  0  0  0  0  0  0  0  0  0  0  0
    5.2356   -5.6208    2.6435 H   0  0  0  0  0  0  0  0  0  0  0  0
  1  2  1  0
  1 38  1  0
  1 39  1  0
  1 40  1  0
  2 34  1  0
  2  3  2  3
  4  3  1  6
  3 41  1  0
  4 13  1  0
  4 36  1  0
  4  5  1  0
  5 36  1  0
  5  6  1  0
  5 42  1  1
  6  7  1  0
  7 20  1  0
  7  8  1  0
  7 43  1  6
  8  9  1  0
  8 36  1  0
  8 44  1  1
  9 20  1  0
  9 32  1  0
  9 10  1  1
 10 11  1  0
 10 45  1  0
 10 46  1  0
 11 12  2  0
 11 13  1  0
 13 14  1  1
 13 15  1  0
 14 47  1  0
 14 48  1  0
 14 49  1  0
 15 16  2  0
 15 17  1  0
 17 18  1  1
 17 19  1  0
 17 21  1  0
 18 50  1  0
 18 51  1  0
 18 52  1  0
 19 20  1  0
 19 53  1  0
 19 54  1  0
 20 69  1  6
 21 22  1  0
 21 23  1  0
 21 55  1  1
 22 56  1  0
 23 30  1  0
 23 24  1  0
 23 57  1  6
 24 25  1  0
 24 58  1  0
 24 59  1  0
 25 29  2  0
 25 26  1  0
 26 27  1  0
 27 28  2  0
 27 60  1  0
 28 29  1  0
 28 61  1  0
 29 30  1  0
 30 31  1  1
 30 32  1  0
 31 62  1  0
 31 63  1  0
 31 64  1  0
 32 33  1  0
 32 65  1  1
 33 34  1  0
 34 35  2  0
 36 37  1  1
 37 66  1  0
 37 67  1  0
 37 68  1  0
M  CHG  1  20   1
M  END
>  <i_m_ct_stereo_status>  (373) 
1

>  <s_m_source_file>  (373) 
/var/tmp/pbs.5076255.sched01/tmpbvzcvm50/120d7_yi5_y.sdf

>  <i_m_source_file_index>  (373) 
33

>  <i_lp_mmshare_version>  (373) 
48012

>  <i_f3d_flags>  (373) 
2

>  <s_epik_input>  (373) 
W0NIM10vQyg9W0NIXS8xKUMoPU8pT1tDQEBIXTJbQ0BdKFtDSDNdKShjM2MoW0NIMl00KW9bY0hdW2NIXTMpW0NASF00W0NASF0oW09IXSlbQ0BdKFtDSDNdKShDKD1PKVtDQF01KFtDSDNdKUMoPU8pW0NIMl02KVtDSDJdTihbQ0BASF03TzgpW0NAQF0yNltDQEhdN1tDQEBdOShbQ0BIXThbQ0BdMTU5KVtDSDNd

>  <s_epik_cmdline>  (373) 
J2VwaWtfcHl0aG9uJywgJy1waHQnLCAnMi4wJywgJy1waCcsICc3LjAnLCAnLXRuJywgJzgnLCAnLW1hJywgJzIwMCcsICctaW1hZScsICc8aW5maWxlLm1hZT4nLCAnLW9tYWUnLCAnPG91dGZpbGUubWFlPic=

>  <r_epik_Ionization_Penalty>  (373) 
0.989176

>  <r_epik_Ionization_Penalty_Charging>  (373) 
0.989162

>  <r_epik_Ionization_Penalty_Neutral>  (373) 
1.40007e-05

>  <r_epik_State_Penalty>  (373) 
1.03671

>  <r_epik_Charging_Adjusted_Penalty>  (373) 
2.02587

>  <i_epik_Tot_Q>  (373) 
1

>  <i_epik_Tot_abs_Q>  (373) 
1

>  <s_epik_Chemistry_Notes>  (373) 
This compound has an ester and may undergo hydrolysis at high or low pH. This compound contains an acetal/aminal-like group ( X-CH(R)-Y where X, Y are N, S, or O) that may be acid/base labile, releasing an aldehyde.

>  <s_lp_Force_Field>  (373) 
OPLS3e

>  <r_lp_Energy>  (373) 
787.822

>  <b_lp_Chiralities_Consistent>  (373) 
0

>  <s_lp_Variant>  (373) 
111:0-4

>  <s_i_glide_gridfile>  (373) 
pfpi4k_grid

>  <i_i_glide_lignum>  (373) 
33

>  <i_i_glide_rotatable_bonds>  (373) 
1

>  <r_i_docking_score>  (373) 
-3.00993

>  <r_i_glide_ligand_efficiency>  (373) 
-0.0813496

>  <r_i_glide_ligand_efficiency_sa>  (373) 
-0.271075

>  <r_i_glide_ligand_efficiency_ln>  (373) 
-0.652784

>  <r_i_glide_gscore>  (373) 
-3.00993

>  <r_i_glide_lipo>  (373) 
-0.445834

>  <r_i_glide_hbond>  (373) 
-0.16

>  <r_i_glide_metal>  (373) 
-0

>  <r_i_glide_rewards>  (373) 
-0.0946039

>  <r_i_glide_evdw>  (373) 
-28.8247

>  <r_i_glide_ecoul>  (373) 
-5.68256

>  <r_i_glide_erotb>  (373) 
0

>  <r_i_glide_esite>  (373) 
-0.0158806

>  <r_i_glide_emodel>  (373) 
-41.0208

>  <r_i_glide_energy>  (373) 
-34.5072

>  <r_i_glide_einternal>  (373) 
0.714353

>  <r_i_glide_intrahb_reward>  (373) 
-0

>  <i_i_glide_confnum>  (373) 
2

>  <i_i_glide_posenum>  (373) 
10

>  <r_i_glide_eff_state_penalty>  (373) 
0

>  <ligand_id>  (373) 
111

>  <original_smiles>  (373) 
CC1=CC23C4OC5C(C67CC(=O)C2(C)C(=O)C(C)(CN56)C(O)C2Cc5occc5C2(C)C7OC1=O)C43C

>  <smiles>  (373) 
[H]OC1([H])C2([H])C([H])([H])c3oc([H])c([H])c3C2(C([H])([H])[H])C2([H])OC(=O)C(C([H])([H])[H])=C([H])C34C5([H])OC6([H])C([H])(C53C([H])([H])[H])C23C([H])([H])C(=O)C4(C([H])([H])[H])C(=O)C1(C([H])([H])[H])C([H])([H])[N+]63[H]

$$$$
111:3:1
     RDKit          3D

 69 77  0  0  1  0  0  0  0  0999 V2000
    0.2086  -10.1052    2.7192 C   0  0  0  0  0  0  0  0  0  0  0  0
   -0.0432   -9.0953    3.8368 C   0  0  0  0  0  0  0  0  0  0  0  0
    0.2406   -9.3286    5.1898 C   0  0  0  0  0  0  0  0  0  0  0  0
    1.6563   -9.3679    5.9387 C   0  0  2  0  0  0  0  0  0  0  0  0
    2.3919   -9.7271    4.4733 C   0  0  1  0  0  0  0  0  0  0  0  0
    2.7354   -8.6360    3.5301 O   0  0  0  0  0  0  0  0  0  0  0  0
    3.4719   -7.4765    4.0653 C   0  0  2  0  0  0  0  0  0  0  0  0
    3.1204   -8.0008    5.1799 C   0  0  1  0  0  0  0  0  0  0  0  0
    1.7007   -6.9644    4.9159 C   0  0  2  0  0  0  0  0  0  0  0  0
    0.5752   -6.6255    6.0030 C   0  0  0  0  0  0  0  0  0  0  0  0
    0.8166   -7.3269    7.3445 C   0  0  0  0  0  0  0  0  0  0  0  0
    0.1554   -7.0536    8.3450 O   0  0  0  0  0  0  0  0  0  0  0  0
    1.9718   -8.3271    7.3322 C   0  0  1  0  0  0  0  0  0  0  0  0
    1.7985   -9.2708    8.5571 C   0  0  0  0  0  0  0  0  0  0  0  0
    3.3882   -7.3464    7.7105 C   0  0  0  0  0  0  0  0  0  0  0  0
    4.1109   -7.7949    8.5978 O   0  0  0  0  0  0  0  0  0  0  0  0
    4.0397   -5.9129    6.9511 C   0  0  2  0  0  0  0  0  0  0  0  0
    4.4939   -4.9940    8.1140 C   0  0  0  0  0  0  0  0  0  0  0  0
    2.9185   -5.4335    6.2579 C   0  0  0  0  0  0  0  0  0  0  0  0
    2.7102   -6.3731    5.0522 N   0  0  1  0  0  0  0  0  0  0  0  0
    4.9412   -5.3935    5.5466 C   0  0  1  0  0  0  0  0  0  0  0  0
    6.0833   -6.2037    5.3899 O   0  0  0  0  0  0  0  0  0  0  0  0
    4.3428   -4.8143    3.9791 C   0  0  2  0  0  0  0  0  0  0  0  0
    5.1323   -3.8212    3.0743 C   0  0  0  0  0  0  0  0  0  0  0  0
    4.3730   -4.0297    1.8053 C   0  0  0  0  0  0  0  0  0  0  0  0
    4.8119   -3.7980    0.5506 O   0  0  0  0  0  0  0  0  0  0  0  0
    3.7869   -4.2730   -0.2348 C   0  0  0  0  0  0  0  0  0  0  0  0
    2.7493   -4.7928    0.5187 C   0  0  0  0  0  0  0  0  0  0  0  0
    3.1580   -4.6120    1.8663 C   0  0  0  0  0  0  0  0  0  0  0  0
    2.7206   -4.8117    3.2865 C   0  0  2  0  0  0  0  0  0  0  0  0
    2.0638   -3.4417    3.6244 C   0  0  0  0  0  0  0  0  0  0  0  0
    1.4515   -5.9879    3.6631 C   0  0  1  0  0  0  0  0  0  0  0  0
    0.7966   -6.9433    2.7728 O   0  0  0  0  0  0  0  0  0  0  0  0
   -0.3461   -7.7175    3.2326 C   0  0  0  0  0  0  0  0  0  0  0  0
   -1.4865   -7.2680    3.1339 O   0  0  0  0  0  0  0  0  0  0  0  0
    3.0282   -9.3658    5.4921 C   0  0  1  0  0  0  0  0  0  0  0  0
    4.1981  -10.1765    6.0530 C   0  0  0  0  0  0  0  0  0  0  0  0
   -0.7095  -10.2401    2.1479 H   0  0  0  0  0  0  0  0  0  0  0  0
    0.4848  -11.0858    3.1029 H   0  0  0  0  0  0  0  0  0  0  0  0
    0.9792   -9.7721    2.0225 H   0  0  0  0  0  0  0  0  0  0  0  0
   -0.4757   -8.8539    5.8290 H   0  0  0  0  0  0  0  0  0  0  0  0
    2.5229  -10.7477    4.1263 H   0  0  0  0  0  0  0  0  0  0  0  0
    4.5377   -7.5501    3.8480 H   0  0  0  0  0  0  0  0  0  0  0  0
    4.1388   -7.8420    5.5977 H   0  0  0  0  0  0  0  0  0  0  0  0
    0.4107   -5.5563    6.1593 H   0  0  0  0  0  0  0  0  0  0  0  0
   -0.4168   -6.9087    5.6699 H   0  0  0  0  0  0  0  0  0  0  0  0
    1.8935   -8.7474    9.5120 H   0  0  0  0  0  0  0  0  0  0  0  0
    2.5496  -10.0626    8.5579 H   0  0  0  0  0  0  0  0  0  0  0  0
    0.8290   -9.7721    8.5587 H   0  0  0  0  0  0  0  0  0  0  0  0
    4.3548   -3.9330    7.8940 H   0  0  0  0  0  0  0  0  0  0  0  0
    5.5577   -5.1429    8.3081 H   0  0  0  0  0  0  0  0  0  0  0  0
    3.9695   -5.1950    9.0499 H   0  0  0  0  0  0  0  0  0  0  0  0
    2.1593   -5.2489    7.0135 H   0  0  0  0  0  0  0  0  0  0  0  0
    2.9981   -4.3831    5.9771 H   0  0  0  0  0  0  0  0  0  0  0  0
    5.4230   -4.4834    5.8919 H   0  0  0  0  0  0  0  0  0  0  0  0
    5.8336   -7.0790    5.1272 H   0  0  0  0  0  0  0  0  0  0  0  0
    4.7948   -5.6297    3.4280 H   0  0  0  0  0  0  0  0  0  0  0  0
    5.0334   -2.7921    3.4191 H   0  0  0  0  0  0  0  0  0  0  0  0
    6.1897   -4.0638    2.9509 H   0  0  0  0  0  0  0  0  0  0  0  0
    3.9431   -4.1984   -1.3014 H   0  0  0  0  0  0  0  0  0  0  0  0
    1.8488   -5.2291    0.1173 H   0  0  0  0  0  0  0  0  0  0  0  0
    1.7360   -3.3482    4.6581 H   0  0  0  0  0  0  0  0  0  0  0  0
    1.1923   -3.2588    2.9921 H   0  0  0  0  0  0  0  0  0  0  0  0
    2.7347   -2.6011    3.4373 H   0  0  0  0  0  0  0  0  0  0  0  0
    0.6053   -5.3369    3.8920 H   0  0  0  0  0  0  0  0  0  0  0  0
    5.0584  -10.1344    5.3811 H   0  0  0  0  0  0  0  0  0  0  0  0
    3.9011  -11.2227    6.1560 H   0  0  0  0  0  0  0  0  0  0  0  0
    4.4981   -9.8376    7.0444 H   0  0  0  0  0  0  0  0  0  0  0  0
    2.6147   -5.6223    4.3922 H   0  0  0  0  0  0  0  0  0  0  0  0
  1  2  1  0
  1 38  1  0
  1 39  1  0
  1 40  1  0
  2 34  1  0
  2  3  2  3
  4  3  1  6
  3 41  1  0
  4 13  1  0
  4 36  1  0
  4  5  1  0
  5 36  1  0
  5  6  1  0
  5 42  1  6
  6  7  1  0
  7 20  1  0
  7  8  1  0
  7 43  1  1
  8  9  1  0
  8 36  1  0
  8 44  1  1
  9 20  1  0
  9 32  1  0
  9 10  1  1
 10 11  1  0
 10 45  1  0
 10 46  1  0
 11 12  2  0
 11 13  1  0
 13 14  1  1
 13 15  1  0
 14 47  1  0
 14 48  1  0
 14 49  1  0
 15 16  2  0
 15 17  1  0
 17 18  1  1
 17 19  1  0
 17 21  1  0
 18 50  1  0
 18 51  1  0
 18 52  1  0
 19 20  1  0
 19 53  1  0
 19 54  1  0
 20 69  1  6
 21 22  1  0
 21 23  1  0
 21 55  1  1
 22 56  1  0
 23 30  1  0
 23 24  1  0
 23 57  1  6
 24 25  1  0
 24 58  1  0
 24 59  1  0
 25 29  2  0
 25 26  1  0
 26 27  1  0
 27 28  2  0
 27 60  1  0
 28 29  1  0
 28 61  1  0
 29 30  1  0
 30 31  1  1
 30 32  1  0
 31 62  1  0
 31 63  1  0
 31 64  1  0
 32 33  1  0
 32 65  1  1
 33 34  1  0
 34 35  2  0
 36 37  1  1
 37 66  1  0
 37 67  1  0
 37 68  1  0
M  CHG  1  20   1
M  END
>  <i_m_ct_stereo_status>  (374) 
1

>  <s_m_source_file>  (374) 
/var/tmp/pbs.5076255.sched01/tmpbvzcvm50/120d7_yi5_y.sdf

>  <i_m_source_file_index>  (374) 
33

>  <i_lp_mmshare_version>  (374) 
48012

>  <i_f3d_flags>  (374) 
2

>  <s_epik_input>  (374) 
W0NIM10vQyg9W0NIXS8xKUMoPU8pT1tDQEBIXTJbQ0BdKFtDSDNdKShjM2MoW0NIMl00KW9bY0hdW2NIXTMpW0NASF00W0NASF0oW09IXSlbQ0BdKFtDSDNdKShDKD1PKVtDQF01KFtDSDNdKUMoPU8pW0NIMl02KVtDSDJdTihbQ0BASF03TzgpW0NAQF0yNltDQEhdN1tDQEBdOShbQ0BIXThbQ0BdMTU5KVtDSDNd

>  <s_epik_cmdline>  (374) 
J2VwaWtfcHl0aG9uJywgJy1waHQnLCAnMi4wJywgJy1waCcsICc3LjAnLCAnLXRuJywgJzgnLCAnLW1hJywgJzIwMCcsICctaW1hZScsICc8aW5maWxlLm1hZT4nLCAnLW9tYWUnLCAnPG91dGZpbGUubWFlPic=

>  <r_epik_Ionization_Penalty>  (374) 
0.989176

>  <r_epik_Ionization_Penalty_Charging>  (374) 
0.989162

>  <r_epik_Ionization_Penalty_Neutral>  (374) 
1.40007e-05

>  <r_epik_State_Penalty>  (374) 
1.03671

>  <r_epik_Charging_Adjusted_Penalty>  (374) 
2.02587

>  <i_epik_Tot_Q>  (374) 
1

>  <i_epik_Tot_abs_Q>  (374) 
1

>  <s_epik_Chemistry_Notes>  (374) 
This compound has an ester and may undergo hydrolysis at high or low pH. This compound contains an acetal/aminal-like group ( X-CH(R)-Y where X, Y are N, S, or O) that may be acid/base labile, releasing an aldehyde.

>  <s_lp_Force_Field>  (374) 
OPLS3e

>  <r_lp_Energy>  (374) 
787.822

>  <b_lp_Chiralities_Consistent>  (374) 
0

>  <s_lp_Variant>  (374) 
111:0-4

>  <s_i_glide_gridfile>  (374) 
pfpi4k_grid

>  <i_i_glide_lignum>  (374) 
33

>  <i_i_glide_rotatable_bonds>  (374) 
1

>  <r_i_docking_score>  (374) 
-2.43076

>  <r_i_glide_ligand_efficiency>  (374) 
-0.0656962

>  <r_i_glide_ligand_efficiency_sa>  (374) 
-0.218914

>  <r_i_glide_ligand_efficiency_ln>  (374) 
-0.527175

>  <r_i_glide_gscore>  (374) 
-2.43076

>  <r_i_glide_lipo>  (374) 
-0.134268

>  <r_i_glide_hbond>  (374) 
-0.0984136

>  <r_i_glide_metal>  (374) 
-0

>  <r_i_glide_rewards>  (374) 
0

>  <r_i_glide_evdw>  (374) 
-26.8721

>  <r_i_glide_ecoul>  (374) 
-5.27857

>  <r_i_glide_erotb>  (374) 
0

>  <r_i_glide_esite>  (374) 
-0.0626876

>  <r_i_glide_emodel>  (374) 
-37.7201

>  <r_i_glide_energy>  (374) 
-32.1506

>  <r_i_glide_einternal>  (374) 
1.11162e-06

>  <r_i_glide_intrahb_reward>  (374) 
-0

>  <i_i_glide_confnum>  (374) 
2

>  <i_i_glide_posenum>  (374) 
35

>  <r_i_glide_eff_state_penalty>  (374) 
0

>  <ligand_id>  (374) 
111

>  <original_smiles>  (374) 
CC1=CC23C4OC5C(C67CC(=O)C2(C)C(=O)C(C)(CN56)C(O)C2Cc5occc5C2(C)C7OC1=O)C43C

>  <smiles>  (374) 
[H]OC1([H])C2([H])C([H])([H])c3oc([H])c([H])c3C2(C([H])([H])[H])C2([H])OC(=O)C(C([H])([H])[H])=C([H])C34C5([H])OC6([H])C([H])(C53C([H])([H])[H])C23C([H])([H])C(=O)C4(C([H])([H])[H])C(=O)C1(C([H])([H])[H])C([H])([H])[N+]63[H]

$$$$
111:3:2
     RDKit          3D

 69 77  0  0  1  0  0  0  0  0999 V2000
    2.9724    1.3858    4.9453 C   0  0  0  0  0  0  0  0  0  0  0  0
    3.8649    0.2184    5.3603 C   0  0  0  0  0  0  0  0  0  0  0  0
    3.5242   -0.7372    6.3303 C   0  0  0  0  0  0  0  0  0  0  0  0
    2.4884   -1.9647    6.2261 C   0  0  2  0  0  0  0  0  0  0  0  0
    1.6767   -1.1424    5.0015 C   0  0  1  0  0  0  0  0  0  0  0  0
    2.1427   -1.2250    3.5994 O   0  0  0  0  0  0  0  0  0  0  0  0
    2.4337   -2.5700    3.0617 C   0  0  2  0  0  0  0  0  0  0  0  0
    2.3554   -2.8848    4.3004 C   0  0  1  0  0  0  0  0  0  0  0  0
    4.0937   -2.5170    4.2345 C   0  0  2  0  0  0  0  0  0  0  0  0
    5.1644   -2.8670    5.3761 C   0  0  0  0  0  0  0  0  0  0  0  0
    4.5366   -3.5603    6.5866 C   0  0  0  0  0  0  0  0  0  0  0  0
    5.2257   -4.0467    7.4772 O   0  0  0  0  0  0  0  0  0  0  0  0
    3.0097   -3.6255    6.5537 C   0  0  1  0  0  0  0  0  0  0  0  0
    2.5070   -3.8943    8.0023 C   0  0  0  0  0  0  0  0  0  0  0  0
    2.6608   -5.1112    5.6634 C   0  0  0  0  0  0  0  0  0  0  0  0
    1.8329   -5.8495    6.1936 O   0  0  0  0  0  0  0  0  0  0  0  0
    3.1635   -5.6587    4.0789 C   0  0  2  0  0  0  0  0  0  0  0  0
    3.4929   -7.1618    4.2424 C   0  0  0  0  0  0  0  0  0  0  0  0
    4.2948   -4.8598    3.8574 C   0  0  0  0  0  0  0  0  0  0  0  0
    3.7788   -3.4338    3.5557 N   0  0  1  0  0  0  0  0  0  0  0  0
    2.8423   -5.4165    2.3769 C   0  0  1  0  0  0  0  0  0  0  0  0
    1.4434   -5.4579    2.1816 O   0  0  0  0  0  0  0  0  0  0  0  0
    3.6334   -4.3185    1.2254 C   0  0  2  0  0  0  0  0  0  0  0  0
    3.7290   -4.6121   -0.2949 C   0  0  0  0  0  0  0  0  0  0  0  0
    4.1004   -3.2378   -0.7618 C   0  0  0  0  0  0  0  0  0  0  0  0
    3.9328   -2.7010   -1.9940 O   0  0  0  0  0  0  0  0  0  0  0  0
    4.3281   -1.3933   -1.8305 C   0  0  0  0  0  0  0  0  0  0  0  0
    4.7427   -1.1293   -0.5393 C   0  0  0  0  0  0  0  0  0  0  0  0
    4.5907   -2.3584    0.1427 C   0  0  0  0  0  0  0  0  0  0  0  0
    4.8060   -3.0180    1.4734 C   0  0  2  0  0  0  0  0  0  0  0  0
    6.2315   -3.6236    1.3235 C   0  0  0  0  0  0  0  0  0  0  0  0
    4.9192   -2.0259    2.9402 C   0  0  1  0  0  0  0  0  0  0  0  0
    4.7144   -0.5864    3.0992 O   0  0  0  0  0  0  0  0  0  0  0  0
    5.0199    0.0785    4.3633 C   0  0  0  0  0  0  0  0  0  0  0  0
    6.1463    0.5043    4.6085 O   0  0  0  0  0  0  0  0  0  0  0  0
    1.4856   -2.3533    5.2618 C   0  0  1  0  0  0  0  0  0  0  0  0
    0.0904   -2.9184    5.5368 C   0  0  0  0  0  0  0  0  0  0  0  0
    3.5345    2.3154    5.0309 H   0  0  0  0  0  0  0  0  0  0  0  0
    2.1002    1.4805    5.5900 H   0  0  0  0  0  0  0  0  0  0  0  0
    2.6348    1.3047    3.9103 H   0  0  0  0  0  0  0  0  0  0  0  0
    4.3881   -1.0744    6.8661 H   0  0  0  0  0  0  0  0  0  0  0  0
    0.8776   -0.4393    5.2084 H   0  0  0  0  0  0  0  0  0  0  0  0
    1.6124   -2.9250    2.4460 H   0  0  0  0  0  0  0  0  0  0  0  0
    1.7352   -3.7732    4.0530 H   0  0  0  0  0  0  0  0  0  0  0  0
    6.0191   -3.4404    5.0148 H   0  0  0  0  0  0  0  0  0  0  0  0
    5.6846   -1.9874    5.7366 H   0  0  0  0  0  0  0  0  0  0  0  0
    2.8215   -4.8694    8.3766 H   0  0  0  0  0  0  0  0  0  0  0  0
    1.4176   -3.8744    8.0552 H   0  0  0  0  0  0  0  0  0  0  0  0
    2.8715   -3.1483    8.7104 H   0  0  0  0  0  0  0  0  0  0  0  0
    4.3210   -7.4810    3.6054 H   0  0  0  0  0  0  0  0  0  0  0  0
    2.6254   -7.7614    3.9641 H   0  0  0  0  0  0  0  0  0  0  0  0
    3.7552   -7.4351    5.2664 H   0  0  0  0  0  0  0  0  0  0  0  0
    4.9920   -5.0783    4.6623 H   0  0  0  0  0  0  0  0  0  0  0  0
    4.9548   -5.2359    3.0759 H   0  0  0  0  0  0  0  0  0  0  0  0
    3.1297   -6.3706    1.9367 H   0  0  0  0  0  0  0  0  0  0  0  0
    1.1235   -6.2405    2.6027 H   0  0  0  0  0  0  0  0  0  0  0  0
    2.7326   -3.7485    1.0425 H   0  0  0  0  0  0  0  0  0  0  0  0
    4.5187   -5.3289   -0.5258 H   0  0  0  0  0  0  0  0  0  0  0  0
    2.7865   -4.9558   -0.7097 H   0  0  0  0  0  0  0  0  0  0  0  0
    4.2358   -0.7833   -2.7121 H   0  0  0  0  0  0  0  0  0  0  0  0
    5.0940   -0.1769   -0.1730 H   0  0  0  0  0  0  0  0  0  0  0  0
    6.5502   -4.2178    2.1781 H   0  0  0  0  0  0  0  0  0  0  0  0
    6.9721   -2.8338    1.1894 H   0  0  0  0  0  0  0  0  0  0  0  0
    6.3193   -4.2660    0.4480 H   0  0  0  0  0  0  0  0  0  0  0  0
    5.9828   -2.0841    3.1695 H   0  0  0  0  0  0  0  0  0  0  0  0
   -0.5114   -2.9147    4.6267 H   0  0  0  0  0  0  0  0  0  0  0  0
   -0.4147   -2.3000    6.2824 H   0  0  0  0  0  0  0  0  0  0  0  0
    0.1291   -3.9318    5.9371 H   0  0  0  0  0  0  0  0  0  0  0  0
    4.3517   -3.3082    2.7295 H   0  0  0  0  0  0  0  0  0  0  0  0
  1  2  1  0
  1 38  1  0
  1 39  1  0
  1 40  1  0
  2 34  1  0
  2  3  2  3
  4  3  1  6
  3 41  1  0
  4 13  1  0
  4 36  1  0
  4  5  1  0
  5 36  1  0
  5  6  1  0
  5 42  1  1
  6  7  1  0
  7 20  1  0
  7  8  1  0
  7 43  1  6
  8  9  1  0
  8 36  1  0
  8 44  1  6
  9 20  1  0
  9 32  1  0
  9 10  1  1
 10 11  1  0
 10 45  1  0
 10 46  1  0
 11 12  2  0
 11 13  1  0
 13 14  1  1
 13 15  1  0
 14 47  1  0
 14 48  1  0
 14 49  1  0
 15 16  2  0
 15 17  1  0
 17 18  1  1
 17 19  1  0
 17 21  1  0
 18 50  1  0
 18 51  1  0
 18 52  1  0
 19 20  1  0
 19 53  1  0
 19 54  1  0
 20 69  1  6
 21 22  1  0
 21 23  1  0
 21 55  1  6
 22 56  1  0
 23 30  1  0
 23 24  1  0
 23 57  1  6
 24 25  1  0
 24 58  1  0
 24 59  1  0
 25 29  2  0
 25 26  1  0
 26 27  1  0
 27 28  2  0
 27 60  1  0
 28 29  1  0
 28 61  1  0
 29 30  1  0
 30 31  1  6
 30 32  1  0
 31 62  1  0
 31 63  1  0
 31 64  1  0
 32 33  1  0
 32 65  1  1
 33 34  1  0
 34 35  2  0
 36 37  1  1
 37 66  1  0
 37 67  1  0
 37 68  1  0
M  CHG  1  20   1
M  END
>  <i_m_ct_stereo_status>  (375) 
1

>  <s_m_source_file>  (375) 
/var/tmp/pbs.5076255.sched01/tmpbvzcvm50/120d7_yi5_y.sdf

>  <i_m_source_file_index>  (375) 
33

>  <i_lp_mmshare_version>  (375) 
48012

>  <i_f3d_flags>  (375) 
2

>  <s_epik_input>  (375) 
W0NIM10vQyg9W0NIXS8xKUMoPU8pT1tDQEBIXTJbQ0BdKFtDSDNdKShjM2MoW0NIMl00KW9bY0hdW2NIXTMpW0NASF00W0NASF0oW09IXSlbQ0BdKFtDSDNdKShDKD1PKVtDQF01KFtDSDNdKUMoPU8pW0NIMl02KVtDSDJdTihbQ0BASF03TzgpW0NAQF0yNltDQEhdN1tDQEBdOShbQ0BIXThbQ0BdMTU5KVtDSDNd

>  <s_epik_cmdline>  (375) 
J2VwaWtfcHl0aG9uJywgJy1waHQnLCAnMi4wJywgJy1waCcsICc3LjAnLCAnLXRuJywgJzgnLCAnLW1hJywgJzIwMCcsICctaW1hZScsICc8aW5maWxlLm1hZT4nLCAnLW9tYWUnLCAnPG91dGZpbGUubWFlPic=

>  <r_epik_Ionization_Penalty>  (375) 
0.989176

>  <r_epik_Ionization_Penalty_Charging>  (375) 
0.989162

>  <r_epik_Ionization_Penalty_Neutral>  (375) 
1.40007e-05

>  <r_epik_State_Penalty>  (375) 
1.03671

>  <r_epik_Charging_Adjusted_Penalty>  (375) 
2.02587

>  <i_epik_Tot_Q>  (375) 
1

>  <i_epik_Tot_abs_Q>  (375) 
1

>  <s_epik_Chemistry_Notes>  (375) 
This compound has an ester and may undergo hydrolysis at high or low pH. This compound contains an acetal/aminal-like group ( X-CH(R)-Y where X, Y are N, S, or O) that may be acid/base labile, releasing an aldehyde.

>  <s_lp_Force_Field>  (375) 
OPLS3e

>  <r_lp_Energy>  (375) 
787.822

>  <b_lp_Chiralities_Consistent>  (375) 
0

>  <s_lp_Variant>  (375) 
111:0-4

>  <s_i_glide_gridfile>  (375) 
pfpi4k_grid

>  <i_i_glide_lignum>  (375) 
33

>  <i_i_glide_rotatable_bonds>  (375) 
1

>  <r_i_docking_score>  (375) 
-2.06268

>  <r_i_glide_ligand_efficiency>  (375) 
-0.055748

>  <r_i_glide_ligand_efficiency_sa>  (375) 
-0.185765

>  <r_i_glide_ligand_efficiency_ln>  (375) 
-0.447346

>  <r_i_glide_gscore>  (375) 
-2.06268

>  <r_i_glide_lipo>  (375) 
-0.226008

>  <r_i_glide_hbond>  (375) 
-0.0366951

>  <r_i_glide_metal>  (375) 
-0

>  <r_i_glide_rewards>  (375) 
-0.11794

>  <r_i_glide_evdw>  (375) 
-25.4169

>  <r_i_glide_ecoul>  (375) 
-2.72789

>  <r_i_glide_erotb>  (375) 
0

>  <r_i_glide_esite>  (375) 
-0.00200782

>  <r_i_glide_emodel>  (375) 
-32.6351

>  <r_i_glide_energy>  (375) 
-28.1448

>  <r_i_glide_einternal>  (375) 
0.329314

>  <r_i_glide_intrahb_reward>  (375) 
-0

>  <i_i_glide_confnum>  (375) 
2

>  <i_i_glide_posenum>  (375) 
2

>  <r_i_glide_eff_state_penalty>  (375) 
0

>  <ligand_id>  (375) 
111

>  <original_smiles>  (375) 
CC1=CC23C4OC5C(C67CC(=O)C2(C)C(=O)C(C)(CN56)C(O)C2Cc5occc5C2(C)C7OC1=O)C43C

>  <smiles>  (375) 
[H]OC1([H])C2([H])C([H])([H])c3oc([H])c([H])c3C2(C([H])([H])[H])C2([H])OC(=O)C(C([H])([H])[H])=C([H])C34C5([H])OC6([H])C([H])(C53C([H])([H])[H])C23C([H])([H])C(=O)C4(C([H])([H])[H])C(=O)C1(C([H])([H])[H])C([H])([H])[N+]63[H]

$$$$
112:0:0
     RDKit          3D

 69 73  0  0  1  0  0  0  0  0999 V2000
    0.7301   -7.9189    5.2336 C   0  0  0  0  0  0  0  0  0  0  0  0
    1.6831   -7.0142    5.0295 C   0  0  0  0  0  0  0  0  0  0  0  0
    1.6295   -5.6690    5.7588 C   0  0  0  0  0  0  0  0  0  0  0  0
    2.9240   -4.7898    5.9419 C   0  0  1  0  0  0  0  0  0  0  0  0
    2.5666   -3.8126    6.9072 O   0  0  0  0  0  0  0  0  0  0  0  0
    4.0808   -5.6057    6.5323 C   0  0  0  0  0  0  0  0  0  0  0  0
    3.9838   -6.2441    7.5605 O   0  0  0  0  0  0  0  0  0  0  0  0
    5.2756   -5.4687    5.6836 C   0  0  0  0  0  0  0  0  0  0  0  0
    6.5497   -6.2157    5.9695 C   0  0  0  0  0  0  0  0  0  0  0  0
    4.9949   -4.6278    4.6747 C   0  0  0  0  0  0  0  0  0  0  0  0
    3.5893   -4.0566    4.7210 C   0  0  1  0  0  0  0  0  0  0  0  0
    2.8058   -3.8832    3.3487 C   0  0  2  0  0  0  0  0  0  0  0  0
    1.5743   -3.3260    3.8264 O   0  0  0  0  0  0  0  0  0  0  0  0
    2.4676   -5.1864    2.4957 C   0  0  1  0  0  0  0  0  0  0  0  0
    1.0735   -5.3646    2.4795 O   0  0  0  0  0  0  0  0  0  0  0  0
    2.8942   -4.8692    1.0317 C   0  0  0  0  0  0  0  0  0  0  0  0
    3.9474   -3.7550    1.1220 C   0  0  1  0  0  0  0  0  0  0  0  0
    5.1202   -4.3838    1.5877 O   0  0  0  0  0  0  0  0  0  0  0  0
    4.3912   -3.0001   -0.1889 C   0  0  1  0  0  0  0  0  0  0  0  0
    5.0571   -3.9513   -1.2061 C   0  0  0  0  0  0  0  0  0  0  0  0
    3.3340   -2.4937   -1.0021 O   0  0  0  0  0  0  0  0  0  0  0  0
    5.3925   -1.8770    0.2135 C   0  0  1  0  0  0  0  0  0  0  0  0
    5.7326   -1.0874   -0.9014 O   0  0  0  0  0  0  0  0  0  0  0  0
    4.8896   -0.9696    1.3490 C   0  0  0  0  0  0  0  0  0  0  0  0
    4.4167   -1.7186    2.6305 C   0  0  1  0  0  0  0  0  0  0  0  0
    3.8843   -0.6523    3.6176 C   0  0  0  0  0  0  0  0  0  0  0  0
    3.3902   -2.8555    2.2628 C   0  0  2  0  0  0  0  0  0  0  0  0
    2.2432   -2.1829    1.7553 O   0  0  0  0  0  0  0  0  0  0  0  0
    3.1892   -6.4624    2.9487 C   0  0  1  0  0  0  0  0  0  0  0  0
    2.8368   -7.3056    4.1283 C   0  0  2  0  0  0  0  0  0  0  0  0
    2.7617   -7.9026    2.7189 C   0  0  0  0  0  0  0  0  0  0  0  0
    1.4557   -8.3294    2.0841 C   0  0  0  0  0  0  0  0  0  0  0  0
    3.8391   -8.8823    2.2825 C   0  0  0  0  0  0  0  0  0  0  0  0
    0.7385   -8.8870    4.7513 H   0  0  0  0  0  0  0  0  0  0  0  0
   -0.1025   -7.6970    5.8899 H   0  0  0  0  0  0  0  0  0  0  0  0
    0.8252   -5.0894    5.3107 H   0  0  0  0  0  0  0  0  0  0  0  0
    1.2641   -5.9082    6.7598 H   0  0  0  0  0  0  0  0  0  0  0  0
    2.5585   -2.9472    6.4891 H   0  0  0  0  0  0  0  0  0  0  0  0
    6.8613   -6.0168    6.9926 H   0  0  0  0  0  0  0  0  0  0  0  0
    7.3562   -5.9338    5.2916 H   0  0  0  0  0  0  0  0  0  0  0  0
    6.3696   -7.2859    5.8772 H   0  0  0  0  0  0  0  0  0  0  0  0
    5.7204   -4.3483    3.9383 H   0  0  0  0  0  0  0  0  0  0  0  0
    3.8081   -3.0488    5.0713 H   0  0  0  0  0  0  0  0  0  0  0  0
    1.7629   -2.4330    4.0940 H   0  0  0  0  0  0  0  0  0  0  0  0
    0.7476   -4.5006    2.7713 H   0  0  0  0  0  0  0  0  0  0  0  0
    3.2333   -5.7600    0.4949 H   0  0  0  0  0  0  0  0  0  0  0  0
    2.0385   -4.4787    0.4777 H   0  0  0  0  0  0  0  0  0  0  0  0
    5.4184   -4.9763    0.9056 H   0  0  0  0  0  0  0  0  0  0  0  0
    6.0044   -4.3602   -0.8645 H   0  0  0  0  0  0  0  0  0  0  0  0
    5.2583   -3.4317   -2.1429 H   0  0  0  0  0  0  0  0  0  0  0  0
    4.3928   -4.7743   -1.4463 H   0  0  0  0  0  0  0  0  0  0  0  0
    2.7615   -1.8658   -0.5464 H   0  0  0  0  0  0  0  0  0  0  0  0
    6.3189   -2.3414    0.5526 H   0  0  0  0  0  0  0  0  0  0  0  0
    4.9493   -0.6018   -1.1573 H   0  0  0  0  0  0  0  0  0  0  0  0
    5.7028   -0.2969    1.6188 H   0  0  0  0  0  0  0  0  0  0  0  0
    4.0902   -0.3251    0.9753 H   0  0  0  0  0  0  0  0  0  0  0  0
    5.2995   -2.1769    3.0912 H   0  0  0  0  0  0  0  0  0  0  0  0
    3.1471    0.0028    3.1531 H   0  0  0  0  0  0  0  0  0  0  0  0
    4.7055   -0.0133    3.9380 H   0  0  0  0  0  0  0  0  0  0  0  0
    3.4330   -1.0574    4.5174 H   0  0  0  0  0  0  0  0  0  0  0  0
    2.5060   -1.4796    1.1677 H   0  0  0  0  0  0  0  0  0  0  0  0
    4.2535   -6.3440    2.8345 H   0  0  0  0  0  0  0  0  0  0  0  0
    3.6598   -7.6683    4.7269 H   0  0  0  0  0  0  0  0  0  0  0  0
    1.2941   -9.4002    2.2342 H   0  0  0  0  0  0  0  0  0  0  0  0
    1.4625   -8.1212    1.0130 H   0  0  0  0  0  0  0  0  0  0  0  0
    0.6192   -7.8054    2.5398 H   0  0  0  0  0  0  0  0  0  0  0  0
    3.5843   -9.8928    2.6024 H   0  0  0  0  0  0  0  0  0  0  0  0
    4.7880   -8.6126    2.7345 H   0  0  0  0  0  0  0  0  0  0  0  0
    3.9513   -8.8727    1.1977 H   0  0  0  0  0  0  0  0  0  0  0  0
  1  2  2  0
  1 34  1  0
  1 35  1  0
  2 30  1  0
  2  3  1  0
  3  4  1  0
  3 36  1  0
  3 37  1  0
  4 11  1  0
  4  5  1  1
  4  6  1  0
  5 38  1  0
  6  7  2  0
  6  8  1  0
  8  9  1  0
  8 10  2  0
  9 39  1  0
  9 40  1  0
  9 41  1  0
 10 11  1  0
 10 42  1  0
 11 12  1  0
 11 43  1  1
 12 27  1  0
 12 13  1  1
 12 14  1  0
 13 44  1  0
 14 15  1  6
 14 16  1  0
 14 29  1  0
 15 45  1  0
 16 17  1  0
 16 46  1  0
 16 47  1  0
 17 27  1  0
 17 18  1  1
 17 19  1  0
 18 48  1  0
 19 20  1  0
 19 21  1  6
 19 22  1  0
 20 49  1  0
 20 50  1  0
 20 51  1  0
 21 52  1  0
 22 23  1  0
 22 24  1  0
 22 53  1  1
 23 54  1  0
 24 25  1  0
 24 55  1  0
 24 56  1  0
 25 26  1  0
 25 27  1  0
 25 57  1  1
 26 58  1  0
 26 59  1  0
 26 60  1  0
 27 28  1  6
 28 61  1  0
 29 31  1  0
 29 30  1  0
 29 62  1  1
 30 31  1  0
 30 63  1  1
 31 32  1  0
 31 33  1  0
 32 64  1  0
 32 65  1  0
 32 66  1  0
 33 67  1  0
 33 68  1  0
 33 69  1  0
M  END
>  <i_m_ct_stereo_status>  (376) 
1

>  <s_m_source_file>  (376) 
/var/tmp/pbs.5076255.sched01/tmpbvzcvm50/120d7_yi5_y.sdf

>  <i_m_source_file_index>  (376) 
34

>  <i_lp_mmshare_version>  (376) 
48012

>  <i_f3d_flags>  (376) 
0

>  <s_epik_input>  (376) 
Tz1DMUMoW0NIM10pPVtDSF1bQ0BIXShbQ0BdMTJbT0hdKVtDQF0zKFtPSF0pW0NAXShbT0hdKShbQ0BIXTRbQ0BASF0oQyg9W0NIMl0pW0NIMl0yKUM0KFtDSDNdKVtDSDNdKVtDSDJdW0NAXTUoW09IXSlbQ0BdMyhbT0hdKVtDQEhdKFtDSDNdKVtDSDJdW0NASF0oW09IXSlbQ0BdNShbQ0gzXSlbT0hd

>  <s_epik_cmdline>  (376) 
J2VwaWtfcHl0aG9uJywgJy1waHQnLCAnMi4wJywgJy1waCcsICc3LjAnLCAnLXRuJywgJzgnLCAnLW1hJywgJzIwMCcsICctaW1hZScsICc8aW5maWxlLm1hZT4nLCAnLW9tYWUnLCAnPG91dGZpbGUubWFlPic=

>  <r_lp_tautomer_probability>  (376) 
1

>  <r_epik_Ionization_Penalty>  (376) 
9.84973e-07

>  <r_epik_Ionization_Penalty_Charging>  (376) 
0

>  <r_epik_Ionization_Penalty_Neutral>  (376) 
9.84973e-07

>  <r_epik_State_Penalty>  (376) 
-0

>  <r_epik_Charging_Adjusted_Penalty>  (376) 
0

>  <i_epik_Tot_Q>  (376) 
0

>  <i_epik_Tot_abs_Q>  (376) 
0

>  <s_lp_Force_Field>  (376) 
OPLS3e

>  <r_lp_Energy>  (376) 
74.0025

>  <b_lp_Chiralities_Consistent>  (376) 
1

>  <s_lp_Variant>  (376) 
112:0-1

>  <s_i_glide_gridfile>  (376) 
pfpi4k_grid

>  <i_i_glide_lignum>  (376) 
34

>  <i_i_glide_rotatable_bonds>  (376) 
7

>  <r_i_docking_score>  (376) 
-2.4439

>  <r_i_glide_ligand_efficiency>  (376) 
-0.0740576

>  <r_i_glide_ligand_efficiency_sa>  (376) 
-0.237542

>  <r_i_glide_ligand_efficiency_ln>  (376) 
-0.543511

>  <r_i_glide_gscore>  (376) 
-2.4439

>  <r_i_glide_lipo>  (376) 
-0.195296

>  <r_i_glide_hbond>  (376) 
0

>  <r_i_glide_metal>  (376) 
-0

>  <r_i_glide_rewards>  (376) 
-0.241714

>  <r_i_glide_evdw>  (376) 
-24.3257

>  <r_i_glide_ecoul>  (376) 
-5.27068

>  <r_i_glide_erotb>  (376) 
0

>  <r_i_glide_esite>  (376) 
0

>  <r_i_glide_emodel>  (376) 
-31.1928

>  <r_i_glide_energy>  (376) 
-29.5964

>  <r_i_glide_einternal>  (376) 
3.43945

>  <r_i_glide_intrahb_reward>  (376) 
-0

>  <i_i_glide_confnum>  (376) 
1

>  <i_i_glide_posenum>  (376) 
23

>  <r_i_glide_eff_state_penalty>  (376) 
0

>  <ligand_id>  (376) 
112

>  <original_smiles>  (376) 
C=C1CC2(O)C(=O)C(C)=CC2C2(O)C(O)(CC3(O)C(C)(O)C(O)CC(C)C32O)C2C1C2(C)C

>  <smiles>  (376) 
[H]OC1([H])C([H])([H])C([H])(C([H])([H])[H])C2(O[H])C(O[H])(C([H])([H])C3(O[H])C4([H])C([H])(C(=C([H])[H])C([H])([H])C5(O[H])C(=O)C(C([H])([H])[H])=C([H])C5([H])C32O[H])C4(C([H])([H])[H])C([H])([H])[H])C1(O[H])C([H])([H])[H]

$$$$
112:0:1
     RDKit          3D

 69 73  0  0  1  0  0  0  0  0999 V2000
    5.0108   -4.1978   -1.6070 C   0  0  0  0  0  0  0  0  0  0  0  0
    4.9426   -4.5577   -0.3316 C   0  0  0  0  0  0  0  0  0  0  0  0
    4.3556   -5.9207    0.0711 C   0  0  0  0  0  0  0  0  0  0  0  0
    4.6700   -6.5827    1.4564 C   0  0  1  0  0  0  0  0  0  0  0  0
    4.2034   -7.9203    1.3477 O   0  0  0  0  0  0  0  0  0  0  0  0
    6.1770   -6.6166    1.7608 C   0  0  0  0  0  0  0  0  0  0  0  0
    7.0296   -7.0586    0.9831 O   0  0  0  0  0  0  0  0  0  0  0  0
    6.4448   -6.0258    3.0551 C   0  0  0  0  0  0  0  0  0  0  0  0
    7.8659   -5.8863    3.5598 C   0  0  0  0  0  0  0  0  0  0  0  0
    5.2949   -5.6345    3.6183 C   0  0  0  0  0  0  0  0  0  0  0  0
    4.0563   -5.9826    2.7878 C   0  0  1  0  0  0  0  0  0  0  0  0
    2.8583   -4.9398    2.7391 C   0  0  2  0  0  0  0  0  0  0  0  0
    1.9188   -5.6695    1.9385 O   0  0  0  0  0  0  0  0  0  0  0  0
    3.1522   -3.5049    2.0986 C   0  0  1  0  0  0  0  0  0  0  0  0
    2.4139   -3.3561    0.9013 O   0  0  0  0  0  0  0  0  0  0  0  0
    2.5601   -2.4709    3.0990 C   0  0  0  0  0  0  0  0  0  0  0  0
    2.5411   -3.1691    4.4666 C   0  0  1  0  0  0  0  0  0  0  0  0
    3.8819   -3.1951    4.9014 O   0  0  0  0  0  0  0  0  0  0  0  0
    1.7609   -2.4968    5.6491 C   0  0  1  0  0  0  0  0  0  0  0  0
    2.3251   -1.1089    6.0314 C   0  0  0  0  0  0  0  0  0  0  0  0
    0.4062   -2.2238    5.3005 O   0  0  0  0  0  0  0  0  0  0  0  0
    1.7995   -3.4640    6.8705 C   0  0  1  0  0  0  0  0  0  0  0  0
    0.9680   -3.0079    7.9155 O   0  0  0  0  0  0  0  0  0  0  0  0
    1.4024   -4.9131    6.5497 C   0  0  0  0  0  0  0  0  0  0  0  0
    2.1489   -5.5632    5.3530 C   0  0  1  0  0  0  0  0  0  0  0  0
    1.5477   -6.9733    5.1280 C   0  0  0  0  0  0  0  0  0  0  0  0
    2.0855   -4.6139    4.1084 C   0  0  2  0  0  0  0  0  0  0  0  0
    0.6829   -4.5522    3.8331 O   0  0  0  0  0  0  0  0  0  0  0  0
    4.6325   -3.1584    1.8639 C   0  0  1  0  0  0  0  0  0  0  0  0
    5.4771   -3.6690    0.7363 C   0  0  2  0  0  0  0  0  0  0  0  0
    5.1989   -2.1699    0.8467 C   0  0  0  0  0  0  0  0  0  0  0  0
    4.3809   -1.4028   -0.1793 C   0  0  0  0  0  0  0  0  0  0  0  0
    6.3079   -1.2680    1.3206 C   0  0  0  0  0  0  0  0  0  0  0  0
    5.4576   -3.2654   -1.9149 H   0  0  0  0  0  0  0  0  0  0  0  0
    4.6550   -4.8638   -2.3933 H   0  0  0  0  0  0  0  0  0  0  0  0
    3.2891   -5.8605   -0.1291 H   0  0  0  0  0  0  0  0  0  0  0  0
    4.7163   -6.6159   -0.6990 H   0  0  0  0  0  0  0  0  0  0  0  0
    3.2720   -7.9391    1.1898 H   0  0  0  0  0  0  0  0  0  0  0  0
    8.3630   -6.8459    3.5520 H   0  0  0  0  0  0  0  0  0  0  0  0
    7.8988   -5.4823    4.5616 H   0  0  0  0  0  0  0  0  0  0  0  0
    8.4217   -5.2266    2.8894 H   0  0  0  0  0  0  0  0  0  0  0  0
    5.2446   -5.1875    4.5934 H   0  0  0  0  0  0  0  0  0  0  0  0
    3.6818   -6.8382    3.3400 H   0  0  0  0  0  0  0  0  0  0  0  0
    2.3468   -5.8739    1.1218 H   0  0  0  0  0  0  0  0  0  0  0  0
    2.5344   -2.4751    0.5815 H   0  0  0  0  0  0  0  0  0  0  0  0
    3.1260   -1.5407    3.1191 H   0  0  0  0  0  0  0  0  0  0  0  0
    1.5399   -2.2085    2.8074 H   0  0  0  0  0  0  0  0  0  0  0  0
    3.9175   -3.6818    5.7058 H   0  0  0  0  0  0  0  0  0  0  0  0
    3.3337   -1.1857    6.4271 H   0  0  0  0  0  0  0  0  0  0  0  0
    1.7159   -0.6352    6.8056 H   0  0  0  0  0  0  0  0  0  0  0  0
    2.3528   -0.4323    5.1789 H   0  0  0  0  0  0  0  0  0  0  0  0
    0.4075   -1.6177    4.5756 H   0  0  0  0  0  0  0  0  0  0  0  0
    2.8122   -3.4762    7.2607 H   0  0  0  0  0  0  0  0  0  0  0  0
    0.0777   -3.0607    7.6046 H   0  0  0  0  0  0  0  0  0  0  0  0
    1.5660   -5.5201    7.4364 H   0  0  0  0  0  0  0  0  0  0  0  0
    0.3276   -4.9527    6.3618 H   0  0  0  0  0  0  0  0  0  0  0  0
    3.1942   -5.6980    5.6368 H   0  0  0  0  0  0  0  0  0  0  0  0
    0.4648   -6.9291    5.0399 H   0  0  0  0  0  0  0  0  0  0  0  0
    1.7775   -7.6033    5.9859 H   0  0  0  0  0  0  0  0  0  0  0  0
    1.9187   -7.4723    4.2399 H   0  0  0  0  0  0  0  0  0  0  0  0
    0.5693   -3.9010    3.1645 H   0  0  0  0  0  0  0  0  0  0  0  0
    5.1764   -3.1398    2.7987 H   0  0  0  0  0  0  0  0  0  0  0  0
    6.4882   -3.9693    0.9884 H   0  0  0  0  0  0  0  0  0  0  0  0
    5.0510   -0.9215   -0.8959 H   0  0  0  0  0  0  0  0  0  0  0  0
    3.7964   -0.6196    0.3102 H   0  0  0  0  0  0  0  0  0  0  0  0
    3.7097   -2.0531   -0.7457 H   0  0  0  0  0  0  0  0  0  0  0  0
    6.9341   -0.9627    0.4810 H   0  0  0  0  0  0  0  0  0  0  0  0
    6.9123   -1.7994    2.0451 H   0  0  0  0  0  0  0  0  0  0  0  0
    5.8946   -0.3796    1.7994 H   0  0  0  0  0  0  0  0  0  0  0  0
  1  2  2  0
  1 34  1  0
  1 35  1  0
  2 30  1  0
  2  3  1  0
  3  4  1  0
  3 36  1  0
  3 37  1  0
  4 11  1  0
  4  5  1  6
  4  6  1  0
  5 38  1  0
  6  7  2  0
  6  8  1  0
  8  9  1  0
  8 10  2  0
  9 39  1  0
  9 40  1  0
  9 41  1  0
 10 11  1  0
 10 42  1  0
 11 12  1  0
 11 43  1  1
 12 27  1  0
 12 13  1  6
 12 14  1  0
 13 44  1  0
 14 15  1  6
 14 16  1  0
 14 29  1  0
 15 45  1  0
 16 17  1  0
 16 46  1  0
 16 47  1  0
 17 27  1  0
 17 18  1  1
 17 19  1  0
 18 48  1  0
 19 20  1  0
 19 21  1  6
 19 22  1  0
 20 49  1  0
 20 50  1  0
 20 51  1  0
 21 52  1  0
 22 23  1  0
 22 24  1  0
 22 53  1  1
 23 54  1  0
 24 25  1  0
 24 55  1  0
 24 56  1  0
 25 26  1  0
 25 27  1  0
 25 57  1  1
 26 58  1  0
 26 59  1  0
 26 60  1  0
 27 28  1  6
 28 61  1  0
 29 31  1  0
 29 30  1  0
 29 62  1  1
 30 31  1  0
 30 63  1  1
 31 32  1  0
 31 33  1  0
 32 64  1  0
 32 65  1  0
 32 66  1  0
 33 67  1  0
 33 68  1  0
 33 69  1  0
M  END
>  <i_m_ct_stereo_status>  (377) 
1

>  <s_m_source_file>  (377) 
/var/tmp/pbs.5076255.sched01/tmpbvzcvm50/120d7_yi5_y.sdf

>  <i_m_source_file_index>  (377) 
34

>  <i_lp_mmshare_version>  (377) 
48012

>  <i_f3d_flags>  (377) 
0

>  <s_epik_input>  (377) 
Tz1DMUMoW0NIM10pPVtDSF1bQ0BIXShbQ0BdMTJbT0hdKVtDQF0zKFtPSF0pW0NAXShbT0hdKShbQ0BIXTRbQ0BASF0oQyg9W0NIMl0pW0NIMl0yKUM0KFtDSDNdKVtDSDNdKVtDSDJdW0NAXTUoW09IXSlbQ0BdMyhbT0hdKVtDQEhdKFtDSDNdKVtDSDJdW0NASF0oW09IXSlbQ0BdNShbQ0gzXSlbT0hd

>  <s_epik_cmdline>  (377) 
J2VwaWtfcHl0aG9uJywgJy1waHQnLCAnMi4wJywgJy1waCcsICc3LjAnLCAnLXRuJywgJzgnLCAnLW1hJywgJzIwMCcsICctaW1hZScsICc8aW5maWxlLm1hZT4nLCAnLW9tYWUnLCAnPG91dGZpbGUubWFlPic=

>  <r_lp_tautomer_probability>  (377) 
1

>  <r_epik_Ionization_Penalty>  (377) 
9.84973e-07

>  <r_epik_Ionization_Penalty_Charging>  (377) 
0

>  <r_epik_Ionization_Penalty_Neutral>  (377) 
9.84973e-07

>  <r_epik_State_Penalty>  (377) 
-0

>  <r_epik_Charging_Adjusted_Penalty>  (377) 
0

>  <i_epik_Tot_Q>  (377) 
0

>  <i_epik_Tot_abs_Q>  (377) 
0

>  <s_lp_Force_Field>  (377) 
OPLS3e

>  <r_lp_Energy>  (377) 
74.0025

>  <b_lp_Chiralities_Consistent>  (377) 
1

>  <s_lp_Variant>  (377) 
112:0-1

>  <s_i_glide_gridfile>  (377) 
pfpi4k_grid

>  <i_i_glide_lignum>  (377) 
34

>  <i_i_glide_rotatable_bonds>  (377) 
7

>  <r_i_docking_score>  (377) 
-2.37947

>  <r_i_glide_ligand_efficiency>  (377) 
-0.072105

>  <r_i_glide_ligand_efficiency_sa>  (377) 
-0.231279

>  <r_i_glide_ligand_efficiency_ln>  (377) 
-0.529181

>  <r_i_glide_gscore>  (377) 
-2.37947

>  <r_i_glide_lipo>  (377) 
-0.419173

>  <r_i_glide_hbond>  (377) 
0

>  <r_i_glide_metal>  (377) 
-0

>  <r_i_glide_rewards>  (377) 
-0.338317

>  <r_i_glide_evdw>  (377) 
-19.6597

>  <r_i_glide_ecoul>  (377) 
-4.25993

>  <r_i_glide_erotb>  (377) 
0

>  <r_i_glide_esite>  (377) 
0

>  <r_i_glide_emodel>  (377) 
-28.8925

>  <r_i_glide_energy>  (377) 
-23.9197

>  <r_i_glide_einternal>  (377) 
0.304806

>  <r_i_glide_intrahb_reward>  (377) 
-0

>  <i_i_glide_confnum>  (377) 
1

>  <i_i_glide_posenum>  (377) 
22

>  <r_i_glide_eff_state_penalty>  (377) 
0

>  <ligand_id>  (377) 
112

>  <original_smiles>  (377) 
C=C1CC2(O)C(=O)C(C)=CC2C2(O)C(O)(CC3(O)C(C)(O)C(O)CC(C)C32O)C2C1C2(C)C

>  <smiles>  (377) 
[H]OC1([H])C([H])([H])C([H])(C([H])([H])[H])C2(O[H])C(O[H])(C([H])([H])C3(O[H])C4([H])C([H])(C(=C([H])[H])C([H])([H])C5(O[H])C(=O)C(C([H])([H])[H])=C([H])C5([H])C32O[H])C4(C([H])([H])[H])C([H])([H])[H])C1(O[H])C([H])([H])[H]

$$$$
112:0:2
     RDKit          3D

 69 73  0  0  1  0  0  0  0  0999 V2000
    1.3669   -8.1140    5.0727 C   0  0  0  0  0  0  0  0  0  0  0  0
    2.1973   -7.0893    4.8300 C   0  0  0  0  0  0  0  0  0  0  0  0
    1.9525   -5.7387    5.5026 C   0  0  0  0  0  0  0  0  0  0  0  0
    3.1084   -4.6809    5.6443 C   0  0  1  0  0  0  0  0  0  0  0  0
    2.5708   -3.7070    6.5347 O   0  0  0  0  0  0  0  0  0  0  0  0
    4.3607   -5.2851    6.2718 C   0  0  0  0  0  0  0  0  0  0  0  0
    4.3595   -5.8917    7.3556 O   0  0  0  0  0  0  0  0  0  0  0  0
    5.5232   -5.0351    5.4240 C   0  0  0  0  0  0  0  0  0  0  0  0
    6.8914   -5.5907    5.7497 C   0  0  0  0  0  0  0  0  0  0  0  0
    5.1406   -4.2871    4.3778 C   0  0  0  0  0  0  0  0  0  0  0  0
    3.6706   -3.9090    4.3970 C   0  0  1  0  0  0  0  0  0  0  0  0
    2.8786   -3.8895    3.0164 C   0  0  2  0  0  0  0  0  0  0  0  0
    1.6014   -3.4567    3.4996 O   0  0  0  0  0  0  0  0  0  0  0  0
    2.7225   -5.2630    2.2224 C   0  0  1  0  0  0  0  0  0  0  0  0
    1.3749   -5.6833    2.1601 O   0  0  0  0  0  0  0  0  0  0  0  0
    3.1167   -4.9542    0.7523 C   0  0  0  0  0  0  0  0  0  0  0  0
    4.0188   -3.7101    0.7992 C   0  0  1  0  0  0  0  0  0  0  0  0
    5.2712   -4.1592    1.2801 O   0  0  0  0  0  0  0  0  0  0  0  0
    4.3573   -2.9689   -0.5468 C   0  0  1  0  0  0  0  0  0  0  0  0
    5.1480   -3.8527   -1.5400 C   0  0  0  0  0  0  0  0  0  0  0  0
    3.2068   -2.6317   -1.3301 O   0  0  0  0  0  0  0  0  0  0  0  0
    5.1825   -1.6953   -0.1961 C   0  0  1  0  0  0  0  0  0  0  0  0
    5.4117   -0.9248   -1.3520 O   0  0  0  0  0  0  0  0  0  0  0  0
    4.5636   -0.8133    0.9063 C   0  0  0  0  0  0  0  0  0  0  0  0
    4.1915   -1.5620    2.2217 C   0  0  1  0  0  0  0  0  0  0  0  0
    3.5098   -0.5413    3.1643 C   0  0  0  0  0  0  0  0  0  0  0  0
    3.3439   -2.8436    1.8935 C   0  0  2  0  0  0  0  0  0  0  0  0
    2.1434   -2.3092    1.3339 O   0  0  0  0  0  0  0  0  0  0  0  0
    3.6270   -6.4141    2.7296 C   0  0  1  0  0  0  0  0  0  0  0  0
    3.3906   -7.2556    3.9506 C   0  0  2  0  0  0  0  0  0  0  0  0
    3.4020   -7.9150    2.5675 C   0  0  0  0  0  0  0  0  0  0  0  0
    2.1574   -8.5471    1.9566 C   0  0  0  0  0  0  0  0  0  0  0  0
    4.6129   -8.7485    2.1707 C   0  0  0  0  0  0  0  0  0  0  0  0
    1.5198   -9.0893    4.6332 H   0  0  0  0  0  0  0  0  0  0  0  0
    0.5107   -7.9821    5.7200 H   0  0  0  0  0  0  0  0  0  0  0  0
    1.0796   -5.2931    5.0294 H   0  0  0  0  0  0  0  0  0  0  0  0
    1.6164   -5.9828    6.5145 H   0  0  0  0  0  0  0  0  0  0  0  0
    3.2696   -3.0985    6.7609 H   0  0  0  0  0  0  0  0  0  0  0  0
    7.1699   -5.3068    6.7597 H   0  0  0  0  0  0  0  0  0  0  0  0
    7.6541   -5.2305    5.0645 H   0  0  0  0  0  0  0  0  0  0  0  0
    6.8672   -6.6763    5.6977 H   0  0  0  0  0  0  0  0  0  0  0  0
    5.8220   -3.9356    3.6286 H   0  0  0  0  0  0  0  0  0  0  0  0
    3.7447   -2.8665    4.7043 H   0  0  0  0  0  0  0  0  0  0  0  0
    1.6946   -2.5666    3.8154 H   0  0  0  0  0  0  0  0  0  0  0  0
    1.3860   -6.5989    1.9204 H   0  0  0  0  0  0  0  0  0  0  0  0
    3.5799   -5.8102    0.2509 H   0  0  0  0  0  0  0  0  0  0  0  0
    2.2235   -4.7119    0.1729 H   0  0  0  0  0  0  0  0  0  0  0  0
    5.6277   -4.7640    0.6389 H   0  0  0  0  0  0  0  0  0  0  0  0
    6.1401   -4.1152   -1.1751 H   0  0  0  0  0  0  0  0  0  0  0  0
    5.2877   -3.3368   -2.4900 H   0  0  0  0  0  0  0  0  0  0  0  0
    4.6185   -4.7769   -1.7659 H   0  0  0  0  0  0  0  0  0  0  0  0
    2.6049   -2.0492   -0.8663 H   0  0  0  0  0  0  0  0  0  0  0  0
    6.1647   -2.0056    0.1597 H   0  0  0  0  0  0  0  0  0  0  0  0
    4.5826   -0.5525   -1.6255 H   0  0  0  0  0  0  0  0  0  0  0  0
    5.2666   -0.0194    1.1460 H   0  0  0  0  0  0  0  0  0  0  0  0
    3.6831   -0.3029    0.5076 H   0  0  0  0  0  0  0  0  0  0  0  0
    5.1230   -1.8817    2.7020 H   0  0  0  0  0  0  0  0  0  0  0  0
    2.6867   -0.0195    2.6726 H   0  0  0  0  0  0  0  0  0  0  0  0
    4.2273    0.2202    3.4609 H   0  0  0  0  0  0  0  0  0  0  0  0
    3.1056   -0.9728    4.0768 H   0  0  0  0  0  0  0  0  0  0  0  0
    2.3227   -1.5931    0.7523 H   0  0  0  0  0  0  0  0  0  0  0  0
    4.6634   -6.1522    2.6085 H   0  0  0  0  0  0  0  0  0  0  0  0
    4.2563   -7.4798    4.5564 H   0  0  0  0  0  0  0  0  0  0  0  0
    2.1577   -9.6252    2.1460 H   0  0  0  0  0  0  0  0  0  0  0  0
    2.1461   -8.3908    0.8820 H   0  0  0  0  0  0  0  0  0  0  0  0
    1.2456   -8.1471    2.3911 H   0  0  0  0  0  0  0  0  0  0  0  0
    4.5008   -9.7725    2.5282 H   0  0  0  0  0  0  0  0  0  0  0  0
    5.5167   -8.3366    2.6072 H   0  0  0  0  0  0  0  0  0  0  0  0
    4.7289   -8.7703    1.0860 H   0  0  0  0  0  0  0  0  0  0  0  0
  1  2  2  0
  1 34  1  0
  1 35  1  0
  2 30  1  0
  2  3  1  0
  3  4  1  0
  3 36  1  0
  3 37  1  0
  4 11  1  0
  4  5  1  1
  4  6  1  0
  5 38  1  0
  6  7  2  0
  6  8  1  0
  8  9  1  0
  8 10  2  0
  9 39  1  0
  9 40  1  0
  9 41  1  0
 10 11  1  0
 10 42  1  0
 11 12  1  0
 11 43  1  1
 12 27  1  0
 12 13  1  1
 12 14  1  0
 13 44  1  0
 14 15  1  6
 14 16  1  0
 14 29  1  0
 15 45  1  0
 16 17  1  0
 16 46  1  0
 16 47  1  0
 17 27  1  0
 17 18  1  1
 17 19  1  0
 18 48  1  0
 19 20  1  0
 19 21  1  6
 19 22  1  0
 20 49  1  0
 20 50  1  0
 20 51  1  0
 21 52  1  0
 22 23  1  0
 22 24  1  0
 22 53  1  1
 23 54  1  0
 24 25  1  0
 24 55  1  0
 24 56  1  0
 25 26  1  0
 25 27  1  0
 25 57  1  1
 26 58  1  0
 26 59  1  0
 26 60  1  0
 27 28  1  6
 28 61  1  0
 29 31  1  0
 29 30  1  0
 29 62  1  1
 30 31  1  0
 30 63  1  1
 31 32  1  0
 31 33  1  0
 32 64  1  0
 32 65  1  0
 32 66  1  0
 33 67  1  0
 33 68  1  0
 33 69  1  0
M  END
>  <i_m_ct_stereo_status>  (378) 
1

>  <s_m_source_file>  (378) 
/var/tmp/pbs.5076255.sched01/tmpbvzcvm50/120d7_yi5_y.sdf

>  <i_m_source_file_index>  (378) 
34

>  <i_lp_mmshare_version>  (378) 
48012

>  <i_f3d_flags>  (378) 
0

>  <s_epik_input>  (378) 
Tz1DMUMoW0NIM10pPVtDSF1bQ0BIXShbQ0BdMTJbT0hdKVtDQF0zKFtPSF0pW0NAXShbT0hdKShbQ0BIXTRbQ0BASF0oQyg9W0NIMl0pW0NIMl0yKUM0KFtDSDNdKVtDSDNdKVtDSDJdW0NAXTUoW09IXSlbQ0BdMyhbT0hdKVtDQEhdKFtDSDNdKVtDSDJdW0NASF0oW09IXSlbQ0BdNShbQ0gzXSlbT0hd

>  <s_epik_cmdline>  (378) 
J2VwaWtfcHl0aG9uJywgJy1waHQnLCAnMi4wJywgJy1waCcsICc3LjAnLCAnLXRuJywgJzgnLCAnLW1hJywgJzIwMCcsICctaW1hZScsICc8aW5maWxlLm1hZT4nLCAnLW9tYWUnLCAnPG91dGZpbGUubWFlPic=

>  <r_lp_tautomer_probability>  (378) 
1

>  <r_epik_Ionization_Penalty>  (378) 
9.84973e-07

>  <r_epik_Ionization_Penalty_Charging>  (378) 
0

>  <r_epik_Ionization_Penalty_Neutral>  (378) 
9.84973e-07

>  <r_epik_State_Penalty>  (378) 
-0

>  <r_epik_Charging_Adjusted_Penalty>  (378) 
0

>  <i_epik_Tot_Q>  (378) 
0

>  <i_epik_Tot_abs_Q>  (378) 
0

>  <s_lp_Force_Field>  (378) 
OPLS3e

>  <r_lp_Energy>  (378) 
74.0025

>  <b_lp_Chiralities_Consistent>  (378) 
1

>  <s_lp_Variant>  (378) 
112:0-1

>  <s_i_glide_gridfile>  (378) 
pfpi4k_grid

>  <i_i_glide_lignum>  (378) 
34

>  <i_i_glide_rotatable_bonds>  (378) 
7

>  <r_i_docking_score>  (378) 
-2.00893

>  <r_i_glide_ligand_efficiency>  (378) 
-0.0608767

>  <r_i_glide_ligand_efficiency_sa>  (378) 
-0.195264

>  <r_i_glide_ligand_efficiency_ln>  (378) 
-0.446776

>  <r_i_glide_gscore>  (378) 
-2.00893

>  <r_i_glide_lipo>  (378) 
-0.135767

>  <r_i_glide_hbond>  (378) 
0

>  <r_i_glide_metal>  (378) 
-0

>  <r_i_glide_rewards>  (378) 
-0.241714

>  <r_i_glide_evdw>  (378) 
-25.4024

>  <r_i_glide_ecoul>  (378) 
-2.40885

>  <r_i_glide_erotb>  (378) 
0

>  <r_i_glide_esite>  (378) 
0

>  <r_i_glide_emodel>  (378) 
-30.7067

>  <r_i_glide_energy>  (378) 
-27.8113

>  <r_i_glide_einternal>  (378) 
2.00724

>  <r_i_glide_intrahb_reward>  (378) 
-0

>  <i_i_glide_confnum>  (378) 
1

>  <i_i_glide_posenum>  (378) 
39

>  <r_i_glide_eff_state_penalty>  (378) 
0

>  <ligand_id>  (378) 
112

>  <original_smiles>  (378) 
C=C1CC2(O)C(=O)C(C)=CC2C2(O)C(O)(CC3(O)C(C)(O)C(O)CC(C)C32O)C2C1C2(C)C

>  <smiles>  (378) 
[H]OC1([H])C([H])([H])C([H])(C([H])([H])[H])C2(O[H])C(O[H])(C([H])([H])C3(O[H])C4([H])C([H])(C(=C([H])[H])C([H])([H])C5(O[H])C(=O)C(C([H])([H])[H])=C([H])C5([H])C32O[H])C4(C([H])([H])[H])C([H])([H])[H])C1(O[H])C([H])([H])[H]

$$$$
113:0:0
     RDKit          3D

 92 98  0  0  1  0  0  0  0  0999 V2000
    0.7364  -10.2939    5.5663 C   0  0  0  0  0  0  0  0  0  0  0  0
    1.9767   -9.6224    4.9696 C   0  0  2  0  0  0  0  0  0  0  0  0
    1.9263   -8.0997    5.1819 C   0  0  0  0  0  0  0  0  0  0  0  0
    3.0875   -7.3171    4.4888 C   0  0  1  0  0  0  0  0  0  0  0  0
    3.1675   -7.6879    2.9545 C   0  0  1  0  0  0  0  0  0  0  0  0
    1.9115   -7.2647    2.1306 C   0  0  0  0  0  0  0  0  0  0  0  0
    4.3933   -6.9905    2.3272 C   0  0  0  0  0  0  0  0  0  0  0  0
    4.4575   -5.4898    2.6244 C   0  0  0  0  0  0  0  0  0  0  0  0
    4.6525   -4.7157    1.6899 O   0  0  0  0  0  0  0  0  0  0  0  0
    4.3932   -5.0313    4.1143 C   0  0  1  0  0  0  0  0  0  0  0  0
    5.7662   -5.5311    4.6628 C   0  0  0  0  0  0  0  0  0  0  0  0
    4.3242   -3.4183    4.1944 C   0  0  2  0  0  0  0  0  0  0  0  0
    5.0977   -2.7957    5.3916 C   0  0  0  0  0  0  0  0  0  0  0  0
    5.2722   -1.2878    5.2596 C   0  0  0  0  0  0  0  0  0  0  0  0
    3.9348   -0.5577    5.2653 C   0  0  1  0  0  0  0  0  0  0  0  0
    4.1192    0.9537    4.9706 C   0  0  0  0  0  0  0  0  0  0  0  0
    2.8532    1.6267    5.5377 C   0  0  1  0  0  0  0  0  0  0  0  0
    2.1452    2.4158    4.5367 N   0  0  0  0  0  0  0  0  0  0  0  0
    1.2455    3.3774    4.8029 C   0  0  0  0  0  0  0  0  0  0  0  0
    1.1534    3.9433    5.8926 O   0  0  0  0  0  0  0  0  0  0  0  0
    0.3120    3.6482    3.6749 C   0  0  2  0  0  0  0  0  0  0  0  0
    0.1848    5.0414    3.3242 N   0  0  0  0  0  0  0  0  0  0  0  0
   -0.9331    4.4220    3.9729 C   0  0  1  0  0  0  0  0  0  0  0  0
   -2.1480    4.2353    3.0932 C   0  0  0  0  0  0  0  0  0  0  0  0
    2.0689    0.3720    6.0362 C   0  0  1  0  0  0  0  0  0  0  0  0
    0.9668    0.6757    7.0656 C   0  0  0  0  0  0  0  0  0  0  0  0
    1.5901   -0.4979    4.8433 C   0  0  0  0  0  0  0  0  0  0  0  0
    2.8961   -1.1601    4.2939 C   0  0  2  0  0  0  0  0  0  0  0  0
    2.8943   -2.7357    4.0206 C   0  0  1  0  0  0  0  0  0  0  0  0
    2.4064   -2.8396    2.5525 C   0  0  0  0  0  0  0  0  0  0  0  0
    1.9002   -3.5275    4.9099 C   0  0  0  0  0  0  0  0  0  0  0  0
    1.8597   -5.0414    4.6429 C   0  0  0  0  0  0  0  0  0  0  0  0
    3.2048   -5.7787    4.8830 C   0  0  1  0  0  0  0  0  0  0  0  0
    3.4324   -5.7551    6.4221 C   0  0  0  0  0  0  0  0  0  0  0  0
    3.1875   -0.5005    6.5884 C   0  0  0  0  0  0  0  0  0  0  0  0
    3.3105   -9.2405    2.7734 C   0  0  1  0  0  0  0  0  0  0  0  0
    4.6481   -9.8720    3.2167 C   0  0  0  0  0  0  0  0  0  0  0  0
    2.1672   -9.9652    3.4906 C   0  0  0  0  0  0  0  0  0  0  0  0
    1.4416  -10.7551    2.8920 O   0  0  0  0  0  0  0  0  0  0  0  0
    0.8299  -11.3739    5.4947 H   0  0  0  0  0  0  0  0  0  0  0  0
   -0.1855  -10.0066    5.0596 H   0  0  0  0  0  0  0  0  0  0  0  0
    0.6357  -10.0657    6.6253 H   0  0  0  0  0  0  0  0  0  0  0  0
    2.8528  -10.0056    5.4949 H   0  0  0  0  0  0  0  0  0  0  0  0
    0.9559   -7.7239    4.8536 H   0  0  0  0  0  0  0  0  0  0  0  0
    1.9676   -7.9402    6.2589 H   0  0  0  0  0  0  0  0  0  0  0  0
    3.9876   -7.7595    4.9190 H   0  0  0  0  0  0  0  0  0  0  0  0
    1.8514   -7.8225    1.1925 H   0  0  0  0  0  0  0  0  0  0  0  0
    1.9241   -6.2173    1.8383 H   0  0  0  0  0  0  0  0  0  0  0  0
    0.9754   -7.4533    2.6559 H   0  0  0  0  0  0  0  0  0  0  0  0
    5.3189   -7.4215    2.6972 H   0  0  0  0  0  0  0  0  0  0  0  0
    4.4001   -7.1428    1.2457 H   0  0  0  0  0  0  0  0  0  0  0  0
    5.9164   -5.3105    5.7181 H   0  0  0  0  0  0  0  0  0  0  0  0
    6.5886   -5.0672    4.1172 H   0  0  0  0  0  0  0  0  0  0  0  0
    5.8956   -6.6095    4.5767 H   0  0  0  0  0  0  0  0  0  0  0  0
    4.9124   -3.0479    3.3572 H   0  0  0  0  0  0  0  0  0  0  0  0
    4.6007   -2.9880    6.3377 H   0  0  0  0  0  0  0  0  0  0  0  0
    6.1142   -3.1882    5.4770 H   0  0  0  0  0  0  0  0  0  0  0  0
    5.8943   -0.9265    6.0810 H   0  0  0  0  0  0  0  0  0  0  0  0
    5.8034   -1.0661    4.3305 H   0  0  0  0  0  0  0  0  0  0  0  0
    4.9860    1.3489    5.4978 H   0  0  0  0  0  0  0  0  0  0  0  0
    4.2579    1.1600    3.9086 H   0  0  0  0  0  0  0  0  0  0  0  0
    3.1270    2.2783    6.3733 H   0  0  0  0  0  0  0  0  0  0  0  0
    2.2207    2.1089    3.5745 H   0  0  0  0  0  0  0  0  0  0  0  0
    0.4335    3.0923    2.7322 H   0  0  0  0  0  0  0  0  0  0  0  0
    0.7362    5.6755    3.9004 H   0  0  0  0  0  0  0  0  0  0  0  0
   -1.0698    4.9067    4.9499 H   0  0  0  0  0  0  0  0  0  0  0  0
   -2.7582    3.4445    3.5164 H   0  0  0  0  0  0  0  0  0  0  0  0
   -1.8492    3.9264    2.0863 H   0  0  0  0  0  0  0  0  0  0  0  0
   -2.7407    5.1401    2.9980 H   0  0  0  0  0  0  0  0  0  0  0  0
    0.5638   -0.2439    7.4954 H   0  0  0  0  0  0  0  0  0  0  0  0
    0.1430    1.2304    6.6209 H   0  0  0  0  0  0  0  0  0  0  0  0
    1.3633    1.2704    7.8862 H   0  0  0  0  0  0  0  0  0  0  0  0
    0.8685   -1.2127    5.2276 H   0  0  0  0  0  0  0  0  0  0  0  0
    1.0788    0.0743    4.0688 H   0  0  0  0  0  0  0  0  0  0  0  0
    3.1200   -0.6916    3.3343 H   0  0  0  0  0  0  0  0  0  0  0  0
    1.4407   -2.3364    2.4266 H   0  0  0  0  0  0  0  0  0  0  0  0
    2.2774   -3.8640    2.2066 H   0  0  0  0  0  0  0  0  0  0  0  0
    3.1199   -2.3643    1.8700 H   0  0  0  0  0  0  0  0  0  0  0  0
    2.1100   -3.3478    5.9614 H   0  0  0  0  0  0  0  0  0  0  0  0
    0.8794   -3.1956    4.7279 H   0  0  0  0  0  0  0  0  0  0  0  0
    1.0974   -5.4748    5.2955 H   0  0  0  0  0  0  0  0  0  0  0  0
    1.4974   -5.2146    3.6376 H   0  0  0  0  0  0  0  0  0  0  0  0
    3.7053   -4.7721    6.7840 H   0  0  0  0  0  0  0  0  0  0  0  0
    4.2124   -6.4589    6.7342 H   0  0  0  0  0  0  0  0  0  0  0  0
    2.5206   -6.0242    6.9570 H   0  0  0  0  0  0  0  0  0  0  0  0
    2.8519   -1.4732    6.9493 H   0  0  0  0  0  0  0  0  0  0  0  0
    3.7608   -0.0118    7.3749 H   0  0  0  0  0  0  0  0  0  0  0  0
    3.2106   -9.4842    1.7134 H   0  0  0  0  0  0  0  0  0  0  0  0
    4.6098  -10.9532    3.0845 H   0  0  0  0  0  0  0  0  0  0  0  0
    4.8711   -9.6880    4.2667 H   0  0  0  0  0  0  0  0  0  0  0  0
    5.4915   -9.5228    2.6191 H   0  0  0  0  0  0  0  0  0  0  0  0
    0.1680    5.1256    2.3003 H   0  0  0  0  0  0  0  0  0  0  0  0
  1  2  1  0
  1 40  1  0
  1 41  1  0
  1 42  1  0
  2 38  1  0
  2  3  1  0
  2 43  1  1
  3  4  1  0
  3 44  1  0
  3 45  1  0
  4 33  1  0
  4  5  1  0
  4 46  1  1
  5  6  1  6
  5  7  1  0
  5 36  1  0
  6 47  1  0
  6 48  1  0
  6 49  1  0
  7  8  1  0
  7 50  1  0
  7 51  1  0
  8  9  2  0
  8 10  1  0
 10 33  1  0
 10 11  1  1
 10 12  1  0
 11 52  1  0
 11 53  1  0
 11 54  1  0
 12 29  1  0
 12 13  1  0
 12 55  1  6
 13 14  1  0
 13 56  1  0
 13 57  1  0
 15 14  1  1
 14 58  1  0
 14 59  1  0
 15 28  1  0
 15 35  1  0
 15 16  1  0
 16 17  1  0
 16 60  1  0
 16 61  1  0
 17 18  1  0
 17 25  1  0
 17 62  1  1
 18 19  1  0
 18 63  1  0
 19 20  2  0
 19 21  1  0
 21 23  1  0
 21 22  1  0
 21 64  1  6
 22 23  1  0
 22 65  1  0
 22 92  1  0
 23 24  1  0
 23 66  1  1
 24 67  1  0
 24 68  1  0
 24 69  1  0
 25 26  1  1
 25 27  1  0
 25 35  1  0
 26 70  1  0
 26 71  1  0
 26 72  1  0
 27 28  1  0
 27 73  1  0
 27 74  1  0
 28 29  1  0
 28 75  1  6
 29 30  1  6
 29 31  1  0
 30 76  1  0
 30 77  1  0
 30 78  1  0
 31 32  1  0
 31 79  1  0
 31 80  1  0
 32 33  1  0
 32 81  1  0
 32 82  1  0
 33 34  1  1
 34 83  1  0
 34 84  1  0
 34 85  1  0
 35 86  1  0
 35 87  1  0
 36 37  1  0
 36 38  1  0
 36 88  1  6
 37 89  1  0
 37 90  1  0
 37 91  1  0
 38 39  2  0
M  CHG  1  22   1
M  END
>  <i_m_ct_stereo_status>  (379) 
1

>  <s_m_source_file>  (379) 
/var/tmp/pbs.5076255.sched01/tmpbvzcvm50/120d7_yi5_y.sdf

>  <i_m_source_file_index>  (379) 
35

>  <i_lp_mmshare_version>  (379) 
48012

>  <i_f3d_flags>  (379) 
0

>  <s_epik_input>  (379) 
W0NIM11bQ0BIXShbQ0gyXTEpQyg9TylbQ0BIXShbQ0gzXSlbQ0BdKFtDSDNdKShbQ0gyXUMyPU8pW0NASF0xW0NAXShbQ0gzXSkoW0NIMl1bQ0gyXTMpW0NAXTIoW0NIM10pW0NASF0oW0NIMl1bQ0gyXTQpW0NAXTMoW0NIM10pW0NASF0oW0NAQF00NTYpW0NIMl1bQ0BAXShbQ0gzXSkoW0NIMl02KVtDQEBIXShbQ0gyXTUpW05IXUMoPU8pW0NAQEhdN1tOSF1bQ0BIXTdbQ0gzXQ==

>  <s_epik_cmdline>  (379) 
J2VwaWtfcHl0aG9uJywgJy1waHQnLCAnMi4wJywgJy1waCcsICc3LjAnLCAnLXRuJywgJzgnLCAnLW1hJywgJzIwMCcsICctaW1hZScsICc8aW5maWxlLm1hZT4nLCAnLW9tYWUnLCAnPG91dGZpbGUubWFlPic=

>  <r_lp_tautomer_probability>  (379) 
0.99995

>  <r_epik_Ionization_Penalty>  (379) 
0.0201035

>  <r_epik_Ionization_Penalty_Charging>  (379) 
0.0201029

>  <r_epik_Ionization_Penalty_Neutral>  (379) 
6.19407e-07

>  <r_epik_State_Penalty>  (379) 
0.0160939

>  <r_epik_Charging_Adjusted_Penalty>  (379) 
0.0361968

>  <i_epik_Tot_Q>  (379) 
1

>  <i_epik_Tot_abs_Q>  (379) 
1

>  <s_lp_Force_Field>  (379) 
OPLS3e

>  <r_lp_Energy>  (379) 
111.809

>  <b_lp_Chiralities_Consistent>  (379) 
1

>  <s_lp_Variant>  (379) 
113:0-1

>  <s_i_glide_gridfile>  (379) 
pfpi4k_grid

>  <i_i_glide_lignum>  (379) 
35

>  <i_i_glide_rotatable_bonds>  (379) 
3

>  <r_i_docking_score>  (379) 
-2.24463

>  <r_i_glide_ligand_efficiency>  (379) 
-0.0575546

>  <r_i_glide_ligand_efficiency_sa>  (379) 
-0.19518

>  <r_i_glide_ligand_efficiency_ln>  (379) 
-0.481312

>  <r_i_glide_gscore>  (379) 
-2.24463

>  <r_i_glide_lipo>  (379) 
-0.0683014

>  <r_i_glide_hbond>  (379) 
-0.199548

>  <r_i_glide_metal>  (379) 
-0

>  <r_i_glide_rewards>  (379) 
-0.00527893

>  <r_i_glide_evdw>  (379) 
-26.0123

>  <r_i_glide_ecoul>  (379) 
-5.12178

>  <r_i_glide_erotb>  (379) 
0.214283

>  <r_i_glide_esite>  (379) 
-0.1169

>  <r_i_glide_emodel>  (379) 
-35.271

>  <r_i_glide_energy>  (379) 
-31.1341

>  <r_i_glide_einternal>  (379) 
2.01169

>  <r_i_glide_intrahb_reward>  (379) 
-0

>  <i_i_glide_confnum>  (379) 
3

>  <i_i_glide_posenum>  (379) 
1

>  <r_i_glide_eff_state_penalty>  (379) 
0

>  <ligand_id>  (379) 
113

>  <original_smiles>  (379) 
CC1CC2C(C)(CC(=O)C3(C)C4CCC56CC(NC(=O)C7NC7C)C(C)(CC5C4(C)CCC23C)C6)C(C)C1=O

>  <smiles>  (379) 
[H]N(C(=O)C1([H])C([H])(C([H])([H])[H])[N+]1([H])[H])C1([H])C([H])([H])C23C([H])([H])C([H])([H])C4([H])C5(C([H])([H])[H])C(=O)C([H])([H])C6(C([H])([H])[H])C([H])(C([H])([H])[H])C(=O)C([H])(C([H])([H])[H])C([H])([H])C6([H])C5(C([H])([H])[H])C([H])([H])C([H])([H])C4(C([H])([H])[H])C2([H])C([H])([H])C1(C([H])([H])[H])C3([H])[H]

$$$$
113:0:1
     RDKit          3D

 92 98  0  0  1  0  0  0  0  0999 V2000
    0.6327  -10.1658    5.2451 C   0  0  0  0  0  0  0  0  0  0  0  0
    1.8582   -9.4292    4.6939 C   0  0  2  0  0  0  0  0  0  0  0  0
    1.8641   -7.9457    5.0847 C   0  0  0  0  0  0  0  0  0  0  0  0
    3.0303   -7.1179    4.4469 C   0  0  1  0  0  0  0  0  0  0  0  0
    3.0488   -7.2922    2.8745 C   0  0  1  0  0  0  0  0  0  0  0  0
    1.7829   -6.7264    2.1580 C   0  0  0  0  0  0  0  0  0  0  0  0
    4.2757   -6.5691    2.2979 C   0  0  0  0  0  0  0  0  0  0  0  0
    4.3980   -5.1209    2.7785 C   0  0  0  0  0  0  0  0  0  0  0  0
    4.5915   -4.2341    1.9413 O   0  0  0  0  0  0  0  0  0  0  0  0
    4.4035   -4.8561    4.3167 C   0  0  1  0  0  0  0  0  0  0  0  0
    5.7734   -5.4630    4.7472 C   0  0  0  0  0  0  0  0  0  0  0  0
    4.4090   -3.2648    4.6018 C   0  0  2  0  0  0  0  0  0  0  0  0
    5.2490   -2.8226    5.8410 C   0  0  0  0  0  0  0  0  0  0  0  0
    5.4650   -1.3288    5.8992 C   0  0  0  0  0  0  0  0  0  0  0  0
    4.1600   -0.5721    6.0489 C   0  0  1  0  0  0  0  0  0  0  0  0
    4.4178    0.9478    5.9241 C   0  0  0  0  0  0  0  0  0  0  0  0
    3.1441    1.5800    6.5098 C   0  0  1  0  0  0  0  0  0  0  0  0
    2.4655    2.5307    5.6512 N   0  0  0  0  0  0  0  0  0  0  0  0
    2.2554    2.4604    4.3118 C   0  0  0  0  0  0  0  0  0  0  0  0
    2.6553    1.5856    3.5848 O   0  0  0  0  0  0  0  0  0  0  0  0
    1.4716    3.6765    3.8139 C   0  0  2  0  0  0  0  0  0  0  0  0
    2.0758    4.1526    2.5966 N   0  0  0  0  0  0  0  0  0  0  0  0
    2.1845    4.9814    3.7951 C   0  0  1  0  0  0  0  0  0  0  0  0
    1.3324    6.1981    3.7997 C   0  0  0  0  0  0  0  0  0  0  0  0
    2.3322    0.3148    6.9549 C   0  0  1  0  0  0  0  0  0  0  0  0
    1.2892    0.5648    8.0618 C   0  0  0  0  0  0  0  0  0  0  0  0
    1.7769   -0.4226    5.7267 C   0  0  0  0  0  0  0  0  0  0  0  0
    3.0574   -1.0083    5.0421 C   0  0  2  0  0  0  0  0  0  0  0  0
    2.9867   -2.5314    4.5550 C   0  0  1  0  0  0  0  0  0  0  0  0
    2.4493   -2.4304    3.1106 C   0  0  0  0  0  0  0  0  0  0  0  0
    1.9958   -3.3986    5.3835 C   0  0  0  0  0  0  0  0  0  0  0  0
    1.8921   -4.8476    4.9271 C   0  0  0  0  0  0  0  0  0  0  0  0
    3.2159   -5.6529    5.0242 C   0  0  1  0  0  0  0  0  0  0  0  0
    3.4908   -5.8157    6.5440 C   0  0  0  0  0  0  0  0  0  0  0  0
    3.4444   -0.6302    7.3936 C   0  0  0  0  0  0  0  0  0  0  0  0
    3.1367   -8.8120    2.5023 C   0  0  1  0  0  0  0  0  0  0  0  0
    4.4601   -9.5473    2.8203 C   0  0  0  0  0  0  0  0  0  0  0  0
    1.9851   -9.5819    3.1720 C   0  0  0  0  0  0  0  0  0  0  0  0
    1.2025  -10.2599    2.4975 O   0  0  0  0  0  0  0  0  0  0  0  0
    0.6751  -11.2371    5.0550 H   0  0  0  0  0  0  0  0  0  0  0  0
   -0.2948   -9.7889    4.8083 H   0  0  0  0  0  0  0  0  0  0  0  0
    0.5573  -10.0509    6.3323 H   0  0  0  0  0  0  0  0  0  0  0  0
    2.7366   -9.9066    5.1185 H   0  0  0  0  0  0  0  0  0  0  0  0
    0.9048   -7.5057    4.8482 H   0  0  0  0  0  0  0  0  0  0  0  0
    1.9496   -7.9252    6.1664 H   0  0  0  0  0  0  0  0  0  0  0  0
    3.9306   -7.6372    4.7865 H   0  0  0  0  0  0  0  0  0  0  0  0
    1.6740   -7.1614    1.1621 H   0  0  0  0  0  0  0  0  0  0  0  0
    1.8254   -5.6591    1.9995 H   0  0  0  0  0  0  0  0  0  0  0  0
    0.8594   -6.9496    2.6930 H   0  0  0  0  0  0  0  0  0  0  0  0
    5.1982   -7.0605    2.5801 H   0  0  0  0  0  0  0  0  0  0  0  0
    4.2497   -6.5802    1.2088 H   0  0  0  0  0  0  0  0  0  0  0  0
    5.9713   -5.3694    5.8168 H   0  0  0  0  0  0  0  0  0  0  0  0
    6.5988   -4.9683    4.2254 H   0  0  0  0  0  0  0  0  0  0  0  0
    5.8635   -6.5250    4.5273 H   0  0  0  0  0  0  0  0  0  0  0  0
    4.9694   -2.8003    3.7947 H   0  0  0  0  0  0  0  0  0  0  0  0
    4.7728   -3.1122    6.7695 H   0  0  0  0  0  0  0  0  0  0  0  0
    6.2477   -3.2476    5.8280 H   0  0  0  0  0  0  0  0  0  0  0  0
    6.1326   -1.0712    6.7140 H   0  0  0  0  0  0  0  0  0  0  0  0
    5.9305   -0.9831    4.9785 H   0  0  0  0  0  0  0  0  0  0  0  0
    5.2813    1.2553    6.5322 H   0  0  0  0  0  0  0  0  0  0  0  0
    4.6487    1.2486    4.9067 H   0  0  0  0  0  0  0  0  0  0  0  0
    3.4167    2.1365    7.3945 H   0  0  0  0  0  0  0  0  0  0  0  0
    2.1145    3.3388    6.1370 H   0  0  0  0  0  0  0  0  0  0  0  0
    0.4206    3.5746    3.5742 H   0  0  0  0  0  0  0  0  0  0  0  0
    2.9532    3.6938    2.4002 H   0  0  0  0  0  0  0  0  0  0  0  0
    3.2174    5.0287    4.1567 H   0  0  0  0  0  0  0  0  0  0  0  0
    1.1226    6.4173    4.8415 H   0  0  0  0  0  0  0  0  0  0  0  0
    0.3800    5.9967    3.2920 H   0  0  0  0  0  0  0  0  0  0  0  0
    1.8349    7.0409    3.3233 H   0  0  0  0  0  0  0  0  0  0  0  0
    0.8591   -0.3795    8.4057 H   0  0  0  0  0  0  0  0  0  0  0  0
    0.4736    1.1985    7.7242 H   0  0  0  0  0  0  0  0  0  0  0  0
    1.7319    1.0378    8.9438 H   0  0  0  0  0  0  0  0  0  0  0  0
    1.0743   -1.1631    6.1164 H   0  0  0  0  0  0  0  0  0  0  0  0
    1.2434    0.2362    5.0284 H   0  0  0  0  0  0  0  0  0  0  0  0
    3.2641   -0.3765    4.1698 H   0  0  0  0  0  0  0  0  0  0  0  0
    1.5053   -1.8858    3.0750 H   0  0  0  0  0  0  0  0  0  0  0  0
    2.2681   -3.3852    2.6283 H   0  0  0  0  0  0  0  0  0  0  0  0
    3.1499   -1.8996    2.4653 H   0  0  0  0  0  0  0  0  0  0  0  0
    2.2496   -3.3530    6.4398 H   0  0  0  0  0  0  0  0  0  0  0  0
    0.9844   -3.0112    5.2792 H   0  0  0  0  0  0  0  0  0  0  0  0
    1.1249   -5.3342    5.5372 H   0  0  0  0  0  0  0  0  0  0  0  0
    1.4927   -4.8701    3.9249 H   0  0  0  0  0  0  0  0  0  0  0  0
    3.8127   -4.9032    7.0226 H   0  0  0  0  0  0  0  0  0  0  0  0
    4.2565   -6.5756    6.7477 H   0  0  0  0  0  0  0  0  0  0  0  0
    2.5966   -6.1183    7.0837 H   0  0  0  0  0  0  0  0  0  0  0  0
    3.0951   -1.6304    7.6525 H   0  0  0  0  0  0  0  0  0  0  0  0
    4.0590   -0.2508    8.2085 H   0  0  0  0  0  0  0  0  0  0  0  0
    2.9880   -8.9206    1.4313 H   0  0  0  0  0  0  0  0  0  0  0  0
    4.3848  -10.5923    2.5546 H   0  0  0  0  0  0  0  0  0  0  0  0
    4.7246   -9.5010    3.8746 H   0  0  0  0  0  0  0  0  0  0  0  0
    5.2971   -9.1418    2.2409 H   0  0  0  0  0  0  0  0  0  0  0  0
    1.4232    4.4207    1.8739 H   0  0  0  0  0  0  0  0  0  0  0  0
  1  2  1  0
  1 40  1  0
  1 41  1  0
  1 42  1  0
  2 38  1  0
  2  3  1  0
  2 43  1  1
  3  4  1  0
  3 44  1  0
  3 45  1  0
  4 33  1  0
  4  5  1  0
  4 46  1  1
  5  6  1  6
  5  7  1  0
  5 36  1  0
  6 47  1  0
  6 48  1  0
  6 49  1  0
  7  8  1  0
  7 50  1  0
  7 51  1  0
  8  9  2  0
  8 10  1  0
 10 33  1  0
 10 11  1  1
 10 12  1  0
 11 52  1  0
 11 53  1  0
 11 54  1  0
 12 29  1  0
 12 13  1  0
 12 55  1  6
 13 14  1  0
 13 56  1  0
 13 57  1  0
 15 14  1  1
 14 58  1  0
 14 59  1  0
 15 28  1  0
 15 35  1  0
 15 16  1  0
 16 17  1  0
 16 60  1  0
 16 61  1  0
 17 18  1  0
 17 25  1  0
 17 62  1  1
 18 19  1  0
 18 63  1  0
 19 20  2  0
 19 21  1  0
 21 23  1  0
 21 22  1  0
 21 64  1  6
 22 23  1  0
 22 65  1  0
 22 92  1  0
 23 24  1  0
 23 66  1  1
 24 67  1  0
 24 68  1  0
 24 69  1  0
 25 26  1  1
 25 27  1  0
 25 35  1  0
 26 70  1  0
 26 71  1  0
 26 72  1  0
 27 28  1  0
 27 73  1  0
 27 74  1  0
 28 29  1  0
 28 75  1  6
 29 30  1  6
 29 31  1  0
 30 76  1  0
 30 77  1  0
 30 78  1  0
 31 32  1  0
 31 79  1  0
 31 80  1  0
 32 33  1  0
 32 81  1  0
 32 82  1  0
 33 34  1  1
 34 83  1  0
 34 84  1  0
 34 85  1  0
 35 86  1  0
 35 87  1  0
 36 37  1  0
 36 38  1  0
 36 88  1  6
 37 89  1  0
 37 90  1  0
 37 91  1  0
 38 39  2  0
M  CHG  1  22   1
M  END
>  <i_m_ct_stereo_status>  (380) 
1

>  <s_m_source_file>  (380) 
/var/tmp/pbs.5076255.sched01/tmpbvzcvm50/120d7_yi5_y.sdf

>  <i_m_source_file_index>  (380) 
35

>  <i_lp_mmshare_version>  (380) 
48012

>  <i_f3d_flags>  (380) 
0

>  <s_epik_input>  (380) 
W0NIM11bQ0BIXShbQ0gyXTEpQyg9TylbQ0BIXShbQ0gzXSlbQ0BdKFtDSDNdKShbQ0gyXUMyPU8pW0NASF0xW0NAXShbQ0gzXSkoW0NIMl1bQ0gyXTMpW0NAXTIoW0NIM10pW0NASF0oW0NIMl1bQ0gyXTQpW0NAXTMoW0NIM10pW0NASF0oW0NAQF00NTYpW0NIMl1bQ0BAXShbQ0gzXSkoW0NIMl02KVtDQEBIXShbQ0gyXTUpW05IXUMoPU8pW0NAQEhdN1tOSF1bQ0BIXTdbQ0gzXQ==

>  <s_epik_cmdline>  (380) 
J2VwaWtfcHl0aG9uJywgJy1waHQnLCAnMi4wJywgJy1waCcsICc3LjAnLCAnLXRuJywgJzgnLCAnLW1hJywgJzIwMCcsICctaW1hZScsICc8aW5maWxlLm1hZT4nLCAnLW9tYWUnLCAnPG91dGZpbGUubWFlPic=

>  <r_lp_tautomer_probability>  (380) 
0.99995

>  <r_epik_Ionization_Penalty>  (380) 
0.0201035

>  <r_epik_Ionization_Penalty_Charging>  (380) 
0.0201029

>  <r_epik_Ionization_Penalty_Neutral>  (380) 
6.19407e-07

>  <r_epik_State_Penalty>  (380) 
0.0160939

>  <r_epik_Charging_Adjusted_Penalty>  (380) 
0.0361968

>  <i_epik_Tot_Q>  (380) 
1

>  <i_epik_Tot_abs_Q>  (380) 
1

>  <s_lp_Force_Field>  (380) 
OPLS3e

>  <r_lp_Energy>  (380) 
111.809

>  <b_lp_Chiralities_Consistent>  (380) 
1

>  <s_lp_Variant>  (380) 
113:0-1

>  <s_i_glide_gridfile>  (380) 
pfpi4k_grid

>  <i_i_glide_lignum>  (380) 
35

>  <i_i_glide_rotatable_bonds>  (380) 
3

>  <r_i_docking_score>  (380) 
-2.13103

>  <r_i_glide_ligand_efficiency>  (380) 
-0.0546419

>  <r_i_glide_ligand_efficiency_sa>  (380) 
-0.185302

>  <r_i_glide_ligand_efficiency_ln>  (380) 
-0.456954

>  <r_i_glide_gscore>  (380) 
-2.13103

>  <r_i_glide_lipo>  (380) 
-0.0533292

>  <r_i_glide_hbond>  (380) 
-0.2

>  <r_i_glide_metal>  (380) 
-0

>  <r_i_glide_rewards>  (380) 
-0.0108546

>  <r_i_glide_evdw>  (380) 
-26.3735

>  <r_i_glide_ecoul>  (380) 
-4.36763

>  <r_i_glide_erotb>  (380) 
0.214283

>  <r_i_glide_esite>  (380) 
-0.107312

>  <r_i_glide_emodel>  (380) 
-28.7177

>  <r_i_glide_energy>  (380) 
-30.7412

>  <r_i_glide_einternal>  (380) 
10.244

>  <r_i_glide_intrahb_reward>  (380) 
-0

>  <i_i_glide_confnum>  (380) 
3

>  <i_i_glide_posenum>  (380) 
8

>  <r_i_glide_eff_state_penalty>  (380) 
0

>  <ligand_id>  (380) 
113

>  <original_smiles>  (380) 
CC1CC2C(C)(CC(=O)C3(C)C4CCC56CC(NC(=O)C7NC7C)C(C)(CC5C4(C)CCC23C)C6)C(C)C1=O

>  <smiles>  (380) 
[H]N(C(=O)C1([H])C([H])(C([H])([H])[H])[N+]1([H])[H])C1([H])C([H])([H])C23C([H])([H])C([H])([H])C4([H])C5(C([H])([H])[H])C(=O)C([H])([H])C6(C([H])([H])[H])C([H])(C([H])([H])[H])C(=O)C([H])(C([H])([H])[H])C([H])([H])C6([H])C5(C([H])([H])[H])C([H])([H])C([H])([H])C4(C([H])([H])[H])C2([H])C([H])([H])C1(C([H])([H])[H])C3([H])[H]

$$$$
113:0:2
     RDKit          3D

 92 98  0  0  1  0  0  0  0  0999 V2000
    3.2901   -9.5547    3.6272 C   0  0  0  0  0  0  0  0  0  0  0  0
    4.1633   -8.2809    3.5739 C   0  0  2  0  0  0  0  0  0  0  0  0
    3.3518   -6.9919    3.8294 C   0  0  0  0  0  0  0  0  0  0  0  0
    4.1623   -5.6644    3.6764 C   0  0  1  0  0  0  0  0  0  0  0  0
    4.9010   -5.6185    2.2868 C   0  0  1  0  0  0  0  0  0  0  0  0
    3.9421   -5.5819    1.0608 C   0  0  0  0  0  0  0  0  0  0  0  0
    5.7696   -4.3576    2.2302 C   0  0  0  0  0  0  0  0  0  0  0  0
    5.0111   -3.0831    2.5957 C   0  0  0  0  0  0  0  0  0  0  0  0
    5.1412   -2.1041    1.8672 O   0  0  0  0  0  0  0  0  0  0  0  0
    4.2644   -3.0251    3.9637 C   0  0  1  0  0  0  0  0  0  0  0  0
    5.4121   -3.0329    5.0087 C   0  0  0  0  0  0  0  0  0  0  0  0
    3.4349   -1.6452    4.0918 C   0  0  2  0  0  0  0  0  0  0  0  0
    3.3856   -1.0459    5.5293 C   0  0  0  0  0  0  0  0  0  0  0  0
    2.8721    0.3850    5.5440 C   0  0  0  0  0  0  0  0  0  0  0  0
    1.4357    0.4708    5.0526 C   0  0  1  0  0  0  0  0  0  0  0  0
    0.9645    1.9467    4.9243 C   0  0  0  0  0  0  0  0  0  0  0  0
   -0.5756    1.8664    4.9785 C   0  0  1  0  0  0  0  0  0  0  0  0
   -1.2202    2.5086    3.8395 N   0  0  0  0  0  0  0  0  0  0  0  0
   -1.6582    3.7765    3.7975 C   0  0  0  0  0  0  0  0  0  0  0  0
   -1.5891    4.5386    4.7578 O   0  0  0  0  0  0  0  0  0  0  0  0
   -2.2528    4.1770    2.5011 C   0  0  2  0  0  0  0  0  0  0  0  0
   -2.0116    5.5825    2.0973 N   0  0  0  0  0  0  0  0  0  0  0  0
   -3.3677    5.1373    2.4570 C   0  0  1  0  0  0  0  0  0  0  0  0
   -4.5060    5.2501    1.4546 C   0  0  0  0  0  0  0  0  0  0  0  0
   -0.7897    0.3380    5.0697 C   0  0  1  0  0  0  0  0  0  0  0  0
   -2.1656   -0.0951    5.5961 C   0  0  0  0  0  0  0  0  0  0  0  0
   -0.3722   -0.3418    3.7474 C   0  0  0  0  0  0  0  0  0  0  0  0
    1.1849   -0.2716    3.7169 C   0  0  2  0  0  0  0  0  0  0  0  0
    2.0119   -1.6075    3.3963 C   0  0  1  0  0  0  0  0  0  0  0  0
    2.1606   -1.5788    1.8493 C   0  0  0  0  0  0  0  0  0  0  0  0
    1.2726   -2.9115    3.7834 C   0  0  0  0  0  0  0  0  0  0  0  0
    2.0388   -4.1992    3.4450 C   0  0  0  0  0  0  0  0  0  0  0  0
    3.4004   -4.3478    4.1579 C   0  0  1  0  0  0  0  0  0  0  0  0
    3.0632   -4.5767    5.6612 C   0  0  0  0  0  0  0  0  0  0  0  0
    0.3590   -0.0811    5.9770 C   0  0  0  0  0  0  0  0  0  0  0  0
    5.8073   -6.8876    2.1221 C   0  0  1  0  0  0  0  0  0  0  0  0
    7.0553   -6.9912    3.0326 C   0  0  0  0  0  0  0  0  0  0  0  0
    4.9734   -8.1587    2.2796 C   0  0  0  0  0  0  0  0  0  0  0  0
    5.0030   -9.0413    1.4263 O   0  0  0  0  0  0  0  0  0  0  0  0
    3.8962  -10.4629    3.5666 H   0  0  0  0  0  0  0  0  0  0  0  0
    2.5661   -9.5844    2.8103 H   0  0  0  0  0  0  0  0  0  0  0  0
    2.7354   -9.6063    4.5647 H   0  0  0  0  0  0  0  0  0  0  0  0
    4.8975   -8.3760    4.3731 H   0  0  0  0  0  0  0  0  0  0  0  0
    2.4781   -6.9992    3.1809 H   0  0  0  0  0  0  0  0  0  0  0  0
    2.9596   -7.0892    4.8385 H   0  0  0  0  0  0  0  0  0  0  0  0
    4.9589   -5.7763    4.4097 H   0  0  0  0  0  0  0  0  0  0  0  0
    4.4591   -5.8850    0.1506 H   0  0  0  0  0  0  0  0  0  0  0  0
    3.5641   -4.5859    0.8412 H   0  0  0  0  0  0  0  0  0  0  0  0
    3.0836   -6.2426    1.1653 H   0  0  0  0  0  0  0  0  0  0  0  0
    6.6081   -4.4452    2.9080 H   0  0  0  0  0  0  0  0  0  0  0  0
    6.2241   -4.2464    1.2474 H   0  0  0  0  0  0  0  0  0  0  0  0
    5.1033   -3.0023    6.0497 H   0  0  0  0  0  0  0  0  0  0  0  0
    6.0321   -2.1576    4.8902 H   0  0  0  0  0  0  0  0  0  0  0  0
    6.0831   -3.8849    4.9195 H   0  0  0  0  0  0  0  0  0  0  0  0
    4.0162   -0.8766    3.5793 H   0  0  0  0  0  0  0  0  0  0  0  0
    2.7667   -1.6259    6.2041 H   0  0  0  0  0  0  0  0  0  0  0  0
    4.3737   -0.9809    5.9825 H   0  0  0  0  0  0  0  0  0  0  0  0
    2.9443    0.8049    6.5479 H   0  0  0  0  0  0  0  0  0  0  0  0
    3.5077    1.0019    4.9108 H   0  0  0  0  0  0  0  0  0  0  0  0
    1.3265    2.5502    5.7560 H   0  0  0  0  0  0  0  0  0  0  0  0
    1.3354    2.4249    4.0173 H   0  0  0  0  0  0  0  0  0  0  0  0
   -0.9278    2.3389    5.8974 H   0  0  0  0  0  0  0  0  0  0  0  0
   -1.2921    1.9590    2.9891 H   0  0  0  0  0  0  0  0  0  0  0  0
   -2.4049    3.4212    1.7481 H   0  0  0  0  0  0  0  0  0  0  0  0
   -1.3127    6.0616    2.7029 H   0  0  0  0  0  0  0  0  0  0  0  0
   -3.5538    5.7515    3.2741 H   0  0  0  0  0  0  0  0  0  0  0  0
   -5.3312    4.7131    1.9141 H   0  0  0  0  0  0  0  0  0  0  0  0
   -4.2546    4.7347    0.5128 H   0  0  0  0  0  0  0  0  0  0  0  0
   -4.8174    6.2873    1.2386 H   0  0  0  0  0  0  0  0  0  0  0  0
   -2.2098   -1.1665    5.7878 H   0  0  0  0  0  0  0  0  0  0  0  0
   -2.9303    0.1013    4.8538 H   0  0  0  0  0  0  0  0  0  0  0  0
   -2.4232    0.4412    6.5111 H   0  0  0  0  0  0  0  0  0  0  0  0
   -0.7701   -1.3458    3.7767 H   0  0  0  0  0  0  0  0  0  0  0  0
   -0.8281    0.1223    2.8752 H   0  0  0  0  0  0  0  0  0  0  0  0
    1.4380    0.4480    2.9356 H   0  0  0  0  0  0  0  0  0  0  0  0
    1.1977   -1.5190    1.3496 H   0  0  0  0  0  0  0  0  0  0  0  0
    2.6419   -2.4445    1.4171 H   0  0  0  0  0  0  0  0  0  0  0  0
    2.7411   -0.7279    1.4981 H   0  0  0  0  0  0  0  0  0  0  0  0
    1.0393   -2.8972    4.8423 H   0  0  0  0  0  0  0  0  0  0  0  0
    0.3216   -2.9940    3.2621 H   0  0  0  0  0  0  0  0  0  0  0  0
    1.3913   -5.0386    3.6843 H   0  0  0  0  0  0  0  0  0  0  0  0
    2.1403   -4.2600    2.3752 H   0  0  0  0  0  0  0  0  0  0  0  0
    2.7064   -3.6939    6.1701 H   0  0  0  0  0  0  0  0  0  0  0  0
    3.9117   -4.9389    6.2362 H   0  0  0  0  0  0  0  0  0  0  0  0
    2.2670   -5.3019    5.8038 H   0  0  0  0  0  0  0  0  0  0  0  0
    0.4182   -1.1570    6.1270 H   0  0  0  0  0  0  0  0  0  0  0  0
    0.3348    0.4097    6.9512 H   0  0  0  0  0  0  0  0  0  0  0  0
    6.1865   -6.9030    1.0991 H   0  0  0  0  0  0  0  0  0  0  0  0
    7.5916   -7.9252    2.8498 H   0  0  0  0  0  0  0  0  0  0  0  0
    6.8109   -6.9815    4.0939 H   0  0  0  0  0  0  0  0  0  0  0  0
    7.7702   -6.1941    2.8412 H   0  0  0  0  0  0  0  0  0  0  0  0
   -1.8386    5.5997    1.1482 H   0  0  0  0  0  0  0  0  0  0  0  0
  1  2  1  0
  1 40  1  0
  1 41  1  0
  1 42  1  0
  2 38  1  0
  2  3  1  0
  2 43  1  1
  3  4  1  0
  3 44  1  0
  3 45  1  0
  4 33  1  0
  4  5  1  0
  4 46  1  1
  5  6  1  6
  5  7  1  0
  5 36  1  0
  6 47  1  0
  6 48  1  0
  6 49  1  0
  7  8  1  0
  7 50  1  0
  7 51  1  0
  8  9  2  0
  8 10  1  0
 10 33  1  0
 10 11  1  1
 10 12  1  0
 11 52  1  0
 11 53  1  0
 11 54  1  0
 12 29  1  0
 12 13  1  0
 12 55  1  6
 13 14  1  0
 13 56  1  0
 13 57  1  0
 15 14  1  1
 14 58  1  0
 14 59  1  0
 15 28  1  0
 15 35  1  0
 15 16  1  0
 16 17  1  0
 16 60  1  0
 16 61  1  0
 17 18  1  0
 17 25  1  0
 17 62  1  1
 18 19  1  0
 18 63  1  0
 19 20  2  0
 19 21  1  0
 21 23  1  0
 21 22  1  0
 21 64  1  6
 22 23  1  0
 22 65  1  0
 22 92  1  0
 23 24  1  0
 23 66  1  1
 24 67  1  0
 24 68  1  0
 24 69  1  0
 25 26  1  1
 25 27  1  0
 25 35  1  0
 26 70  1  0
 26 71  1  0
 26 72  1  0
 27 28  1  0
 27 73  1  0
 27 74  1  0
 28 29  1  0
 28 75  1  6
 29 30  1  6
 29 31  1  0
 30 76  1  0
 30 77  1  0
 30 78  1  0
 31 32  1  0
 31 79  1  0
 31 80  1  0
 32 33  1  0
 32 81  1  0
 32 82  1  0
 33 34  1  1
 34 83  1  0
 34 84  1  0
 34 85  1  0
 35 86  1  0
 35 87  1  0
 36 37  1  0
 36 38  1  0
 36 88  1  6
 37 89  1  0
 37 90  1  0
 37 91  1  0
 38 39  2  0
M  CHG  1  22   1
M  END
>  <i_m_ct_stereo_status>  (381) 
1

>  <s_m_source_file>  (381) 
/var/tmp/pbs.5076255.sched01/tmpbvzcvm50/120d7_yi5_y.sdf

>  <i_m_source_file_index>  (381) 
35

>  <i_lp_mmshare_version>  (381) 
48012

>  <i_f3d_flags>  (381) 
0

>  <s_epik_input>  (381) 
W0NIM11bQ0BIXShbQ0gyXTEpQyg9TylbQ0BIXShbQ0gzXSlbQ0BdKFtDSDNdKShbQ0gyXUMyPU8pW0NASF0xW0NAXShbQ0gzXSkoW0NIMl1bQ0gyXTMpW0NAXTIoW0NIM10pW0NASF0oW0NIMl1bQ0gyXTQpW0NAXTMoW0NIM10pW0NASF0oW0NAQF00NTYpW0NIMl1bQ0BAXShbQ0gzXSkoW0NIMl02KVtDQEBIXShbQ0gyXTUpW05IXUMoPU8pW0NAQEhdN1tOSF1bQ0BIXTdbQ0gzXQ==

>  <s_epik_cmdline>  (381) 
J2VwaWtfcHl0aG9uJywgJy1waHQnLCAnMi4wJywgJy1waCcsICc3LjAnLCAnLXRuJywgJzgnLCAnLW1hJywgJzIwMCcsICctaW1hZScsICc8aW5maWxlLm1hZT4nLCAnLW9tYWUnLCAnPG91dGZpbGUubWFlPic=

>  <r_lp_tautomer_probability>  (381) 
0.99995

>  <r_epik_Ionization_Penalty>  (381) 
0.0201035

>  <r_epik_Ionization_Penalty_Charging>  (381) 
0.0201029

>  <r_epik_Ionization_Penalty_Neutral>  (381) 
6.19407e-07

>  <r_epik_State_Penalty>  (381) 
0.0160939

>  <r_epik_Charging_Adjusted_Penalty>  (381) 
0.0361968

>  <i_epik_Tot_Q>  (381) 
1

>  <i_epik_Tot_abs_Q>  (381) 
1

>  <s_lp_Force_Field>  (381) 
OPLS3e

>  <r_lp_Energy>  (381) 
111.809

>  <b_lp_Chiralities_Consistent>  (381) 
1

>  <s_lp_Variant>  (381) 
113:0-1

>  <s_i_glide_gridfile>  (381) 
pfpi4k_grid

>  <i_i_glide_lignum>  (381) 
35

>  <i_i_glide_rotatable_bonds>  (381) 
3

>  <r_i_docking_score>  (381) 
-0.817212

>  <r_i_glide_ligand_efficiency>  (381) 
-0.0209542

>  <r_i_glide_ligand_efficiency_sa>  (381) 
-0.07106

>  <r_i_glide_ligand_efficiency_ln>  (381) 
-0.175233

>  <r_i_glide_gscore>  (381) 
-0.817212

>  <r_i_glide_lipo>  (381) 
-0.322048

>  <r_i_glide_hbond>  (381) 
-0.0700776

>  <r_i_glide_metal>  (381) 
-0

>  <r_i_glide_rewards>  (381) 
-0.0709796

>  <r_i_glide_evdw>  (381) 
-4.31971

>  <r_i_glide_ecoul>  (381) 
-0.957633

>  <r_i_glide_erotb>  (381) 
0.214283

>  <r_i_glide_esite>  (381) 
-0.208759

>  <r_i_glide_emodel>  (381) 
-4.81206

>  <r_i_glide_energy>  (381) 
-5.27734

>  <r_i_glide_einternal>  (381) 
0.252077

>  <r_i_glide_intrahb_reward>  (381) 
-0

>  <i_i_glide_confnum>  (381) 
3

>  <i_i_glide_posenum>  (381) 
19

>  <r_i_glide_eff_state_penalty>  (381) 
0

>  <ligand_id>  (381) 
113

>  <original_smiles>  (381) 
CC1CC2C(C)(CC(=O)C3(C)C4CCC56CC(NC(=O)C7NC7C)C(C)(CC5C4(C)CCC23C)C6)C(C)C1=O

>  <smiles>  (381) 
[H]N(C(=O)C1([H])C([H])(C([H])([H])[H])[N+]1([H])[H])C1([H])C([H])([H])C23C([H])([H])C([H])([H])C4([H])C5(C([H])([H])[H])C(=O)C([H])([H])C6(C([H])([H])[H])C([H])(C([H])([H])[H])C(=O)C([H])(C([H])([H])[H])C([H])([H])C6([H])C5(C([H])([H])[H])C([H])([H])C([H])([H])C4(C([H])([H])[H])C2([H])C([H])([H])C1(C([H])([H])[H])C3([H])[H]

$$$$
113:1:0
     RDKit          3D

 91 97  0  0  1  0  0  0  0  0999 V2000
    3.5216  -10.4495    2.8596 C   0  0  0  0  0  0  0  0  0  0  0  0
    4.4273   -9.2240    3.0693 C   0  0  2  0  0  0  0  0  0  0  0  0
    3.6025   -7.9672    3.4139 C   0  0  0  0  0  0  0  0  0  0  0  0
    4.4449   -6.6639    3.5394 C   0  0  1  0  0  0  0  0  0  0  0  0
    5.3176   -6.4418    2.2425 C   0  0  1  0  0  0  0  0  0  0  0  0
    4.5029   -6.2112    0.9322 C   0  0  0  0  0  0  0  0  0  0  0  0
    6.2110   -5.2127    2.4419 C   0  0  0  0  0  0  0  0  0  0  0  0
    5.4356   -3.9818    2.8984 C   0  0  0  0  0  0  0  0  0  0  0  0
    5.6145   -2.9255    2.2955 O   0  0  0  0  0  0  0  0  0  0  0  0
    4.5779   -4.0930    4.1899 C   0  0  1  0  0  0  0  0  0  0  0  0
    5.6518   -4.2552    5.3082 C   0  0  0  0  0  0  0  0  0  0  0  0
    3.7693   -2.7151    4.4128 C   0  0  2  0  0  0  0  0  0  0  0  0
    3.5852   -2.3062    5.9032 C   0  0  0  0  0  0  0  0  0  0  0  0
    3.0959   -0.8753    6.0676 C   0  0  0  0  0  0  0  0  0  0  0  0
    1.7222   -0.6718    5.4446 C   0  0  1  0  0  0  0  0  0  0  0  0
    1.2951    0.8256    5.4637 C   0  0  0  0  0  0  0  0  0  0  0  0
   -0.2347    0.7967    5.3441 C   0  0  1  0  0  0  0  0  0  0  0  0
   -0.7353    1.5975    4.2306 N   0  0  0  0  0  0  0  0  0  0  0  0
   -1.6276    2.5944    4.3063 C   0  0  0  0  0  0  0  0  0  0  0  0
   -2.0291    3.1051    5.3481 O   0  0  0  0  0  0  0  0  0  0  0  0
   -2.1458    2.9679    2.9665 C   0  0  2  0  0  0  0  0  0  0  0  0
   -2.5734    4.3540    2.8969 N   0  0  0  0  0  0  0  0  0  0  0  0
   -3.6059    3.3409    2.9346 C   0  0  1  0  0  0  0  0  0  0  0  0
   -4.4474    3.2174    1.6953 C   0  0  0  0  0  0  0  0  0  0  0  0
   -0.4884   -0.7183    5.1860 C   0  0  1  0  0  0  0  0  0  0  0  0
   -1.9394   -1.1392    5.4358 C   0  0  0  0  0  0  0  0  0  0  0  0
    0.0828   -1.2395    3.8487 C   0  0  0  0  0  0  0  0  0  0  0  0
    1.6211   -1.2168    4.0057 C   0  0  2  0  0  0  0  0  0  0  0  0
    2.4259   -2.5319    3.5874 C   0  0  1  0  0  0  0  0  0  0  0  0
    2.7055   -2.2981    2.0799 C   0  0  0  0  0  0  0  0  0  0  0  0
    1.6228   -3.8513    3.7232 C   0  0  0  0  0  0  0  0  0  0  0  0
    2.3850   -5.1179    3.3017 C   0  0  0  0  0  0  0  0  0  0  0  0
    3.6674   -5.4016    4.1197 C   0  0  1  0  0  0  0  0  0  0  0  0
    3.1945   -5.8194    5.5371 C   0  0  0  0  0  0  0  0  0  0  0  0
    0.5313   -1.3101    6.1534 C   0  0  0  0  0  0  0  0  0  0  0  0
    6.2300   -7.6916    1.9866 C   0  0  1  0  0  0  0  0  0  0  0  0
    7.3836   -7.9606    2.9753 C   0  0  0  0  0  0  0  0  0  0  0  0
    5.3892   -8.9546    1.9015 C   0  0  0  0  0  0  0  0  0  0  0  0
    5.5310   -9.7174    0.9483 O   0  0  0  0  0  0  0  0  0  0  0  0
    4.1119  -11.3493    2.7019 H   0  0  0  0  0  0  0  0  0  0  0  0
    2.8810  -10.3368    1.9833 H   0  0  0  0  0  0  0  0  0  0  0  0
    2.8790  -10.6380    3.7198 H   0  0  0  0  0  0  0  0  0  0  0  0
    5.0620   -9.4498    3.9257 H   0  0  0  0  0  0  0  0  0  0  0  0
    2.8121   -7.8475    2.6729 H   0  0  0  0  0  0  0  0  0  0  0  0
    3.1091   -8.1797    4.3602 H   0  0  0  0  0  0  0  0  0  0  0  0
    5.1738   -6.9002    4.3175 H   0  0  0  0  0  0  0  0  0  0  0  0
    5.1114   -6.3977    0.0430 H   0  0  0  0  0  0  0  0  0  0  0  0
    4.1626   -5.1837    0.8186 H   0  0  0  0  0  0  0  0  0  0  0  0
    3.6317   -6.8587    0.8608 H   0  0  0  0  0  0  0  0  0  0  0  0
    6.9650   -5.4032    3.1961 H   0  0  0  0  0  0  0  0  0  0  0  0
    6.7631   -4.9856    1.5286 H   0  0  0  0  0  0  0  0  0  0  0  0
    5.2252   -4.3624    6.3029 H   0  0  0  0  0  0  0  0  0  0  0  0
    6.3076   -3.3844    5.3444 H   0  0  0  0  0  0  0  0  0  0  0  0
    6.2893   -5.1242    5.1719 H   0  0  0  0  0  0  0  0  0  0  0  0
    4.4181   -1.9151    4.0606 H   0  0  0  0  0  0  0  0  0  0  0  0
    2.8714   -2.9496    6.4045 H   0  0  0  0  0  0  0  0  0  0  0  0
    4.5190   -2.3464    6.4646 H   0  0  0  0  0  0  0  0  0  0  0  0
    3.0539   -0.6209    7.1266 H   0  0  0  0  0  0  0  0  0  0  0  0
    3.8031   -0.1916    5.5949 H   0  0  0  0  0  0  0  0  0  0  0  0
    1.5597    1.2892    6.4097 H   0  0  0  0  0  0  0  0  0  0  0  0
    1.7634    1.4101    4.6716 H   0  0  0  0  0  0  0  0  0  0  0  0
   -0.6855    1.1571    6.2748 H   0  0  0  0  0  0  0  0  0  0  0  0
   -0.4757    1.3324    3.2919 H   0  0  0  0  0  0  0  0  0  0  0  0
   -1.6315    2.5513    2.0813 H   0  0  0  0  0  0  0  0  0  0  0  0
   -2.3957    4.8045    2.0070 H   0  0  0  0  0  0  0  0  0  0  0  0
   -4.1818    3.3042    3.8711 H   0  0  0  0  0  0  0  0  0  0  0  0
   -4.9061    2.2263    1.6793 H   0  0  0  0  0  0  0  0  0  0  0  0
   -3.7953    3.2387    0.8275 H   0  0  0  0  0  0  0  0  0  0  0  0
   -5.2289    3.9894    1.6421 H   0  0  0  0  0  0  0  0  0  0  0  0
   -2.0189   -2.2255    5.5048 H   0  0  0  0  0  0  0  0  0  0  0  0
   -2.6161   -0.7897    4.6511 H   0  0  0  0  0  0  0  0  0  0  0  0
   -2.2749   -0.7076    6.3707 H   0  0  0  0  0  0  0  0  0  0  0  0
   -0.3250   -2.2306    3.7027 H   0  0  0  0  0  0  0  0  0  0  0  0
   -0.2236   -0.6345    3.0012 H   0  0  0  0  0  0  0  0  0  0  0  0
    1.9915   -0.4146    3.3657 H   0  0  0  0  0  0  0  0  0  0  0  0
    1.7841   -2.1365    1.5212 H   0  0  0  0  0  0  0  0  0  0  0  0
    3.2118   -3.1264    1.5956 H   0  0  0  0  0  0  0  0  0  0  0  0
    3.3421   -1.4225    1.9322 H   0  0  0  0  0  0  0  0  0  0  0  0
    1.2723   -3.9732    4.7457 H   0  0  0  0  0  0  0  0  0  0  0  0
    0.7424   -3.8368    3.0840 H   0  0  0  0  0  0  0  0  0  0  0  0
    1.7081   -5.9658    3.3950 H   0  0  0  0  0  0  0  0  0  0  0  0
    2.6131   -5.0562    2.2470 H   0  0  0  0  0  0  0  0  0  0  0  0
    2.8075   -4.9870    6.1081 H   0  0  0  0  0  0  0  0  0  0  0  0
    3.9953   -6.2800    6.1182 H   0  0  0  0  0  0  0  0  0  0  0  0
    2.3799   -6.5374    5.4805 H   0  0  0  0  0  0  0  0  0  0  0  0
    0.5466   -2.4009    6.1560 H   0  0  0  0  0  0  0  0  0  0  0  0
    0.4058   -0.9523    7.1754 H   0  0  0  0  0  0  0  0  0  0  0  0
    6.7036   -7.5802    1.0078 H   0  0  0  0  0  0  0  0  0  0  0  0
    7.8975   -8.8850    2.6978 H   0  0  0  0  0  0  0  0  0  0  0  0
    7.0293   -8.1021    3.9960 H   0  0  0  0  0  0  0  0  0  0  0  0
    8.1361   -7.1759    2.9634 H   0  0  0  0  0  0  0  0  0  0  0  0
  1  2  1  0
  1 40  1  0
  1 41  1  0
  1 42  1  0
  2 38  1  0
  2  3  1  0
  2 43  1  1
  3  4  1  0
  3 44  1  0
  3 45  1  0
  4 33  1  0
  4  5  1  0
  4 46  1  1
  5  6  1  6
  5  7  1  0
  5 36  1  0
  6 47  1  0
  6 48  1  0
  6 49  1  0
  7  8  1  0
  7 50  1  0
  7 51  1  0
  8  9  2  0
  8 10  1  0
 10 33  1  0
 10 11  1  1
 10 12  1  0
 11 52  1  0
 11 53  1  0
 11 54  1  0
 12 29  1  0
 12 13  1  0
 12 55  1  6
 13 14  1  0
 13 56  1  0
 13 57  1  0
 15 14  1  1
 14 58  1  0
 14 59  1  0
 15 28  1  0
 15 35  1  0
 15 16  1  0
 16 17  1  0
 16 60  1  0
 16 61  1  0
 17 18  1  0
 17 25  1  0
 17 62  1  1
 18 19  1  0
 18 63  1  0
 19 20  2  0
 19 21  1  0
 21 23  1  0
 21 22  1  0
 21 64  1  6
 22 23  1  0
 22 65  1  0
 23 24  1  0
 23 66  1  1
 24 67  1  0
 24 68  1  0
 24 69  1  0
 25 26  1  1
 25 27  1  0
 25 35  1  0
 26 70  1  0
 26 71  1  0
 26 72  1  0
 27 28  1  0
 27 73  1  0
 27 74  1  0
 28 29  1  0
 28 75  1  6
 29 30  1  6
 29 31  1  0
 30 76  1  0
 30 77  1  0
 30 78  1  0
 31 32  1  0
 31 79  1  0
 31 80  1  0
 32 33  1  0
 32 81  1  0
 32 82  1  0
 33 34  1  1
 34 83  1  0
 34 84  1  0
 34 85  1  0
 35 86  1  0
 35 87  1  0
 36 37  1  0
 36 38  1  0
 36 88  1  6
 37 89  1  0
 37 90  1  0
 37 91  1  0
 38 39  2  0
M  END
>  <i_m_ct_stereo_status>  (382) 
1

>  <s_m_source_file>  (382) 
/var/tmp/pbs.5076255.sched01/tmpbvzcvm50/120d7_yi5_y.sdf

>  <i_m_source_file_index>  (382) 
36

>  <i_lp_mmshare_version>  (382) 
48012

>  <i_f3d_flags>  (382) 
0

>  <s_epik_input>  (382) 
W0NIM11bQ0BIXShbQ0gyXTEpQyg9TylbQ0BIXShbQ0gzXSlbQ0BdKFtDSDNdKShbQ0gyXUMyPU8pW0NASF0xW0NAXShbQ0gzXSkoW0NIMl1bQ0gyXTMpW0NAXTIoW0NIM10pW0NASF0oW0NIMl1bQ0gyXTQpW0NAXTMoW0NIM10pW0NASF0oW0NAQF00NTYpW0NIMl1bQ0BAXShbQ0gzXSkoW0NIMl02KVtDQEBIXShbQ0gyXTUpW05IXUMoPU8pW0NAQEhdN1tOSF1bQ0BIXTdbQ0gzXQ==

>  <s_epik_cmdline>  (382) 
J2VwaWtfcHl0aG9uJywgJy1waHQnLCAnMi4wJywgJy1waCcsICc3LjAnLCAnLXRuJywgJzgnLCAnLW1hJywgJzIwMCcsICctaW1hZScsICc8aW5maWxlLm1hZT4nLCAnLW9tYWUnLCAnPG91dGZpbGUubWFlPic=

>  <r_lp_tautomer_probability>  (382) 
0.99995

>  <r_epik_Ionization_Penalty>  (382) 
2.01468

>  <r_epik_Ionization_Penalty_Charging>  (382) 
0

>  <r_epik_Ionization_Penalty_Neutral>  (382) 
2.01468

>  <r_epik_State_Penalty>  (382) 
2.14446

>  <r_epik_Charging_Adjusted_Penalty>  (382) 
2.14446

>  <i_epik_Tot_Q>  (382) 
0

>  <i_epik_Tot_abs_Q>  (382) 
0

>  <s_lp_Force_Field>  (382) 
OPLS3e

>  <r_lp_Energy>  (382) 
107.104

>  <b_lp_Chiralities_Consistent>  (382) 
1

>  <s_lp_Variant>  (382) 
113:0-2

>  <s_i_glide_gridfile>  (382) 
pfpi4k_grid

>  <i_i_glide_lignum>  (382) 
36

>  <i_i_glide_rotatable_bonds>  (382) 
3

>  <r_i_docking_score>  (382) 
-2.46745

>  <r_i_glide_ligand_efficiency>  (382) 
-0.063268

>  <r_i_glide_ligand_efficiency_sa>  (382) 
-0.214555

>  <r_i_glide_ligand_efficiency_ln>  (382) 
-0.529092

>  <r_i_glide_gscore>  (382) 
-2.46745

>  <r_i_glide_lipo>  (382) 
-0.348355

>  <r_i_glide_hbond>  (382) 
-0.0928011

>  <r_i_glide_metal>  (382) 
-0

>  <r_i_glide_rewards>  (382) 
-0.0309697

>  <r_i_glide_evdw>  (382) 
-29.5005

>  <r_i_glide_ecoul>  (382) 
-4.55131

>  <r_i_glide_erotb>  (382) 
0.215025

>  <r_i_glide_esite>  (382) 
-0.052633

>  <r_i_glide_emodel>  (382) 
-38.6468

>  <r_i_glide_energy>  (382) 
-34.0518

>  <r_i_glide_einternal>  (382) 
0.911924

>  <r_i_glide_intrahb_reward>  (382) 
-0

>  <i_i_glide_confnum>  (382) 
3

>  <i_i_glide_posenum>  (382) 
22

>  <r_i_glide_eff_state_penalty>  (382) 
0

>  <ligand_id>  (382) 
113

>  <original_smiles>  (382) 
CC1CC2C(C)(CC(=O)C3(C)C4CCC56CC(NC(=O)C7NC7C)C(C)(CC5C4(C)CCC23C)C6)C(C)C1=O

>  <smiles>  (382) 
[H]N1C([H])(C(=O)N([H])C2([H])C([H])([H])C34C([H])([H])C([H])([H])C5([H])C6(C([H])([H])[H])C(=O)C([H])([H])C7(C([H])([H])[H])C([H])(C([H])([H])[H])C(=O)C([H])(C([H])([H])[H])C([H])([H])C7([H])C6(C([H])([H])[H])C([H])([H])C([H])([H])C5(C([H])([H])[H])C3([H])C([H])([H])C2(C([H])([H])[H])C4([H])[H])C1([H])C([H])([H])[H]

$$$$
113:1:1
     RDKit          3D

 91 97  0  0  1  0  0  0  0  0999 V2000
    3.8282   -8.8341    0.9507 C   0  0  0  0  0  0  0  0  0  0  0  0
    4.0797   -8.1551    2.2987 C   0  0  2  0  0  0  0  0  0  0  0  0
    3.4006   -6.7618    2.3902 C   0  0  0  0  0  0  0  0  0  0  0  0
    3.7151   -5.9813    3.7124 C   0  0  1  0  0  0  0  0  0  0  0  0
    5.2670   -5.8924    3.9497 C   0  0  1  0  0  0  0  0  0  0  0  0
    6.0225   -5.0774    2.8597 C   0  0  0  0  0  0  0  0  0  0  0  0
    5.5333   -5.2225    5.3148 C   0  0  0  0  0  0  0  0  0  0  0  0
    4.7948   -3.8985    5.4897 C   0  0  0  0  0  0  0  0  0  0  0  0
    5.4312   -2.9218    5.8906 O   0  0  0  0  0  0  0  0  0  0  0  0
    3.2507   -3.8792    5.2959 C   0  0  1  0  0  0  0  0  0  0  0  0
    2.7488   -4.7008    6.5239 C   0  0  0  0  0  0  0  0  0  0  0  0
    2.6937   -2.3680    5.3745 C   0  0  2  0  0  0  0  0  0  0  0  0
    1.2944   -2.2313    6.0451 C   0  0  0  0  0  0  0  0  0  0  0  0
    0.9467   -0.7878    6.3910 C   0  0  0  0  0  0  0  0  0  0  0  0
    0.8571    0.0861    5.1437 C   0  0  1  0  0  0  0  0  0  0  0  0
    0.6654    1.5831    5.5137 C   0  0  0  0  0  0  0  0  0  0  0  0
    0.0775    2.2196    4.2400 C   0  0  1  0  0  0  0  0  0  0  0  0
    0.8553    3.3587    3.7510 N   0  0  0  0  0  0  0  0  0  0  0  0
    0.6177    4.6413    4.0867 C   0  0  0  0  0  0  0  0  0  0  0  0
   -0.3545    4.9824    4.7755 O   0  0  0  0  0  0  0  0  0  0  0  0
    1.5706    5.6481    3.5485 C   0  0  2  0  0  0  0  0  0  0  0  0
    2.9461    5.3151    3.7803 N   0  0  0  0  0  0  0  0  0  0  0  0
    2.3979    6.3482    4.5860 C   0  0  1  0  0  0  0  0  0  0  0  0
    2.9161    7.7521    4.3453 C   0  0  0  0  0  0  0  0  0  0  0  0
    0.0492    1.0111    3.2883 C   0  0  1  0  0  0  0  0  0  0  0  0
   -0.8940    1.1857    2.0974 C   0  0  0  0  0  0  0  0  0  0  0  0
    1.4880    0.5919    2.8925 C   0  0  0  0  0  0  0  0  0  0  0  0
    2.0679   -0.0642    4.1906 C   0  0  2  0  0  0  0  0  0  0  0  0
    2.7882   -1.4886    4.0582 C   0  0  1  0  0  0  0  0  0  0  0  0
    4.2665   -1.0944    3.7542 C   0  0  0  0  0  0  0  0  0  0  0  0
    2.2724   -2.3476    2.8823 C   0  0  0  0  0  0  0  0  0  0  0  0
    2.9777   -3.7052    2.7227 C   0  0  0  0  0  0  0  0  0  0  0  0
    2.8605   -4.6496    3.9439 C   0  0  1  0  0  0  0  0  0  0  0  0
    1.3711   -5.1075    3.9680 C   0  0  0  0  0  0  0  0  0  0  0  0
   -0.3396   -0.1312    4.2284 C   0  0  0  0  0  0  0  0  0  0  0  0
    5.9036   -7.3306    3.9427 C   0  0  1  0  0  0  0  0  0  0  0  0
    5.5587   -8.2463    5.1382 C   0  0  0  0  0  0  0  0  0  0  0  0
    5.5642   -8.0626    2.6455 C   0  0  0  0  0  0  0  0  0  0  0  0
    6.4442   -8.5572    1.9355 O   0  0  0  0  0  0  0  0  0  0  0  0
    4.2363   -9.8445    0.9294 H   0  0  0  0  0  0  0  0  0  0  0  0
    4.2692   -8.2810    0.1183 H   0  0  0  0  0  0  0  0  0  0  0  0
    2.7575   -8.9320    0.7847 H   0  0  0  0  0  0  0  0  0  0  0  0
    3.6216   -8.7850    3.0629 H   0  0  0  0  0  0  0  0  0  0  0  0
    3.6798   -6.1690    1.5154 H   0  0  0  0  0  0  0  0  0  0  0  0
    2.3314   -6.9383    2.3062 H   0  0  0  0  0  0  0  0  0  0  0  0
    3.3575   -6.6532    4.4947 H   0  0  0  0  0  0  0  0  0  0  0  0
    7.0899   -5.3137    2.8655 H   0  0  0  0  0  0  0  0  0  0  0  0
    5.9733   -4.0019    3.0197 H   0  0  0  0  0  0  0  0  0  0  0  0
    5.6702   -5.2735    1.8487 H   0  0  0  0  0  0  0  0  0  0  0  0
    5.2237   -5.8693    6.1308 H   0  0  0  0  0  0  0  0  0  0  0  0
    6.6024   -5.0614    5.4511 H   0  0  0  0  0  0  0  0  0  0  0  0
    1.6699   -4.8173    6.5592 H   0  0  0  0  0  0  0  0  0  0  0  0
    3.0499   -4.2207    7.4576 H   0  0  0  0  0  0  0  0  0  0  0  0
    3.1428   -5.7162    6.5523 H   0  0  0  0  0  0  0  0  0  0  0  0
    3.3153   -1.8521    6.1046 H   0  0  0  0  0  0  0  0  0  0  0  0
    0.4988   -2.6142    5.4120 H   0  0  0  0  0  0  0  0  0  0  0  0
    1.2335   -2.7602    6.9901 H   0  0  0  0  0  0  0  0  0  0  0  0
    0.0008   -0.7579    6.9320 H   0  0  0  0  0  0  0  0  0  0  0  0
    1.7105   -0.3865    7.0630 H   0  0  0  0  0  0  0  0  0  0  0  0
   -0.0411    1.6915    6.3410 H   0  0  0  0  0  0  0  0  0  0  0  0
    1.5971    2.0588    5.8212 H   0  0  0  0  0  0  0  0  0  0  0  0
   -0.9491    2.5398    4.4410 H   0  0  0  0  0  0  0  0  0  0  0  0
    1.6512    3.1705    3.1490 H   0  0  0  0  0  0  0  0  0  0  0  0
    1.2820    6.2055    2.6508 H   0  0  0  0  0  0  0  0  0  0  0  0
    3.6163    5.5772    3.0436 H   0  0  0  0  0  0  0  0  0  0  0  0
    2.2954    6.0932    5.6526 H   0  0  0  0  0  0  0  0  0  0  0  0
    2.1919    8.4602    4.7483 H   0  0  0  0  0  0  0  0  0  0  0  0
    3.0114    7.9640    3.2864 H   0  0  0  0  0  0  0  0  0  0  0  0
    3.8712    7.9173    4.8239 H   0  0  0  0  0  0  0  0  0  0  0  0
   -0.9630    0.2579    1.5342 H   0  0  0  0  0  0  0  0  0  0  0  0
   -0.5276    1.9547    1.4199 H   0  0  0  0  0  0  0  0  0  0  0  0
   -1.9006    1.4534    2.4172 H   0  0  0  0  0  0  0  0  0  0  0  0
    1.4095   -0.0797    2.0430 H   0  0  0  0  0  0  0  0  0  0  0  0
    2.0953    1.4273    2.5548 H   0  0  0  0  0  0  0  0  0  0  0  0
    2.8142    0.6253    4.5854 H   0  0  0  0  0  0  0  0  0  0  0  0
    4.3333   -0.4589    2.8704 H   0  0  0  0  0  0  0  0  0  0  0  0
    4.9170   -1.9509    3.5689 H   0  0  0  0  0  0  0  0  0  0  0  0
    4.7127   -0.5501    4.5913 H   0  0  0  0  0  0  0  0  0  0  0  0
    1.1967   -2.5109    2.9819 H   0  0  0  0  0  0  0  0  0  0  0  0
    2.4235   -1.8431    1.9341 H   0  0  0  0  0  0  0  0  0  0  0  0
    2.5673   -4.1844    1.8362 H   0  0  0  0  0  0  0  0  0  0  0  0
    4.0153   -3.5174    2.4674 H   0  0  0  0  0  0  0  0  0  0  0  0
    0.6946   -4.3249    4.2929 H   0  0  0  0  0  0  0  0  0  0  0  0
    1.2132   -5.9689    4.6244 H   0  0  0  0  0  0  0  0  0  0  0  0
    1.0221   -5.3945    2.9762 H   0  0  0  0  0  0  0  0  0  0  0  0
   -0.3565   -1.1073    3.7448 H   0  0  0  0  0  0  0  0  0  0  0  0
   -1.2957    0.0305    4.7260 H   0  0  0  0  0  0  0  0  0  0  0  0
    6.9881   -7.2196    3.9569 H   0  0  0  0  0  0  0  0  0  0  0  0
    6.0291   -9.2238    5.0096 H   0  0  0  0  0  0  0  0  0  0  0  0
    4.4871   -8.4227    5.2367 H   0  0  0  0  0  0  0  0  0  0  0  0
    5.9272   -7.8566    6.0843 H   0  0  0  0  0  0  0  0  0  0  0  0
  1  2  1  0
  1 40  1  0
  1 41  1  0
  1 42  1  0
  2 38  1  0
  2  3  1  0
  2 43  1  1
  3  4  1  0
  3 44  1  0
  3 45  1  0
  4 33  1  0
  4  5  1  0
  4 46  1  1
  5  6  1  6
  5  7  1  0
  5 36  1  0
  6 47  1  0
  6 48  1  0
  6 49  1  0
  7  8  1  0
  7 50  1  0
  7 51  1  0
  8  9  2  0
  8 10  1  0
 10 33  1  0
 10 11  1  1
 10 12  1  0
 11 52  1  0
 11 53  1  0
 11 54  1  0
 12 29  1  0
 12 13  1  0
 12 55  1  1
 13 14  1  0
 13 56  1  0
 13 57  1  0
 15 14  1  1
 14 58  1  0
 14 59  1  0
 15 28  1  0
 15 35  1  0
 15 16  1  0
 16 17  1  0
 16 60  1  0
 16 61  1  0
 17 18  1  0
 17 25  1  0
 17 62  1  1
 18 19  1  0
 18 63  1  0
 19 20  2  0
 19 21  1  0
 21 23  1  0
 21 22  1  0
 21 64  1  6
 22 23  1  0
 22 65  1  0
 23 24  1  0
 23 66  1  1
 24 67  1  0
 24 68  1  0
 24 69  1  0
 25 26  1  6
 25 27  1  0
 25 35  1  0
 26 70  1  0
 26 71  1  0
 26 72  1  0
 27 28  1  0
 27 73  1  0
 27 74  1  0
 28 29  1  0
 28 75  1  1
 29 30  1  6
 29 31  1  0
 30 76  1  0
 30 77  1  0
 30 78  1  0
 31 32  1  0
 31 79  1  0
 31 80  1  0
 32 33  1  0
 32 81  1  0
 32 82  1  0
 33 34  1  1
 34 83  1  0
 34 84  1  0
 34 85  1  0
 35 86  1  0
 35 87  1  0
 36 37  1  0
 36 38  1  0
 36 88  1  6
 37 89  1  0
 37 90  1  0
 37 91  1  0
 38 39  2  0
M  END
>  <i_m_ct_stereo_status>  (383) 
1

>  <s_m_source_file>  (383) 
/var/tmp/pbs.5076255.sched01/tmpbvzcvm50/120d7_yi5_y.sdf

>  <i_m_source_file_index>  (383) 
36

>  <i_lp_mmshare_version>  (383) 
48012

>  <i_f3d_flags>  (383) 
0

>  <s_epik_input>  (383) 
W0NIM11bQ0BIXShbQ0gyXTEpQyg9TylbQ0BIXShbQ0gzXSlbQ0BdKFtDSDNdKShbQ0gyXUMyPU8pW0NASF0xW0NAXShbQ0gzXSkoW0NIMl1bQ0gyXTMpW0NAXTIoW0NIM10pW0NASF0oW0NIMl1bQ0gyXTQpW0NAXTMoW0NIM10pW0NASF0oW0NAQF00NTYpW0NIMl1bQ0BAXShbQ0gzXSkoW0NIMl02KVtDQEBIXShbQ0gyXTUpW05IXUMoPU8pW0NAQEhdN1tOSF1bQ0BIXTdbQ0gzXQ==

>  <s_epik_cmdline>  (383) 
J2VwaWtfcHl0aG9uJywgJy1waHQnLCAnMi4wJywgJy1waCcsICc3LjAnLCAnLXRuJywgJzgnLCAnLW1hJywgJzIwMCcsICctaW1hZScsICc8aW5maWxlLm1hZT4nLCAnLW9tYWUnLCAnPG91dGZpbGUubWFlPic=

>  <r_lp_tautomer_probability>  (383) 
0.99995

>  <r_epik_Ionization_Penalty>  (383) 
2.01468

>  <r_epik_Ionization_Penalty_Charging>  (383) 
0

>  <r_epik_Ionization_Penalty_Neutral>  (383) 
2.01468

>  <r_epik_State_Penalty>  (383) 
2.14446

>  <r_epik_Charging_Adjusted_Penalty>  (383) 
2.14446

>  <i_epik_Tot_Q>  (383) 
0

>  <i_epik_Tot_abs_Q>  (383) 
0

>  <s_lp_Force_Field>  (383) 
OPLS3e

>  <r_lp_Energy>  (383) 
107.104

>  <b_lp_Chiralities_Consistent>  (383) 
1

>  <s_lp_Variant>  (383) 
113:0-2

>  <s_i_glide_gridfile>  (383) 
pfpi4k_grid

>  <i_i_glide_lignum>  (383) 
36

>  <i_i_glide_rotatable_bonds>  (383) 
3

>  <r_i_docking_score>  (383) 
-2.04109

>  <r_i_glide_ligand_efficiency>  (383) 
-0.0523356

>  <r_i_glide_ligand_efficiency_sa>  (383) 
-0.177481

>  <r_i_glide_ligand_efficiency_ln>  (383) 
-0.437668

>  <r_i_glide_gscore>  (383) 
-2.04109

>  <r_i_glide_lipo>  (383) 
-0.0361957

>  <r_i_glide_hbond>  (383) 
0

>  <r_i_glide_metal>  (383) 
-0

>  <r_i_glide_rewards>  (383) 
-0.0189096

>  <r_i_glide_evdw>  (383) 
-31.0476

>  <r_i_glide_ecoul>  (383) 
-3.46307

>  <r_i_glide_erotb>  (383) 
0.215025

>  <r_i_glide_esite>  (383) 
-0.129172

>  <r_i_glide_emodel>  (383) 
-37.9758

>  <r_i_glide_energy>  (383) 
-34.5106

>  <r_i_glide_einternal>  (383) 
1.23026

>  <r_i_glide_intrahb_reward>  (383) 
-0

>  <i_i_glide_confnum>  (383) 
1

>  <i_i_glide_posenum>  (383) 
9

>  <r_i_glide_eff_state_penalty>  (383) 
0

>  <ligand_id>  (383) 
113

>  <original_smiles>  (383) 
CC1CC2C(C)(CC(=O)C3(C)C4CCC56CC(NC(=O)C7NC7C)C(C)(CC5C4(C)CCC23C)C6)C(C)C1=O

>  <smiles>  (383) 
[H]N1C([H])(C(=O)N([H])C2([H])C([H])([H])C34C([H])([H])C([H])([H])C5([H])C6(C([H])([H])[H])C(=O)C([H])([H])C7(C([H])([H])[H])C([H])(C([H])([H])[H])C(=O)C([H])(C([H])([H])[H])C([H])([H])C7([H])C6(C([H])([H])[H])C([H])([H])C([H])([H])C5(C([H])([H])[H])C3([H])C([H])([H])C2(C([H])([H])[H])C4([H])[H])C1([H])C([H])([H])[H]

$$$$
113:1:2
     RDKit          3D

 91 97  0  0  1  0  0  0  0  0999 V2000
    0.0366   -9.7806    2.9093 C   0  0  0  0  0  0  0  0  0  0  0  0
    1.2421   -9.1031    3.5782 C   0  0  2  0  0  0  0  0  0  0  0  0
    0.9359   -7.6332    3.9622 C   0  0  0  0  0  0  0  0  0  0  0  0
    2.1601   -6.8474    4.5448 C   0  0  1  0  0  0  0  0  0  0  0  0
    3.4002   -6.9456    3.5809 C   0  0  1  0  0  0  0  0  0  0  0  0
    3.1825   -6.2721    2.1913 C   0  0  0  0  0  0  0  0  0  0  0  0
    4.6123   -6.2653    4.2483 C   0  0  0  0  0  0  0  0  0  0  0  0
    4.3132   -4.8516    4.7420 C   0  0  0  0  0  0  0  0  0  0  0  0
    5.0969   -3.9484    4.4453 O   0  0  0  0  0  0  0  0  0  0  0  0
    3.1170   -4.6470    5.7169 C   0  0  1  0  0  0  0  0  0  0  0  0
    3.6194   -5.3491    7.0161 C   0  0  0  0  0  0  0  0  0  0  0  0
    2.8814   -3.0737    5.9912 C   0  0  2  0  0  0  0  0  0  0  0  0
    2.4190   -2.7359    7.4399 C   0  0  0  0  0  0  0  0  0  0  0  0
    2.5188   -1.2480    7.7527 C   0  0  0  0  0  0  0  0  0  0  0  0
    1.6021   -0.4200    6.8587 C   0  0  1  0  0  0  0  0  0  0  0  0
    1.8272    1.0987    7.0711 C   0  0  0  0  0  0  0  0  0  0  0  0
    0.5311    1.7605    6.5498 C   0  0  1  0  0  0  0  0  0  0  0  0
    0.7532    2.7732    5.5155 N   0  0  0  0  0  0  0  0  0  0  0  0
    1.4107    3.9322    5.7195 C   0  0  0  0  0  0  0  0  0  0  0  0
    1.8264    4.2649    6.8339 O   0  0  0  0  0  0  0  0  0  0  0  0
    1.5820    4.8214    4.5390 C   0  0  2  0  0  0  0  0  0  0  0  0
    1.9220    4.1257    3.3266 N   0  0  0  0  0  0  0  0  0  0  0  0
    2.9706    4.8552    3.9716 C   0  0  1  0  0  0  0  0  0  0  0  0
    3.4611    6.1112    3.2821 C   0  0  0  0  0  0  0  0  0  0  0  0
   -0.2573    0.5235    6.0634 C   0  0  1  0  0  0  0  0  0  0  0  0
   -1.7714    0.7530    5.9145 C   0  0  0  0  0  0  0  0  0  0  0  0
    0.4204   -0.0862    4.8075 C   0  0  0  0  0  0  0  0  0  0  0  0
    1.7250   -0.7575    5.3534 C   0  0  2  0  0  0  0  0  0  0  0  0
    2.0418   -2.2656    4.9146 C   0  0  1  0  0  0  0  0  0  0  0  0
    2.8537   -2.0782    3.5964 C   0  0  0  0  0  0  0  0  0  0  0  0
    0.7841   -3.1001    4.5833 C   0  0  0  0  0  0  0  0  0  0  0  0
    1.0786   -4.5382    4.1265 C   0  0  0  0  0  0  0  0  0  0  0  0
    1.8227   -5.4122    5.1617 C   0  0  1  0  0  0  0  0  0  0  0  0
    0.7916   -5.6770    6.3016 C   0  0  0  0  0  0  0  0  0  0  0  0
    0.1067   -0.5193    7.1198 C   0  0  0  0  0  0  0  0  0  0  0  0
    3.7405   -8.4534    3.2956 C   0  0  1  0  0  0  0  0  0  0  0  0
    4.3212   -9.2738    4.4698 C   0  0  0  0  0  0  0  0  0  0  0  0
    2.5190   -9.1825    2.7379 C   0  0  0  0  0  0  0  0  0  0  0  0
    2.5782   -9.7938    1.6738 O   0  0  0  0  0  0  0  0  0  0  0  0
    0.2314  -10.8382    2.7266 H   0  0  0  0  0  0  0  0  0  0  0  0
   -0.2151   -9.3178    1.9570 H   0  0  0  0  0  0  0  0  0  0  0  0
   -0.8491   -9.7255    3.5417 H   0  0  0  0  0  0  0  0  0  0  0  0
    1.4478   -9.6459    4.5017 H   0  0  0  0  0  0  0  0  0  0  0  0
    0.5236   -7.1185    3.0925 H   0  0  0  0  0  0  0  0  0  0  0  0
    0.1335   -7.6771    4.6948 H   0  0  0  0  0  0  0  0  0  0  0  0
    2.4463   -7.4379    5.4157 H   0  0  0  0  0  0  0  0  0  0  0  0
    3.8971   -6.6454    1.4549 H   0  0  0  0  0  0  0  0  0  0  0  0
    3.3400   -5.1950    2.2044 H   0  0  0  0  0  0  0  0  0  0  0  0
    2.1922   -6.4559    1.7775 H   0  0  0  0  0  0  0  0  0  0  0  0
    4.9533   -6.8354    5.1078 H   0  0  0  0  0  0  0  0  0  0  0  0
    5.4542   -6.2367    3.5561 H   0  0  0  0  0  0  0  0  0  0  0  0
    2.8986   -5.3257    7.8296 H   0  0  0  0  0  0  0  0  0  0  0  0
    4.5326   -4.8769    7.3849 H   0  0  0  0  0  0  0  0  0  0  0  0
    3.8482   -6.4045    6.8746 H   0  0  0  0  0  0  0  0  0  0  0  0
    3.8671   -2.6106    5.9846 H   0  0  0  0  0  0  0  0  0  0  0  0
    1.3944   -3.0432    7.6274 H   0  0  0  0  0  0  0  0  0  0  0  0
    3.0371   -3.2150    8.1939 H   0  0  0  0  0  0  0  0  0  0  0  0
    2.2701   -1.0757    8.8013 H   0  0  0  0  0  0  0  0  0  0  0  0
    3.5532   -0.9226    7.6181 H   0  0  0  0  0  0  0  0  0  0  0  0
    1.9574    1.3253    8.1319 H   0  0  0  0  0  0  0  0  0  0  0  0
    2.7236    1.4547    6.5637 H   0  0  0  0  0  0  0  0  0  0  0  0
    0.0114    2.2310    7.3897 H   0  0  0  0  0  0  0  0  0  0  0  0
    0.4553    2.5746    4.5674 H   0  0  0  0  0  0  0  0  0  0  0  0
    0.9893    5.7403    4.4909 H   0  0  0  0  0  0  0  0  0  0  0  0
    1.5220    4.4874    2.4405 H   0  0  0  0  0  0  0  0  0  0  0  0
    3.7693    4.2341    4.4016 H   0  0  0  0  0  0  0  0  0  0  0  0
    3.9693    6.7418    4.0205 H   0  0  0  0  0  0  0  0  0  0  0  0
    2.6217    6.6651    2.8784 H   0  0  0  0  0  0  0  0  0  0  0  0
    4.1625    5.8773    2.4875 H   0  0  0  0  0  0  0  0  0  0  0  0
   -2.2906   -0.1785    5.6855 H   0  0  0  0  0  0  0  0  0  0  0  0
   -1.9842    1.4547    5.1086 H   0  0  0  0  0  0  0  0  0  0  0  0
   -2.2035    1.1594    6.8291 H   0  0  0  0  0  0  0  0  0  0  0  0
   -0.2840   -0.7733    4.3541 H   0  0  0  0  0  0  0  0  0  0  0  0
    0.6435    0.6564    4.0436 H   0  0  0  0  0  0  0  0  0  0  0  0
    2.5621   -0.1527    5.0036 H   0  0  0  0  0  0  0  0  0  0  0  0
    2.2971   -1.4934    2.8623 H   0  0  0  0  0  0  0  0  0  0  0  0
    3.1158   -3.0137    3.1040 H   0  0  0  0  0  0  0  0  0  0  0  0
    3.8002   -1.5637    3.7813 H   0  0  0  0  0  0  0  0  0  0  0  0
    0.1159   -3.1245    5.4449 H   0  0  0  0  0  0  0  0  0  0  0  0
    0.2252   -2.6566    3.7656 H   0  0  0  0  0  0  0  0  0  0  0  0
    0.1315   -5.0047    3.8724 H   0  0  0  0  0  0  0  0  0  0  0  0
    1.6124   -4.4918    3.1844 H   0  0  0  0  0  0  0  0  0  0  0  0
    0.6111   -4.8065    6.9201 H   0  0  0  0  0  0  0  0  0  0  0  0
    1.1075   -6.4850    6.9667 H   0  0  0  0  0  0  0  0  0  0  0  0
   -0.1880   -5.9550    5.9113 H   0  0  0  0  0  0  0  0  0  0  0  0
   -0.3096   -1.5056    6.9185 H   0  0  0  0  0  0  0  0  0  0  0  0
   -0.1657   -0.2186    8.1321 H   0  0  0  0  0  0  0  0  0  0  0  0
    4.4981   -8.4844    2.5124 H   0  0  0  0  0  0  0  0  0  0  0  0
    4.4945  -10.3062    4.1571 H   0  0  0  0  0  0  0  0  0  0  0  0
    3.6500   -9.3145    5.3279 H   0  0  0  0  0  0  0  0  0  0  0  0
    5.2845   -8.8969    4.8075 H   0  0  0  0  0  0  0  0  0  0  0  0
  1  2  1  0
  1 40  1  0
  1 41  1  0
  1 42  1  0
  2 38  1  0
  2  3  1  0
  2 43  1  1
  3  4  1  0
  3 44  1  0
  3 45  1  0
  4 33  1  0
  4  5  1  0
  4 46  1  1
  5  6  1  6
  5  7  1  0
  5 36  1  0
  6 47  1  0
  6 48  1  0
  6 49  1  0
  7  8  1  0
  7 50  1  0
  7 51  1  0
  8  9  2  0
  8 10  1  0
 10 33  1  0
 10 11  1  1
 10 12  1  0
 11 52  1  0
 11 53  1  0
 11 54  1  0
 12 29  1  0
 12 13  1  0
 12 55  1  1
 13 14  1  0
 13 56  1  0
 13 57  1  0
 15 14  1  1
 14 58  1  0
 14 59  1  0
 15 28  1  0
 15 35  1  0
 15 16  1  0
 16 17  1  0
 16 60  1  0
 16 61  1  0
 17 18  1  0
 17 25  1  0
 17 62  1  1
 18 19  1  0
 18 63  1  0
 19 20  2  0
 19 21  1  0
 21 23  1  0
 21 22  1  0
 21 64  1  6
 22 23  1  0
 22 65  1  0
 23 24  1  0
 23 66  1  1
 24 67  1  0
 24 68  1  0
 24 69  1  0
 25 26  1  6
 25 27  1  0
 25 35  1  0
 26 70  1  0
 26 71  1  0
 26 72  1  0
 27 28  1  0
 27 73  1  0
 27 74  1  0
 28 29  1  0
 28 75  1  6
 29 30  1  6
 29 31  1  0
 30 76  1  0
 30 77  1  0
 30 78  1  0
 31 32  1  0
 31 79  1  0
 31 80  1  0
 32 33  1  0
 32 81  1  0
 32 82  1  0
 33 34  1  1
 34 83  1  0
 34 84  1  0
 34 85  1  0
 35 86  1  0
 35 87  1  0
 36 37  1  0
 36 38  1  0
 36 88  1  6
 37 89  1  0
 37 90  1  0
 37 91  1  0
 38 39  2  0
M  END
>  <i_m_ct_stereo_status>  (384) 
1

>  <s_m_source_file>  (384) 
/var/tmp/pbs.5076255.sched01/tmpbvzcvm50/120d7_yi5_y.sdf

>  <i_m_source_file_index>  (384) 
36

>  <i_lp_mmshare_version>  (384) 
48012

>  <i_f3d_flags>  (384) 
0

>  <s_epik_input>  (384) 
W0NIM11bQ0BIXShbQ0gyXTEpQyg9TylbQ0BIXShbQ0gzXSlbQ0BdKFtDSDNdKShbQ0gyXUMyPU8pW0NASF0xW0NAXShbQ0gzXSkoW0NIMl1bQ0gyXTMpW0NAXTIoW0NIM10pW0NASF0oW0NIMl1bQ0gyXTQpW0NAXTMoW0NIM10pW0NASF0oW0NAQF00NTYpW0NIMl1bQ0BAXShbQ0gzXSkoW0NIMl02KVtDQEBIXShbQ0gyXTUpW05IXUMoPU8pW0NAQEhdN1tOSF1bQ0BIXTdbQ0gzXQ==

>  <s_epik_cmdline>  (384) 
J2VwaWtfcHl0aG9uJywgJy1waHQnLCAnMi4wJywgJy1waCcsICc3LjAnLCAnLXRuJywgJzgnLCAnLW1hJywgJzIwMCcsICctaW1hZScsICc8aW5maWxlLm1hZT4nLCAnLW9tYWUnLCAnPG91dGZpbGUubWFlPic=

>  <r_lp_tautomer_probability>  (384) 
0.99995

>  <r_epik_Ionization_Penalty>  (384) 
2.01468

>  <r_epik_Ionization_Penalty_Charging>  (384) 
0

>  <r_epik_Ionization_Penalty_Neutral>  (384) 
2.01468

>  <r_epik_State_Penalty>  (384) 
2.14446

>  <r_epik_Charging_Adjusted_Penalty>  (384) 
2.14446

>  <i_epik_Tot_Q>  (384) 
0

>  <i_epik_Tot_abs_Q>  (384) 
0

>  <s_lp_Force_Field>  (384) 
OPLS3e

>  <r_lp_Energy>  (384) 
107.104

>  <b_lp_Chiralities_Consistent>  (384) 
1

>  <s_lp_Variant>  (384) 
113:0-2

>  <s_i_glide_gridfile>  (384) 
pfpi4k_grid

>  <i_i_glide_lignum>  (384) 
36

>  <i_i_glide_rotatable_bonds>  (384) 
3

>  <r_i_docking_score>  (384) 
-1.58652

>  <r_i_glide_ligand_efficiency>  (384) 
-0.0406801

>  <r_i_glide_ligand_efficiency_sa>  (384) 
-0.137955

>  <r_i_glide_ligand_efficiency_ln>  (384) 
-0.340196

>  <r_i_glide_gscore>  (384) 
-1.58652

>  <r_i_glide_lipo>  (384) 
-0.122906

>  <r_i_glide_hbond>  (384) 
-0.092747

>  <r_i_glide_metal>  (384) 
-0

>  <r_i_glide_rewards>  (384) 
-7.48625e-05

>  <r_i_glide_evdw>  (384) 
-28.3976

>  <r_i_glide_ecoul>  (384) 
-1.07562

>  <r_i_glide_erotb>  (384) 
0.215025

>  <r_i_glide_esite>  (384) 
-0.00459665

>  <r_i_glide_emodel>  (384) 
-31.8847

>  <r_i_glide_energy>  (384) 
-29.4733

>  <r_i_glide_einternal>  (384) 
1.31718

>  <r_i_glide_intrahb_reward>  (384) 
-0

>  <i_i_glide_confnum>  (384) 
1

>  <i_i_glide_posenum>  (384) 
2

>  <r_i_glide_eff_state_penalty>  (384) 
0

>  <ligand_id>  (384) 
113

>  <original_smiles>  (384) 
CC1CC2C(C)(CC(=O)C3(C)C4CCC56CC(NC(=O)C7NC7C)C(C)(CC5C4(C)CCC23C)C6)C(C)C1=O

>  <smiles>  (384) 
[H]N1C([H])(C(=O)N([H])C2([H])C([H])([H])C34C([H])([H])C([H])([H])C5([H])C6(C([H])([H])[H])C(=O)C([H])([H])C7(C([H])([H])[H])C([H])(C([H])([H])[H])C(=O)C([H])(C([H])([H])[H])C([H])([H])C7([H])C6(C([H])([H])[H])C([H])([H])C([H])([H])C5(C([H])([H])[H])C3([H])C([H])([H])C2(C([H])([H])[H])C4([H])[H])C1([H])C([H])([H])[H]

$$$$
114:0:0
     RDKit          3D

 75 81  0  0  1  0  0  0  0  0999 V2000
    0.0409   -6.5914    4.7005 C   0  0  0  0  0  0  0  0  0  0  0  0
    1.1988   -5.6715    5.1823 C   0  0  0  0  0  0  0  0  0  0  0  0
    0.5439   -4.8134    6.2956 C   0  0  0  0  0  0  0  0  0  0  0  0
    2.3887   -6.4778    5.7517 C   0  0  1  0  0  0  0  0  0  0  0  0
    2.8641   -7.5387    4.7398 C   0  0  0  0  0  0  0  0  0  0  0  0
    3.2424   -6.9706    3.3521 C   0  0  1  0  0  0  0  0  0  0  0  0
    3.0926   -8.0297    2.4266 O   0  0  0  0  0  0  0  0  0  0  0  0
    2.3855   -5.7483    2.8688 C   0  0  2  0  0  0  0  0  0  0  0  0
    2.8532   -5.0575    1.6746 O   0  0  0  0  0  0  0  0  0  0  0  0
    4.0891   -4.3153    1.4541 C   0  0  1  0  0  0  0  0  0  0  0  0
    5.2982   -5.2831    1.6071 C   0  0  0  0  0  0  0  0  0  0  0  0
    4.0662   -3.9520   -0.0832 C   0  0  1  0  0  0  0  0  0  0  0  0
    2.6954   -3.5603   -0.7367 C   0  0  0  0  0  0  0  0  0  0  0  0
    3.2205   -2.9295   -1.9872 C   0  0  1  0  0  0  0  0  0  0  0  0
    2.7304   -1.8927   -2.8549 O   0  0  0  0  0  0  0  0  0  0  0  0
    4.1085   -1.3999   -2.8478 C   0  0  1  0  0  0  0  0  0  0  0  0
    4.2135   -0.0139   -3.0403 O   0  0  0  0  0  0  0  0  0  0  0  0
    4.2131   -1.9497   -1.4194 C   0  0  2  0  0  0  0  0  0  0  0  0
    5.1291   -2.8835   -0.6205 C   0  0  2  0  0  0  0  0  0  0  0  0
    6.2008   -3.5172   -1.5358 C   0  0  0  0  0  0  0  0  0  0  0  0
    5.8467   -2.1649    0.5522 C   0  0  1  0  0  0  0  0  0  0  0  0
    6.4934   -0.9981    0.0902 O   0  0  0  0  0  0  0  0  0  0  0  0
    4.8905   -1.8115    1.6994 C   0  0  0  0  0  0  0  0  0  0  0  0
    4.2668   -3.0487    2.3848 C   0  0  1  0  0  0  0  0  0  0  0  0
    3.0628   -2.7017    3.2926 C   0  0  2  0  0  0  0  0  0  0  0  0
    1.8592   -2.3026    2.4005 C   0  0  0  0  0  0  0  0  0  0  0  0
    3.2292   -1.6327    4.3782 C   0  0  0  0  0  0  0  0  0  0  0  0
    2.3135   -2.4880    5.2541 C   0  0  0  0  0  0  0  0  0  0  0  0
    2.7904   -3.7290    4.4581 C   0  0  2  0  0  0  0  0  0  0  0  0
    3.9704   -4.4831    5.1699 C   0  0  1  0  0  0  0  0  0  0  0  0
    4.8892   -3.6366    5.8303 O   0  0  0  0  0  0  0  0  0  0  0  0
    3.5389   -5.5470    6.2087 C   0  0  0  0  0  0  0  0  0  0  0  0
    1.7926   -4.8311    4.0083 C   0  0  2  0  0  0  0  0  0  0  0  0
   -0.3094   -7.2343    5.5107 H   0  0  0  0  0  0  0  0  0  0  0  0
    0.3088   -7.2572    3.8826 H   0  0  0  0  0  0  0  0  0  0  0  0
   -0.8126   -6.0054    4.3600 H   0  0  0  0  0  0  0  0  0  0  0  0
    1.2525   -4.2301    6.8756 H   0  0  0  0  0  0  0  0  0  0  0  0
    0.0195   -5.4428    7.0162 H   0  0  0  0  0  0  0  0  0  0  0  0
   -0.1888   -4.1216    5.8794 H   0  0  0  0  0  0  0  0  0  0  0  0
    2.0460   -7.0227    6.6338 H   0  0  0  0  0  0  0  0  0  0  0  0
    3.7085   -8.0902    5.1553 H   0  0  0  0  0  0  0  0  0  0  0  0
    2.0840   -8.2922    4.6365 H   0  0  0  0  0  0  0  0  0  0  0  0
    4.2989   -6.7547    3.4113 H   0  0  0  0  0  0  0  0  0  0  0  0
    3.6163   -8.7662    2.7125 H   0  0  0  0  0  0  0  0  0  0  0  0
    1.4948   -6.2120    2.4533 H   0  0  0  0  0  0  0  0  0  0  0  0
    6.1748   -4.9484    1.0598 H   0  0  0  0  0  0  0  0  0  0  0  0
    5.0579   -6.2728    1.2175 H   0  0  0  0  0  0  0  0  0  0  0  0
    5.6547   -5.3952    2.6292 H   0  0  0  0  0  0  0  0  0  0  0  0
    4.3049   -4.8876   -0.5903 H   0  0  0  0  0  0  0  0  0  0  0  0
    2.0418   -4.4081   -0.9306 H   0  0  0  0  0  0  0  0  0  0  0  0
    2.1557   -2.8165   -0.1640 H   0  0  0  0  0  0  0  0  0  0  0  0
    3.6603   -3.7136   -2.6212 H   0  0  0  0  0  0  0  0  0  0  0  0
    4.7551   -1.9168   -3.5602 H   0  0  0  0  0  0  0  0  0  0  0  0
    3.4025    0.3645   -2.7300 H   0  0  0  0  0  0  0  0  0  0  0  0
    3.7105   -1.2275   -0.7681 H   0  0  0  0  0  0  0  0  0  0  0  0
    6.8294   -2.7611   -2.0038 H   0  0  0  0  0  0  0  0  0  0  0  0
    5.7678   -4.1092   -2.3400 H   0  0  0  0  0  0  0  0  0  0  0  0
    6.8484   -4.1724   -0.9566 H   0  0  0  0  0  0  0  0  0  0  0  0
    6.6413   -2.7975    0.9556 H   0  0  0  0  0  0  0  0  0  0  0  0
    6.8436   -0.5318    0.8400 H   0  0  0  0  0  0  0  0  0  0  0  0
    5.4607   -1.2748    2.4550 H   0  0  0  0  0  0  0  0  0  0  0  0
    4.1396   -1.1062    1.3619 H   0  0  0  0  0  0  0  0  0  0  0  0
    5.0690   -3.3199    3.0698 H   0  0  0  0  0  0  0  0  0  0  0  0
    1.0026   -1.9607    2.9797 H   0  0  0  0  0  0  0  0  0  0  0  0
    1.4887   -3.1348    1.8240 H   0  0  0  0  0  0  0  0  0  0  0  0
    2.0771   -1.4900    1.7126 H   0  0  0  0  0  0  0  0  0  0  0  0
    4.2462   -1.5262    4.7483 H   0  0  0  0  0  0  0  0  0  0  0  0
    2.8116   -0.6615    4.1258 H   0  0  0  0  0  0  0  0  0  0  0  0
    2.5908   -2.4645    6.3074 H   0  0  0  0  0  0  0  0  0  0  0  0
    1.2574   -2.2570    5.1291 H   0  0  0  0  0  0  0  0  0  0  0  0
    4.5769   -4.9786    4.4300 H   0  0  0  0  0  0  0  0  0  0  0  0
    5.6104   -4.1634    6.1443 H   0  0  0  0  0  0  0  0  0  0  0  0
    3.2496   -5.0484    7.1345 H   0  0  0  0  0  0  0  0  0  0  0  0
    4.4008   -6.1591    6.4807 H   0  0  0  0  0  0  0  0  0  0  0  0
    0.9198   -4.3402    3.5846 H   0  0  0  0  0  0  0  0  0  0  0  0
  1  2  1  0
  1 34  1  0
  1 35  1  0
  1 36  1  0
  2 33  1  0
  2  3  1  0
  2  4  1  0
  3 37  1  0
  3 38  1  0
  3 39  1  0
  4 32  1  0
  4  5  1  0
  4 40  1  1
  5  6  1  0
  5 41  1  0
  5 42  1  0
  6  7  1  0
  6  8  1  0
  6 43  1  1
  7 44  1  0
  8 33  1  0
  8  9  1  0
  8 45  1  6
  9 10  1  0
 10 24  1  0
 10 11  1  6
 10 12  1  0
 11 46  1  0
 11 47  1  0
 11 48  1  0
 12 19  1  0
 12 13  1  0
 12 49  1  6
 13 14  1  0
 13 50  1  0
 13 51  1  0
 14 18  1  0
 14 15  1  0
 14 52  1  6
 15 16  1  0
 16 17  1  0
 16 18  1  0
 16 53  1  6
 17 54  1  0
 18 19  1  0
 18 55  1  1
 19 20  1  6
 19 21  1  0
 20 56  1  0
 20 57  1  0
 20 58  1  0
 21 22  1  0
 21 23  1  0
 21 59  1  1
 22 60  1  0
 23 24  1  0
 23 61  1  0
 23 62  1  0
 24 25  1  0
 24 63  1  1
 25 29  1  0
 25 26  1  6
 25 27  1  0
 26 64  1  0
 26 65  1  0
 26 66  1  0
 27 28  1  0
 27 67  1  0
 27 68  1  0
 29 28  1  1
 28 69  1  0
 28 70  1  0
 29 30  1  0
 29 33  1  0
 30 31  1  0
 30 32  1  0
 30 71  1  6
 31 72  1  0
 32 73  1  0
 32 74  1  0
 33 75  1  6
M  END
>  <i_m_ct_stereo_status>  (385) 
1

>  <s_m_source_file>  (385) 
/var/tmp/pbs.5076255.sched01/tmpbvzcvm50/120d7_yi5_y.sdf

>  <i_m_source_file_index>  (385) 
37

>  <i_lp_mmshare_version>  (385) 
48012

>  <i_f3d_flags>  (385) 
0

>  <s_epik_input>  (385) 
W09IXVtDQEBIXTFbQ0gyXVtDSF0oW0NIMl1bQ0BASF0yW09IXSlDKFtDSDNdKShbQ0gzXSlbQ0hdM1tDQEhdMU9bQ0BdKFtDSDNdKShbQ0BASF00W0NAXShbQ0BdMjM1KShbQ0gzXSlbQ0gyXVtDSDJdNSlbQ0BASF02W0NAXShbQ0gzXSkoW0NAQEhdKFtPSF0pW0NIMl00KVtDQEBIXTdbQ0BASF0oW0NIMl02KU9bQ0BIXTdbT0hd

>  <s_epik_cmdline>  (385) 
J2VwaWtfcHl0aG9uJywgJy1waHQnLCAnMi4wJywgJy1waCcsICc3LjAnLCAnLXRuJywgJzgnLCAnLW1hJywgJzIwMCcsICctaW1hZScsICc8aW5maWxlLm1hZT4nLCAnLW9tYWUnLCAnPG91dGZpbGUubWFlPic=

>  <r_lp_tautomer_probability>  (385) 
1

>  <r_epik_Ionization_Penalty>  (385) 
2.08583e-06

>  <r_epik_Ionization_Penalty_Charging>  (385) 
0

>  <r_epik_Ionization_Penalty_Neutral>  (385) 
2.08583e-06

>  <r_epik_State_Penalty>  (385) 
-0

>  <r_epik_Charging_Adjusted_Penalty>  (385) 
0

>  <i_epik_Tot_Q>  (385) 
0

>  <i_epik_Tot_abs_Q>  (385) 
0

>  <s_epik_Chemistry_Notes>  (385) 
This compound contains an acetal/aminal-like group ( X-CH(R)-Y where X, Y are N, S, or O) that may be acid/base labile, releasing an aldehyde.

>  <s_lp_Force_Field>  (385) 
OPLS3e

>  <r_lp_Energy>  (385) 
130.034

>  <b_lp_Chiralities_Consistent>  (385) 
1

>  <s_lp_Variant>  (385) 
114:0-1

>  <s_i_glide_gridfile>  (385) 
pfpi4k_grid

>  <i_i_glide_lignum>  (385) 
37

>  <i_i_glide_rotatable_bonds>  (385) 
4

>  <r_i_docking_score>  (385) 
-2.33828

>  <r_i_glide_ligand_efficiency>  (385) 
-0.070857

>  <r_i_glide_ligand_efficiency_sa>  (385) 
-0.227276

>  <r_i_glide_ligand_efficiency_ln>  (385) 
-0.520022

>  <r_i_glide_gscore>  (385) 
-2.33828

>  <r_i_glide_lipo>  (385) 
-0.336701

>  <r_i_glide_hbond>  (385) 
-0.137908

>  <r_i_glide_metal>  (385) 
-0

>  <r_i_glide_rewards>  (385) 
-0.254872

>  <r_i_glide_evdw>  (385) 
-20.9727

>  <r_i_glide_ecoul>  (385) 
-3.64201

>  <r_i_glide_erotb>  (385) 
0

>  <r_i_glide_esite>  (385) 
-0.0138662

>  <r_i_glide_emodel>  (385) 
-27.3879

>  <r_i_glide_energy>  (385) 
-24.6147

>  <r_i_glide_einternal>  (385) 
1.48506

>  <r_i_glide_intrahb_reward>  (385) 
-0

>  <i_i_glide_confnum>  (385) 
2

>  <i_i_glide_posenum>  (385) 
17

>  <r_i_glide_eff_state_penalty>  (385) 
0

>  <ligand_id>  (385) 
114

>  <original_smiles>  (385) 
CC1(C)C2CC(O)C3OC4(C)C5CC6OC(O)C6C5(C)C(O)CC4C4(C)CCC4(C(O)C2)C31

>  <smiles>  (385) 
[H]OC1([H])OC2([H])C([H])([H])C3([H])C4(C([H])([H])[H])OC5([H])C([H])(O[H])C([H])([H])C6([H])C([H])([H])C([H])(O[H])C7(C([H])([H])C([H])([H])C7(C([H])([H])[H])C4([H])C([H])([H])C([H])(O[H])C3(C([H])([H])[H])C12[H])C5([H])C6(C([H])([H])[H])C([H])([H])[H]

$$$$
114:0:1
     RDKit          3D

 75 81  0  0  1  0  0  0  0  0999 V2000
    0.1355   -6.3308    4.9402 C   0  0  0  0  0  0  0  0  0  0  0  0
    1.2128   -5.2981    5.3802 C   0  0  0  0  0  0  0  0  0  0  0  0
    0.4656   -4.3975    6.3963 C   0  0  0  0  0  0  0  0  0  0  0  0
    2.4273   -5.9770    6.0547 C   0  0  1  0  0  0  0  0  0  0  0  0
    3.0066   -7.0844    5.1508 C   0  0  0  0  0  0  0  0  0  0  0  0
    3.4010   -6.6080    3.7338 C   0  0  1  0  0  0  0  0  0  0  0  0
    3.3579   -7.7470    2.8972 O   0  0  0  0  0  0  0  0  0  0  0  0
    2.4897   -5.4868    3.1222 C   0  0  2  0  0  0  0  0  0  0  0  0
    2.9608   -4.8700    1.8888 O   0  0  0  0  0  0  0  0  0  0  0  0
    4.1532   -4.0683    1.6495 C   0  0  1  0  0  0  0  0  0  0  0  0
    5.4146   -4.9379    1.9217 C   0  0  0  0  0  0  0  0  0  0  0  0
    4.1643   -3.8346    0.0878 C   0  0  1  0  0  0  0  0  0  0  0  0
    2.7966   -3.5850   -0.6444 C   0  0  0  0  0  0  0  0  0  0  0  0
    3.3232   -3.0234   -1.9264 C   0  0  1  0  0  0  0  0  0  0  0  0
    2.8131   -2.0737   -2.8804 O   0  0  0  0  0  0  0  0  0  0  0  0
    4.1630   -1.5037   -2.8593 C   0  0  1  0  0  0  0  0  0  0  0  0
    4.2120   -0.1215   -3.1226 O   0  0  0  0  0  0  0  0  0  0  0  0
    4.2385   -1.9502   -1.4005 C   0  0  2  0  0  0  0  0  0  0  0  0
    5.1794   -2.7534   -0.5011 C   0  0  2  0  0  0  0  0  0  0  0  0
    6.3222   -3.3908   -1.3305 C   0  0  0  0  0  0  0  0  0  0  0  0
    5.7954   -1.8821    0.6194 C   0  0  1  0  0  0  0  0  0  0  0  0
    6.3384   -0.6986    0.0858 O   0  0  0  0  0  0  0  0  0  0  0  0
    4.7898   -1.5044    1.7138 C   0  0  0  0  0  0  0  0  0  0  0  0
    4.2172   -2.7215    2.4763 C   0  0  1  0  0  0  0  0  0  0  0  0
    2.9606   -2.3794    3.3114 C   0  0  2  0  0  0  0  0  0  0  0  0
    1.7694   -2.1366    2.3497 C   0  0  0  0  0  0  0  0  0  0  0  0
    3.0189   -1.2173    4.3064 C   0  0  0  0  0  0  0  0  0  0  0  0
    2.1248   -2.0548    5.2228 C   0  0  0  0  0  0  0  0  0  0  0  0
    2.7084   -3.3221    4.5499 C   0  0  2  0  0  0  0  0  0  0  0  0
    3.9034   -3.9395    5.3613 C   0  0  1  0  0  0  0  0  0  0  0  0
    4.7438   -2.9850    5.9809 O   0  0  0  0  0  0  0  0  0  0  0  0
    3.5008   -4.9420    6.4703 C   0  0  0  0  0  0  0  0  0  0  0  0
    1.7960   -4.5181    4.1596 C   0  0  2  0  0  0  0  0  0  0  0  0
   -0.2055   -6.9265    5.7897 H   0  0  0  0  0  0  0  0  0  0  0  0
    0.4735   -7.0409    4.1886 H   0  0  0  0  0  0  0  0  0  0  0  0
   -0.7404   -5.8358    4.5209 H   0  0  0  0  0  0  0  0  0  0  0  0
    1.1145   -3.7232    6.9481 H   0  0  0  0  0  0  0  0  0  0  0  0
   -0.0464   -4.9976    7.1511 H   0  0  0  0  0  0  0  0  0  0  0  0
   -0.2924   -3.7894    5.9012 H   0  0  0  0  0  0  0  0  0  0  0  0
    2.0876   -6.4699    6.9686 H   0  0  0  0  0  0  0  0  0  0  0  0
    3.8684   -7.5427    5.6385 H   0  0  0  0  0  0  0  0  0  0  0  0
    2.2796   -7.8938    5.0848 H   0  0  0  0  0  0  0  0  0  0  0  0
    4.4384   -6.3190    3.8072 H   0  0  0  0  0  0  0  0  0  0  0  0
    3.9381   -8.4065    3.2462 H   0  0  0  0  0  0  0  0  0  0  0  0
    1.6449   -6.0390    2.7155 H   0  0  0  0  0  0  0  0  0  0  0  0
    6.2888   -4.5902    1.3766 H   0  0  0  0  0  0  0  0  0  0  0  0
    5.2525   -5.9718    1.6063 H   0  0  0  0  0  0  0  0  0  0  0  0
    5.7364   -4.9433    2.9599 H   0  0  0  0  0  0  0  0  0  0  0  0
    4.4785   -4.7906   -0.3332 H   0  0  0  0  0  0  0  0  0  0  0  0
    2.2085   -4.4874   -0.7837 H   0  0  0  0  0  0  0  0  0  0  0  0
    2.1888   -2.8366   -0.1517 H   0  0  0  0  0  0  0  0  0  0  0  0
    3.8273   -3.8216   -2.4852 H   0  0  0  0  0  0  0  0  0  0  0  0
    4.8532   -2.0260   -3.5221 H   0  0  0  0  0  0  0  0  0  0  0  0
    3.4143    0.2449   -2.7703 H   0  0  0  0  0  0  0  0  0  0  0  0
    3.6688   -1.2137   -0.8241 H   0  0  0  0  0  0  0  0  0  0  0  0
    6.9209   -2.6329   -1.8368 H   0  0  0  0  0  0  0  0  0  0  0  0
    5.9466   -4.0590   -2.1014 H   0  0  0  0  0  0  0  0  0  0  0  0
    7.0027   -3.9710   -0.7075 H   0  0  0  0  0  0  0  0  0  0  0  0
    6.6226   -2.4153    1.0920 H   0  0  0  0  0  0  0  0  0  0  0  0
    5.6317   -0.0932   -0.0961 H   0  0  0  0  0  0  0  0  0  0  0  0
    5.2979   -0.8709    2.4397 H   0  0  0  0  0  0  0  0  0  0  0  0
    4.0041   -0.8816    1.3012 H   0  0  0  0  0  0  0  0  0  0  0  0
    5.0092   -2.8829    3.2063 H   0  0  0  0  0  0  0  0  0  0  0  0
    0.8721   -1.8022    2.8688 H   0  0  0  0  0  0  0  0  0  0  0  0
    1.4697   -3.0363    1.8319 H   0  0  0  0  0  0  0  0  0  0  0  0
    1.9627   -1.3706    1.6026 H   0  0  0  0  0  0  0  0  0  0  0  0
    4.0108   -1.0133    4.6991 H   0  0  0  0  0  0  0  0  0  0  0  0
    2.5538   -0.2976    3.9615 H   0  0  0  0  0  0  0  0  0  0  0  0
    2.3582   -1.9277    6.2789 H   0  0  0  0  0  0  0  0  0  0  0  0
    1.0612   -1.9043    5.0466 H   0  0  0  0  0  0  0  0  0  0  0  0
    4.5708   -4.4504    4.6869 H   0  0  0  0  0  0  0  0  0  0  0  0
    5.4676   -3.4354    6.3852 H   0  0  0  0  0  0  0  0  0  0  0  0
    3.1465   -4.3898    7.3399 H   0  0  0  0  0  0  0  0  0  0  0  0
    4.3892   -5.4703    6.8197 H   0  0  0  0  0  0  0  0  0  0  0  0
    0.9101   -4.1256    3.6677 H   0  0  0  0  0  0  0  0  0  0  0  0
  1  2  1  0
  1 34  1  0
  1 35  1  0
  1 36  1  0
  2 33  1  0
  2  3  1  0
  2  4  1  0
  3 37  1  0
  3 38  1  0
  3 39  1  0
  4 32  1  0
  4  5  1  0
  4 40  1  1
  5  6  1  0
  5 41  1  0
  5 42  1  0
  6  7  1  0
  6  8  1  0
  6 43  1  1
  7 44  1  0
  8 33  1  0
  8  9  1  0
  8 45  1  6
  9 10  1  0
 10 24  1  0
 10 11  1  6
 10 12  1  0
 11 46  1  0
 11 47  1  0
 11 48  1  0
 12 19  1  0
 12 13  1  0
 12 49  1  6
 13 14  1  0
 13 50  1  0
 13 51  1  0
 14 18  1  0
 14 15  1  0
 14 52  1  6
 15 16  1  0
 16 17  1  0
 16 18  1  0
 16 53  1  6
 17 54  1  0
 18 19  1  0
 18 55  1  1
 19 20  1  6
 19 21  1  0
 20 56  1  0
 20 57  1  0
 20 58  1  0
 21 22  1  0
 21 23  1  0
 21 59  1  1
 22 60  1  0
 23 24  1  0
 23 61  1  0
 23 62  1  0
 24 25  1  0
 24 63  1  1
 25 29  1  0
 25 26  1  6
 25 27  1  0
 26 64  1  0
 26 65  1  0
 26 66  1  0
 27 28  1  0
 27 67  1  0
 27 68  1  0
 29 28  1  1
 28 69  1  0
 28 70  1  0
 29 30  1  0
 29 33  1  0
 30 31  1  0
 30 32  1  0
 30 71  1  6
 31 72  1  0
 32 73  1  0
 32 74  1  0
 33 75  1  6
M  END
>  <i_m_ct_stereo_status>  (386) 
1

>  <s_m_source_file>  (386) 
/var/tmp/pbs.5076255.sched01/tmpbvzcvm50/120d7_yi5_y.sdf

>  <i_m_source_file_index>  (386) 
37

>  <i_lp_mmshare_version>  (386) 
48012

>  <i_f3d_flags>  (386) 
0

>  <s_epik_input>  (386) 
W09IXVtDQEBIXTFbQ0gyXVtDSF0oW0NIMl1bQ0BASF0yW09IXSlDKFtDSDNdKShbQ0gzXSlbQ0hdM1tDQEhdMU9bQ0BdKFtDSDNdKShbQ0BASF00W0NAXShbQ0BdMjM1KShbQ0gzXSlbQ0gyXVtDSDJdNSlbQ0BASF02W0NAXShbQ0gzXSkoW0NAQEhdKFtPSF0pW0NIMl00KVtDQEBIXTdbQ0BASF0oW0NIMl02KU9bQ0BIXTdbT0hd

>  <s_epik_cmdline>  (386) 
J2VwaWtfcHl0aG9uJywgJy1waHQnLCAnMi4wJywgJy1waCcsICc3LjAnLCAnLXRuJywgJzgnLCAnLW1hJywgJzIwMCcsICctaW1hZScsICc8aW5maWxlLm1hZT4nLCAnLW9tYWUnLCAnPG91dGZpbGUubWFlPic=

>  <r_lp_tautomer_probability>  (386) 
1

>  <r_epik_Ionization_Penalty>  (386) 
2.08583e-06

>  <r_epik_Ionization_Penalty_Charging>  (386) 
0

>  <r_epik_Ionization_Penalty_Neutral>  (386) 
2.08583e-06

>  <r_epik_State_Penalty>  (386) 
-0

>  <r_epik_Charging_Adjusted_Penalty>  (386) 
0

>  <i_epik_Tot_Q>  (386) 
0

>  <i_epik_Tot_abs_Q>  (386) 
0

>  <s_epik_Chemistry_Notes>  (386) 
This compound contains an acetal/aminal-like group ( X-CH(R)-Y where X, Y are N, S, or O) that may be acid/base labile, releasing an aldehyde.

>  <s_lp_Force_Field>  (386) 
OPLS3e

>  <r_lp_Energy>  (386) 
130.034

>  <b_lp_Chiralities_Consistent>  (386) 
1

>  <s_lp_Variant>  (386) 
114:0-1

>  <s_i_glide_gridfile>  (386) 
pfpi4k_grid

>  <i_i_glide_lignum>  (386) 
37

>  <i_i_glide_rotatable_bonds>  (386) 
4

>  <r_i_docking_score>  (386) 
-2.20546

>  <r_i_glide_ligand_efficiency>  (386) 
-0.066832

>  <r_i_glide_ligand_efficiency_sa>  (386) 
-0.214366

>  <r_i_glide_ligand_efficiency_ln>  (386) 
-0.490482

>  <r_i_glide_gscore>  (386) 
-2.20546

>  <r_i_glide_lipo>  (386) 
-0.349217

>  <r_i_glide_hbond>  (386) 
-0.0825492

>  <r_i_glide_metal>  (386) 
-0

>  <r_i_glide_rewards>  (386) 
-0.254872

>  <r_i_glide_evdw>  (386) 
-21.3552

>  <r_i_glide_ecoul>  (386) 
-2.95864

>  <r_i_glide_erotb>  (386) 
0

>  <r_i_glide_esite>  (386) 
-0.0072604

>  <r_i_glide_emodel>  (386) 
-27.19

>  <r_i_glide_energy>  (386) 
-24.3139

>  <r_i_glide_einternal>  (386) 
0.97471

>  <r_i_glide_intrahb_reward>  (386) 
-0

>  <i_i_glide_confnum>  (386) 
1

>  <i_i_glide_posenum>  (386) 
4

>  <r_i_glide_eff_state_penalty>  (386) 
0

>  <ligand_id>  (386) 
114

>  <original_smiles>  (386) 
CC1(C)C2CC(O)C3OC4(C)C5CC6OC(O)C6C5(C)C(O)CC4C4(C)CCC4(C(O)C2)C31

>  <smiles>  (386) 
[H]OC1([H])OC2([H])C([H])([H])C3([H])C4(C([H])([H])[H])OC5([H])C([H])(O[H])C([H])([H])C6([H])C([H])([H])C([H])(O[H])C7(C([H])([H])C([H])([H])C7(C([H])([H])[H])C4([H])C([H])([H])C([H])(O[H])C3(C([H])([H])[H])C12[H])C5([H])C6(C([H])([H])[H])C([H])([H])[H]

$$$$
114:0:2
     RDKit          3D

 75 81  0  0  1  0  0  0  0  0999 V2000
    0.6497   -6.8140    5.0576 C   0  0  0  0  0  0  0  0  0  0  0  0
    1.6614   -5.7026    5.4607 C   0  0  0  0  0  0  0  0  0  0  0  0
    0.8925   -4.8716    6.5200 C   0  0  0  0  0  0  0  0  0  0  0  0
    2.9558   -6.2876    6.0710 C   0  0  1  0  0  0  0  0  0  0  0  0
    3.5784   -7.3386    5.1276 C   0  0  0  0  0  0  0  0  0  0  0  0
    3.8716   -6.8140    3.7035 C   0  0  1  0  0  0  0  0  0  0  0  0
    3.9021   -7.9346    2.8459 O   0  0  0  0  0  0  0  0  0  0  0  0
    2.8447   -5.7698    3.1443 C   0  0  2  0  0  0  0  0  0  0  0  0
    3.2171   -5.1183    1.8950 O   0  0  0  0  0  0  0  0  0  0  0  0
    4.3250   -4.2161    1.6127 C   0  0  1  0  0  0  0  0  0  0  0  0
    5.6633   -4.9833    1.8201 C   0  0  0  0  0  0  0  0  0  0  0  0
    4.2453   -3.9657    0.0548 C   0  0  1  0  0  0  0  0  0  0  0  0
    2.8273   -3.8214   -0.6076 C   0  0  0  0  0  0  0  0  0  0  0  0
    3.2503   -3.2086   -1.9058 C   0  0  1  0  0  0  0  0  0  0  0  0
    2.6175   -2.3088   -2.8295 O   0  0  0  0  0  0  0  0  0  0  0  0
    3.9159   -1.6325   -2.8719 C   0  0  1  0  0  0  0  0  0  0  0  0
    3.8357   -0.2546   -3.1300 O   0  0  0  0  0  0  0  0  0  0  0  0
    4.0998   -2.0658   -1.4153 C   0  0  2  0  0  0  0  0  0  0  0  0
    5.1425   -2.7968   -0.5676 C   0  0  2  0  0  0  0  0  0  0  0  0
    6.2942   -3.3369   -1.4545 C   0  0  0  0  0  0  0  0  0  0  0  0
    5.7422   -1.8949    0.5439 C   0  0  1  0  0  0  0  0  0  0  0  0
    6.1874   -0.6566    0.0278 O   0  0  0  0  0  0  0  0  0  0  0  0
    4.7552   -1.6105    1.6802 C   0  0  0  0  0  0  0  0  0  0  0  0
    4.3165   -2.8761    2.4518 C   0  0  1  0  0  0  0  0  0  0  0  0
    3.0763   -2.6388    3.3474 C   0  0  2  0  0  0  0  0  0  0  0  0
    1.8268   -2.4903    2.4432 C   0  0  0  0  0  0  0  0  0  0  0  0
    3.0852   -1.4789    4.3491 C   0  0  0  0  0  0  0  0  0  0  0  0
    2.3064   -2.3940    5.2971 C   0  0  0  0  0  0  0  0  0  0  0  0
    2.9562   -3.6070    4.5860 C   0  0  2  0  0  0  0  0  0  0  0  0
    4.2322   -4.1366    5.3326 C   0  0  1  0  0  0  0  0  0  0  0  0
    5.0343   -3.1288    5.9118 O   0  0  0  0  0  0  0  0  0  0  0  0
    3.9621   -5.1722    6.4493 C   0  0  0  0  0  0  0  0  0  0  0  0
    2.1244   -4.8678    4.2237 C   0  0  2  0  0  0  0  0  0  0  0  0
    0.3949   -7.4435    5.9131 H   0  0  0  0  0  0  0  0  0  0  0  0
    1.0089   -7.4906    4.2847 H   0  0  0  0  0  0  0  0  0  0  0  0
   -0.2803   -6.3839    4.6839 H   0  0  0  0  0  0  0  0  0  0  0  0
    1.5111   -4.1525    7.0497 H   0  0  0  0  0  0  0  0  0  0  0  0
    0.4650   -5.5159    7.2905 H   0  0  0  0  0  0  0  0  0  0  0  0
    0.0667   -4.3223    6.0675 H   0  0  0  0  0  0  0  0  0  0  0  0
    2.6999   -6.8110    6.9949 H   0  0  0  0  0  0  0  0  0  0  0  0
    4.4966   -7.7290    5.5679 H   0  0  0  0  0  0  0  0  0  0  0  0
    2.9199   -8.2060    5.0823 H   0  0  0  0  0  0  0  0  0  0  0  0
    4.8832   -6.4420    3.7436 H   0  0  0  0  0  0  0  0  0  0  0  0
    4.2096   -7.6535    1.9980 H   0  0  0  0  0  0  0  0  0  0  0  0
    2.0280   -6.3844    2.7711 H   0  0  0  0  0  0  0  0  0  0  0  0
    6.4821   -4.5621    1.2424 H   0  0  0  0  0  0  0  0  0  0  0  0
    5.5752   -6.0241    1.5019 H   0  0  0  0  0  0  0  0  0  0  0  0
    6.0295   -4.9719    2.8441 H   0  0  0  0  0  0  0  0  0  0  0  0
    4.6116   -4.8921   -0.3914 H   0  0  0  0  0  0  0  0  0  0  0  0
    2.3038   -4.7675   -0.7191 H   0  0  0  0  0  0  0  0  0  0  0  0
    2.1809   -3.1281   -0.0835 H   0  0  0  0  0  0  0  0  0  0  0  0
    3.8057   -3.9504   -2.4935 H   0  0  0  0  0  0  0  0  0  0  0  0
    4.6178   -2.0965   -3.5679 H   0  0  0  0  0  0  0  0  0  0  0  0
    3.0222    0.0419   -2.7489 H   0  0  0  0  0  0  0  0  0  0  0  0
    3.4972   -1.3821   -0.8074 H   0  0  0  0  0  0  0  0  0  0  0  0
    6.7985   -2.5295   -1.9857 H   0  0  0  0  0  0  0  0  0  0  0  0
    5.9428   -4.0353   -2.2121 H   0  0  0  0  0  0  0  0  0  0  0  0
    7.0518   -3.8558   -0.8668 H   0  0  0  0  0  0  0  0  0  0  0  0
    6.6256   -2.3724    0.9678 H   0  0  0  0  0  0  0  0  0  0  0  0
    5.4319   -0.1429   -0.2180 H   0  0  0  0  0  0  0  0  0  0  0  0
    5.2436   -0.9412    2.3886 H   0  0  0  0  0  0  0  0  0  0  0  0
    3.9067   -1.0490    1.3062 H   0  0  0  0  0  0  0  0  0  0  0  0
    5.1533   -2.9802    3.1399 H   0  0  0  0  0  0  0  0  0  0  0  0
    0.9292   -2.2321    3.0048 H   0  0  0  0  0  0  0  0  0  0  0  0
    1.5820   -3.4127    1.9352 H   0  0  0  0  0  0  0  0  0  0  0  0
    1.9221   -1.7070    1.6935 H   0  0  0  0  0  0  0  0  0  0  0  0
    4.0725   -1.1904    4.6986 H   0  0  0  0  0  0  0  0  0  0  0  0
    2.5277   -0.5994    4.0324 H   0  0  0  0  0  0  0  0  0  0  0  0
    2.5754   -2.2590    6.3438 H   0  0  0  0  0  0  0  0  0  0  0  0
    1.2261   -2.3299    5.1716 H   0  0  0  0  0  0  0  0  0  0  0  0
    4.9035   -4.5881    4.6224 H   0  0  0  0  0  0  0  0  0  0  0  0
    5.2662   -2.5141    5.2329 H   0  0  0  0  0  0  0  0  0  0  0  0
    3.6092   -4.6523    7.3397 H   0  0  0  0  0  0  0  0  0  0  0  0
    4.9087   -5.6242    6.7485 H   0  0  0  0  0  0  0  0  0  0  0  0
    1.1863   -4.5460    3.7770 H   0  0  0  0  0  0  0  0  0  0  0  0
  1  2  1  0
  1 34  1  0
  1 35  1  0
  1 36  1  0
  2 33  1  0
  2  3  1  0
  2  4  1  0
  3 37  1  0
  3 38  1  0
  3 39  1  0
  4 32  1  0
  4  5  1  0
  4 40  1  1
  5  6  1  0
  5 41  1  0
  5 42  1  0
  6  7  1  0
  6  8  1  0
  6 43  1  1
  7 44  1  0
  8 33  1  0
  8  9  1  0
  8 45  1  6
  9 10  1  0
 10 24  1  0
 10 11  1  6
 10 12  1  0
 11 46  1  0
 11 47  1  0
 11 48  1  0
 12 19  1  0
 12 13  1  0
 12 49  1  6
 13 14  1  0
 13 50  1  0
 13 51  1  0
 14 18  1  0
 14 15  1  0
 14 52  1  6
 15 16  1  0
 16 17  1  0
 16 18  1  0
 16 53  1  6
 17 54  1  0
 18 19  1  0
 18 55  1  1
 19 20  1  6
 19 21  1  0
 20 56  1  0
 20 57  1  0
 20 58  1  0
 21 22  1  0
 21 23  1  0
 21 59  1  1
 22 60  1  0
 23 24  1  0
 23 61  1  0
 23 62  1  0
 24 25  1  0
 24 63  1  1
 25 29  1  0
 25 26  1  6
 25 27  1  0
 26 64  1  0
 26 65  1  0
 26 66  1  0
 27 28  1  0
 27 67  1  0
 27 68  1  0
 29 28  1  1
 28 69  1  0
 28 70  1  0
 29 30  1  0
 29 33  1  0
 30 31  1  0
 30 32  1  0
 30 71  1  6
 31 72  1  0
 32 73  1  0
 32 74  1  0
 33 75  1  6
M  END
>  <i_m_ct_stereo_status>  (387) 
1

>  <s_m_source_file>  (387) 
/var/tmp/pbs.5076255.sched01/tmpbvzcvm50/120d7_yi5_y.sdf

>  <i_m_source_file_index>  (387) 
37

>  <i_lp_mmshare_version>  (387) 
48012

>  <i_f3d_flags>  (387) 
0

>  <s_epik_input>  (387) 
W09IXVtDQEBIXTFbQ0gyXVtDSF0oW0NIMl1bQ0BASF0yW09IXSlDKFtDSDNdKShbQ0gzXSlbQ0hdM1tDQEhdMU9bQ0BdKFtDSDNdKShbQ0BASF00W0NAXShbQ0BdMjM1KShbQ0gzXSlbQ0gyXVtDSDJdNSlbQ0BASF02W0NAXShbQ0gzXSkoW0NAQEhdKFtPSF0pW0NIMl00KVtDQEBIXTdbQ0BASF0oW0NIMl02KU9bQ0BIXTdbT0hd

>  <s_epik_cmdline>  (387) 
J2VwaWtfcHl0aG9uJywgJy1waHQnLCAnMi4wJywgJy1waCcsICc3LjAnLCAnLXRuJywgJzgnLCAnLW1hJywgJzIwMCcsICctaW1hZScsICc8aW5maWxlLm1hZT4nLCAnLW9tYWUnLCAnPG91dGZpbGUubWFlPic=

>  <r_lp_tautomer_probability>  (387) 
1

>  <r_epik_Ionization_Penalty>  (387) 
2.08583e-06

>  <r_epik_Ionization_Penalty_Charging>  (387) 
0

>  <r_epik_Ionization_Penalty_Neutral>  (387) 
2.08583e-06

>  <r_epik_State_Penalty>  (387) 
-0

>  <r_epik_Charging_Adjusted_Penalty>  (387) 
0

>  <i_epik_Tot_Q>  (387) 
0

>  <i_epik_Tot_abs_Q>  (387) 
0

>  <s_epik_Chemistry_Notes>  (387) 
This compound contains an acetal/aminal-like group ( X-CH(R)-Y where X, Y are N, S, or O) that may be acid/base labile, releasing an aldehyde.

>  <s_lp_Force_Field>  (387) 
OPLS3e

>  <r_lp_Energy>  (387) 
130.034

>  <b_lp_Chiralities_Consistent>  (387) 
1

>  <s_lp_Variant>  (387) 
114:0-1

>  <s_i_glide_gridfile>  (387) 
pfpi4k_grid

>  <i_i_glide_lignum>  (387) 
37

>  <i_i_glide_rotatable_bonds>  (387) 
4

>  <r_i_docking_score>  (387) 
-2.12943

>  <r_i_glide_ligand_efficiency>  (387) 
-0.0645281

>  <r_i_glide_ligand_efficiency_sa>  (387) 
-0.206976

>  <r_i_glide_ligand_efficiency_ln>  (387) 
-0.473574

>  <r_i_glide_gscore>  (387) 
-2.12943

>  <r_i_glide_lipo>  (387) 
-0.364832

>  <r_i_glide_hbond>  (387) 
-0.0601255

>  <r_i_glide_metal>  (387) 
-0

>  <r_i_glide_rewards>  (387) 
-0.254872

>  <r_i_glide_evdw>  (387) 
-21.455

>  <r_i_glide_ecoul>  (387) 
-2.48465

>  <r_i_glide_erotb>  (387) 
0

>  <r_i_glide_esite>  (387) 
-0.0041518

>  <r_i_glide_emodel>  (387) 
-26.7514

>  <r_i_glide_energy>  (387) 
-23.9396

>  <r_i_glide_einternal>  (387) 
0.891537

>  <r_i_glide_intrahb_reward>  (387) 
-0

>  <i_i_glide_confnum>  (387) 
1

>  <i_i_glide_posenum>  (387) 
5

>  <r_i_glide_eff_state_penalty>  (387) 
0

>  <ligand_id>  (387) 
114

>  <original_smiles>  (387) 
CC1(C)C2CC(O)C3OC4(C)C5CC6OC(O)C6C5(C)C(O)CC4C4(C)CCC4(C(O)C2)C31

>  <smiles>  (387) 
[H]OC1([H])OC2([H])C([H])([H])C3([H])C4(C([H])([H])[H])OC5([H])C([H])(O[H])C([H])([H])C6([H])C([H])([H])C([H])(O[H])C7(C([H])([H])C([H])([H])C7(C([H])([H])[H])C4([H])C([H])([H])C([H])(O[H])C3(C([H])([H])[H])C12[H])C5([H])C6(C([H])([H])[H])C([H])([H])[H]

$$$$
115:0:0
     RDKit          3D

 74 77  0  0  1  0  0  0  0  0999 V2000
    2.3262   -5.4705    6.5920 C   0  0  0  0  0  0  0  0  0  0  0  0
    1.4163   -4.5327    6.2644 C   0  0  0  0  0  0  0  0  0  0  0  0
   -0.0085   -4.7515    6.6015 C   0  0  0  0  0  0  0  0  0  0  0  0
   -0.5565   -5.8487    6.5677 O   0  0  0  0  0  0  0  0  0  0  0  0
   -0.8277   -3.5502    7.0703 C   0  0  0  0  0  0  0  0  0  0  0  0
   -0.4575   -2.2502    6.3327 C   0  0  0  0  0  0  0  0  0  0  0  0
    1.0737   -1.9813    6.3028 C   0  0  1  0  0  0  0  0  0  0  0  0
    1.5943   -1.8610    7.7613 C   0  0  0  0  0  0  0  0  0  0  0  0
    1.7840   -3.1945    5.6242 C   0  0  2  0  0  0  0  0  0  0  0  0
    1.5245   -3.2491    4.1033 C   0  0  0  0  0  0  0  0  0  0  0  0
    1.9285   -1.9387    3.4192 C   0  0  0  0  0  0  0  0  0  0  0  0
    1.1680   -0.7299    4.0056 C   0  0  1  0  0  0  0  0  0  0  0  0
    1.4370   -0.6635    5.5311 C   0  0  1  0  0  0  0  0  0  0  0  0
    0.8018    0.6073    6.1208 C   0  0  0  0  0  0  0  0  0  0  0  0
    1.3491    1.8563    5.4297 C   0  0  0  0  0  0  0  0  0  0  0  0
    1.0792    1.9086    3.9069 C   0  0  2  0  0  0  0  0  0  0  0  0
    1.9114    3.0841    3.3260 C   0  0  0  0  0  0  0  0  0  0  0  0
   -0.4264    2.0207    3.4840 C   0  0  1  0  0  0  0  0  0  0  0  0
   -1.1434    3.4125    3.5265 C   0  0  2  0  0  0  0  0  0  0  0  0
   -1.1518    4.0467    4.9265 C   0  0  0  0  0  0  0  0  0  0  0  0
   -2.6058    3.3398    2.9937 C   0  0  0  0  0  0  0  0  0  0  0  0
   -3.1568    4.6615    2.4798 C   0  0  0  0  0  0  0  0  0  0  0  0
   -4.4086    4.8145    1.9985 C   0  0  0  0  0  0  0  0  0  0  0  0
   -5.0375    6.1060    1.4774 C   0  0  0  0  0  0  0  0  0  0  0  0
   -4.9186    6.1925   -0.0492 C   0  0  0  0  0  0  0  0  0  0  0  0
   -6.5145    6.1989    1.8913 C   0  0  0  0  0  0  0  0  0  0  0  0
   -4.3768    7.2443    2.0000 O   0  0  0  0  0  0  0  0  0  0  0  0
   -0.4536    1.3836    2.0800 C   0  0  0  0  0  0  0  0  0  0  0  0
    0.8591    0.6229    1.8784 C   0  0  0  0  0  0  0  0  0  0  0  0
    1.5479    0.5793    3.2463 C   0  0  2  0  0  0  0  0  0  0  0  0
    3.3802   -5.3323    6.3953 H   0  0  0  0  0  0  0  0  0  0  0  0
    2.0368   -6.3890    7.0809 H   0  0  0  0  0  0  0  0  0  0  0  0
   -1.8833   -3.7803    6.9241 H   0  0  0  0  0  0  0  0  0  0  0  0
   -0.6700   -3.4424    8.1458 H   0  0  0  0  0  0  0  0  0  0  0  0
   -0.8597   -2.3119    5.3217 H   0  0  0  0  0  0  0  0  0  0  0  0
   -0.9791   -1.4198    6.8089 H   0  0  0  0  0  0  0  0  0  0  0  0
    2.6299   -1.5172    7.7844 H   0  0  0  0  0  0  0  0  0  0  0  0
    1.5685   -2.8089    8.2989 H   0  0  0  0  0  0  0  0  0  0  0  0
    0.9982   -1.1629    8.3472 H   0  0  0  0  0  0  0  0  0  0  0  0
    2.8622   -3.0719    5.7591 H   0  0  0  0  0  0  0  0  0  0  0  0
    2.0865   -4.0734    3.6611 H   0  0  0  0  0  0  0  0  0  0  0  0
    0.4745   -3.4580    3.8909 H   0  0  0  0  0  0  0  0  0  0  0  0
    3.0042   -1.7924    3.5462 H   0  0  0  0  0  0  0  0  0  0  0  0
    1.7589   -2.0330    2.3440 H   0  0  0  0  0  0  0  0  0  0  0  0
    0.1015   -0.8896    3.8509 H   0  0  0  0  0  0  0  0  0  0  0  0
    2.5140   -0.5420    5.6481 H   0  0  0  0  0  0  0  0  0  0  0  0
   -0.2843    0.5811    6.0349 H   0  0  0  0  0  0  0  0  0  0  0  0
    1.0304    0.6958    7.1830 H   0  0  0  0  0  0  0  0  0  0  0  0
    0.9695    2.7358    5.9404 H   0  0  0  0  0  0  0  0  0  0  0  0
    2.4285    1.8781    5.5901 H   0  0  0  0  0  0  0  0  0  0  0  0
    1.7340    3.2352    2.2613 H   0  0  0  0  0  0  0  0  0  0  0  0
    2.9815    2.9110    3.4465 H   0  0  0  0  0  0  0  0  0  0  0  0
    1.6831    4.0257    3.8237 H   0  0  0  0  0  0  0  0  0  0  0  0
   -1.0029    1.3536    4.1218 H   0  0  0  0  0  0  0  0  0  0  0  0
   -0.5875    4.0907    2.8792 H   0  0  0  0  0  0  0  0  0  0  0  0
   -1.5187    3.3493    5.6819 H   0  0  0  0  0  0  0  0  0  0  0  0
   -1.7831    4.9279    4.9461 H   0  0  0  0  0  0  0  0  0  0  0  0
   -0.1640    4.3901    5.2227 H   0  0  0  0  0  0  0  0  0  0  0  0
   -2.6899    2.6645    2.1465 H   0  0  0  0  0  0  0  0  0  0  0  0
   -3.2702    2.9262    3.7586 H   0  0  0  0  0  0  0  0  0  0  0  0
   -2.4808    5.5013    2.4757 H   0  0  0  0  0  0  0  0  0  0  0  0
   -5.0533    3.9486    1.9785 H   0  0  0  0  0  0  0  0  0  0  0  0
   -5.4159    5.3499   -0.5222 H   0  0  0  0  0  0  0  0  0  0  0  0
   -3.8788    6.1970   -0.3749 H   0  0  0  0  0  0  0  0  0  0  0  0
   -5.3938    7.0931   -0.4347 H   0  0  0  0  0  0  0  0  0  0  0  0
   -7.0802    5.3444    1.5216 H   0  0  0  0  0  0  0  0  0  0  0  0
   -6.9808    7.1059    1.5007 H   0  0  0  0  0  0  0  0  0  0  0  0
   -6.6384    6.2073    2.9706 H   0  0  0  0  0  0  0  0  0  0  0  0
   -3.9146    7.6643    1.2865 H   0  0  0  0  0  0  0  0  0  0  0  0
   -1.3116    0.7166    1.9795 H   0  0  0  0  0  0  0  0  0  0  0  0
   -0.5332    2.1369    1.2966 H   0  0  0  0  0  0  0  0  0  0  0  0
    0.6869   -0.3536    1.4290 H   0  0  0  0  0  0  0  0  0  0  0  0
    1.4811    1.1761    1.1760 H   0  0  0  0  0  0  0  0  0  0  0  0
    2.6323    0.5975    3.1182 H   0  0  0  0  0  0  0  0  0  0  0  0
  1  2  2  0
  1 31  1  0
  1 32  1  0
  2  9  1  0
  2  3  1  0
  3  4  2  0
  3  5  1  0
  5  6  1  0
  5 33  1  0
  5 34  1  0
  6  7  1  0
  6 35  1  0
  6 36  1  0
  7 13  1  0
  7  8  1  1
  7  9  1  0
  8 37  1  0
  8 38  1  0
  8 39  1  0
  9 10  1  0
  9 40  1  6
 10 11  1  0
 10 41  1  0
 10 42  1  0
 11 12  1  0
 11 43  1  0
 11 44  1  0
 12 30  1  0
 12 13  1  0
 12 45  1  1
 13 14  1  0
 13 46  1  6
 14 15  1  0
 14 47  1  0
 14 48  1  0
 15 16  1  0
 15 49  1  0
 15 50  1  0
 16 30  1  0
 16 17  1  6
 16 18  1  0
 17 51  1  0
 17 52  1  0
 17 53  1  0
 18 19  1  0
 18 28  1  0
 18 54  1  1
 19 20  1  0
 19 21  1  0
 19 55  1  6
 20 56  1  0
 20 57  1  0
 20 58  1  0
 21 22  1  0
 21 59  1  0
 21 60  1  0
 22 23  2  3
 22 61  1  0
 23 24  1  0
 23 62  1  0
 24 25  1  0
 24 26  1  0
 24 27  1  0
 25 63  1  0
 25 64  1  0
 25 65  1  0
 26 66  1  0
 26 67  1  0
 26 68  1  0
 27 69  1  0
 28 29  1  0
 28 70  1  0
 28 71  1  0
 29 30  1  0
 29 72  1  0
 29 73  1  0
 30 74  1  6
M  END
>  <i_m_ct_stereo_status>  (388) 
1

>  <s_m_source_file>  (388) 
/var/tmp/pbs.5076255.sched01/tmpbvzcvm50/120d7_yi5_y.sdf

>  <i_m_source_file_index>  (388) 
38

>  <i_lp_mmshare_version>  (388) 
48012

>  <i_f3d_flags>  (388) 
0

>  <s_epik_input>  (388) 
W0NIMl0xW0NIMl1DKD1PKUMoPVtDSDJdKVtDQEhdKFtDQF0xMltDSDNdKVtDSDJdW0NIMl1bQ0BIXTNbQ0BIXTJbQ0gyXVtDSDJdW0NAQF00KFtDSDNdKVtDQEBIXTNbQ0gyXVtDSDJdW0NAQEhdNFtDQEhdKFtDSDNdKVtDSDJdL1tDSF09W0NIXS9DKFtDSDNdKShbQ0gzXSlbT0hd

>  <s_epik_cmdline>  (388) 
J2VwaWtfcHl0aG9uJywgJy1waHQnLCAnMi4wJywgJy1waCcsICc3LjAnLCAnLXRuJywgJzgnLCAnLW1hJywgJzIwMCcsICctaW1hZScsICc8aW5maWxlLm1hZT4nLCAnLW9tYWUnLCAnPG91dGZpbGUubWFlPic=

>  <r_lp_tautomer_probability>  (388) 
1

>  <r_epik_Ionization_Penalty>  (388) 
1.61635e-07

>  <r_epik_Ionization_Penalty_Charging>  (388) 
0

>  <r_epik_Ionization_Penalty_Neutral>  (388) 
1.61635e-07

>  <r_epik_State_Penalty>  (388) 
-0

>  <r_epik_Charging_Adjusted_Penalty>  (388) 
0

>  <i_epik_Tot_Q>  (388) 
0

>  <i_epik_Tot_abs_Q>  (388) 
0

>  <s_lp_Force_Field>  (388) 
OPLS3e

>  <r_lp_Energy>  (388) 
49.8433

>  <b_lp_Chiralities_Consistent>  (388) 
1

>  <s_lp_Variant>  (388) 
115:0-1

>  <s_i_glide_gridfile>  (388) 
pfpi4k_grid

>  <i_i_glide_lignum>  (388) 
38

>  <i_i_glide_rotatable_bonds>  (388) 
5

>  <r_i_docking_score>  (388) 
-2.52355

>  <r_i_glide_ligand_efficiency>  (388) 
-0.0841184

>  <r_i_glide_ligand_efficiency_sa>  (388) 
-0.261375

>  <r_i_glide_ligand_efficiency_ln>  (388) 
-0.573378

>  <r_i_glide_gscore>  (388) 
-2.52355

>  <r_i_glide_lipo>  (388) 
-0.56849

>  <r_i_glide_hbond>  (388) 
-0.0640223

>  <r_i_glide_metal>  (388) 
-0

>  <r_i_glide_rewards>  (388) 
-0.595583

>  <r_i_glide_evdw>  (388) 
-25.9519

>  <r_i_glide_ecoul>  (388) 
-3.05384

>  <r_i_glide_erotb>  (388) 
0.463263

>  <r_i_glide_esite>  (388) 
-0.00304691

>  <r_i_glide_emodel>  (388) 
-30.8161

>  <r_i_glide_energy>  (388) 
-29.0057

>  <r_i_glide_einternal>  (388) 
5.04045

>  <r_i_glide_intrahb_reward>  (388) 
-0

>  <i_i_glide_confnum>  (388) 
4

>  <i_i_glide_posenum>  (388) 
22

>  <r_i_glide_eff_state_penalty>  (388) 
0

>  <ligand_id>  (388) 
115

>  <original_smiles>  (388) 
C=C1C(=O)CCC2(C)C1CCC1C2CCC2(C)C(C(C)CC=CC(C)(C)O)CCC12

>  <smiles>  (388) 
[H]OC(C([H])=C([H])C([H])([H])C([H])(C([H])([H])[H])C1([H])C([H])([H])C([H])([H])C2([H])C3([H])C([H])([H])C([H])([H])C4([H])C(=C([H])[H])C(=O)C([H])([H])C([H])([H])C4(C([H])([H])[H])C3([H])C([H])([H])C([H])([H])C12C([H])([H])[H])(C([H])([H])[H])C([H])([H])[H]

$$$$
115:0:1
     RDKit          3D

 74 77  0  0  1  0  0  0  0  0999 V2000
   -0.5279  -10.2375    2.2232 C   0  0  0  0  0  0  0  0  0  0  0  0
   -0.1704   -9.0711    2.7531 C   0  0  0  0  0  0  0  0  0  0  0  0
   -1.2097   -8.1001    3.1597 C   0  0  0  0  0  0  0  0  0  0  0  0
   -2.2416   -7.9305    2.5189 O   0  0  0  0  0  0  0  0  0  0  0  0
   -0.9991   -7.2994    4.4413 C   0  0  0  0  0  0  0  0  0  0  0  0
    0.4587   -6.8502    4.5982 C   0  0  0  0  0  0  0  0  0  0  0  0
    1.4666   -8.0226    4.4215 C   0  0  1  0  0  0  0  0  0  0  0  0
    1.1795   -9.1138    5.4834 C   0  0  0  0  0  0  0  0  0  0  0  0
    1.2766   -8.6517    3.0015 C   0  0  2  0  0  0  0  0  0  0  0  0
    1.7554   -7.7331    1.8618 C   0  0  0  0  0  0  0  0  0  0  0  0
    3.2209   -7.3468    2.0635 C   0  0  0  0  0  0  0  0  0  0  0  0
    3.4495   -6.6342    3.4171 C   0  0  1  0  0  0  0  0  0  0  0  0
    2.9612   -7.5608    4.5655 C   0  0  1  0  0  0  0  0  0  0  0  0
    3.2875   -6.9230    5.9282 C   0  0  0  0  0  0  0  0  0  0  0  0
    4.7902   -6.6802    6.0620 C   0  0  0  0  0  0  0  0  0  0  0  0
    5.3698   -5.7289    4.9847 C   0  0  2  0  0  0  0  0  0  0  0  0
    6.9101   -5.7789    5.1023 C   0  0  0  0  0  0  0  0  0  0  0  0
    4.8415   -4.2503    5.0281 C   0  0  1  0  0  0  0  0  0  0  0  0
    5.4441   -3.2235    6.0666 C   0  0  2  0  0  0  0  0  0  0  0  0
    5.4015   -3.7350    7.5232 C   0  0  0  0  0  0  0  0  0  0  0  0
    4.7650   -1.8176    6.0634 C   0  0  0  0  0  0  0  0  0  0  0  0
    4.5762   -1.1727    4.6939 C   0  0  0  0  0  0  0  0  0  0  0  0
    3.3987   -0.8662    4.1393 C   0  0  0  0  0  0  0  0  0  0  0  0
    3.1512   -0.3467    2.7140 C   0  0  0  0  0  0  0  0  0  0  0  0
    2.6193    1.0877    2.7650 C   0  0  0  0  0  0  0  0  0  0  0  0
    4.3907   -0.4449    1.7979 C   0  0  0  0  0  0  0  0  0  0  0  0
    2.1449   -1.1503    2.1138 O   0  0  0  0  0  0  0  0  0  0  0  0
    4.9910   -3.7949    3.5607 C   0  0  0  0  0  0  0  0  0  0  0  0
    5.2406   -5.0181    2.6783 C   0  0  0  0  0  0  0  0  0  0  0  0
    4.9491   -6.2292    3.5656 C   0  0  2  0  0  0  0  0  0  0  0  0
    0.2002  -10.9831    1.9244 H   0  0  0  0  0  0  0  0  0  0  0  0
   -1.5706  -10.4690    2.0634 H   0  0  0  0  0  0  0  0  0  0  0  0
   -1.6585   -6.4335    4.4070 H   0  0  0  0  0  0  0  0  0  0  0  0
   -1.3175   -7.9146    5.2781 H   0  0  0  0  0  0  0  0  0  0  0  0
    0.6495   -6.0539    3.8809 H   0  0  0  0  0  0  0  0  0  0  0  0
    0.5627   -6.3976    5.5861 H   0  0  0  0  0  0  0  0  0  0  0  0
    1.9605   -9.8740    5.4875 H   0  0  0  0  0  0  0  0  0  0  0  0
    0.2378   -9.6315    5.3057 H   0  0  0  0  0  0  0  0  0  0  0  0
    1.1114   -8.6846    6.4801 H   0  0  0  0  0  0  0  0  0  0  0  0
    1.8653   -9.5732    2.9520 H   0  0  0  0  0  0  0  0  0  0  0  0
    1.6465   -8.2437    0.9056 H   0  0  0  0  0  0  0  0  0  0  0  0
    1.1490   -6.8299    1.7985 H   0  0  0  0  0  0  0  0  0  0  0  0
    3.8395   -8.2451    2.0211 H   0  0  0  0  0  0  0  0  0  0  0  0
    3.5412   -6.7214    1.2262 H   0  0  0  0  0  0  0  0  0  0  0  0
    2.8519   -5.7218    3.4311 H   0  0  0  0  0  0  0  0  0  0  0  0
    3.5569   -8.4686    4.4978 H   0  0  0  0  0  0  0  0  0  0  0  0
    2.7309   -5.9978    6.0769 H   0  0  0  0  0  0  0  0  0  0  0  0
    2.9918   -7.5953    6.7358 H   0  0  0  0  0  0  0  0  0  0  0  0
    4.9961   -6.3313    7.0695 H   0  0  0  0  0  0  0  0  0  0  0  0
    5.2915   -7.6443    5.9741 H   0  0  0  0  0  0  0  0  0  0  0  0
    7.3857   -5.0631    4.4401 H   0  0  0  0  0  0  0  0  0  0  0  0
    7.2823   -6.7760    4.8784 H   0  0  0  0  0  0  0  0  0  0  0  0
    7.2603   -5.5412    6.0993 H   0  0  0  0  0  0  0  0  0  0  0  0
    3.7744   -4.2889    5.2348 H   0  0  0  0  0  0  0  0  0  0  0  0
    6.4971   -3.0715    5.8155 H   0  0  0  0  0  0  0  0  0  0  0  0
    4.4007   -4.0690    7.7971 H   0  0  0  0  0  0  0  0  0  0  0  0
    5.6896   -2.9533    8.2275 H   0  0  0  0  0  0  0  0  0  0  0  0
    6.0895   -4.5577    7.6938 H   0  0  0  0  0  0  0  0  0  0  0  0
    3.7952   -1.8745    6.5647 H   0  0  0  0  0  0  0  0  0  0  0  0
    5.3617   -1.1264    6.6667 H   0  0  0  0  0  0  0  0  0  0  0  0
    5.4888   -0.9144    4.1797 H   0  0  0  0  0  0  0  0  0  0  0  0
    2.4787   -1.0216    4.7074 H   0  0  0  0  0  0  0  0  0  0  0  0
    3.3395    1.7483    3.2570 H   0  0  0  0  0  0  0  0  0  0  0  0
    1.6849    1.1315    3.3335 H   0  0  0  0  0  0  0  0  0  0  0  0
    2.4235    1.4862    1.7644 H   0  0  0  0  0  0  0  0  0  0  0  0
    5.2359    0.1189    2.1852 H   0  0  0  0  0  0  0  0  0  0  0  0
    4.1840   -0.0519    0.8007 H   0  0  0  0  0  0  0  0  0  0  0  0
    4.7078   -1.4768    1.6677 H   0  0  0  0  0  0  0  0  0  0  0  0
    1.9544   -0.8116    1.2380 H   0  0  0  0  0  0  0  0  0  0  0  0
    4.0785   -3.3195    3.2156 H   0  0  0  0  0  0  0  0  0  0  0  0
    5.8341   -3.1246    3.4213 H   0  0  0  0  0  0  0  0  0  0  0  0
    4.6302   -4.9513    1.7737 H   0  0  0  0  0  0  0  0  0  0  0  0
    6.2792   -5.0228    2.3505 H   0  0  0  0  0  0  0  0  0  0  0  0
    5.5745   -7.0728    3.2620 H   0  0  0  0  0  0  0  0  0  0  0  0
  1  2  2  0
  1 31  1  0
  1 32  1  0
  2  9  1  0
  2  3  1  0
  3  4  2  0
  3  5  1  0
  5  6  1  0
  5 33  1  0
  5 34  1  0
  6  7  1  0
  6 35  1  0
  6 36  1  0
  7 13  1  0
  7  8  1  1
  7  9  1  0
  8 37  1  0
  8 38  1  0
  8 39  1  0
  9 10  1  0
  9 40  1  1
 10 11  1  0
 10 41  1  0
 10 42  1  0
 11 12  1  0
 11 43  1  0
 11 44  1  0
 12 30  1  0
 12 13  1  0
 12 45  1  6
 13 14  1  0
 13 46  1  1
 14 15  1  0
 14 47  1  0
 14 48  1  0
 15 16  1  0
 15 49  1  0
 15 50  1  0
 16 30  1  0
 16 17  1  6
 16 18  1  0
 17 51  1  0
 17 52  1  0
 17 53  1  0
 18 19  1  0
 18 28  1  0
 18 54  1  1
 19 20  1  0
 19 21  1  0
 19 55  1  6
 20 56  1  0
 20 57  1  0
 20 58  1  0
 21 22  1  0
 21 59  1  0
 21 60  1  0
 22 23  2  3
 22 61  1  0
 23 24  1  0
 23 62  1  0
 24 25  1  0
 24 26  1  0
 24 27  1  0
 25 63  1  0
 25 64  1  0
 25 65  1  0
 26 66  1  0
 26 67  1  0
 26 68  1  0
 27 69  1  0
 28 29  1  0
 28 70  1  0
 28 71  1  0
 29 30  1  0
 29 72  1  0
 29 73  1  0
 30 74  1  6
M  END
>  <i_m_ct_stereo_status>  (389) 
1

>  <s_m_source_file>  (389) 
/var/tmp/pbs.5076255.sched01/tmpbvzcvm50/120d7_yi5_y.sdf

>  <i_m_source_file_index>  (389) 
38

>  <i_lp_mmshare_version>  (389) 
48012

>  <i_f3d_flags>  (389) 
0

>  <s_epik_input>  (389) 
W0NIMl0xW0NIMl1DKD1PKUMoPVtDSDJdKVtDQEhdKFtDQF0xMltDSDNdKVtDSDJdW0NIMl1bQ0BIXTNbQ0BIXTJbQ0gyXVtDSDJdW0NAQF00KFtDSDNdKVtDQEBIXTNbQ0gyXVtDSDJdW0NAQEhdNFtDQEhdKFtDSDNdKVtDSDJdL1tDSF09W0NIXS9DKFtDSDNdKShbQ0gzXSlbT0hd

>  <s_epik_cmdline>  (389) 
J2VwaWtfcHl0aG9uJywgJy1waHQnLCAnMi4wJywgJy1waCcsICc3LjAnLCAnLXRuJywgJzgnLCAnLW1hJywgJzIwMCcsICctaW1hZScsICc8aW5maWxlLm1hZT4nLCAnLW9tYWUnLCAnPG91dGZpbGUubWFlPic=

>  <r_lp_tautomer_probability>  (389) 
1

>  <r_epik_Ionization_Penalty>  (389) 
1.61635e-07

>  <r_epik_Ionization_Penalty_Charging>  (389) 
0

>  <r_epik_Ionization_Penalty_Neutral>  (389) 
1.61635e-07

>  <r_epik_State_Penalty>  (389) 
-0

>  <r_epik_Charging_Adjusted_Penalty>  (389) 
0

>  <i_epik_Tot_Q>  (389) 
0

>  <i_epik_Tot_abs_Q>  (389) 
0

>  <s_lp_Force_Field>  (389) 
OPLS3e

>  <r_lp_Energy>  (389) 
49.8433

>  <b_lp_Chiralities_Consistent>  (389) 
1

>  <s_lp_Variant>  (389) 
115:0-1

>  <s_i_glide_gridfile>  (389) 
pfpi4k_grid

>  <i_i_glide_lignum>  (389) 
38

>  <i_i_glide_rotatable_bonds>  (389) 
5

>  <r_i_docking_score>  (389) 
-1.59229

>  <r_i_glide_ligand_efficiency>  (389) 
-0.0530764

>  <r_i_glide_ligand_efficiency_sa>  (389) 
-0.164921

>  <r_i_glide_ligand_efficiency_ln>  (389) 
-0.361786

>  <r_i_glide_gscore>  (389) 
-1.59229

>  <r_i_glide_lipo>  (389) 
-0.2951

>  <r_i_glide_hbond>  (389) 
-0.0234661

>  <r_i_glide_metal>  (389) 
-0

>  <r_i_glide_rewards>  (389) 
-0.595583

>  <r_i_glide_evdw>  (389) 
-18.9049

>  <r_i_glide_ecoul>  (389) 
-0.915159

>  <r_i_glide_erotb>  (389) 
0.463263

>  <r_i_glide_esite>  (389) 
-0.0588864

>  <r_i_glide_emodel>  (389) 
-21.8621

>  <r_i_glide_energy>  (389) 
-19.8201

>  <r_i_glide_einternal>  (389) 
0.722

>  <r_i_glide_intrahb_reward>  (389) 
-0

>  <i_i_glide_confnum>  (389) 
4

>  <i_i_glide_posenum>  (389) 
2

>  <r_i_glide_eff_state_penalty>  (389) 
0

>  <ligand_id>  (389) 
115

>  <original_smiles>  (389) 
C=C1C(=O)CCC2(C)C1CCC1C2CCC2(C)C(C(C)CC=CC(C)(C)O)CCC12

>  <smiles>  (389) 
[H]OC(C([H])=C([H])C([H])([H])C([H])(C([H])([H])[H])C1([H])C([H])([H])C([H])([H])C2([H])C3([H])C([H])([H])C([H])([H])C4([H])C(=C([H])[H])C(=O)C([H])([H])C([H])([H])C4(C([H])([H])[H])C3([H])C([H])([H])C([H])([H])C12C([H])([H])[H])(C([H])([H])[H])C([H])([H])[H]

$$$$
115:1:0
     RDKit          3D

 74 77  0  0  1  0  0  0  0  0999 V2000
   -0.6727   -4.5787    7.7101 C   0  0  0  0  0  0  0  0  0  0  0  0
   -0.0244   -4.1981    6.5899 C   0  0  0  0  0  0  0  0  0  0  0  0
   -0.2810   -2.8570    6.0253 C   0  0  0  0  0  0  0  0  0  0  0  0
   -1.3840   -2.2980    6.0832 O   0  0  0  0  0  0  0  0  0  0  0  0
    0.8956   -2.0937    5.4141 C   0  0  0  0  0  0  0  0  0  0  0  0
    1.8964   -3.0079    4.6881 C   0  0  0  0  0  0  0  0  0  0  0  0
    2.3245   -4.2413    5.5312 C   0  0  1  0  0  0  0  0  0  0  0  0
    3.0060   -3.7589    6.8381 C   0  0  0  0  0  0  0  0  0  0  0  0
    1.0418   -5.0591    5.9060 C   0  0  2  0  0  0  0  0  0  0  0  0
    0.4357   -5.7943    4.6950 C   0  0  0  0  0  0  0  0  0  0  0  0
    1.4631   -6.6997    4.0139 C   0  0  0  0  0  0  0  0  0  0  0  0
    2.6996   -5.9050    3.5383 C   0  0  1  0  0  0  0  0  0  0  0  0
    3.3270   -5.1840    4.7651 C   0  0  1  0  0  0  0  0  0  0  0  0
    4.6483   -4.5055    4.3604 C   0  0  0  0  0  0  0  0  0  0  0  0
    5.6248   -5.5305    3.7854 C   0  0  0  0  0  0  0  0  0  0  0  0
    5.1096   -6.2521    2.5165 C   0  0  2  0  0  0  0  0  0  0  0  0
    6.0964   -7.4076    2.2009 C   0  0  0  0  0  0  0  0  0  0  0  0
    4.8862   -5.3423    1.2696 C   0  0  1  0  0  0  0  0  0  0  0  0
    6.1239   -4.8987    0.4232 C   0  0  2  0  0  0  0  0  0  0  0  0
    7.1690   -4.0592    1.1740 C   0  0  0  0  0  0  0  0  0  0  0  0
    5.7031   -4.1741   -0.8870 C   0  0  0  0  0  0  0  0  0  0  0  0
    4.8332   -2.9371   -0.7010 C   0  0  0  0  0  0  0  0  0  0  0  0
    4.0380   -2.3370   -1.6159 C   0  0  0  0  0  0  0  0  0  0  0  0
    3.7721   -2.6502   -3.0926 C   0  0  0  0  0  0  0  0  0  0  0  0
    4.6951   -3.7113   -3.7254 C   0  0  0  0  0  0  0  0  0  0  0  0
    2.3058   -3.0497   -3.2836 C   0  0  0  0  0  0  0  0  0  0  0  0
    3.9827   -1.4792   -3.8515 O   0  0  0  0  0  0  0  0  0  0  0  0
    3.8139   -6.0933    0.4467 C   0  0  0  0  0  0  0  0  0  0  0  0
    3.1748   -7.1382    1.3623 C   0  0  0  0  0  0  0  0  0  0  0  0
    3.6921   -6.8429    2.7789 C   0  0  2  0  0  0  0  0  0  0  0  0
   -0.4713   -5.5299    8.1785 H   0  0  0  0  0  0  0  0  0  0  0  0
   -1.3894   -3.9332    8.1921 H   0  0  0  0  0  0  0  0  0  0  0  0
    0.5106   -1.3396    4.7300 H   0  0  0  0  0  0  0  0  0  0  0  0
    1.3927   -1.5588    6.2240 H   0  0  0  0  0  0  0  0  0  0  0  0
    1.4507   -3.3130    3.7448 H   0  0  0  0  0  0  0  0  0  0  0  0
    2.7669   -2.4078    4.4208 H   0  0  0  0  0  0  0  0  0  0  0  0
    3.4522   -4.5890    7.3844 H   0  0  0  0  0  0  0  0  0  0  0  0
    2.3092   -3.2733    7.5175 H   0  0  0  0  0  0  0  0  0  0  0  0
    3.7887   -3.0318    6.6350 H   0  0  0  0  0  0  0  0  0  0  0  0
    1.3360   -5.8216    6.6320 H   0  0  0  0  0  0  0  0  0  0  0  0
   -0.4148   -6.3921    5.0155 H   0  0  0  0  0  0  0  0  0  0  0  0
    0.0506   -5.0793    3.9734 H   0  0  0  0  0  0  0  0  0  0  0  0
    1.7758   -7.4754    4.7154 H   0  0  0  0  0  0  0  0  0  0  0  0
    0.9851   -7.2196    3.1811 H   0  0  0  0  0  0  0  0  0  0  0  0
    2.3745   -5.1461    2.8295 H   0  0  0  0  0  0  0  0  0  0  0  0
    3.5982   -5.9665    5.4720 H   0  0  0  0  0  0  0  0  0  0  0  0
    4.4757   -3.7009    3.6485 H   0  0  0  0  0  0  0  0  0  0  0  0
    5.1278   -4.0529    5.2282 H   0  0  0  0  0  0  0  0  0  0  0  0
    6.5819   -5.0529    3.6114 H   0  0  0  0  0  0  0  0  0  0  0  0
    5.8184   -6.2791    4.5532 H   0  0  0  0  0  0  0  0  0  0  0  0
    5.8403   -7.9323    1.2810 H   0  0  0  0  0  0  0  0  0  0  0  0
    6.1021   -8.1485    3.0006 H   0  0  0  0  0  0  0  0  0  0  0  0
    7.1181   -7.0458    2.0941 H   0  0  0  0  0  0  0  0  0  0  0  0
    4.4024   -4.4352    1.6214 H   0  0  0  0  0  0  0  0  0  0  0  0
    6.6460   -5.7964    0.0959 H   0  0  0  0  0  0  0  0  0  0  0  0
    6.7083   -3.2244    1.6984 H   0  0  0  0  0  0  0  0  0  0  0  0
    7.9018   -3.6537    0.4778 H   0  0  0  0  0  0  0  0  0  0  0  0
    7.7338   -4.6615    1.8795 H   0  0  0  0  0  0  0  0  0  0  0  0
    6.6028   -3.8687   -1.4315 H   0  0  0  0  0  0  0  0  0  0  0  0
    5.1831   -4.8911   -1.5223 H   0  0  0  0  0  0  0  0  0  0  0  0
    4.8592   -2.4921    0.2818 H   0  0  0  0  0  0  0  0  0  0  0  0
    3.4874   -1.4819   -1.2655 H   0  0  0  0  0  0  0  0  0  0  0  0
    4.5991   -4.6870   -3.2530 H   0  0  0  0  0  0  0  0  0  0  0  0
    5.7458   -3.4294   -3.6297 H   0  0  0  0  0  0  0  0  0  0  0  0
    4.4976   -3.8333   -4.8034 H   0  0  0  0  0  0  0  0  0  0  0  0
    2.0447   -3.9166   -2.6768 H   0  0  0  0  0  0  0  0  0  0  0  0
    2.0780   -3.2970   -4.3208 H   0  0  0  0  0  0  0  0  0  0  0  0
    1.6358   -2.2581   -2.9749 H   0  0  0  0  0  0  0  0  0  0  0  0
    3.3043   -0.8607   -3.6256 H   0  0  0  0  0  0  0  0  0  0  0  0
    3.0743   -5.3860    0.0726 H   0  0  0  0  0  0  0  0  0  0  0  0
    4.2323   -6.6085   -0.4166 H   0  0  0  0  0  0  0  0  0  0  0  0
    2.0886   -7.1394    1.2721 H   0  0  0  0  0  0  0  0  0  0  0  0
    3.5101   -8.1259    1.0514 H   0  0  0  0  0  0  0  0  0  0  0  0
    3.7858   -7.7717    3.3464 H   0  0  0  0  0  0  0  0  0  0  0  0
  1  2  2  0
  1 31  1  0
  1 32  1  0
  2  9  1  0
  2  3  1  0
  3  4  2  0
  3  5  1  0
  5  6  1  0
  5 33  1  0
  5 34  1  0
  6  7  1  0
  6 35  1  0
  6 36  1  0
  7 13  1  0
  7  8  1  1
  7  9  1  0
  8 37  1  0
  8 38  1  0
  8 39  1  0
  9 10  1  0
  9 40  1  1
 10 11  1  0
 10 41  1  0
 10 42  1  0
 11 12  1  0
 11 43  1  0
 11 44  1  0
 12 30  1  0
 12 13  1  0
 12 45  1  6
 13 14  1  0
 13 46  1  1
 14 15  1  0
 14 47  1  0
 14 48  1  0
 15 16  1  0
 15 49  1  0
 15 50  1  0
 16 30  1  0
 16 17  1  6
 16 18  1  0
 17 51  1  0
 17 52  1  0
 17 53  1  0
 18 19  1  0
 18 28  1  0
 18 54  1  1
 19 20  1  0
 19 21  1  0
 19 55  1  6
 20 56  1  0
 20 57  1  0
 20 58  1  0
 21 22  1  0
 21 59  1  0
 21 60  1  0
 22 23  2  3
 22 61  1  0
 23 24  1  0
 23 62  1  0
 24 25  1  0
 24 26  1  0
 24 27  1  0
 25 63  1  0
 25 64  1  0
 25 65  1  0
 26 66  1  0
 26 67  1  0
 26 68  1  0
 27 69  1  0
 28 29  1  0
 28 70  1  0
 28 71  1  0
 29 30  1  0
 29 72  1  0
 29 73  1  0
 30 74  1  1
M  END
>  <i_m_ct_stereo_status>  (390) 
1

>  <s_m_source_file>  (390) 
/var/tmp/pbs.5076255.sched01/tmpbvzcvm50/120d7_yi5_y.sdf

>  <i_m_source_file_index>  (390) 
39

>  <i_lp_mmshare_version>  (390) 
48012

>  <i_f3d_flags>  (390) 
0

>  <s_epik_input>  (390) 
W0NIMl0xW0NIMl1DKD1PKUMoPVtDSDJdKVtDQEhdKFtDQF0xMltDSDNdKVtDSDJdW0NIMl1bQ0BIXTNbQ0BIXTJbQ0gyXVtDSDJdW0NAQF00KFtDSDNdKVtDQEBIXTNbQ0gyXVtDSDJdW0NAQEhdNFtDQEhdKFtDSDNdKVtDSDJdL1tDSF09W0NIXS9DKFtDSDNdKShbQ0gzXSlbT0hd

>  <s_epik_cmdline>  (390) 
J2VwaWtfcHl0aG9uJywgJy1waHQnLCAnMi4wJywgJy1waCcsICc3LjAnLCAnLXRuJywgJzgnLCAnLW1hJywgJzIwMCcsICctaW1hZScsICc8aW5maWxlLm1hZT4nLCAnLW9tYWUnLCAnPG91dGZpbGUubWFlPic=

>  <r_lp_tautomer_probability>  (390) 
1

>  <r_epik_Ionization_Penalty>  (390) 
1.61635e-07

>  <r_epik_Ionization_Penalty_Charging>  (390) 
0

>  <r_epik_Ionization_Penalty_Neutral>  (390) 
1.61635e-07

>  <r_epik_State_Penalty>  (390) 
-0

>  <r_epik_Charging_Adjusted_Penalty>  (390) 
0

>  <i_epik_Tot_Q>  (390) 
0

>  <i_epik_Tot_abs_Q>  (390) 
0

>  <s_lp_Force_Field>  (390) 
OPLS3e

>  <r_lp_Energy>  (390) 
53.6909

>  <b_lp_Chiralities_Consistent>  (390) 
1

>  <s_lp_Variant>  (390) 
115:0-2

>  <s_i_glide_gridfile>  (390) 
pfpi4k_grid

>  <i_i_glide_lignum>  (390) 
39

>  <i_i_glide_rotatable_bonds>  (390) 
5

>  <r_i_docking_score>  (390) 
-2.94707

>  <r_i_glide_ligand_efficiency>  (390) 
-0.0982358

>  <r_i_glide_ligand_efficiency_sa>  (390) 
-0.305241

>  <r_i_glide_ligand_efficiency_ln>  (390) 
-0.669607

>  <r_i_glide_gscore>  (390) 
-2.94707

>  <r_i_glide_lipo>  (390) 
-0.84995

>  <r_i_glide_hbond>  (390) 
0

>  <r_i_glide_metal>  (390) 
-0

>  <r_i_glide_rewards>  (390) 
-0.595583

>  <r_i_glide_evdw>  (390) 
-25.1315

>  <r_i_glide_ecoul>  (390) 
-4.57637

>  <r_i_glide_erotb>  (390) 
0.463263

>  <r_i_glide_esite>  (390) 
-0.0217737

>  <r_i_glide_emodel>  (390) 
-33.5509

>  <r_i_glide_energy>  (390) 
-29.7079

>  <r_i_glide_einternal>  (390) 
3.00421

>  <r_i_glide_intrahb_reward>  (390) 
-0

>  <i_i_glide_confnum>  (390) 
1

>  <i_i_glide_posenum>  (390) 
37

>  <r_i_glide_eff_state_penalty>  (390) 
0

>  <ligand_id>  (390) 
115

>  <original_smiles>  (390) 
C=C1C(=O)CCC2(C)C1CCC1C2CCC2(C)C(C(C)CC=CC(C)(C)O)CCC12

>  <smiles>  (390) 
[H]OC(C([H])=C([H])C([H])([H])C([H])(C([H])([H])[H])C1([H])C([H])([H])C([H])([H])C2([H])C3([H])C([H])([H])C([H])([H])C4([H])C(=C([H])[H])C(=O)C([H])([H])C([H])([H])C4(C([H])([H])[H])C3([H])C([H])([H])C([H])([H])C12C([H])([H])[H])(C([H])([H])[H])C([H])([H])[H]

$$$$
115:1:1
     RDKit          3D

 74 77  0  0  1  0  0  0  0  0999 V2000
   -0.5749   -5.5861    9.0724 C   0  0  0  0  0  0  0  0  0  0  0  0
   -0.1489   -5.2538    7.8402 C   0  0  0  0  0  0  0  0  0  0  0  0
   -0.7966   -4.1273    7.1347 C   0  0  0  0  0  0  0  0  0  0  0  0
   -1.9925   -3.8560    7.2360 O   0  0  0  0  0  0  0  0  0  0  0  0
    0.0903   -3.1966    6.3080 C   0  0  0  0  0  0  0  0  0  0  0  0
    1.2332   -3.9359    5.5872 C   0  0  0  0  0  0  0  0  0  0  0  0
    2.0343   -4.8884    6.5209 C   0  0  1  0  0  0  0  0  0  0  0  0
    2.6740   -4.0563    7.6651 C   0  0  0  0  0  0  0  0  0  0  0  0
    1.0421   -5.9187    7.1515 C   0  0  2  0  0  0  0  0  0  0  0  0
    0.5410   -6.9569    6.1265 C   0  0  0  0  0  0  0  0  0  0  0  0
    1.7081   -7.6788    5.4452 C   0  0  0  0  0  0  0  0  0  0  0  0
    2.6541   -6.6906    4.7250 C   0  0  1  0  0  0  0  0  0  0  0  0
    3.1754   -5.6645    5.7671 C   0  0  1  0  0  0  0  0  0  0  0  0
    4.2356   -4.7547    5.1212 C   0  0  0  0  0  0  0  0  0  0  0  0
    5.3913   -5.5878    4.5648 C   0  0  0  0  0  0  0  0  0  0  0  0
    4.9779   -6.5972    3.4650 C   0  0  2  0  0  0  0  0  0  0  0  0
    6.1950   -7.5152    3.1911 C   0  0  0  0  0  0  0  0  0  0  0  0
    4.4466   -5.9781    2.1308 C   0  0  1  0  0  0  0  0  0  0  0  0
    5.4613   -5.3969    1.0795 C   0  0  2  0  0  0  0  0  0  0  0  0
    6.3470   -4.2753    1.6691 C   0  0  0  0  0  0  0  0  0  0  0  0
    4.6964   -4.9151   -0.1813 C   0  0  0  0  0  0  0  0  0  0  0  0
    5.5128   -4.0991   -1.1780 C   0  0  0  0  0  0  0  0  0  0  0  0
    5.1025   -3.2047   -2.1009 C   0  0  0  0  0  0  0  0  0  0  0  0
    3.7043   -2.7302   -2.4815 C   0  0  0  0  0  0  0  0  0  0  0  0
    3.5380   -1.2503   -2.1002 C   0  0  0  0  0  0  0  0  0  0  0  0
    3.4632   -2.9416   -3.9818 C   0  0  0  0  0  0  0  0  0  0  0  0
    2.6876   -3.4550   -1.8312 O   0  0  0  0  0  0  0  0  0  0  0  0
    3.5182   -7.0727    1.5553 C   0  0  0  0  0  0  0  0  0  0  0  0
    3.2461   -8.0877    2.6753 C   0  0  0  0  0  0  0  0  0  0  0  0
    3.7858   -7.4609    3.9716 C   0  0  2  0  0  0  0  0  0  0  0  0
   -0.0905   -6.3690    9.6343 H   0  0  0  0  0  0  0  0  0  0  0  0
   -1.3920   -5.0618    9.5452 H   0  0  0  0  0  0  0  0  0  0  0  0
   -0.5274   -2.6725    5.5775 H   0  0  0  0  0  0  0  0  0  0  0  0
    0.5017   -2.4366    6.9770 H   0  0  0  0  0  0  0  0  0  0  0  0
    0.8027   -4.4826    4.7489 H   0  0  0  0  0  0  0  0  0  0  0  0
    1.8945   -3.1894    5.1438 H   0  0  0  0  0  0  0  0  0  0  0  0
    3.3640   -4.6610    8.2558 H   0  0  0  0  0  0  0  0  0  0  0  0
    1.9332   -3.6539    8.3574 H   0  0  0  0  0  0  0  0  0  0  0  0
    3.2244   -3.1997    7.2756 H   0  0  0  0  0  0  0  0  0  0  0  0
    1.5801   -6.4683    7.9267 H   0  0  0  0  0  0  0  0  0  0  0  0
   -0.0907   -7.6956    6.6241 H   0  0  0  0  0  0  0  0  0  0  0  0
   -0.0848   -6.4846    5.3671 H   0  0  0  0  0  0  0  0  0  0  0  0
    2.2653   -8.2417    6.1990 H   0  0  0  0  0  0  0  0  0  0  0  0
    1.3078   -8.4213    4.7526 H   0  0  0  0  0  0  0  0  0  0  0  0
    2.0826   -6.1530    3.9696 H   0  0  0  0  0  0  0  0  0  0  0  0
    3.6982   -6.2371    6.5347 H   0  0  0  0  0  0  0  0  0  0  0  0
    3.8027   -4.1333    4.3379 H   0  0  0  0  0  0  0  0  0  0  0  0
    4.6553   -4.0725    5.8601 H   0  0  0  0  0  0  0  0  0  0  0  0
    6.1749   -4.9163    4.2321 H   0  0  0  0  0  0  0  0  0  0  0  0
    5.8329   -6.1419    5.3942 H   0  0  0  0  0  0  0  0  0  0  0  0
    6.0055   -8.2229    2.3840 H   0  0  0  0  0  0  0  0  0  0  0  0
    6.4547   -8.0968    4.0760 H   0  0  0  0  0  0  0  0  0  0  0  0
    7.0796   -6.9414    2.9165 H   0  0  0  0  0  0  0  0  0  0  0  0
    3.7836   -5.1590    2.4029 H   0  0  0  0  0  0  0  0  0  0  0  0
    6.1284   -6.1966    0.7502 H   0  0  0  0  0  0  0  0  0  0  0  0
    5.7439   -3.5219    2.1782 H   0  0  0  0  0  0  0  0  0  0  0  0
    6.9620   -3.7588    0.9327 H   0  0  0  0  0  0  0  0  0  0  0  0
    7.0638   -4.6931    2.3699 H   0  0  0  0  0  0  0  0  0  0  0  0
    4.3103   -5.7910   -0.7051 H   0  0  0  0  0  0  0  0  0  0  0  0
    3.8370   -4.3302    0.1461 H   0  0  0  0  0  0  0  0  0  0  0  0
    6.5798   -4.2504   -1.1437 H   0  0  0  0  0  0  0  0  0  0  0  0
    5.8778   -2.7355   -2.6833 H   0  0  0  0  0  0  0  0  0  0  0  0
    4.2779   -0.6195   -2.5916 H   0  0  0  0  0  0  0  0  0  0  0  0
    3.6415   -1.1108   -1.0242 H   0  0  0  0  0  0  0  0  0  0  0  0
    2.5530   -0.8856   -2.3838 H   0  0  0  0  0  0  0  0  0  0  0  0
    4.2012   -2.4026   -4.5735 H   0  0  0  0  0  0  0  0  0  0  0  0
    2.4704   -2.5871   -4.2688 H   0  0  0  0  0  0  0  0  0  0  0  0
    3.5263   -4.0013   -4.2412 H   0  0  0  0  0  0  0  0  0  0  0  0
    2.7647   -4.3726   -2.0868 H   0  0  0  0  0  0  0  0  0  0  0  0
    2.5869   -6.6281    1.1977 H   0  0  0  0  0  0  0  0  0  0  0  0
    3.9741   -7.5911    0.7103 H   0  0  0  0  0  0  0  0  0  0  0  0
    2.1933   -8.3671    2.7236 H   0  0  0  0  0  0  0  0  0  0  0  0
    3.7944   -9.0059    2.4603 H   0  0  0  0  0  0  0  0  0  0  0  0
    4.1622   -8.2404    4.6369 H   0  0  0  0  0  0  0  0  0  0  0  0
  1  2  2  0
  1 31  1  0
  1 32  1  0
  2  9  1  0
  2  3  1  0
  3  4  2  0
  3  5  1  0
  5  6  1  0
  5 33  1  0
  5 34  1  0
  6  7  1  0
  6 35  1  0
  6 36  1  0
  7 13  1  0
  7  8  1  1
  7  9  1  0
  8 37  1  0
  8 38  1  0
  8 39  1  0
  9 10  1  0
  9 40  1  1
 10 11  1  0
 10 41  1  0
 10 42  1  0
 11 12  1  0
 11 43  1  0
 11 44  1  0
 12 30  1  0
 12 13  1  0
 12 45  1  6
 13 14  1  0
 13 46  1  1
 14 15  1  0
 14 47  1  0
 14 48  1  0
 15 16  1  0
 15 49  1  0
 15 50  1  0
 16 30  1  0
 16 17  1  6
 16 18  1  0
 17 51  1  0
 17 52  1  0
 17 53  1  0
 18 19  1  0
 18 28  1  0
 18 54  1  1
 19 20  1  0
 19 21  1  0
 19 55  1  6
 20 56  1  0
 20 57  1  0
 20 58  1  0
 21 22  1  0
 21 59  1  0
 21 60  1  0
 22 23  2  3
 22 61  1  0
 23 24  1  0
 23 62  1  0
 24 25  1  0
 24 26  1  0
 24 27  1  0
 25 63  1  0
 25 64  1  0
 25 65  1  0
 26 66  1  0
 26 67  1  0
 26 68  1  0
 27 69  1  0
 28 29  1  0
 28 70  1  0
 28 71  1  0
 29 30  1  0
 29 72  1  0
 29 73  1  0
 30 74  1  1
M  END
>  <i_m_ct_stereo_status>  (391) 
1

>  <s_m_source_file>  (391) 
/var/tmp/pbs.5076255.sched01/tmpbvzcvm50/120d7_yi5_y.sdf

>  <i_m_source_file_index>  (391) 
39

>  <i_lp_mmshare_version>  (391) 
48012

>  <i_f3d_flags>  (391) 
0

>  <s_epik_input>  (391) 
W0NIMl0xW0NIMl1DKD1PKUMoPVtDSDJdKVtDQEhdKFtDQF0xMltDSDNdKVtDSDJdW0NIMl1bQ0BIXTNbQ0BIXTJbQ0gyXVtDSDJdW0NAQF00KFtDSDNdKVtDQEBIXTNbQ0gyXVtDSDJdW0NAQEhdNFtDQEhdKFtDSDNdKVtDSDJdL1tDSF09W0NIXS9DKFtDSDNdKShbQ0gzXSlbT0hd

>  <s_epik_cmdline>  (391) 
J2VwaWtfcHl0aG9uJywgJy1waHQnLCAnMi4wJywgJy1waCcsICc3LjAnLCAnLXRuJywgJzgnLCAnLW1hJywgJzIwMCcsICctaW1hZScsICc8aW5maWxlLm1hZT4nLCAnLW9tYWUnLCAnPG91dGZpbGUubWFlPic=

>  <r_lp_tautomer_probability>  (391) 
1

>  <r_epik_Ionization_Penalty>  (391) 
1.61635e-07

>  <r_epik_Ionization_Penalty_Charging>  (391) 
0

>  <r_epik_Ionization_Penalty_Neutral>  (391) 
1.61635e-07

>  <r_epik_State_Penalty>  (391) 
-0

>  <r_epik_Charging_Adjusted_Penalty>  (391) 
0

>  <i_epik_Tot_Q>  (391) 
0

>  <i_epik_Tot_abs_Q>  (391) 
0

>  <s_lp_Force_Field>  (391) 
OPLS3e

>  <r_lp_Energy>  (391) 
53.6909

>  <b_lp_Chiralities_Consistent>  (391) 
1

>  <s_lp_Variant>  (391) 
115:0-2

>  <s_i_glide_gridfile>  (391) 
pfpi4k_grid

>  <i_i_glide_lignum>  (391) 
39

>  <i_i_glide_rotatable_bonds>  (391) 
5

>  <r_i_docking_score>  (391) 
-2.41141

>  <r_i_glide_ligand_efficiency>  (391) 
-0.0803802

>  <r_i_glide_ligand_efficiency_sa>  (391) 
-0.24976

>  <r_i_glide_ligand_efficiency_ln>  (391) 
-0.547898

>  <r_i_glide_gscore>  (391) 
-2.41141

>  <r_i_glide_lipo>  (391) 
-0.436161

>  <r_i_glide_hbond>  (391) 
-0.326755

>  <r_i_glide_metal>  (391) 
-0

>  <r_i_glide_rewards>  (391) 
-0.595583

>  <r_i_glide_evdw>  (391) 
-21.6022

>  <r_i_glide_ecoul>  (391) 
-2.74023

>  <r_i_glide_erotb>  (391) 
0.463263

>  <r_i_glide_esite>  (391) 
-0.025027

>  <r_i_glide_emodel>  (391) 
-27.2744

>  <r_i_glide_energy>  (391) 
-24.3424

>  <r_i_glide_einternal>  (391) 
3.01957

>  <r_i_glide_intrahb_reward>  (391) 
-0

>  <i_i_glide_confnum>  (391) 
1

>  <i_i_glide_posenum>  (391) 
23

>  <r_i_glide_eff_state_penalty>  (391) 
0

>  <ligand_id>  (391) 
115

>  <original_smiles>  (391) 
C=C1C(=O)CCC2(C)C1CCC1C2CCC2(C)C(C(C)CC=CC(C)(C)O)CCC12

>  <smiles>  (391) 
[H]OC(C([H])=C([H])C([H])([H])C([H])(C([H])([H])[H])C1([H])C([H])([H])C([H])([H])C2([H])C3([H])C([H])([H])C([H])([H])C4([H])C(=C([H])[H])C(=O)C([H])([H])C([H])([H])C4(C([H])([H])[H])C3([H])C([H])([H])C([H])([H])C12C([H])([H])[H])(C([H])([H])[H])C([H])([H])[H]

$$$$
115:1:2
     RDKit          3D

 74 77  0  0  1  0  0  0  0  0999 V2000
    2.4273  -11.4225    3.3864 C   0  0  0  0  0  0  0  0  0  0  0  0
    2.2047  -10.1137    3.1502 C   0  0  0  0  0  0  0  0  0  0  0  0
    0.8555   -9.5520    3.3735 C   0  0  0  0  0  0  0  0  0  0  0  0
   -0.1815  -10.1629    3.1249 O   0  0  0  0  0  0  0  0  0  0  0  0
    0.7567   -8.1465    3.9752 C   0  0  0  0  0  0  0  0  0  0  0  0
    1.8443   -7.1953    3.4410 C   0  0  0  0  0  0  0  0  0  0  0  0
    3.2748   -7.8004    3.5140 C   0  0  1  0  0  0  0  0  0  0  0  0
    3.6240   -8.1114    4.9924 C   0  0  0  0  0  0  0  0  0  0  0  0
    3.2949   -9.1422    2.7041 C   0  0  2  0  0  0  0  0  0  0  0  0
    3.2084   -8.9080    1.1841 C   0  0  0  0  0  0  0  0  0  0  0  0
    4.3173   -7.9745    0.6974 C   0  0  0  0  0  0  0  0  0  0  0  0
    4.2575   -6.5997    1.4038 C   0  0  1  0  0  0  0  0  0  0  0  0
    4.3734   -6.8338    2.9353 C   0  0  1  0  0  0  0  0  0  0  0  0
    4.4742   -5.4794    3.6653 C   0  0  0  0  0  0  0  0  0  0  0  0
    5.6760   -4.6806    3.1534 C   0  0  0  0  0  0  0  0  0  0  0  0
    5.6147   -4.3429    1.6415 C   0  0  2  0  0  0  0  0  0  0  0  0
    6.9829   -3.7762    1.2009 C   0  0  0  0  0  0  0  0  0  0  0  0
    4.4661   -3.3759    1.2076 C   0  0  1  0  0  0  0  0  0  0  0  0
    4.6191   -1.8295    1.4322 C   0  0  2  0  0  0  0  0  0  0  0  0
    4.9207   -1.4631    2.9014 C   0  0  0  0  0  0  0  0  0  0  0  0
    3.3315   -1.1084    0.9619 C   0  0  0  0  0  0  0  0  0  0  0  0
    3.3030    0.3986    1.2438 C   0  0  0  0  0  0  0  0  0  0  0  0
    2.3818    1.1493    1.8993 C   0  0  0  0  0  0  0  0  0  0  0  0
    1.0543    0.7451    2.5352 C   0  0  0  0  0  0  0  0  0  0  0  0
    1.1958    0.6400    4.0603 C   0  0  0  0  0  0  0  0  0  0  0  0
   -0.0663    1.7307    2.1617 C   0  0  0  0  0  0  0  0  0  0  0  0
    0.6247   -0.5055    2.0781 O   0  0  0  0  0  0  0  0  0  0  0  0
    4.2056   -3.7439   -0.2682 C   0  0  0  0  0  0  0  0  0  0  0  0
    4.9245   -5.0707   -0.5293 C   0  0  0  0  0  0  0  0  0  0  0  0
    5.3471   -5.6375    0.8314 C   0  0  2  0  0  0  0  0  0  0  0  0
    3.4037  -11.8602    3.2462 H   0  0  0  0  0  0  0  0  0  0  0  0
    1.6420  -12.0752    3.7353 H   0  0  0  0  0  0  0  0  0  0  0  0
   -0.2314   -7.7473    3.7567 H   0  0  0  0  0  0  0  0  0  0  0  0
    0.8291   -8.2362    5.0597 H   0  0  0  0  0  0  0  0  0  0  0  0
    1.5847   -6.9294    2.4169 H   0  0  0  0  0  0  0  0  0  0  0  0
    1.7912   -6.2686    4.0085 H   0  0  0  0  0  0  0  0  0  0  0  0
    4.6684   -8.3971    5.1010 H   0  0  0  0  0  0  0  0  0  0  0  0
    3.0279   -8.9299    5.3965 H   0  0  0  0  0  0  0  0  0  0  0  0
    3.4370   -7.2520    5.6361 H   0  0  0  0  0  0  0  0  0  0  0  0
    4.2508   -9.6361    2.9004 H   0  0  0  0  0  0  0  0  0  0  0  0
    3.2873   -9.8607    0.6628 H   0  0  0  0  0  0  0  0  0  0  0  0
    2.2380   -8.5035    0.8992 H   0  0  0  0  0  0  0  0  0  0  0  0
    5.2881   -8.4410    0.8799 H   0  0  0  0  0  0  0  0  0  0  0  0
    4.2418   -7.8540   -0.3790 H   0  0  0  0  0  0  0  0  0  0  0  0
    3.2913   -6.1420    1.1943 H   0  0  0  0  0  0  0  0  0  0  0  0
    5.3283   -7.3363    3.0981 H   0  0  0  0  0  0  0  0  0  0  0  0
    3.5567   -4.9051    3.5578 H   0  0  0  0  0  0  0  0  0  0  0  0
    4.6179   -5.6366    4.7323 H   0  0  0  0  0  0  0  0  0  0  0  0
    5.7918   -3.7925    3.7665 H   0  0  0  0  0  0  0  0  0  0  0  0
    6.5723   -5.2715    3.3410 H   0  0  0  0  0  0  0  0  0  0  0  0
    7.0069   -3.4812    0.1503 H   0  0  0  0  0  0  0  0  0  0  0  0
    7.7882   -4.4960    1.3662 H   0  0  0  0  0  0  0  0  0  0  0  0
    7.2116   -2.8739    1.7464 H   0  0  0  0  0  0  0  0  0  0  0  0
    3.5689   -3.6874    1.7429 H   0  0  0  0  0  0  0  0  0  0  0  0
    5.4479   -1.4532    0.8251 H   0  0  0  0  0  0  0  0  0  0  0  0
    4.2318   -1.9573    3.5891 H   0  0  0  0  0  0  0  0  0  0  0  0
    4.8612   -0.3927    3.0991 H   0  0  0  0  0  0  0  0  0  0  0  0
    5.9349   -1.7367    3.1736 H   0  0  0  0  0  0  0  0  0  0  0  0
    3.2044   -1.2191   -0.1190 H   0  0  0  0  0  0  0  0  0  0  0  0
    2.5103   -1.6542    1.4144 H   0  0  0  0  0  0  0  0  0  0  0  0
    4.1567    0.9357    0.8555 H   0  0  0  0  0  0  0  0  0  0  0  0
    2.5876    2.2077    1.9926 H   0  0  0  0  0  0  0  0  0  0  0  0
    1.5190    1.5867    4.4957 H   0  0  0  0  0  0  0  0  0  0  0  0
    1.9283   -0.1206    4.3226 H   0  0  0  0  0  0  0  0  0  0  0  0
    0.2489    0.3646    4.5210 H   0  0  0  0  0  0  0  0  0  0  0  0
    0.1671    2.7485    2.4809 H   0  0  0  0  0  0  0  0  0  0  0  0
   -1.0126    1.4565    2.6273 H   0  0  0  0  0  0  0  0  0  0  0  0
   -0.2263    1.7490    1.0855 H   0  0  0  0  0  0  0  0  0  0  0  0
    0.6493   -0.4807    1.1154 H   0  0  0  0  0  0  0  0  0  0  0  0
    3.1355   -3.8275   -0.4628 H   0  0  0  0  0  0  0  0  0  0  0  0
    4.5957   -2.9845   -0.9473 H   0  0  0  0  0  0  0  0  0  0  0  0
    4.3204   -5.7605   -1.1023 H   0  0  0  0  0  0  0  0  0  0  0  0
    5.8136   -4.8610   -1.1171 H   0  0  0  0  0  0  0  0  0  0  0  0
    6.2749   -6.2013    0.7298 H   0  0  0  0  0  0  0  0  0  0  0  0
  1  2  2  0
  1 31  1  0
  1 32  1  0
  2  9  1  0
  2  3  1  0
  3  4  2  0
  3  5  1  0
  5  6  1  0
  5 33  1  0
  5 34  1  0
  6  7  1  0
  6 35  1  0
  6 36  1  0
  7 13  1  0
  7  8  1  1
  7  9  1  0
  8 37  1  0
  8 38  1  0
  8 39  1  0
  9 10  1  0
  9 40  1  6
 10 11  1  0
 10 41  1  0
 10 42  1  0
 11 12  1  0
 11 43  1  0
 11 44  1  0
 12 30  1  0
 12 13  1  0
 12 45  1  1
 13 14  1  0
 13 46  1  6
 14 15  1  0
 14 47  1  0
 14 48  1  0
 15 16  1  0
 15 49  1  0
 15 50  1  0
 16 30  1  0
 16 17  1  6
 16 18  1  0
 17 51  1  0
 17 52  1  0
 17 53  1  0
 18 19  1  0
 18 28  1  0
 18 54  1  1
 19 20  1  0
 19 21  1  0
 19 55  1  6
 20 56  1  0
 20 57  1  0
 20 58  1  0
 21 22  1  0
 21 59  1  0
 21 60  1  0
 22 23  2  3
 22 61  1  0
 23 24  1  0
 23 62  1  0
 24 25  1  0
 24 26  1  0
 24 27  1  0
 25 63  1  0
 25 64  1  0
 25 65  1  0
 26 66  1  0
 26 67  1  0
 26 68  1  0
 27 69  1  0
 28 29  1  0
 28 70  1  0
 28 71  1  0
 29 30  1  0
 29 72  1  0
 29 73  1  0
 30 74  1  6
M  END
>  <i_m_ct_stereo_status>  (392) 
1

>  <s_m_source_file>  (392) 
/var/tmp/pbs.5076255.sched01/tmpbvzcvm50/120d7_yi5_y.sdf

>  <i_m_source_file_index>  (392) 
39

>  <i_lp_mmshare_version>  (392) 
48012

>  <i_f3d_flags>  (392) 
0

>  <s_epik_input>  (392) 
W0NIMl0xW0NIMl1DKD1PKUMoPVtDSDJdKVtDQEhdKFtDQF0xMltDSDNdKVtDSDJdW0NIMl1bQ0BIXTNbQ0BIXTJbQ0gyXVtDSDJdW0NAQF00KFtDSDNdKVtDQEBIXTNbQ0gyXVtDSDJdW0NAQEhdNFtDQEhdKFtDSDNdKVtDSDJdL1tDSF09W0NIXS9DKFtDSDNdKShbQ0gzXSlbT0hd

>  <s_epik_cmdline>  (392) 
J2VwaWtfcHl0aG9uJywgJy1waHQnLCAnMi4wJywgJy1waCcsICc3LjAnLCAnLXRuJywgJzgnLCAnLW1hJywgJzIwMCcsICctaW1hZScsICc8aW5maWxlLm1hZT4nLCAnLW9tYWUnLCAnPG91dGZpbGUubWFlPic=

>  <r_lp_tautomer_probability>  (392) 
1

>  <r_epik_Ionization_Penalty>  (392) 
1.61635e-07

>  <r_epik_Ionization_Penalty_Charging>  (392) 
0

>  <r_epik_Ionization_Penalty_Neutral>  (392) 
1.61635e-07

>  <r_epik_State_Penalty>  (392) 
-0

>  <r_epik_Charging_Adjusted_Penalty>  (392) 
0

>  <i_epik_Tot_Q>  (392) 
0

>  <i_epik_Tot_abs_Q>  (392) 
0

>  <s_lp_Force_Field>  (392) 
OPLS3e

>  <r_lp_Energy>  (392) 
53.6909

>  <b_lp_Chiralities_Consistent>  (392) 
1

>  <s_lp_Variant>  (392) 
115:0-2

>  <s_i_glide_gridfile>  (392) 
pfpi4k_grid

>  <i_i_glide_lignum>  (392) 
39

>  <i_i_glide_rotatable_bonds>  (392) 
5

>  <r_i_docking_score>  (392) 
-2.19009

>  <r_i_glide_ligand_efficiency>  (392) 
-0.073003

>  <r_i_glide_ligand_efficiency_sa>  (392) 
-0.226837

>  <r_i_glide_ligand_efficiency_ln>  (392) 
-0.497613

>  <r_i_glide_gscore>  (392) 
-2.19009

>  <r_i_glide_lipo>  (392) 
-0.595515

>  <r_i_glide_hbond>  (392) 
-0.163048

>  <r_i_glide_metal>  (392) 
-0

>  <r_i_glide_rewards>  (392) 
-0.595583

>  <r_i_glide_evdw>  (392) 
-22.1462

>  <r_i_glide_ecoul>  (392) 
-1.20906

>  <r_i_glide_erotb>  (392) 
0.463263

>  <r_i_glide_esite>  (392) 
-0.0105392

>  <r_i_glide_emodel>  (392) 
-26.5698

>  <r_i_glide_energy>  (392) 
-23.3552

>  <r_i_glide_einternal>  (392) 
1.65531

>  <r_i_glide_intrahb_reward>  (392) 
-0

>  <i_i_glide_confnum>  (392) 
1

>  <i_i_glide_posenum>  (392) 
12

>  <r_i_glide_eff_state_penalty>  (392) 
0

>  <ligand_id>  (392) 
115

>  <original_smiles>  (392) 
C=C1C(=O)CCC2(C)C1CCC1C2CCC2(C)C(C(C)CC=CC(C)(C)O)CCC12

>  <smiles>  (392) 
[H]OC(C([H])=C([H])C([H])([H])C([H])(C([H])([H])[H])C1([H])C([H])([H])C([H])([H])C2([H])C3([H])C([H])([H])C([H])([H])C4([H])C(=C([H])[H])C(=O)C([H])([H])C([H])([H])C4(C([H])([H])[H])C3([H])C([H])([H])C([H])([H])C12C([H])([H])[H])(C([H])([H])[H])C([H])([H])[H]

$$$$
116:0:0
     RDKit          3D

 38 41  0  0  1  0  0  0  0  0999 V2000
    6.1356   -4.4530    0.6787 C   0  0  0  0  0  0  0  0  0  0  0  0
    5.0623   -3.3484    0.5098 C   0  0  2  0  0  0  0  0  0  0  0  0
    5.0557   -2.5130    1.8172 C   0  0  1  0  0  0  0  0  0  0  0  0
    4.0903   -1.3180    1.8440 C   0  0  0  0  0  0  0  0  0  0  0  0
    2.7441   -2.0041    2.0163 C   0  0  0  0  0  0  0  0  0  0  0  0
    3.1329   -3.4912    1.9607 C   0  0  2  0  0  0  0  0  0  0  0  0
    4.3550   -3.4053    2.6697 O   0  0  0  0  0  0  0  0  0  0  0  0
    3.6428   -3.9929    0.5862 C   0  0  1  0  0  0  0  0  0  0  0  0
    2.6391   -3.7815   -0.5827 C   0  0  0  0  0  0  0  0  0  0  0  0
    3.3069   -3.3730   -1.8332 N   0  0  1  0  0  0  0  0  0  0  0  0
    2.4161   -3.0559   -2.9709 C   0  0  0  0  0  0  0  0  0  0  0  0
    3.1830   -2.0508   -3.8389 C   0  0  0  0  0  0  0  0  0  0  0  0
    4.4674   -1.7404   -3.0712 C   0  0  0  0  0  0  0  0  0  0  0  0
    4.1671   -2.2017   -1.6436 C   0  0  2  0  0  0  0  0  0  0  0  0
    5.3998   -2.5925   -0.8179 C   0  0  1  0  0  0  0  0  0  0  0  0
    6.2140   -1.4581   -0.5919 O   0  0  0  0  0  0  0  0  0  0  0  0
    7.1378   -4.0227    0.7060 H   0  0  0  0  0  0  0  0  0  0  0  0
    6.1046   -5.1726   -0.1412 H   0  0  0  0  0  0  0  0  0  0  0  0
    6.0010   -5.0162    1.6031 H   0  0  0  0  0  0  0  0  0  0  0  0
    6.0533   -2.2667    2.1830 H   0  0  0  0  0  0  0  0  0  0  0  0
    4.2978   -0.6857    2.7082 H   0  0  0  0  0  0  0  0  0  0  0  0
    4.1348   -0.6914    0.9568 H   0  0  0  0  0  0  0  0  0  0  0  0
    2.3444   -1.7729    3.0051 H   0  0  0  0  0  0  0  0  0  0  0  0
    1.9995   -1.6892    1.2871 H   0  0  0  0  0  0  0  0  0  0  0  0
    2.4023   -4.1485    2.4327 H   0  0  0  0  0  0  0  0  0  0  0  0
    3.7773   -5.0717    0.6752 H   0  0  0  0  0  0  0  0  0  0  0  0
    2.0944   -4.7070   -0.7623 H   0  0  0  0  0  0  0  0  0  0  0  0
    1.8778   -3.0470   -0.3402 H   0  0  0  0  0  0  0  0  0  0  0  0
    2.1747   -3.9535   -3.5385 H   0  0  0  0  0  0  0  0  0  0  0  0
    1.4818   -2.6144   -2.6266 H   0  0  0  0  0  0  0  0  0  0  0  0
    3.4133   -2.4730   -4.8149 H   0  0  0  0  0  0  0  0  0  0  0  0
    2.5911   -1.1470   -3.9998 H   0  0  0  0  0  0  0  0  0  0  0  0
    5.2899   -2.3221   -3.4994 H   0  0  0  0  0  0  0  0  0  0  0  0
    4.7251   -0.6812   -3.1179 H   0  0  0  0  0  0  0  0  0  0  0  0
    3.5793   -1.4229   -1.1473 H   0  0  0  0  0  0  0  0  0  0  0  0
    5.9895   -3.2619   -1.4465 H   0  0  0  0  0  0  0  0  0  0  0  0
    5.7539   -0.8724   -0.0083 H   0  0  0  0  0  0  0  0  0  0  0  0
    3.8829   -4.1459   -2.1417 H   0  0  0  0  0  0  0  0  0  0  0  0
  2  1  1  1
  1 17  1  0
  1 18  1  0
  1 19  1  0
  2  8  1  0
  2 15  1  0
  2  3  1  0
  3  7  1  0
  3  4  1  0
  3 20  1  1
  4  5  1  0
  4 21  1  0
  4 22  1  0
  5  6  1  0
  5 23  1  0
  5 24  1  0
  6  7  1  0
  6  8  1  0
  6 25  1  1
  8  9  1  0
  8 26  1  1
  9 10  1  0
  9 27  1  0
  9 28  1  0
 10 14  1  0
 10 11  1  0
 10 38  1  6
 11 12  1  0
 11 29  1  0
 11 30  1  0
 12 13  1  0
 12 31  1  0
 12 32  1  0
 13 14  1  0
 13 33  1  0
 13 34  1  0
 14 15  1  0
 14 35  1  1
 15 16  1  0
 15 36  1  6
 16 37  1  0
M  CHG  1  10   1
M  END
>  <i_m_ct_stereo_status>  (393) 
1

>  <s_m_source_file>  (393) 
/var/tmp/pbs.5076255.sched01/tmpbvzcvm50/120d7_yi5_y.sdf

>  <i_m_source_file_index>  (393) 
40

>  <i_lp_mmshare_version>  (393) 
48012

>  <i_f3d_flags>  (393) 
0

>  <s_epik_input>  (393) 
W0NIM11bQ0BdMTJbQ0BIXTNbQ0gyXVtDSDJdW0NASF0oTzMpW0NASF0xW0NIMl1ONFtDQEBIXShbQ0BIXTJbT0hdKVtDSDJdW0NIMl1bQ0gyXTQ=

>  <s_epik_cmdline>  (393) 
J2VwaWtfcHl0aG9uJywgJy1waHQnLCAnMi4wJywgJy1waCcsICc3LjAnLCAnLXRuJywgJzgnLCAnLW1hJywgJzIwMCcsICctaW1hZScsICc8aW5maWxlLm1hZT4nLCAnLW9tYWUnLCAnPG91dGZpbGUubWFlPic=

>  <r_epik_Ionization_Penalty>  (393) 
0.000372766

>  <r_epik_Ionization_Penalty_Charging>  (393) 
0.00037274

>  <r_epik_Ionization_Penalty_Neutral>  (393) 
2.63586e-08

>  <r_epik_State_Penalty>  (393) 
0.000227366

>  <r_epik_Charging_Adjusted_Penalty>  (393) 
0.000600106

>  <i_epik_Tot_Q>  (393) 
1

>  <i_epik_Tot_abs_Q>  (393) 
1

>  <s_lp_Force_Field>  (393) 
OPLS3e

>  <r_lp_Energy>  (393) 
45.2179

>  <b_lp_Chiralities_Consistent>  (393) 
1

>  <s_lp_Variant>  (393) 
116:0-1

>  <s_i_glide_gridfile>  (393) 
pfpi4k_grid

>  <i_i_glide_lignum>  (393) 
40

>  <i_i_glide_rotatable_bonds>  (393) 
1

>  <r_i_docking_score>  (393) 
-4.53199

>  <r_i_glide_ligand_efficiency>  (393) 
-0.283249

>  <r_i_glide_ligand_efficiency_sa>  (393) 
-0.713744

>  <r_i_glide_ligand_efficiency_ln>  (393) 
-1.20129

>  <r_i_glide_gscore>  (393) 
-4.53199

>  <r_i_glide_lipo>  (393) 
-0.488765

>  <r_i_glide_hbond>  (393) 
-0.1016

>  <r_i_glide_metal>  (393) 
-0

>  <r_i_glide_rewards>  (393) 
-1.87964

>  <r_i_glide_evdw>  (393) 
-20.6504

>  <r_i_glide_ecoul>  (393) 
-6.8631

>  <r_i_glide_erotb>  (393) 
0

>  <r_i_glide_esite>  (393) 
0

>  <r_i_glide_emodel>  (393) 
-36.3378

>  <r_i_glide_energy>  (393) 
-27.5135

>  <r_i_glide_einternal>  (393) 
0.0101688

>  <r_i_glide_intrahb_reward>  (393) 
-0

>  <i_i_glide_confnum>  (393) 
2

>  <i_i_glide_posenum>  (393) 
36

>  <r_i_glide_eff_state_penalty>  (393) 
0

>  <ligand_id>  (393) 
116

>  <original_smiles>  (393) 
CC12C3CCC(O3)C1CN1CCCC1C2O

>  <smiles>  (393) 
[H]OC1([H])C2(C([H])([H])[H])C3([H])OC([H])(C([H])([H])C3([H])[H])C2([H])C([H])([H])[N+]2([H])C([H])([H])C([H])([H])C([H])([H])C12[H]

$$$$
116:0:1
     RDKit          3D

 38 41  0  0  1  0  0  0  0  0999 V2000
    6.0813   -4.8429    0.5858 C   0  0  0  0  0  0  0  0  0  0  0  0
    5.1479   -3.6135    0.4673 C   0  0  2  0  0  0  0  0  0  0  0  0
    5.3023   -2.7936    1.7752 C   0  0  1  0  0  0  0  0  0  0  0  0
    4.4957   -1.4893    1.8496 C   0  0  0  0  0  0  0  0  0  0  0  0
    3.0834   -2.0055    2.0811 C   0  0  0  0  0  0  0  0  0  0  0  0
    3.2816   -3.5295    2.0027 C   0  0  2  0  0  0  0  0  0  0  0  0
    4.5359   -3.6005    2.6565 O   0  0  0  0  0  0  0  0  0  0  0  0
    3.6647   -4.0796    0.6054 C   0  0  1  0  0  0  0  0  0  0  0  0
    2.6478   -3.7343   -0.5173 C   0  0  0  0  0  0  0  0  0  0  0  0
    3.3056   -3.4126   -1.7938 N   0  0  1  0  0  0  0  0  0  0  0  0
    2.4129   -2.9877   -2.8907 C   0  0  0  0  0  0  0  0  0  0  0  0
    3.2505   -2.0662   -3.7855 C   0  0  0  0  0  0  0  0  0  0  0  0
    4.5974   -1.9167   -3.0743 C   0  0  0  0  0  0  0  0  0  0  0  0
    4.3094   -2.3511   -1.6389 C   0  0  2  0  0  0  0  0  0  0  0  0
    5.5197   -2.8947   -0.8720 C   0  0  1  0  0  0  0  0  0  0  0  0
    6.4805   -1.8711   -0.6754 O   0  0  0  0  0  0  0  0  0  0  0  0
    7.1324   -4.5470    0.5694 H   0  0  0  0  0  0  0  0  0  0  0  0
    5.9186   -5.5457   -0.2338 H   0  0  0  0  0  0  0  0  0  0  0  0
    5.9159   -5.3929    1.5141 H   0  0  0  0  0  0  0  0  0  0  0  0
    6.3383   -2.6734    2.0928 H   0  0  0  0  0  0  0  0  0  0  0  0
    4.8186   -0.8956    2.7057 H   0  0  0  0  0  0  0  0  0  0  0  0
    4.5885   -0.8695    0.9606 H   0  0  0  0  0  0  0  0  0  0  0  0
    2.7598   -1.7360    3.0877 H   0  0  0  0  0  0  0  0  0  0  0  0
    2.3500   -1.5936    1.3880 H   0  0  0  0  0  0  0  0  0  0  0  0
    2.4969   -4.0958    2.5051 H   0  0  0  0  0  0  0  0  0  0  0  0
    3.6694   -5.1675    0.6851 H   0  0  0  0  0  0  0  0  0  0  0  0
    1.9832   -4.5826   -0.6811 H   0  0  0  0  0  0  0  0  0  0  0  0
    2.0074   -2.9029   -0.2360 H   0  0  0  0  0  0  0  0  0  0  0  0
    2.0229   -3.8440   -3.4400 H   0  0  0  0  0  0  0  0  0  0  0  0
    1.5653   -2.4263   -2.4987 H   0  0  0  0  0  0  0  0  0  0  0  0
    3.3847   -2.4984   -4.7749 H   0  0  0  0  0  0  0  0  0  0  0  0
    2.7536   -1.0999   -3.9053 H   0  0  0  0  0  0  0  0  0  0  0  0
    5.3286   -2.5930   -3.5273 H   0  0  0  0  0  0  0  0  0  0  0  0
    4.9850   -0.8971   -3.1257 H   0  0  0  0  0  0  0  0  0  0  0  0
    3.8524   -1.5093   -1.1116 H   0  0  0  0  0  0  0  0  0  0  0  0
    5.9981   -3.6264   -1.5268 H   0  0  0  0  0  0  0  0  0  0  0  0
    7.1694   -2.2257   -0.1309 H   0  0  0  0  0  0  0  0  0  0  0  0
    3.7715   -4.2474   -2.1238 H   0  0  0  0  0  0  0  0  0  0  0  0
  2  1  1  1
  1 17  1  0
  1 18  1  0
  1 19  1  0
  2  8  1  0
  2 15  1  0
  2  3  1  0
  3  7  1  0
  3  4  1  0
  3 20  1  1
  4  5  1  0
  4 21  1  0
  4 22  1  0
  5  6  1  0
  5 23  1  0
  5 24  1  0
  6  7  1  0
  6  8  1  0
  6 25  1  1
  8  9  1  0
  8 26  1  1
  9 10  1  0
  9 27  1  0
  9 28  1  0
 10 14  1  0
 10 11  1  0
 10 38  1  6
 11 12  1  0
 11 29  1  0
 11 30  1  0
 12 13  1  0
 12 31  1  0
 12 32  1  0
 13 14  1  0
 13 33  1  0
 13 34  1  0
 14 15  1  0
 14 35  1  1
 15 16  1  0
 15 36  1  6
 16 37  1  0
M  CHG  1  10   1
M  END
>  <i_m_ct_stereo_status>  (394) 
1

>  <s_m_source_file>  (394) 
/var/tmp/pbs.5076255.sched01/tmpbvzcvm50/120d7_yi5_y.sdf

>  <i_m_source_file_index>  (394) 
40

>  <i_lp_mmshare_version>  (394) 
48012

>  <i_f3d_flags>  (394) 
0

>  <s_epik_input>  (394) 
W0NIM11bQ0BdMTJbQ0BIXTNbQ0gyXVtDSDJdW0NASF0oTzMpW0NASF0xW0NIMl1ONFtDQEBIXShbQ0BIXTJbT0hdKVtDSDJdW0NIMl1bQ0gyXTQ=

>  <s_epik_cmdline>  (394) 
J2VwaWtfcHl0aG9uJywgJy1waHQnLCAnMi4wJywgJy1waCcsICc3LjAnLCAnLXRuJywgJzgnLCAnLW1hJywgJzIwMCcsICctaW1hZScsICc8aW5maWxlLm1hZT4nLCAnLW9tYWUnLCAnPG91dGZpbGUubWFlPic=

>  <r_epik_Ionization_Penalty>  (394) 
0.000372766

>  <r_epik_Ionization_Penalty_Charging>  (394) 
0.00037274

>  <r_epik_Ionization_Penalty_Neutral>  (394) 
2.63586e-08

>  <r_epik_State_Penalty>  (394) 
0.000227366

>  <r_epik_Charging_Adjusted_Penalty>  (394) 
0.000600106

>  <i_epik_Tot_Q>  (394) 
1

>  <i_epik_Tot_abs_Q>  (394) 
1

>  <s_lp_Force_Field>  (394) 
OPLS3e

>  <r_lp_Energy>  (394) 
45.2179

>  <b_lp_Chiralities_Consistent>  (394) 
1

>  <s_lp_Variant>  (394) 
116:0-1

>  <s_i_glide_gridfile>  (394) 
pfpi4k_grid

>  <i_i_glide_lignum>  (394) 
40

>  <i_i_glide_rotatable_bonds>  (394) 
1

>  <r_i_docking_score>  (394) 
-4.51843

>  <r_i_glide_ligand_efficiency>  (394) 
-0.282402

>  <r_i_glide_ligand_efficiency_sa>  (394) 
-0.711608

>  <r_i_glide_ligand_efficiency_ln>  (394) 
-1.1977

>  <r_i_glide_gscore>  (394) 
-4.51843

>  <r_i_glide_lipo>  (394) 
-0.552239

>  <r_i_glide_hbond>  (394) 
-0.143805

>  <r_i_glide_metal>  (394) 
-0

>  <r_i_glide_rewards>  (394) 
-1.87964

>  <r_i_glide_evdw>  (394) 
-20.2416

>  <r_i_glide_ecoul>  (394) 
-6.20441

>  <r_i_glide_erotb>  (394) 
0

>  <r_i_glide_esite>  (394) 
0

>  <r_i_glide_emodel>  (394) 
-35.0197

>  <r_i_glide_energy>  (394) 
-26.4461

>  <r_i_glide_einternal>  (394) 
0.435164

>  <r_i_glide_intrahb_reward>  (394) 
-0

>  <i_i_glide_confnum>  (394) 
2

>  <i_i_glide_posenum>  (394) 
31

>  <r_i_glide_eff_state_penalty>  (394) 
0

>  <ligand_id>  (394) 
116

>  <original_smiles>  (394) 
CC12C3CCC(O3)C1CN1CCCC1C2O

>  <smiles>  (394) 
[H]OC1([H])C2(C([H])([H])[H])C3([H])OC([H])(C([H])([H])C3([H])[H])C2([H])C([H])([H])[N+]2([H])C([H])([H])C([H])([H])C([H])([H])C12[H]

$$$$
116:0:2
     RDKit          3D

 38 41  0  0  1  0  0  0  0  0999 V2000
    6.7418   -3.1860   -0.5964 C   0  0  0  0  0  0  0  0  0  0  0  0
    5.2220   -2.9841   -0.8188 C   0  0  2  0  0  0  0  0  0  0  0  0
    4.9093   -3.3936   -2.2789 C   0  0  1  0  0  0  0  0  0  0  0  0
    3.4413   -3.3008   -2.7090 C   0  0  0  0  0  0  0  0  0  0  0  0
    3.2370   -1.8053   -2.8542 C   0  0  0  0  0  0  0  0  0  0  0  0
    4.5877   -1.2556   -2.3785 C   0  0  2  0  0  0  0  0  0  0  0  0
    5.4096   -2.2565   -2.9519 O   0  0  0  0  0  0  0  0  0  0  0  0
    4.9208   -1.4604   -0.8821 C   0  0  1  0  0  0  0  0  0  0  0  0
    3.8848   -0.8474    0.0937 C   0  0  0  0  0  0  0  0  0  0  0  0
    3.6214   -1.7023    1.2644 N   0  0  1  0  0  0  0  0  0  0  0  0
    2.5675   -1.2255    2.1850 C   0  0  0  0  0  0  0  0  0  0  0  0
    2.0102   -2.4818    2.8670 C   0  0  0  0  0  0  0  0  0  0  0  0
    2.7115   -3.6613    2.1814 C   0  0  0  0  0  0  0  0  0  0  0  0
    3.2588   -3.0670    0.8812 C   0  0  2  0  0  0  0  0  0  0  0  0
    4.4870   -3.7832    0.3038 C   0  0  1  0  0  0  0  0  0  0  0  0
    4.1519   -5.0951   -0.1025 O   0  0  0  0  0  0  0  0  0  0  0  0
    6.9940   -4.2460   -0.6104 H   0  0  0  0  0  0  0  0  0  0  0  0
    7.0690   -2.7894    0.3665 H   0  0  0  0  0  0  0  0  0  0  0  0
    7.3393   -2.7018   -1.3698 H   0  0  0  0  0  0  0  0  0  0  0  0
    5.3947   -4.3170   -2.5944 H   0  0  0  0  0  0  0  0  0  0  0  0
    3.2996   -3.7920   -3.6727 H   0  0  0  0  0  0  0  0  0  0  0  0
    2.7517   -3.7575   -2.0044 H   0  0  0  0  0  0  0  0  0  0  0  0
    3.0848   -1.5618   -3.9071 H   0  0  0  0  0  0  0  0  0  0  0  0
    2.3641   -1.4349   -2.3229 H   0  0  0  0  0  0  0  0  0  0  0  0
    4.7912   -0.2508   -2.7446 H   0  0  0  0  0  0  0  0  0  0  0  0
    5.8493   -0.9291   -0.6890 H   0  0  0  0  0  0  0  0  0  0  0  0
    4.2213    0.1351    0.4274 H   0  0  0  0  0  0  0  0  0  0  0  0
    2.9486   -0.6674   -0.4141 H   0  0  0  0  0  0  0  0  0  0  0  0
    2.9620   -0.5162    2.9086 H   0  0  0  0  0  0  0  0  0  0  0  0
    1.7664   -0.7283    1.6375 H   0  0  0  0  0  0  0  0  0  0  0  0
    2.2027   -2.4830    3.9408 H   0  0  0  0  0  0  0  0  0  0  0  0
    0.9296   -2.5291    2.7285 H   0  0  0  0  0  0  0  0  0  0  0  0
    3.5264   -4.0170    2.8191 H   0  0  0  0  0  0  0  0  0  0  0  0
    2.0348   -4.4958    1.9974 H   0  0  0  0  0  0  0  0  0  0  0  0
    2.4508   -3.0190    0.1485 H   0  0  0  0  0  0  0  0  0  0  0  0
    5.1834   -3.9027    1.1341 H   0  0  0  0  0  0  0  0  0  0  0  0
    3.6893   -5.0787   -0.9309 H   0  0  0  0  0  0  0  0  0  0  0  0
    4.4718   -1.7675    1.8021 H   0  0  0  0  0  0  0  0  0  0  0  0
  2  1  1  1
  1 17  1  0
  1 18  1  0
  1 19  1  0
  2  8  1  0
  2 15  1  0
  2  3  1  0
  3  7  1  0
  3  4  1  0
  3 20  1  6
  4  5  1  0
  4 21  1  0
  4 22  1  0
  5  6  1  0
  5 23  1  0
  5 24  1  0
  6  7  1  0
  6  8  1  0
  6 25  1  6
  8  9  1  0
  8 26  1  1
  9 10  1  0
  9 27  1  0
  9 28  1  0
 10 14  1  0
 10 11  1  0
 10 38  1  1
 11 12  1  0
 11 29  1  0
 11 30  1  0
 12 13  1  0
 12 31  1  0
 12 32  1  0
 13 14  1  0
 13 33  1  0
 13 34  1  0
 14 15  1  0
 14 35  1  6
 15 16  1  0
 15 36  1  1
 16 37  1  0
M  CHG  1  10   1
M  END
>  <i_m_ct_stereo_status>  (395) 
1

>  <s_m_source_file>  (395) 
/var/tmp/pbs.5076255.sched01/tmpbvzcvm50/120d7_yi5_y.sdf

>  <i_m_source_file_index>  (395) 
40

>  <i_lp_mmshare_version>  (395) 
48012

>  <i_f3d_flags>  (395) 
0

>  <s_epik_input>  (395) 
W0NIM11bQ0BdMTJbQ0BIXTNbQ0gyXVtDSDJdW0NASF0oTzMpW0NASF0xW0NIMl1ONFtDQEBIXShbQ0BIXTJbT0hdKVtDSDJdW0NIMl1bQ0gyXTQ=

>  <s_epik_cmdline>  (395) 
J2VwaWtfcHl0aG9uJywgJy1waHQnLCAnMi4wJywgJy1waCcsICc3LjAnLCAnLXRuJywgJzgnLCAnLW1hJywgJzIwMCcsICctaW1hZScsICc8aW5maWxlLm1hZT4nLCAnLW9tYWUnLCAnPG91dGZpbGUubWFlPic=

>  <r_epik_Ionization_Penalty>  (395) 
0.000372766

>  <r_epik_Ionization_Penalty_Charging>  (395) 
0.00037274

>  <r_epik_Ionization_Penalty_Neutral>  (395) 
2.63586e-08

>  <r_epik_State_Penalty>  (395) 
0.000227366

>  <r_epik_Charging_Adjusted_Penalty>  (395) 
0.000600106

>  <i_epik_Tot_Q>  (395) 
1

>  <i_epik_Tot_abs_Q>  (395) 
1

>  <s_lp_Force_Field>  (395) 
OPLS3e

>  <r_lp_Energy>  (395) 
45.2179

>  <b_lp_Chiralities_Consistent>  (395) 
1

>  <s_lp_Variant>  (395) 
116:0-1

>  <s_i_glide_gridfile>  (395) 
pfpi4k_grid

>  <i_i_glide_lignum>  (395) 
40

>  <i_i_glide_rotatable_bonds>  (395) 
1

>  <r_i_docking_score>  (395) 
-4.40662

>  <r_i_glide_ligand_efficiency>  (395) 
-0.275414

>  <r_i_glide_ligand_efficiency_sa>  (395) 
-0.693999

>  <r_i_glide_ligand_efficiency_ln>  (395) 
-1.16806

>  <r_i_glide_gscore>  (395) 
-4.40662

>  <r_i_glide_lipo>  (395) 
-0.249211

>  <r_i_glide_hbond>  (395) 
-0.262356

>  <r_i_glide_metal>  (395) 
-0

>  <r_i_glide_rewards>  (395) 
-1.87964

>  <r_i_glide_evdw>  (395) 
-19.6434

>  <r_i_glide_ecoul>  (395) 
-6.75334

>  <r_i_glide_erotb>  (395) 
0

>  <r_i_glide_esite>  (395) 
-0.0202374

>  <r_i_glide_emodel>  (395) 
-34.8996

>  <r_i_glide_energy>  (395) 
-26.3968

>  <r_i_glide_einternal>  (395) 
0.128157

>  <r_i_glide_intrahb_reward>  (395) 
-0

>  <i_i_glide_confnum>  (395) 
2

>  <i_i_glide_posenum>  (395) 
6

>  <r_i_glide_eff_state_penalty>  (395) 
0

>  <ligand_id>  (395) 
116

>  <original_smiles>  (395) 
CC12C3CCC(O3)C1CN1CCCC1C2O

>  <smiles>  (395) 
[H]OC1([H])C2(C([H])([H])[H])C3([H])OC([H])(C([H])([H])C3([H])[H])C2([H])C([H])([H])[N+]2([H])C([H])([H])C([H])([H])C([H])([H])C12[H]

$$$$
