0:0:0
     RDKit          3D

 46 50  0  0  1  0  0  0  0  0999 V2000
    6.5302   -7.0949    1.7677 C   0  0  0  0  0  0  0  0  0  0  0  0
    5.1295   -6.6990    1.6686 N   0  0  0  0  0  0  0  0  0  0  0  0
    4.3021   -7.2062    0.5806 C   0  0  0  0  0  0  0  0  0  0  0  0
    2.8814   -6.6744    0.8769 C   0  0  1  0  0  0  0  0  0  0  0  0
    1.8946   -7.7508    1.4439 C   0  0  0  0  0  0  0  0  0  0  0  0
    1.4460   -7.1081    2.6846 C   0  0  0  0  0  0  0  0  0  0  0  0
    2.0702   -5.9690    2.9746 C   0  0  0  0  0  0  0  0  0  0  0  0
    1.4631   -5.5380    4.1889 C   0  0  0  0  0  0  0  0  0  0  0  0
    0.5051   -6.3931    4.5675 N   0  0  0  0  0  0  0  0  0  0  0  0
    0.4821   -7.3834    3.6283 N   0  0  0  0  0  0  0  0  0  0  0  0
   -0.4072   -8.5234    3.7796 C   0  0  0  0  0  0  0  0  0  0  0  0
   -1.1826   -8.8884    2.5374 C   0  0  0  0  0  0  0  0  0  0  0  0
   -1.8769   -8.1833    3.6815 C   0  0  0  0  0  0  0  0  0  0  0  0
    3.0795   -5.5502    1.9621 C   0  0  2  0  0  0  0  0  0  0  0  0
    2.8761   -4.0927    1.4913 C   0  0  0  0  0  0  0  0  0  0  0  0
    3.6707   -3.7447    0.2253 C   0  0  0  0  0  0  0  0  0  0  0  0
    3.0316   -2.6274   -0.6017 C   0  0  0  0  0  0  0  0  0  0  0  0
    3.5733   -2.5421   -1.9520 N   0  0  0  0  0  0  0  0  0  0  0  0
    4.3238   -3.4010   -2.6680 C   0  0  0  0  0  0  0  0  0  0  0  0
    4.6031   -3.0168   -3.9193 N   0  0  0  0  0  0  0  0  0  0  0  0
    3.9845   -1.7902   -4.0511 N   0  0  0  0  0  0  0  0  0  0  0  0
    3.3898   -1.5811   -2.8671 C   0  0  0  0  0  0  0  0  0  0  0  0
    4.4996   -5.8102    2.4382 C   0  0  0  0  0  0  0  0  0  0  0  0
    4.9948   -5.2038    3.3907 O   0  0  0  0  0  0  0  0  0  0  0  0
    7.0328   -6.6192    2.6111 H   0  0  0  0  0  0  0  0  0  0  0  0
    7.0708   -6.8092    0.8660 H   0  0  0  0  0  0  0  0  0  0  0  0
    6.6088   -8.1745    1.8954 H   0  0  0  0  0  0  0  0  0  0  0  0
    4.6638   -6.7977   -0.3667 H   0  0  0  0  0  0  0  0  0  0  0  0
    4.3493   -8.2962    0.5167 H   0  0  0  0  0  0  0  0  0  0  0  0
    2.4073   -6.2605   -0.0131 H   0  0  0  0  0  0  0  0  0  0  0  0
    1.0588   -7.9126    0.7651 H   0  0  0  0  0  0  0  0  0  0  0  0
    2.3784   -8.7049    1.6580 H   0  0  0  0  0  0  0  0  0  0  0  0
    1.6523   -4.6558    4.7814 H   0  0  0  0  0  0  0  0  0  0  0  0
   -0.0538   -9.2708    4.4874 H   0  0  0  0  0  0  0  0  0  0  0  0
   -1.0178   -8.3141    1.6305 H   0  0  0  0  0  0  0  0  0  0  0  0
   -1.3969   -9.9433    2.3818 H   0  0  0  0  0  0  0  0  0  0  0  0
   -2.5749   -8.7789    4.2637 H   0  0  0  0  0  0  0  0  0  0  0  0
   -2.1676   -7.1451    3.5312 H   0  0  0  0  0  0  0  0  0  0  0  0
    1.8134   -3.9499    1.3135 H   0  0  0  0  0  0  0  0  0  0  0  0
    3.1476   -3.3908    2.2803 H   0  0  0  0  0  0  0  0  0  0  0  0
    4.7111   -3.5118    0.4510 H   0  0  0  0  0  0  0  0  0  0  0  0
    3.7007   -4.6256   -0.3993 H   0  0  0  0  0  0  0  0  0  0  0  0
    1.9656   -2.8186   -0.6974 H   0  0  0  0  0  0  0  0  0  0  0  0
    3.1523   -1.6652   -0.1015 H   0  0  0  0  0  0  0  0  0  0  0  0
    4.6958   -4.3462   -2.3017 H   0  0  0  0  0  0  0  0  0  0  0  0
    2.7982   -0.6975   -2.6823 H   0  0  0  0  0  0  0  0  0  0  0  0
  1  2  1  0
  1 25  1  0
  1 26  1  0
  1 27  1  0
  2 23  1  0
  2  3  1  0
  3  4  1  0
  3 28  1  0
  3 29  1  0
  4 14  1  0
  4  5  1  0
  4 30  1  6
  5  6  1  0
  5 31  1  0
  5 32  1  0
  6 10  1  0
  6  7  2  0
  7  8  1  0
  7 14  1  0
  8  9  2  0
  8 33  1  0
  9 10  1  0
 10 11  1  0
 11 13  1  0
 11 12  1  0
 11 34  1  0
 12 13  1  0
 12 35  1  0
 12 36  1  0
 13 37  1  0
 13 38  1  0
 14 15  1  6
 14 23  1  0
 15 16  1  0
 15 39  1  0
 15 40  1  0
 16 17  1  0
 16 41  1  0
 16 42  1  0
 17 18  1  0
 17 43  1  0
 17 44  1  0
 18 22  1  0
 18 19  1  0
 19 20  2  0
 19 45  1  0
 20 21  1  0
 21 22  2  0
 22 46  1  0
 23 24  2  0
M  END
>  <i_m_ct_stereo_status>  (1) 
1

>  <s_m_source_file>  (1) 
/var/tmp/pbs.5076255.sched01/tmpd0mq1ayv/02wja6gfv.sdf

>  <i_m_source_file_index>  (1) 
1

>  <i_lp_mmshare_version>  (1) 
48012

>  <i_f3d_flags>  (1) 
0

>  <s_epik_input>  (1) 
W2NIXTFubltjSF1uMVtDSDJdW0NIMl1bQ0gyXVtDQF0yM1tDQEBIXShbQ0gyXU4oW0NIM10pQzM9TylbQ0gyXWM0YzJbY0hdbm40W0NIXTVbQ0gyXVtDSDJdNQ==

>  <s_epik_cmdline>  (1) 
J2VwaWtfcHl0aG9uJywgJy1waHQnLCAnMi4wJywgJy1waCcsICc3LjAnLCAnLXRuJywgJzgnLCAnLW1hJywgJzIwMCcsICctaW1hZScsICc8aW5maWxlLm1hZT4nLCAnLW9tYWUnLCAnPG91dGZpbGUubWFlPic=

>  <r_lp_tautomer_probability>  (1) 
1

>  <r_epik_Ionization_Penalty>  (1) 
0.000605424

>  <r_epik_Ionization_Penalty_Charging>  (1) 
0

>  <r_epik_Ionization_Penalty_Neutral>  (1) 
0.000605424

>  <r_epik_State_Penalty>  (1) 
-0

>  <r_epik_Charging_Adjusted_Penalty>  (1) 
0

>  <i_epik_Tot_Q>  (1) 
0

>  <i_epik_Tot_abs_Q>  (1) 
0

>  <s_lp_Force_Field>  (1) 
OPLS3e

>  <r_lp_Energy>  (1) 
3.13657

>  <b_lp_Chiralities_Consistent>  (1) 
1

>  <s_lp_Variant>  (1) 
0:0-1

>  <s_i_glide_gridfile>  (1) 
pfpi4k_grid

>  <i_i_glide_lignum>  (1) 
1

>  <i_i_glide_rotatable_bonds>  (1) 
5

>  <r_i_docking_score>  (1) 
-3.36954

>  <r_i_glide_ligand_efficiency>  (1) 
-0.140397

>  <r_i_glide_ligand_efficiency_sa>  (1) 
-0.404976

>  <r_i_glide_ligand_efficiency_ln>  (1) 
-0.806485

>  <r_i_glide_gscore>  (1) 
-3.36954

>  <r_i_glide_lipo>  (1) 
-0.291312

>  <r_i_glide_hbond>  (1) 
0

>  <r_i_glide_metal>  (1) 
-0

>  <r_i_glide_rewards>  (1) 
-1.26758

>  <r_i_glide_evdw>  (1) 
-28.1965

>  <r_i_glide_ecoul>  (1) 
-6.70419

>  <r_i_glide_erotb>  (1) 
0.704154

>  <r_i_glide_esite>  (1) 
-0.0993469

>  <r_i_glide_emodel>  (1) 
-40.2966

>  <r_i_glide_energy>  (1) 
-34.9007

>  <r_i_glide_einternal>  (1) 
3.93871

>  <r_i_glide_intrahb_reward>  (1) 
-0

>  <i_i_glide_confnum>  (1) 
3

>  <i_i_glide_posenum>  (1) 
16

>  <r_i_glide_eff_state_penalty>  (1) 
0

>  <ligand_id>  (1) 
0

>  <original_smiles>  (1) 
CN1CC2Cc3c(cnn3C3CC3)C2(CCCn2cnnc2)C1=O

>  <smiles>  (1) 
[H]c1nn(C2([H])C([H])([H])C2([H])[H])c2c1C1(C([H])([H])C([H])([H])C([H])([H])n3c([H])nnc3[H])C(=O)N(C([H])([H])[H])C([H])([H])C1([H])C2([H])[H]

$$$$
0:0:1
     RDKit          3D

 46 50  0  0  1  0  0  0  0  0999 V2000
    6.6035   -7.0105    2.2511 C   0  0  0  0  0  0  0  0  0  0  0  0
    5.1974   -6.7069    2.0162 N   0  0  0  0  0  0  0  0  0  0  0  0
    4.4849   -7.3389    0.9140 C   0  0  0  0  0  0  0  0  0  0  0  0
    3.0295   -6.8579    1.0516 C   0  0  1  0  0  0  0  0  0  0  0  0
    2.0649   -7.9330    1.6325 C   0  0  0  0  0  0  0  0  0  0  0  0
    1.4745   -7.2310    2.7854 C   0  0  0  0  0  0  0  0  0  0  0  0
    2.0139   -6.0318    3.0242 C   0  0  0  0  0  0  0  0  0  0  0  0
    1.2983   -5.5387    4.1464 C   0  0  0  0  0  0  0  0  0  0  0  0
    0.3606   -6.4077    4.5327 N   0  0  0  0  0  0  0  0  0  0  0  0
    0.4766   -7.4861    3.7023 N   0  0  0  0  0  0  0  0  0  0  0  0
   -0.4127   -8.6332    3.8928 C   0  0  0  0  0  0  0  0  0  0  0  0
    0.0662   -9.9535    3.3276 C   0  0  0  0  0  0  0  0  0  0  0  0
   -1.0408   -9.1742    2.6282 C   0  0  0  0  0  0  0  0  0  0  0  0
    3.0833   -5.6545    2.0529 C   0  0  2  0  0  0  0  0  0  0  0  0
    2.8654   -4.2566    1.4404 C   0  0  0  0  0  0  0  0  0  0  0  0
    3.7147   -3.9811    0.1930 C   0  0  0  0  0  0  0  0  0  0  0  0
    3.5047   -2.5770   -0.3847 C   0  0  0  0  0  0  0  0  0  0  0  0
    3.8053   -2.5245   -1.8062 N   0  0  0  0  0  0  0  0  0  0  0  0
    3.4357   -1.6071   -2.7149 C   0  0  0  0  0  0  0  0  0  0  0  0
    3.8724   -1.8358   -3.9572 N   0  0  0  0  0  0  0  0  0  0  0  0
    4.5902   -3.0161   -3.8691 N   0  0  0  0  0  0  0  0  0  0  0  0
    4.5268   -3.3581   -2.5812 C   0  0  0  0  0  0  0  0  0  0  0  0
    4.4732   -5.7828    2.6610 C   0  0  0  0  0  0  0  0  0  0  0  0
    4.8586   -5.0759    3.5935 O   0  0  0  0  0  0  0  0  0  0  0  0
    7.0170   -6.4358    3.0826 H   0  0  0  0  0  0  0  0  0  0  0  0
    7.1936   -6.7786    1.3631 H   0  0  0  0  0  0  0  0  0  0  0  0
    6.7245   -8.0692    2.4817 H   0  0  0  0  0  0  0  0  0  0  0  0
    4.9026   -6.9863   -0.0307 H   0  0  0  0  0  0  0  0  0  0  0  0
    4.5877   -8.4257    0.9498 H   0  0  0  0  0  0  0  0  0  0  0  0
    2.6232   -6.5420    0.0939 H   0  0  0  0  0  0  0  0  0  0  0  0
    1.3061   -8.2200    0.9082 H   0  0  0  0  0  0  0  0  0  0  0  0
    2.6098   -8.8181    1.9563 H   0  0  0  0  0  0  0  0  0  0  0  0
    1.3945   -4.5990    4.6696 H   0  0  0  0  0  0  0  0  0  0  0  0
   -0.9780   -8.6055    4.8201 H   0  0  0  0  0  0  0  0  0  0  0  0
    1.0351  -10.0108    2.8504 H   0  0  0  0  0  0  0  0  0  0  0  0
   -0.1873  -10.8591    3.8747 H   0  0  0  0  0  0  0  0  0  0  0  0
   -2.0500   -9.5796    2.6902 H   0  0  0  0  0  0  0  0  0  0  0  0
   -0.8083   -8.6778    1.6884 H   0  0  0  0  0  0  0  0  0  0  0  0
    1.8197   -4.1581    1.1589 H   0  0  0  0  0  0  0  0  0  0  0  0
    3.0465   -3.4831    2.1867 H   0  0  0  0  0  0  0  0  0  0  0  0
    4.7759   -4.1299    0.3936 H   0  0  0  0  0  0  0  0  0  0  0  0
    3.4415   -4.7150   -0.5628 H   0  0  0  0  0  0  0  0  0  0  0  0
    2.4690   -2.2721   -0.2435 H   0  0  0  0  0  0  0  0  0  0  0  0
    4.1269   -1.8530    0.1438 H   0  0  0  0  0  0  0  0  0  0  0  0
    2.8254   -0.7503   -2.4623 H   0  0  0  0  0  0  0  0  0  0  0  0
    5.0048   -4.2542   -2.2023 H   0  0  0  0  0  0  0  0  0  0  0  0
  1  2  1  0
  1 25  1  0
  1 26  1  0
  1 27  1  0
  2 23  1  0
  2  3  1  0
  3  4  1  0
  3 28  1  0
  3 29  1  0
  4 14  1  0
  4  5  1  0
  4 30  1  6
  5  6  1  0
  5 31  1  0
  5 32  1  0
  6 10  1  0
  6  7  2  0
  7  8  1  0
  7 14  1  0
  8  9  2  0
  8 33  1  0
  9 10  1  0
 10 11  1  0
 11 13  1  0
 11 12  1  0
 11 34  1  0
 12 13  1  0
 12 35  1  0
 12 36  1  0
 13 37  1  0
 13 38  1  0
 14 15  1  6
 14 23  1  0
 15 16  1  0
 15 39  1  0
 15 40  1  0
 16 17  1  0
 16 41  1  0
 16 42  1  0
 17 18  1  0
 17 43  1  0
 17 44  1  0
 18 22  1  0
 18 19  1  0
 19 20  2  0
 19 45  1  0
 20 21  1  0
 21 22  2  0
 22 46  1  0
 23 24  2  0
M  END
>  <i_m_ct_stereo_status>  (2) 
1

>  <s_m_source_file>  (2) 
/var/tmp/pbs.5076255.sched01/tmpd0mq1ayv/02wja6gfv.sdf

>  <i_m_source_file_index>  (2) 
1

>  <i_lp_mmshare_version>  (2) 
48012

>  <i_f3d_flags>  (2) 
0

>  <s_epik_input>  (2) 
W2NIXTFubltjSF1uMVtDSDJdW0NIMl1bQ0gyXVtDQF0yM1tDQEBIXShbQ0gyXU4oW0NIM10pQzM9TylbQ0gyXWM0YzJbY0hdbm40W0NIXTVbQ0gyXVtDSDJdNQ==

>  <s_epik_cmdline>  (2) 
J2VwaWtfcHl0aG9uJywgJy1waHQnLCAnMi4wJywgJy1waCcsICc3LjAnLCAnLXRuJywgJzgnLCAnLW1hJywgJzIwMCcsICctaW1hZScsICc8aW5maWxlLm1hZT4nLCAnLW9tYWUnLCAnPG91dGZpbGUubWFlPic=

>  <r_lp_tautomer_probability>  (2) 
1

>  <r_epik_Ionization_Penalty>  (2) 
0.000605424

>  <r_epik_Ionization_Penalty_Charging>  (2) 
0

>  <r_epik_Ionization_Penalty_Neutral>  (2) 
0.000605424

>  <r_epik_State_Penalty>  (2) 
-0

>  <r_epik_Charging_Adjusted_Penalty>  (2) 
0

>  <i_epik_Tot_Q>  (2) 
0

>  <i_epik_Tot_abs_Q>  (2) 
0

>  <s_lp_Force_Field>  (2) 
OPLS3e

>  <r_lp_Energy>  (2) 
3.13657

>  <b_lp_Chiralities_Consistent>  (2) 
1

>  <s_lp_Variant>  (2) 
0:0-1

>  <s_i_glide_gridfile>  (2) 
pfpi4k_grid

>  <i_i_glide_lignum>  (2) 
1

>  <i_i_glide_rotatable_bonds>  (2) 
5

>  <r_i_docking_score>  (2) 
-3.18415

>  <r_i_glide_ligand_efficiency>  (2) 
-0.132673

>  <r_i_glide_ligand_efficiency_sa>  (2) 
-0.382695

>  <r_i_glide_ligand_efficiency_ln>  (2) 
-0.762114

>  <r_i_glide_gscore>  (2) 
-3.18415

>  <r_i_glide_lipo>  (2) 
-0.258426

>  <r_i_glide_hbond>  (2) 
0

>  <r_i_glide_metal>  (2) 
-0

>  <r_i_glide_rewards>  (2) 
-1.23751

>  <r_i_glide_evdw>  (2) 
-27.4983

>  <r_i_glide_ecoul>  (2) 
-6.16498

>  <r_i_glide_erotb>  (2) 
0.704154

>  <r_i_glide_esite>  (2) 
-0.0927084

>  <r_i_glide_emodel>  (2) 
-38.3125

>  <r_i_glide_energy>  (2) 
-33.6632

>  <r_i_glide_einternal>  (2) 
4.88372

>  <r_i_glide_intrahb_reward>  (2) 
-0

>  <i_i_glide_confnum>  (2) 
3

>  <i_i_glide_posenum>  (2) 
21

>  <r_i_glide_eff_state_penalty>  (2) 
0

>  <ligand_id>  (2) 
0

>  <original_smiles>  (2) 
CN1CC2Cc3c(cnn3C3CC3)C2(CCCn2cnnc2)C1=O

>  <smiles>  (2) 
[H]c1nn(C2([H])C([H])([H])C2([H])[H])c2c1C1(C([H])([H])C([H])([H])C([H])([H])n3c([H])nnc3[H])C(=O)N(C([H])([H])[H])C([H])([H])C1([H])C2([H])[H]

$$$$
0:0:2
     RDKit          3D

 46 50  0  0  1  0  0  0  0  0999 V2000
    0.0668    5.4017    5.7618 C   0  0  0  0  0  0  0  0  0  0  0  0
   -0.2130    4.2375    4.9290 N   0  0  0  0  0  0  0  0  0  0  0  0
    0.5063    4.0499    3.6756 C   0  0  0  0  0  0  0  0  0  0  0  0
    0.0250    2.6881    3.1298 C   0  0  1  0  0  0  0  0  0  0  0  0
    1.0395    1.5103    3.3094 C   0  0  0  0  0  0  0  0  0  0  0  0
    0.2214    0.5257    4.0296 C   0  0  0  0  0  0  0  0  0  0  0  0
   -0.9867    0.9634    4.3897 C   0  0  0  0  0  0  0  0  0  0  0  0
   -1.5799   -0.1405    5.0555 C   0  0  0  0  0  0  0  0  0  0  0  0
   -0.7432   -1.1791    5.1005 N   0  0  0  0  0  0  0  0  0  0  0  0
    0.3831   -0.7803    4.4387 N   0  0  0  0  0  0  0  0  0  0  0  0
    1.5330   -1.6604    4.3187 C   0  0  0  0  0  0  0  0  0  0  0  0
    1.8634   -2.0852    2.9075 C   0  0  0  0  0  0  0  0  0  0  0  0
    1.2301   -3.0729    3.8666 C   0  0  0  0  0  0  0  0  0  0  0  0
   -1.2616    2.3613    3.9498 C   0  0  2  0  0  0  0  0  0  0  0  0
   -2.5800    2.4968    3.1614 C   0  0  0  0  0  0  0  0  0  0  0  0
   -2.9287    3.9084    2.6948 C   0  0  0  0  0  0  0  0  0  0  0  0
   -4.2637    3.9848    1.9363 C   0  0  0  0  0  0  0  0  0  0  0  0
   -4.6758    5.3668    1.7192 N   0  0  0  0  0  0  0  0  0  0  0  0
   -5.8978    5.9203    1.8264 C   0  0  0  0  0  0  0  0  0  0  0  0
   -5.9363    7.2446    1.6286 N   0  0  0  0  0  0  0  0  0  0  0  0
   -4.6313    7.5993    1.3377 N   0  0  0  0  0  0  0  0  0  0  0  0
   -3.9465    6.4499    1.3829 C   0  0  0  0  0  0  0  0  0  0  0  0
   -1.1818    3.3348    5.1244 C   0  0  0  0  0  0  0  0  0  0  0  0
   -1.9702    3.3065    6.0655 O   0  0  0  0  0  0  0  0  0  0  0  0
   -0.5715    5.4451    6.6462 H   0  0  0  0  0  0  0  0  0  0  0  0
   -0.0835    6.3219    5.1940 H   0  0  0  0  0  0  0  0  0  0  0  0
    1.1042    5.3769    6.0983 H   0  0  0  0  0  0  0  0  0  0  0  0
    0.2358    4.8550    2.9854 H   0  0  0  0  0  0  0  0  0  0  0  0
    1.5874    4.0908    3.8326 H   0  0  0  0  0  0  0  0  0  0  0  0
   -0.2471    2.7187    2.0831 H   0  0  0  0  0  0  0  0  0  0  0  0
    1.3740    1.1183    2.3506 H   0  0  0  0  0  0  0  0  0  0  0  0
    1.9077    1.7928    3.9091 H   0  0  0  0  0  0  0  0  0  0  0  0
   -2.5637   -0.2333    5.4929 H   0  0  0  0  0  0  0  0  0  0  0  0
    2.3095   -1.4672    5.0518 H   0  0  0  0  0  0  0  0  0  0  0  0
    1.2426   -1.7036    2.0998 H   0  0  0  0  0  0  0  0  0  0  0  0
    2.9121   -2.2343    2.6488 H   0  0  0  0  0  0  0  0  0  0  0  0
    1.8542   -3.8842    4.2439 H   0  0  0  0  0  0  0  0  0  0  0  0
    0.1970   -3.3497    3.6810 H   0  0  0  0  0  0  0  0  0  0  0  0
   -2.5480    1.8344    2.2946 H   0  0  0  0  0  0  0  0  0  0  0  0
   -3.3883    2.1508    3.8002 H   0  0  0  0  0  0  0  0  0  0  0  0
   -2.9858    4.5651    3.5579 H   0  0  0  0  0  0  0  0  0  0  0  0
   -2.1187    4.2903    2.0866 H   0  0  0  0  0  0  0  0  0  0  0  0
   -4.1878    3.4764    0.9769 H   0  0  0  0  0  0  0  0  0  0  0  0
   -5.0488    3.4771    2.4981 H   0  0  0  0  0  0  0  0  0  0  0  0
   -6.7728    5.3499    2.1033 H   0  0  0  0  0  0  0  0  0  0  0  0
   -2.8776    6.4091    1.2175 H   0  0  0  0  0  0  0  0  0  0  0  0
  1  2  1  0
  1 25  1  0
  1 26  1  0
  1 27  1  0
  2 23  1  0
  2  3  1  0
  3  4  1  0
  3 28  1  0
  3 29  1  0
  4 14  1  0
  4  5  1  0
  4 30  1  6
  5  6  1  0
  5 31  1  0
  5 32  1  0
  6 10  1  0
  6  7  2  0
  7  8  1  0
  7 14  1  0
  8  9  2  0
  8 33  1  0
  9 10  1  0
 10 11  1  0
 11 13  1  0
 11 12  1  0
 11 34  1  0
 12 13  1  0
 12 35  1  0
 12 36  1  0
 13 37  1  0
 13 38  1  0
 14 15  1  6
 14 23  1  0
 15 16  1  0
 15 39  1  0
 15 40  1  0
 16 17  1  0
 16 41  1  0
 16 42  1  0
 17 18  1  0
 17 43  1  0
 17 44  1  0
 18 22  1  0
 18 19  1  0
 19 20  2  0
 19 45  1  0
 20 21  1  0
 21 22  2  0
 22 46  1  0
 23 24  2  0
M  END
>  <i_m_ct_stereo_status>  (3) 
1

>  <s_m_source_file>  (3) 
/var/tmp/pbs.5076255.sched01/tmpd0mq1ayv/02wja6gfv.sdf

>  <i_m_source_file_index>  (3) 
1

>  <i_lp_mmshare_version>  (3) 
48012

>  <i_f3d_flags>  (3) 
0

>  <s_epik_input>  (3) 
W2NIXTFubltjSF1uMVtDSDJdW0NIMl1bQ0gyXVtDQF0yM1tDQEBIXShbQ0gyXU4oW0NIM10pQzM9TylbQ0gyXWM0YzJbY0hdbm40W0NIXTVbQ0gyXVtDSDJdNQ==

>  <s_epik_cmdline>  (3) 
J2VwaWtfcHl0aG9uJywgJy1waHQnLCAnMi4wJywgJy1waCcsICc3LjAnLCAnLXRuJywgJzgnLCAnLW1hJywgJzIwMCcsICctaW1hZScsICc8aW5maWxlLm1hZT4nLCAnLW9tYWUnLCAnPG91dGZpbGUubWFlPic=

>  <r_lp_tautomer_probability>  (3) 
1

>  <r_epik_Ionization_Penalty>  (3) 
0.000605424

>  <r_epik_Ionization_Penalty_Charging>  (3) 
0

>  <r_epik_Ionization_Penalty_Neutral>  (3) 
0.000605424

>  <r_epik_State_Penalty>  (3) 
-0

>  <r_epik_Charging_Adjusted_Penalty>  (3) 
0

>  <i_epik_Tot_Q>  (3) 
0

>  <i_epik_Tot_abs_Q>  (3) 
0

>  <s_lp_Force_Field>  (3) 
OPLS3e

>  <r_lp_Energy>  (3) 
3.13657

>  <b_lp_Chiralities_Consistent>  (3) 
1

>  <s_lp_Variant>  (3) 
0:0-1

>  <s_i_glide_gridfile>  (3) 
pfpi4k_grid

>  <i_i_glide_lignum>  (3) 
1

>  <i_i_glide_rotatable_bonds>  (3) 
5

>  <r_i_docking_score>  (3) 
-2.92056

>  <r_i_glide_ligand_efficiency>  (3) 
-0.12169

>  <r_i_glide_ligand_efficiency_sa>  (3) 
-0.351014

>  <r_i_glide_ligand_efficiency_ln>  (3) 
-0.699023

>  <r_i_glide_gscore>  (3) 
-2.92056

>  <r_i_glide_lipo>  (3) 
-0.193643

>  <r_i_glide_hbond>  (3) 
0

>  <r_i_glide_metal>  (3) 
-0

>  <r_i_glide_rewards>  (3) 
-1.37371

>  <r_i_glide_evdw>  (3) 
-29.3265

>  <r_i_glide_ecoul>  (3) 
-3.35921

>  <r_i_glide_erotb>  (3) 
0.704154

>  <r_i_glide_esite>  (3) 
-0.0871511

>  <r_i_glide_emodel>  (3) 
-38.5905

>  <r_i_glide_energy>  (3) 
-32.6857

>  <r_i_glide_einternal>  (3) 
1.40484

>  <r_i_glide_intrahb_reward>  (3) 
-0

>  <i_i_glide_confnum>  (3) 
3

>  <i_i_glide_posenum>  (3) 
6

>  <r_i_glide_eff_state_penalty>  (3) 
0

>  <ligand_id>  (3) 
0

>  <original_smiles>  (3) 
CN1CC2Cc3c(cnn3C3CC3)C2(CCCn2cnnc2)C1=O

>  <smiles>  (3) 
[H]c1nn(C2([H])C([H])([H])C2([H])[H])c2c1C1(C([H])([H])C([H])([H])C([H])([H])n3c([H])nnc3[H])C(=O)N(C([H])([H])[H])C([H])([H])C1([H])C2([H])[H]

$$$$
1:0:0
     RDKit          3D

 95100  0  0  1  0  0  0  0  0999 V2000
   -0.9357    2.3940    8.3087 C   0  0  0  0  0  0  0  0  0  0  0  0
   -0.8438    1.4468    7.3486 C   0  0  0  0  0  0  0  0  0  0  0  0
   -2.0543    1.1950    6.4763 C   0  0  0  0  0  0  0  0  0  0  0  0
   -1.7083    1.4126    5.0083 C   0  0  0  0  0  0  0  0  0  0  0  0
   -0.5234    0.5451    4.5306 C   0  0  1  0  0  0  0  0  0  0  0  0
   -1.0052   -0.9324    4.4938 C   0  0  0  0  0  0  0  0  0  0  0  0
   -0.2818    0.9575    3.0716 C   0  0  0  0  0  0  0  0  0  0  0  0
    0.9877    0.3391    2.4948 C   0  0  0  0  0  0  0  0  0  0  0  0
    2.2632    0.8148    3.2246 C   0  0  2  0  0  0  0  0  0  0  0  0
    2.3142    2.3690    2.9772 C   0  0  0  0  0  0  0  0  0  0  0  0
    3.5631    0.1755    2.5542 C   0  0  2  0  0  0  0  0  0  0  0  0
    3.6904    0.3495    1.0465 C   0  0  0  0  0  0  0  0  0  0  0  0
    3.4276   -0.8681    0.2024 C   0  0  0  0  0  0  0  0  0  0  0  0
    3.4090   -2.1362    0.6404 C   0  0  0  0  0  0  0  0  0  0  0  0
    3.1164   -3.3109   -0.3114 C   0  0  1  0  0  0  0  0  0  0  0  0
    2.6954   -3.0771   -1.7942 C   0  0  0  0  0  0  0  0  0  0  0  0
    3.7841   -2.9540   -2.8972 C   0  0  0  0  0  0  0  0  0  0  0  0
    3.1215   -3.4265   -4.2032 C   0  0  0  0  0  0  0  0  0  0  0  0
    4.2370   -1.5048   -3.1589 C   0  0  0  0  0  0  0  0  0  0  0  0
    5.0082   -3.8664   -2.6271 C   0  0  0  0  0  0  0  0  0  0  0  0
    5.4356   -3.9393   -1.1489 C   0  0  1  0  0  0  0  0  0  0  0  0
    6.0735   -2.7273   -0.7792 O   0  0  0  0  0  0  0  0  0  0  0  0
    4.2371   -4.3479   -0.2685 C   0  0  1  0  0  0  0  0  0  0  0  0
    4.5999   -4.7810    1.1620 C   0  0  0  0  0  0  0  0  0  0  0  0
    4.8538   -3.5860    2.0965 C   0  0  0  0  0  0  0  0  0  0  0  0
    3.7245   -2.4941    2.1076 C   0  0  2  0  0  0  0  0  0  0  0  0
    2.4841   -3.2106    2.7093 C   0  0  0  0  0  0  0  0  0  0  0  0
    4.1659   -1.2049    2.9871 C   0  0  1  0  0  0  0  0  0  0  0  0
    5.6977   -0.9943    2.8342 C   0  0  0  0  0  0  0  0  0  0  0  0
    3.9631   -1.3516    4.5123 C   0  0  0  0  0  0  0  0  0  0  0  0
    2.5778   -0.9467    5.0502 C   0  0  0  0  0  0  0  0  0  0  0  0
    2.1869    0.5303    4.7945 C   0  0  1  0  0  0  0  0  0  0  0  0
    3.2919    1.4159    5.4670 C   0  0  0  0  0  0  0  0  0  0  0  0
    0.7427    0.8721    5.4335 C   0  0  2  0  0  0  0  0  0  0  0  0
    0.4335    0.6422    6.9935 C   0  0  0  0  0  0  0  0  0  0  0  0
    1.5833    1.0901    7.9325 C   0  0  0  0  0  0  0  0  0  0  0  0
    0.2113   -0.8507    7.3725 C   0  0  0  0  0  0  0  0  0  0  0  0
   -0.1194    2.6801    8.9522 H   0  0  0  0  0  0  0  0  0  0  0  0
   -1.8634    2.9246    8.4660 H   0  0  0  0  0  0  0  0  0  0  0  0
   -2.4359    0.1885    6.6210 H   0  0  0  0  0  0  0  0  0  0  0  0
   -2.8721    1.8529    6.7618 H   0  0  0  0  0  0  0  0  0  0  0  0
   -2.5721    1.2322    4.3829 H   0  0  0  0  0  0  0  0  0  0  0  0
   -1.4646    2.4696    4.8839 H   0  0  0  0  0  0  0  0  0  0  0  0
   -0.2401   -1.6438    4.1980 H   0  0  0  0  0  0  0  0  0  0  0  0
   -1.8134   -1.0272    3.7744 H   0  0  0  0  0  0  0  0  0  0  0  0
   -1.4344   -1.2987    5.4182 H   0  0  0  0  0  0  0  0  0  0  0  0
   -1.1240    0.6623    2.4453 H   0  0  0  0  0  0  0  0  0  0  0  0
   -0.2513    2.0438    2.9799 H   0  0  0  0  0  0  0  0  0  0  0  0
    0.9069   -0.7361    2.5395 H   0  0  0  0  0  0  0  0  0  0  0  0
    1.0199    0.5668    1.4325 H   0  0  0  0  0  0  0  0  0  0  0  0
    3.3049    2.8012    3.1303 H   0  0  0  0  0  0  0  0  0  0  0  0
    1.6475    2.9283    3.6335 H   0  0  0  0  0  0  0  0  0  0  0  0
    2.0204    2.6400    1.9606 H   0  0  0  0  0  0  0  0  0  0  0  0
    4.2884    0.9043    2.8875 H   0  0  0  0  0  0  0  0  0  0  0  0
    3.0005    1.1296    0.7699 H   0  0  0  0  0  0  0  0  0  0  0  0
    4.6840    0.7050    0.7794 H   0  0  0  0  0  0  0  0  0  0  0  0
    3.2082   -0.6755   -0.8288 H   0  0  0  0  0  0  0  0  0  0  0  0
    2.2278   -3.7672    0.1164 H   0  0  0  0  0  0  0  0  0  0  0  0
    2.0758   -3.9331   -2.0431 H   0  0  0  0  0  0  0  0  0  0  0  0
    2.0070   -2.2594   -1.9144 H   0  0  0  0  0  0  0  0  0  0  0  0
    3.8191   -3.4144   -5.0362 H   0  0  0  0  0  0  0  0  0  0  0  0
    2.2483   -2.8252   -4.4472 H   0  0  0  0  0  0  0  0  0  0  0  0
    2.7645   -4.4607   -4.1333 H   0  0  0  0  0  0  0  0  0  0  0  0
    4.8846   -1.4528   -4.0308 H   0  0  0  0  0  0  0  0  0  0  0  0
    4.8019   -1.0879   -2.3311 H   0  0  0  0  0  0  0  0  0  0  0  0
    3.3949   -0.8480   -3.3562 H   0  0  0  0  0  0  0  0  0  0  0  0
    4.7640   -4.8736   -2.9546 H   0  0  0  0  0  0  0  0  0  0  0  0
    5.8586   -3.5845   -3.2536 H   0  0  0  0  0  0  0  0  0  0  0  0
    6.1901   -4.6951   -0.9794 H   0  0  0  0  0  0  0  0  0  0  0  0
    5.4090   -2.0826   -0.6616 H   0  0  0  0  0  0  0  0  0  0  0  0
    3.8357   -5.2564   -0.7173 H   0  0  0  0  0  0  0  0  0  0  0  0
    3.8153   -5.4174    1.5677 H   0  0  0  0  0  0  0  0  0  0  0  0
    5.4915   -5.4127    1.1394 H   0  0  0  0  0  0  0  0  0  0  0  0
    5.0437   -3.9482    3.1067 H   0  0  0  0  0  0  0  0  0  0  0  0
    5.7980   -3.1901    1.7325 H   0  0  0  0  0  0  0  0  0  0  0  0
    2.6356   -3.5126    3.7396 H   0  0  0  0  0  0  0  0  0  0  0  0
    2.2339   -4.1329    2.1969 H   0  0  0  0  0  0  0  0  0  0  0  0
    1.5827   -2.6194    2.6454 H   0  0  0  0  0  0  0  0  0  0  0  0
    6.2181   -1.8118    3.2752 H   0  0  0  0  0  0  0  0  0  0  0  0
    6.0696   -0.1137    3.3541 H   0  0  0  0  0  0  0  0  0  0  0  0
    6.0112   -0.8980    1.7951 H   0  0  0  0  0  0  0  0  0  0  0  0
    4.1748   -2.3787    4.8102 H   0  0  0  0  0  0  0  0  0  0  0  0
    4.7064   -0.7690    5.0486 H   0  0  0  0  0  0  0  0  0  0  0  0
    1.8194   -1.5995    4.6390 H   0  0  0  0  0  0  0  0  0  0  0  0
    2.5912   -1.1459    6.1170 H   0  0  0  0  0  0  0  0  0  0  0  0
    3.6956    0.9828    6.3771 H   0  0  0  0  0  0  0  0  0  0  0  0
    2.9378    2.4208    5.6933 H   0  0  0  0  0  0  0  0  0  0  0  0
    4.1785    1.5472    4.8535 H   0  0  0  0  0  0  0  0  0  0  0  0
    0.7623    1.9608    5.3995 H   0  0  0  0  0  0  0  0  0  0  0  0
    2.4315    0.4135    7.8824 H   0  0  0  0  0  0  0  0  0  0  0  0
    1.2864    1.0537    8.9814 H   0  0  0  0  0  0  0  0  0  0  0  0
    1.9064    2.1116    7.7197 H   0  0  0  0  0  0  0  0  0  0  0  0
    0.5708   -1.5553    6.6298 H   0  0  0  0  0  0  0  0  0  0  0  0
   -0.8395   -1.0727    7.4743 H   0  0  0  0  0  0  0  0  0  0  0  0
    0.6612   -1.1235    8.3259 H   0  0  0  0  0  0  0  0  0  0  0  0
  1  2  2  0
  1 38  1  0
  1 39  1  0
  2 35  1  0
  2  3  1  0
  3  4  1  0
  3 40  1  0
  3 41  1  0
  4  5  1  0
  4 42  1  0
  4 43  1  0
  5 34  1  0
  5  6  1  6
  5  7  1  0
  6 44  1  0
  6 45  1  0
  6 46  1  0
  7  8  1  0
  7 47  1  0
  7 48  1  0
  8  9  1  0
  8 49  1  0
  8 50  1  0
  9 32  1  0
  9 10  1  1
  9 11  1  0
 10 51  1  0
 10 52  1  0
 10 53  1  0
 11 28  1  0
 11 12  1  0
 11 54  1  1
 12 13  1  0
 12 55  1  0
 12 56  1  0
 13 14  2  0
 13 57  1  0
 14 26  1  0
 14 15  1  0
 15 23  1  0
 15 16  1  0
 15 58  1  1
 16 17  1  0
 16 59  1  0
 16 60  1  0
 17 18  1  0
 17 19  1  0
 17 20  1  0
 18 61  1  0
 18 62  1  0
 18 63  1  0
 19 64  1  0
 19 65  1  0
 19 66  1  0
 20 21  1  0
 20 67  1  0
 20 68  1  0
 21 22  1  0
 21 23  1  0
 21 69  1  6
 22 70  1  0
 23 24  1  0
 23 71  1  6
 24 25  1  0
 24 72  1  0
 24 73  1  0
 25 26  1  0
 25 74  1  0
 25 75  1  0
 26 27  1  1
 26 28  1  0
 27 76  1  0
 27 77  1  0
 27 78  1  0
 28 29  1  1
 28 30  1  0
 29 79  1  0
 29 80  1  0
 29 81  1  0
 30 31  1  0
 30 82  1  0
 30 83  1  0
 31 32  1  0
 31 84  1  0
 31 85  1  0
 32 33  1  1
 32 34  1  0
 33 86  1  0
 33 87  1  0
 33 88  1  0
 34 35  1  0
 34 89  1  1
 35 36  1  0
 35 37  1  0
 36 90  1  0
 36 91  1  0
 36 92  1  0
 37 93  1  0
 37 94  1  0
 37 95  1  0
M  END
>  <i_m_ct_stereo_status>  (4) 
1

>  <s_m_source_file>  (4) 
/var/tmp/pbs.5076255.sched01/tmpd0mq1ayv/02wja6gfv.sdf

>  <i_m_source_file_index>  (4) 
2

>  <i_lp_mmshare_version>  (4) 
48012

>  <i_f3d_flags>  (4) 
0

>  <s_epik_input>  (4) 
W0NIMl0xW0NIMl1DKD1bQ0gyXSlDKFtDSDNdKShbQ0gzXSlbQ0BIXShbQ0BAXTEyW0NIM10pW0NAXTMoW0NIM10pW0NAXShbQ0gzXSkoW0NIMl1bQ0gyXTIpW0NASF00W0NAQF0oW0NIM10pKFtDSDJdW0NIMl0zKVtDQEBdNShbQ0gzXSlDKD1bQ0hdW0NIMl00KVtDQEBIXTZbQ0BIXShbQ0gyXVtDSDJdNSlbQ0BIXShbT0hdKVtDSDJdQyhbQ0gyXTYpKFtDSDNdKVtDSDNd

>  <s_epik_cmdline>  (4) 
J2VwaWtfcHl0aG9uJywgJy1waHQnLCAnMi4wJywgJy1waCcsICc3LjAnLCAnLXRuJywgJzgnLCAnLW1hJywgJzIwMCcsICctaW1hZScsICc8aW5maWxlLm1hZT4nLCAnLW9tYWUnLCAnPG91dGZpbGUubWFlPic=

>  <r_lp_tautomer_probability>  (4) 
1

>  <r_epik_Ionization_Penalty>  (4) 
1.64436e-06

>  <r_epik_Ionization_Penalty_Charging>  (4) 
0

>  <r_epik_Ionization_Penalty_Neutral>  (4) 
1.64436e-06

>  <r_epik_State_Penalty>  (4) 
-0

>  <r_epik_Charging_Adjusted_Penalty>  (4) 
0

>  <i_epik_Tot_Q>  (4) 
0

>  <i_epik_Tot_abs_Q>  (4) 
0

>  <s_lp_Force_Field>  (4) 
OPLS3e

>  <r_lp_Energy>  (4) 
138.281

>  <b_lp_Chiralities_Consistent>  (4) 
1

>  <s_lp_Variant>  (4) 
1:0-1

>  <s_i_glide_gridfile>  (4) 
pfpi4k_grid

>  <i_i_glide_lignum>  (4) 
2

>  <i_i_glide_rotatable_bonds>  (4) 
1

>  <r_i_docking_score>  (4) 
-1.95217

>  <r_i_glide_ligand_efficiency>  (4) 
-0.0527613

>  <r_i_glide_ligand_efficiency_sa>  (4) 
-0.175813

>  <r_i_glide_ligand_efficiency_ln>  (4) 
-0.42338

>  <r_i_glide_gscore>  (4) 
-1.95217

>  <r_i_glide_lipo>  (4) 
-0.3719

>  <r_i_glide_hbond>  (4) 
0

>  <r_i_glide_metal>  (4) 
-0

>  <r_i_glide_rewards>  (4) 
0

>  <r_i_glide_evdw>  (4) 
-28.711

>  <r_i_glide_ecoul>  (4) 
-0.964814

>  <r_i_glide_erotb>  (4) 
0

>  <r_i_glide_esite>  (4) 
0

>  <r_i_glide_emodel>  (4) 
-32.9217

>  <r_i_glide_energy>  (4) 
-29.6758

>  <r_i_glide_einternal>  (4) 
0.0484834

>  <r_i_glide_intrahb_reward>  (4) 
-0

>  <i_i_glide_confnum>  (4) 
1

>  <i_i_glide_posenum>  (4) 
3

>  <r_i_glide_eff_state_penalty>  (4) 
0

>  <ligand_id>  (4) 
1

>  <original_smiles>  (4) 
C=C1CCC2(C)CCC3(C)C4CC=C5C6CC(C)(C)CC(O)C6CCC5(C)C4(C)CCC3(C)C2C1(C)C

>  <smiles>  (4) 
[H]OC1([H])C([H])([H])C(C([H])([H])[H])(C([H])([H])[H])C([H])([H])C2([H])C3=C([H])C([H])([H])C4([H])C(C([H])([H])[H])(C([H])([H])C([H])([H])C5(C([H])([H])[H])C6([H])C(C([H])([H])[H])(C([H])([H])[H])C(=C([H])[H])C([H])([H])C([H])([H])C6(C([H])([H])[H])C([H])([H])C([H])([H])C45C([H])([H])[H])C3(C([H])([H])[H])C([H])([H])C([H])([H])C12[H]

$$$$
1:0:1
     RDKit          3D

 95100  0  0  1  0  0  0  0  0999 V2000
   -1.0032    2.3841    8.3045 C   0  0  0  0  0  0  0  0  0  0  0  0
   -0.9064    1.4316    7.3410 C   0  0  0  0  0  0  0  0  0  0  0  0
   -2.1042    1.1981    6.4566 C   0  0  0  0  0  0  0  0  0  0  0  0
   -1.7453    1.4196    4.9900 C   0  0  0  0  0  0  0  0  0  0  0  0
   -0.5599    0.5487    4.5211 C   0  0  1  0  0  0  0  0  0  0  0  0
   -1.0458   -0.9249    4.4813 C   0  0  0  0  0  0  0  0  0  0  0  0
   -0.2995    0.9620    3.0698 C   0  0  0  0  0  0  0  0  0  0  0  0
    0.9720    0.3461    2.4941 C   0  0  0  0  0  0  0  0  0  0  0  0
    2.2434    0.8079    3.2448 C   0  0  2  0  0  0  0  0  0  0  0  0
    2.2992    2.3637    3.0018 C   0  0  0  0  0  0  0  0  0  0  0  0
    3.5471    0.1655    2.5825 C   0  0  2  0  0  0  0  0  0  0  0  0
    3.6860    0.3439    1.0752 C   0  0  0  0  0  0  0  0  0  0  0  0
    3.4352   -0.8760    0.2264 C   0  0  0  0  0  0  0  0  0  0  0  0
    3.4118   -2.1382    0.6578 C   0  0  0  0  0  0  0  0  0  0  0  0
    3.1142   -3.3011   -0.3034 C   0  0  1  0  0  0  0  0  0  0  0  0
    2.6972   -3.0805   -1.7952 C   0  0  0  0  0  0  0  0  0  0  0  0
    3.7951   -2.9394   -2.8862 C   0  0  0  0  0  0  0  0  0  0  0  0
    3.1419   -3.4185   -4.2002 C   0  0  0  0  0  0  0  0  0  0  0  0
    4.2624   -1.5040   -3.1407 C   0  0  0  0  0  0  0  0  0  0  0  0
    5.0074   -3.8647   -2.6179 C   0  0  0  0  0  0  0  0  0  0  0  0
    5.4178   -3.9461   -1.1483 C   0  0  1  0  0  0  0  0  0  0  0  0
    6.0984   -2.7689   -0.7187 O   0  0  0  0  0  0  0  0  0  0  0  0
    4.2236   -4.3386   -0.2575 C   0  0  1  0  0  0  0  0  0  0  0  0
    4.5757   -4.7830    1.1681 C   0  0  0  0  0  0  0  0  0  0  0  0
    4.8220   -3.6021    2.1184 C   0  0  0  0  0  0  0  0  0  0  0  0
    3.6972   -2.5009    2.1204 C   0  0  2  0  0  0  0  0  0  0  0  0
    2.4483   -3.2163    2.7080 C   0  0  0  0  0  0  0  0  0  0  0  0
    4.1335   -1.2219    3.0117 C   0  0  1  0  0  0  0  0  0  0  0  0
    5.6774   -1.0040    2.8673 C   0  0  0  0  0  0  0  0  0  0  0  0
    3.9164   -1.3665    4.5334 C   0  0  0  0  0  0  0  0  0  0  0  0
    2.5286   -0.9621    5.0562 C   0  0  0  0  0  0  0  0  0  0  0  0
    2.1460    0.5162    4.8057 C   0  0  1  0  0  0  0  0  0  0  0  0
    3.2453    1.3968    5.4952 C   0  0  0  0  0  0  0  0  0  0  0  0
    0.6980    0.8648    5.4382 C   0  0  2  0  0  0  0  0  0  0  0  0
    0.3715    0.6332    6.9925 C   0  0  0  0  0  0  0  0  0  0  0  0
    1.5127    1.0667    7.9442 C   0  0  0  0  0  0  0  0  0  0  0  0
    0.1412   -0.8647    7.3591 C   0  0  0  0  0  0  0  0  0  0  0  0
   -0.1891    2.6667    8.9561 H   0  0  0  0  0  0  0  0  0  0  0  0
   -1.9275    2.9166    8.4533 H   0  0  0  0  0  0  0  0  0  0  0  0
   -2.4974    0.1941    6.5899 H   0  0  0  0  0  0  0  0  0  0  0  0
   -2.9264    1.8558    6.7388 H   0  0  0  0  0  0  0  0  0  0  0  0
   -2.5852    1.2475    4.3455 H   0  0  0  0  0  0  0  0  0  0  0  0
   -1.4860    2.4753    4.8824 H   0  0  0  0  0  0  0  0  0  0  0  0
   -0.2837   -1.6465    4.1888 H   0  0  0  0  0  0  0  0  0  0  0  0
   -1.8508   -1.0209    3.7455 H   0  0  0  0  0  0  0  0  0  0  0  0
   -1.4942   -1.2967    5.3922 H   0  0  0  0  0  0  0  0  0  0  0  0
   -1.1434    0.6752    2.4332 H   0  0  0  0  0  0  0  0  0  0  0  0
   -0.2680    2.0485    2.9788 H   0  0  0  0  0  0  0  0  0  0  0  0
    0.8796   -0.7339    2.5372 H   0  0  0  0  0  0  0  0  0  0  0  0
    1.0097    0.5712    1.4344 H   0  0  0  0  0  0  0  0  0  0  0  0
    3.2882    2.7927    3.1643 H   0  0  0  0  0  0  0  0  0  0  0  0
    1.6290    2.9223    3.6525 H   0  0  0  0  0  0  0  0  0  0  0  0
    2.0154    2.6429    1.9833 H   0  0  0  0  0  0  0  0  0  0  0  0
    4.2697    0.8944    2.9196 H   0  0  0  0  0  0  0  0  0  0  0  0
    3.0031    1.1344    0.7971 H   0  0  0  0  0  0  0  0  0  0  0  0
    4.6798    0.7035    0.8148 H   0  0  0  0  0  0  0  0  0  0  0  0
    3.2253   -0.6886   -0.8164 H   0  0  0  0  0  0  0  0  0  0  0  0
    2.2180   -3.7589    0.1089 H   0  0  0  0  0  0  0  0  0  0  0  0
    2.0735   -3.9263   -2.0505 H   0  0  0  0  0  0  0  0  0  0  0  0
    2.0189   -2.2514   -1.9156 H   0  0  0  0  0  0  0  0  0  0  0  0
    3.8427   -3.4317   -5.0265 H   0  0  0  0  0  0  0  0  0  0  0  0
    2.2734   -2.8190   -4.4590 H   0  0  0  0  0  0  0  0  0  0  0  0
    2.7725   -4.4513   -4.1275 H   0  0  0  0  0  0  0  0  0  0  0  0
    4.9169   -1.4428   -4.0023 H   0  0  0  0  0  0  0  0  0  0  0  0
    4.8178   -1.0994   -2.3012 H   0  0  0  0  0  0  0  0  0  0  0  0
    3.4204   -0.8279   -3.3382 H   0  0  0  0  0  0  0  0  0  0  0  0
    4.7623   -4.8681   -2.9473 H   0  0  0  0  0  0  0  0  0  0  0  0
    5.8646   -3.5791   -3.2371 H   0  0  0  0  0  0  0  0  0  0  0  0
    6.1566   -4.7121   -1.0177 H   0  0  0  0  0  0  0  0  0  0  0  0
    6.3229   -2.9023    0.1650 H   0  0  0  0  0  0  0  0  0  0  0  0
    3.8226   -5.2527   -0.7167 H   0  0  0  0  0  0  0  0  0  0  0  0
    3.7781   -5.4229    1.5650 H   0  0  0  0  0  0  0  0  0  0  0  0
    5.4599   -5.4299    1.1537 H   0  0  0  0  0  0  0  0  0  0  0  0
    4.9899   -3.9687    3.1288 H   0  0  0  0  0  0  0  0  0  0  0  0
    5.7687   -3.2063    1.7792 H   0  0  0  0  0  0  0  0  0  0  0  0
    2.5837   -3.5235    3.7397 H   0  0  0  0  0  0  0  0  0  0  0  0
    2.1968   -4.1342    2.1904 H   0  0  0  0  0  0  0  0  0  0  0  0
    1.5478   -2.6216    2.6398 H   0  0  0  0  0  0  0  0  0  0  0  0
    6.2154   -1.8276    3.2850 H   0  0  0  0  0  0  0  0  0  0  0  0
    6.0405   -0.1254    3.4006 H   0  0  0  0  0  0  0  0  0  0  0  0
    5.9970   -0.9143    1.8406 H   0  0  0  0  0  0  0  0  0  0  0  0
    4.1196   -2.3994    4.8308 H   0  0  0  0  0  0  0  0  0  0  0  0
    4.6547   -0.7934    5.0828 H   0  0  0  0  0  0  0  0  0  0  0  0
    1.7686   -1.6104    4.6369 H   0  0  0  0  0  0  0  0  0  0  0  0
    2.5277   -1.1688    6.1288 H   0  0  0  0  0  0  0  0  0  0  0  0
    3.6407    0.9581    6.4096 H   0  0  0  0  0  0  0  0  0  0  0  0
    2.8989    2.3990    5.7212 H   0  0  0  0  0  0  0  0  0  0  0  0
    4.1435    1.5250    4.8904 H   0  0  0  0  0  0  0  0  0  0  0  0
    0.7230    1.9533    5.4072 H   0  0  0  0  0  0  0  0  0  0  0  0
    2.3602    0.3840    7.8997 H   0  0  0  0  0  0  0  0  0  0  0  0
    1.2078    1.0312    8.9901 H   0  0  0  0  0  0  0  0  0  0  0  0
    1.8465    2.0855    7.7366 H   0  0  0  0  0  0  0  0  0  0  0  0
    0.5003   -1.5669    6.6194 H   0  0  0  0  0  0  0  0  0  0  0  0
   -0.9176   -1.0793    7.4345 H   0  0  0  0  0  0  0  0  0  0  0  0
    0.5666   -1.1446    8.3165 H   0  0  0  0  0  0  0  0  0  0  0  0
  1  2  2  0
  1 38  1  0
  1 39  1  0
  2 35  1  0
  2  3  1  0
  3  4  1  0
  3 40  1  0
  3 41  1  0
  4  5  1  0
  4 42  1  0
  4 43  1  0
  5 34  1  0
  5  6  1  6
  5  7  1  0
  6 44  1  0
  6 45  1  0
  6 46  1  0
  7  8  1  0
  7 47  1  0
  7 48  1  0
  8  9  1  0
  8 49  1  0
  8 50  1  0
  9 32  1  0
  9 10  1  1
  9 11  1  0
 10 51  1  0
 10 52  1  0
 10 53  1  0
 11 28  1  0
 11 12  1  0
 11 54  1  1
 12 13  1  0
 12 55  1  0
 12 56  1  0
 13 14  2  0
 13 57  1  0
 14 26  1  0
 14 15  1  0
 15 23  1  0
 15 16  1  0
 15 58  1  1
 16 17  1  0
 16 59  1  0
 16 60  1  0
 17 18  1  0
 17 19  1  0
 17 20  1  0
 18 61  1  0
 18 62  1  0
 18 63  1  0
 19 64  1  0
 19 65  1  0
 19 66  1  0
 20 21  1  0
 20 67  1  0
 20 68  1  0
 21 22  1  0
 21 23  1  0
 21 69  1  6
 22 70  1  0
 23 24  1  0
 23 71  1  6
 24 25  1  0
 24 72  1  0
 24 73  1  0
 25 26  1  0
 25 74  1  0
 25 75  1  0
 26 27  1  1
 26 28  1  0
 27 76  1  0
 27 77  1  0
 27 78  1  0
 28 29  1  1
 28 30  1  0
 29 79  1  0
 29 80  1  0
 29 81  1  0
 30 31  1  0
 30 82  1  0
 30 83  1  0
 31 32  1  0
 31 84  1  0
 31 85  1  0
 32 33  1  1
 32 34  1  0
 33 86  1  0
 33 87  1  0
 33 88  1  0
 34 35  1  0
 34 89  1  1
 35 36  1  0
 35 37  1  0
 36 90  1  0
 36 91  1  0
 36 92  1  0
 37 93  1  0
 37 94  1  0
 37 95  1  0
M  END
>  <i_m_ct_stereo_status>  (5) 
1

>  <s_m_source_file>  (5) 
/var/tmp/pbs.5076255.sched01/tmpd0mq1ayv/02wja6gfv.sdf

>  <i_m_source_file_index>  (5) 
2

>  <i_lp_mmshare_version>  (5) 
48012

>  <i_f3d_flags>  (5) 
0

>  <s_epik_input>  (5) 
W0NIMl0xW0NIMl1DKD1bQ0gyXSlDKFtDSDNdKShbQ0gzXSlbQ0BIXShbQ0BAXTEyW0NIM10pW0NAXTMoW0NIM10pW0NAXShbQ0gzXSkoW0NIMl1bQ0gyXTIpW0NASF00W0NAQF0oW0NIM10pKFtDSDJdW0NIMl0zKVtDQEBdNShbQ0gzXSlDKD1bQ0hdW0NIMl00KVtDQEBIXTZbQ0BIXShbQ0gyXVtDSDJdNSlbQ0BIXShbT0hdKVtDSDJdQyhbQ0gyXTYpKFtDSDNdKVtDSDNd

>  <s_epik_cmdline>  (5) 
J2VwaWtfcHl0aG9uJywgJy1waHQnLCAnMi4wJywgJy1waCcsICc3LjAnLCAnLXRuJywgJzgnLCAnLW1hJywgJzIwMCcsICctaW1hZScsICc8aW5maWxlLm1hZT4nLCAnLW9tYWUnLCAnPG91dGZpbGUubWFlPic=

>  <r_lp_tautomer_probability>  (5) 
1

>  <r_epik_Ionization_Penalty>  (5) 
1.64436e-06

>  <r_epik_Ionization_Penalty_Charging>  (5) 
0

>  <r_epik_Ionization_Penalty_Neutral>  (5) 
1.64436e-06

>  <r_epik_State_Penalty>  (5) 
-0

>  <r_epik_Charging_Adjusted_Penalty>  (5) 
0

>  <i_epik_Tot_Q>  (5) 
0

>  <i_epik_Tot_abs_Q>  (5) 
0

>  <s_lp_Force_Field>  (5) 
OPLS3e

>  <r_lp_Energy>  (5) 
138.281

>  <b_lp_Chiralities_Consistent>  (5) 
1

>  <s_lp_Variant>  (5) 
1:0-1

>  <s_i_glide_gridfile>  (5) 
pfpi4k_grid

>  <i_i_glide_lignum>  (5) 
2

>  <i_i_glide_rotatable_bonds>  (5) 
1

>  <r_i_docking_score>  (5) 
-1.91524

>  <r_i_glide_ligand_efficiency>  (5) 
-0.0517632

>  <r_i_glide_ligand_efficiency_sa>  (5) 
-0.172487

>  <r_i_glide_ligand_efficiency_ln>  (5) 
-0.415371

>  <r_i_glide_gscore>  (5) 
-1.91524

>  <r_i_glide_lipo>  (5) 
-0.3541

>  <r_i_glide_hbond>  (5) 
0

>  <r_i_glide_metal>  (5) 
-0

>  <r_i_glide_rewards>  (5) 
0

>  <r_i_glide_evdw>  (5) 
-28.8996

>  <r_i_glide_ecoul>  (5) 
-0.77441

>  <r_i_glide_erotb>  (5) 
0

>  <r_i_glide_esite>  (5) 
0

>  <r_i_glide_emodel>  (5) 
-32.6705

>  <r_i_glide_energy>  (5) 
-29.674

>  <r_i_glide_einternal>  (5) 
0.348113

>  <r_i_glide_intrahb_reward>  (5) 
-0

>  <i_i_glide_confnum>  (5) 
2

>  <i_i_glide_posenum>  (5) 
39

>  <r_i_glide_eff_state_penalty>  (5) 
0

>  <ligand_id>  (5) 
1

>  <original_smiles>  (5) 
C=C1CCC2(C)CCC3(C)C4CC=C5C6CC(C)(C)CC(O)C6CCC5(C)C4(C)CCC3(C)C2C1(C)C

>  <smiles>  (5) 
[H]OC1([H])C([H])([H])C(C([H])([H])[H])(C([H])([H])[H])C([H])([H])C2([H])C3=C([H])C([H])([H])C4([H])C(C([H])([H])[H])(C([H])([H])C([H])([H])C5(C([H])([H])[H])C6([H])C(C([H])([H])[H])(C([H])([H])[H])C(=C([H])[H])C([H])([H])C([H])([H])C6(C([H])([H])[H])C([H])([H])C([H])([H])C45C([H])([H])[H])C3(C([H])([H])[H])C([H])([H])C([H])([H])C12[H]

$$$$
1:0:2
     RDKit          3D

 95100  0  0  1  0  0  0  0  0999 V2000
    3.0116    4.3432    4.0751 C   0  0  0  0  0  0  0  0  0  0  0  0
    2.2411    3.2333    4.2390 C   0  0  0  0  0  0  0  0  0  0  0  0
    0.9304    3.1544    3.4892 C   0  0  0  0  0  0  0  0  0  0  0  0
    0.9084    1.9190    2.5911 C   0  0  0  0  0  0  0  0  0  0  0  0
    1.1527    0.6038    3.3671 C   0  0  1  0  0  0  0  0  0  0  0  0
   -0.1093    0.3276    4.2353 C   0  0  0  0  0  0  0  0  0  0  0  0
    1.2001   -0.4995    2.3026 C   0  0  0  0  0  0  0  0  0  0  0  0
    1.6234   -1.8479    2.8790 C   0  0  0  0  0  0  0  0  0  0  0  0
    3.0702   -1.8364    3.4128 C   0  0  2  0  0  0  0  0  0  0  0  0
    3.9709   -1.5286    2.1650 C   0  0  0  0  0  0  0  0  0  0  0  0
    3.4851   -3.2908    3.9282 C   0  0  2  0  0  0  0  0  0  0  0  0
    3.2503   -4.4422    2.9283 C   0  0  0  0  0  0  0  0  0  0  0  0
    2.0760   -5.3306    3.2329 C   0  0  0  0  0  0  0  0  0  0  0  0
    1.4467   -5.4408    4.4311 C   0  0  0  0  0  0  0  0  0  0  0  0
    0.2655   -6.4137    4.6403 C   0  0  1  0  0  0  0  0  0  0  0  0
   -0.3328   -7.2083    3.4483 C   0  0  0  0  0  0  0  0  0  0  0  0
    0.2304   -8.6318    3.1271 C   0  0  0  0  0  0  0  0  0  0  0  0
   -0.9275   -9.4313    2.4779 C   0  0  0  0  0  0  0  0  0  0  0  0
    1.3886   -8.5931    2.0956 C   0  0  0  0  0  0  0  0  0  0  0  0
    0.6565   -9.4107    4.3980 C   0  0  0  0  0  0  0  0  0  0  0  0
    1.3486   -8.5788    5.4856 C   0  0  1  0  0  0  0  0  0  0  0  0
    2.6617   -8.2322    5.0870 O   0  0  0  0  0  0  0  0  0  0  0  0
    0.4837   -7.3519    5.8351 C   0  0  1  0  0  0  0  0  0  0  0  0
    0.8938   -6.5980    7.1102 C   0  0  0  0  0  0  0  0  0  0  0  0
    2.0562   -5.6181    6.8733 C   0  0  0  0  0  0  0  0  0  0  0  0
    1.8750   -4.6156    5.6727 C   0  0  2  0  0  0  0  0  0  0  0  0
    0.6750   -3.7205    6.1050 C   0  0  0  0  0  0  0  0  0  0  0  0
    3.2284   -3.7542    5.4181 C   0  0  1  0  0  0  0  0  0  0  0  0
    4.4748   -4.6330    5.7728 C   0  0  0  0  0  0  0  0  0  0  0  0
    3.3893   -2.5255    6.3546 C   0  0  0  0  0  0  0  0  0  0  0  0
    2.7401   -1.2161    5.8709 C   0  0  0  0  0  0  0  0  0  0  0  0
    3.2657   -0.6933    4.5160 C   0  0  1  0  0  0  0  0  0  0  0  0
    4.8099   -0.4859    4.6685 C   0  0  0  0  0  0  0  0  0  0  0  0
    2.5516    0.7081    4.1188 C   0  0  2  0  0  0  0  0  0  0  0  0
    2.6109    1.9922    5.0880 C   0  0  0  0  0  0  0  0  0  0  0  0
    4.0007    2.2204    5.7269 C   0  0  0  0  0  0  0  0  0  0  0  0
    1.6346    1.9290    6.2978 C   0  0  0  0  0  0  0  0  0  0  0  0
    3.9694    4.4738    4.5393 H   0  0  0  0  0  0  0  0  0  0  0  0
    2.6691    5.1426    3.4435 H   0  0  0  0  0  0  0  0  0  0  0  0
    0.0957    3.1560    4.1812 H   0  0  0  0  0  0  0  0  0  0  0  0
    0.7971    4.0479    2.8835 H   0  0  0  0  0  0  0  0  0  0  0  0
   -0.0313    1.8837    2.0319 H   0  0  0  0  0  0  0  0  0  0  0  0
    1.6873    2.0546    1.8412 H   0  0  0  0  0  0  0  0  0  0  0  0
   -0.0243   -0.5488    4.8675 H   0  0  0  0  0  0  0  0  0  0  0  0
   -0.9818    0.1626    3.5999 H   0  0  0  0  0  0  0  0  0  0  0  0
   -0.3913    1.1536    4.8780 H   0  0  0  0  0  0  0  0  0  0  0  0
    0.2193   -0.6045    1.8426 H   0  0  0  0  0  0  0  0  0  0  0  0
    1.8454   -0.2105    1.4751 H   0  0  0  0  0  0  0  0  0  0  0  0
    0.9315   -2.1295    3.6498 H   0  0  0  0  0  0  0  0  0  0  0  0
    1.4933   -2.6002    2.0988 H   0  0  0  0  0  0  0  0  0  0  0  0
    5.0149   -1.8120    2.3002 H   0  0  0  0  0  0  0  0  0  0  0  0
    3.9819   -0.4718    1.9055 H   0  0  0  0  0  0  0  0  0  0  0  0
    3.6263   -2.0500    1.2720 H   0  0  0  0  0  0  0  0  0  0  0  0
    4.5694   -3.2101    3.8735 H   0  0  0  0  0  0  0  0  0  0  0  0
    3.1429   -4.0846    1.9078 H   0  0  0  0  0  0  0  0  0  0  0  0
    4.1280   -5.0877    2.9102 H   0  0  0  0  0  0  0  0  0  0  0  0
    1.7738   -5.9441    2.4074 H   0  0  0  0  0  0  0  0  0  0  0  0
   -0.5503   -5.7533    4.9061 H   0  0  0  0  0  0  0  0  0  0  0  0
   -1.4014   -7.3323    3.6945 H   0  0  0  0  0  0  0  0  0  0  0  0
   -0.3417   -6.6153    2.5457 H   0  0  0  0  0  0  0  0  0  0  0  0
   -0.6152  -10.4414    2.2116 H   0  0  0  0  0  0  0  0  0  0  0  0
   -1.3090   -8.9531    1.5837 H   0  0  0  0  0  0  0  0  0  0  0  0
   -1.7740   -9.5266    3.1719 H   0  0  0  0  0  0  0  0  0  0  0  0
    1.6724   -9.5981    1.7841 H   0  0  0  0  0  0  0  0  0  0  0  0
    2.2846   -8.1268    2.4963 H   0  0  0  0  0  0  0  0  0  0  0  0
    1.1055   -8.0576    1.1929 H   0  0  0  0  0  0  0  0  0  0  0  0
   -0.2316   -9.8582    4.8562 H   0  0  0  0  0  0  0  0  0  0  0  0
    1.2838  -10.2537    4.1251 H   0  0  0  0  0  0  0  0  0  0  0  0
    1.4413   -9.2089    6.3735 H   0  0  0  0  0  0  0  0  0  0  0  0
    3.1539   -9.0291    4.9615 H   0  0  0  0  0  0  0  0  0  0  0  0
   -0.4907   -7.7744    6.0581 H   0  0  0  0  0  0  0  0  0  0  0  0
    0.0263   -6.0775    7.5198 H   0  0  0  0  0  0  0  0  0  0  0  0
    1.1712   -7.3211    7.8786 H   0  0  0  0  0  0  0  0  0  0  0  0
    2.2531   -5.0759    7.7992 H   0  0  0  0  0  0  0  0  0  0  0  0
    2.9095   -6.2740    6.7286 H   0  0  0  0  0  0  0  0  0  0  0  0
    0.8912   -3.1215    6.9866 H   0  0  0  0  0  0  0  0  0  0  0  0
   -0.2072   -4.2848    6.3873 H   0  0  0  0  0  0  0  0  0  0  0  0
    0.3282   -3.0681    5.3201 H   0  0  0  0  0  0  0  0  0  0  0  0
    4.5459   -4.8438    6.8412 H   0  0  0  0  0  0  0  0  0  0  0  0
    5.4217   -4.1439    5.5400 H   0  0  0  0  0  0  0  0  0  0  0  0
    4.4746   -5.5837    5.2388 H   0  0  0  0  0  0  0  0  0  0  0  0
    3.0177   -2.7628    7.3465 H   0  0  0  0  0  0  0  0  0  0  0  0
    4.4516   -2.3226    6.5226 H   0  0  0  0  0  0  0  0  0  0  0  0
    1.6692   -1.3334    5.8300 H   0  0  0  0  0  0  0  0  0  0  0  0
    2.9204   -0.4724    6.6474 H   0  0  0  0  0  0  0  0  0  0  0  0
    5.1059   -0.1618    5.6604 H   0  0  0  0  0  0  0  0  0  0  0  0
    5.2117    0.2230    3.9440 H   0  0  0  0  0  0  0  0  0  0  0  0
    5.3837   -1.3994    4.5369 H   0  0  0  0  0  0  0  0  0  0  0  0
    3.2082    1.0427    3.3187 H   0  0  0  0  0  0  0  0  0  0  0  0
    4.2196    1.4869    6.4977 H   0  0  0  0  0  0  0  0  0  0  0  0
    4.0568    3.1757    6.2548 H   0  0  0  0  0  0  0  0  0  0  0  0
    4.7907    2.2153    4.9802 H   0  0  0  0  0  0  0  0  0  0  0  0
    1.2696    0.9277    6.4995 H   0  0  0  0  0  0  0  0  0  0  0  0
    0.7565    2.5567    6.1654 H   0  0  0  0  0  0  0  0  0  0  0  0
    2.0930    2.2872    7.2238 H   0  0  0  0  0  0  0  0  0  0  0  0
  1  2  2  0
  1 38  1  0
  1 39  1  0
  2 35  1  0
  2  3  1  0
  3  4  1  0
  3 40  1  0
  3 41  1  0
  4  5  1  0
  4 42  1  0
  4 43  1  0
  5 34  1  0
  5  6  1  1
  5  7  1  0
  6 44  1  0
  6 45  1  0
  6 46  1  0
  7  8  1  0
  7 47  1  0
  7 48  1  0
  8  9  1  0
  8 49  1  0
  8 50  1  0
  9 32  1  0
  9 10  1  6
  9 11  1  0
 10 51  1  0
 10 52  1  0
 10 53  1  0
 11 28  1  0
 11 12  1  0
 11 54  1  1
 12 13  1  0
 12 55  1  0
 12 56  1  0
 13 14  2  0
 13 57  1  0
 14 26  1  0
 14 15  1  0
 15 23  1  0
 15 16  1  0
 15 58  1  1
 16 17  1  0
 16 59  1  0
 16 60  1  0
 17 18  1  0
 17 19  1  0
 17 20  1  0
 18 61  1  0
 18 62  1  0
 18 63  1  0
 19 64  1  0
 19 65  1  0
 19 66  1  0
 20 21  1  0
 20 67  1  0
 20 68  1  0
 21 22  1  0
 21 23  1  0
 21 69  1  1
 22 70  1  0
 23 24  1  0
 23 71  1  1
 24 25  1  0
 24 72  1  0
 24 73  1  0
 25 26  1  0
 25 74  1  0
 25 75  1  0
 26 27  1  1
 26 28  1  0
 27 76  1  0
 27 77  1  0
 27 78  1  0
 28 29  1  1
 28 30  1  0
 29 79  1  0
 29 80  1  0
 29 81  1  0
 30 31  1  0
 30 82  1  0
 30 83  1  0
 31 32  1  0
 31 84  1  0
 31 85  1  0
 32 33  1  1
 32 34  1  0
 33 86  1  0
 33 87  1  0
 33 88  1  0
 34 35  1  0
 34 89  1  6
 35 36  1  0
 35 37  1  0
 36 90  1  0
 36 91  1  0
 36 92  1  0
 37 93  1  0
 37 94  1  0
 37 95  1  0
M  END
>  <i_m_ct_stereo_status>  (6) 
1

>  <s_m_source_file>  (6) 
/var/tmp/pbs.5076255.sched01/tmpd0mq1ayv/02wja6gfv.sdf

>  <i_m_source_file_index>  (6) 
2

>  <i_lp_mmshare_version>  (6) 
48012

>  <i_f3d_flags>  (6) 
0

>  <s_epik_input>  (6) 
W0NIMl0xW0NIMl1DKD1bQ0gyXSlDKFtDSDNdKShbQ0gzXSlbQ0BIXShbQ0BAXTEyW0NIM10pW0NAXTMoW0NIM10pW0NAXShbQ0gzXSkoW0NIMl1bQ0gyXTIpW0NASF00W0NAQF0oW0NIM10pKFtDSDJdW0NIMl0zKVtDQEBdNShbQ0gzXSlDKD1bQ0hdW0NIMl00KVtDQEBIXTZbQ0BIXShbQ0gyXVtDSDJdNSlbQ0BIXShbT0hdKVtDSDJdQyhbQ0gyXTYpKFtDSDNdKVtDSDNd

>  <s_epik_cmdline>  (6) 
J2VwaWtfcHl0aG9uJywgJy1waHQnLCAnMi4wJywgJy1waCcsICc3LjAnLCAnLXRuJywgJzgnLCAnLW1hJywgJzIwMCcsICctaW1hZScsICc8aW5maWxlLm1hZT4nLCAnLW9tYWUnLCAnPG91dGZpbGUubWFlPic=

>  <r_lp_tautomer_probability>  (6) 
1

>  <r_epik_Ionization_Penalty>  (6) 
1.64436e-06

>  <r_epik_Ionization_Penalty_Charging>  (6) 
0

>  <r_epik_Ionization_Penalty_Neutral>  (6) 
1.64436e-06

>  <r_epik_State_Penalty>  (6) 
-0

>  <r_epik_Charging_Adjusted_Penalty>  (6) 
0

>  <i_epik_Tot_Q>  (6) 
0

>  <i_epik_Tot_abs_Q>  (6) 
0

>  <s_lp_Force_Field>  (6) 
OPLS3e

>  <r_lp_Energy>  (6) 
138.281

>  <b_lp_Chiralities_Consistent>  (6) 
1

>  <s_lp_Variant>  (6) 
1:0-1

>  <s_i_glide_gridfile>  (6) 
pfpi4k_grid

>  <i_i_glide_lignum>  (6) 
2

>  <i_i_glide_rotatable_bonds>  (6) 
1

>  <r_i_docking_score>  (6) 
-1.84691

>  <r_i_glide_ligand_efficiency>  (6) 
-0.0499166

>  <r_i_glide_ligand_efficiency_sa>  (6) 
-0.166333

>  <r_i_glide_ligand_efficiency_ln>  (6) 
-0.400552

>  <r_i_glide_gscore>  (6) 
-1.84691

>  <r_i_glide_lipo>  (6) 
-0.24803

>  <r_i_glide_hbond>  (6) 
0

>  <r_i_glide_metal>  (6) 
-0

>  <r_i_glide_rewards>  (6) 
0

>  <r_i_glide_evdw>  (6) 
-31.7475

>  <r_i_glide_ecoul>  (6) 
-0.0767213

>  <r_i_glide_erotb>  (6) 
0

>  <r_i_glide_esite>  (6) 
0

>  <r_i_glide_emodel>  (6) 
-35.0269

>  <r_i_glide_energy>  (6) 
-31.8242

>  <r_i_glide_einternal>  (6) 
0.329267

>  <r_i_glide_intrahb_reward>  (6) 
-0

>  <i_i_glide_confnum>  (6) 
1

>  <i_i_glide_posenum>  (6) 
33

>  <r_i_glide_eff_state_penalty>  (6) 
0

>  <ligand_id>  (6) 
1

>  <original_smiles>  (6) 
C=C1CCC2(C)CCC3(C)C4CC=C5C6CC(C)(C)CC(O)C6CCC5(C)C4(C)CCC3(C)C2C1(C)C

>  <smiles>  (6) 
[H]OC1([H])C([H])([H])C(C([H])([H])[H])(C([H])([H])[H])C([H])([H])C2([H])C3=C([H])C([H])([H])C4([H])C(C([H])([H])[H])(C([H])([H])C([H])([H])C5(C([H])([H])[H])C6([H])C(C([H])([H])[H])(C([H])([H])[H])C(=C([H])[H])C([H])([H])C([H])([H])C6(C([H])([H])[H])C([H])([H])C([H])([H])C45C([H])([H])[H])C3(C([H])([H])[H])C([H])([H])C([H])([H])C12[H]

$$$$
2:0:0
     RDKit          3D

 12 13  0  0  1  0  0  0  0  0999 V2000
   -8.0255   -4.2424   -5.3825 C   0  0  0  0  0  0  0  0  0  0  0  0
   -8.6249   -5.0553   -6.3612 C   0  0  0  0  0  0  0  0  0  0  0  0
   -8.1026   -6.2348   -6.7652 N   0  0  0  0  0  0  0  0  0  0  0  0
   -6.9562   -6.6722   -6.1973 C   0  0  0  0  0  0  0  0  0  0  0  0
   -6.3311   -7.8210   -6.4914 N   0  0  0  0  0  0  0  0  0  0  0  0
   -4.9675   -7.8605   -5.5066 S   0  0  0  0  0  0  0  0  0  0  0  0
   -5.1463   -6.3902   -4.7221 N   0  0  0  0  0  0  0  0  0  0  0  0
   -6.2906   -5.9102   -5.2149 C   0  0  0  0  0  0  0  0  0  0  0  0
   -6.8225   -4.6774   -4.7952 C   0  0  0  0  0  0  0  0  0  0  0  0
   -8.4736   -3.2988   -5.1017 H   0  0  0  0  0  0  0  0  0  0  0  0
   -9.5453   -4.7508   -6.8368 H   0  0  0  0  0  0  0  0  0  0  0  0
   -6.3235   -4.0772   -4.0488 H   0  0  0  0  0  0  0  0  0  0  0  0
  1  9  2  0
  1  2  1  0
  1 10  1  0
  2  3  2  0
  2 11  1  0
  3  4  1  0
  4  8  1  0
  4  5  2  0
  5  6  1  0
  6  7  1  0
  7  8  2  0
  8  9  1  0
  9 12  1  0
M  END
>  <i_m_ct_stereo_status>  (7) 
1

>  <s_m_source_file>  (7) 
/var/tmp/pbs.5076255.sched01/tmpd0mq1ayv/02wja6gfv.sdf

>  <i_m_source_file_index>  (7) 
3

>  <i_lp_mmshare_version>  (7) 
48012

>  <i_f3d_flags>  (7) 
0

>  <s_epik_input>  (7) 
bjFbY0hdW2NIXVtjSF1jKGMxMiluc24y

>  <s_epik_cmdline>  (7) 
J2VwaWtfcHl0aG9uJywgJy1waHQnLCAnMi4wJywgJy1waCcsICc3LjAnLCAnLXRuJywgJzgnLCAnLW1hJywgJzIwMCcsICctaW1hZScsICc8aW5maWxlLm1hZT4nLCAnLW9tYWUnLCAnPG91dGZpbGUubWFlPic=

>  <r_lp_tautomer_probability>  (7) 
1

>  <r_epik_Ionization_Penalty>  (7) 
1.02883e-08

>  <r_epik_Ionization_Penalty_Charging>  (7) 
0

>  <r_epik_Ionization_Penalty_Neutral>  (7) 
1.02883e-08

>  <r_epik_State_Penalty>  (7) 
-0

>  <r_epik_Charging_Adjusted_Penalty>  (7) 
0

>  <i_epik_Tot_Q>  (7) 
0

>  <i_epik_Tot_abs_Q>  (7) 
0

>  <s_lp_Force_Field>  (7) 
OPLS3e

>  <r_lp_Energy>  (7) 
11.1044

>  <b_lp_Chiralities_Consistent>  (7) 
1

>  <s_lp_Variant>  (7) 
2:0-1

>  <s_i_glide_gridfile>  (7) 
pfpi4k_grid

>  <i_i_glide_lignum>  (7) 
3

>  <i_i_glide_rotatable_bonds>  (7) 
0

>  <r_i_docking_score>  (7) 
-6.90747

>  <r_i_glide_ligand_efficiency>  (7) 
-0.767497

>  <r_i_glide_ligand_efficiency_sa>  (7) 
-1.59646

>  <r_i_glide_ligand_efficiency_ln>  (7) 
-2.16046

>  <r_i_glide_gscore>  (7) 
-6.90747

>  <r_i_glide_lipo>  (7) 
-1.58649

>  <r_i_glide_hbond>  (7) 
-0.255829

>  <r_i_glide_metal>  (7) 
-0

>  <r_i_glide_rewards>  (7) 
-3.77101

>  <r_i_glide_evdw>  (7) 
-21.2329

>  <r_i_glide_ecoul>  (7) 
-1.55

>  <r_i_glide_erotb>  (7) 
0

>  <r_i_glide_esite>  (7) 
0

>  <r_i_glide_emodel>  (7) 
-32.4941

>  <r_i_glide_energy>  (7) 
-22.7829

>  <r_i_glide_einternal>  (7) 
0

>  <r_i_glide_intrahb_reward>  (7) 
-0

>  <i_i_glide_confnum>  (7) 
2

>  <i_i_glide_posenum>  (7) 
11

>  <r_i_glide_eff_state_penalty>  (7) 
0

>  <ligand_id>  (7) 
2

>  <original_smiles>  (7) 
c1cnc2nsnc2c1

>  <smiles>  (7) 
[H]c1nc2nsnc2c([H])c1[H]

$$$$
2:0:1
     RDKit          3D

 12 13  0  0  1  0  0  0  0  0999 V2000
   -0.4703   -9.3708    2.8792 C   0  0  0  0  0  0  0  0  0  0  0  0
   -1.1772   -8.1902    2.5849 C   0  0  0  0  0  0  0  0  0  0  0  0
   -0.5933   -7.0726    2.0934 N   0  0  0  0  0  0  0  0  0  0  0  0
    0.7378   -7.0935    1.8559 C   0  0  0  0  0  0  0  0  0  0  0  0
    1.4369   -6.0678    1.3561 N   0  0  0  0  0  0  0  0  0  0  0  0
    3.0307   -6.6063    1.2814 S   0  0  0  0  0  0  0  0  0  0  0  0
    2.8291   -8.1628    1.8732 N   0  0  0  0  0  0  0  0  0  0  0  0
    1.5202   -8.2332    2.1270 C   0  0  0  0  0  0  0  0  0  0  0  0
    0.9177   -9.3944    2.6490 C   0  0  0  0  0  0  0  0  0  0  0  0
   -0.9791  -10.2372    3.2804 H   0  0  0  0  0  0  0  0  0  0  0  0
   -2.2427   -8.1376    2.7551 H   0  0  0  0  0  0  0  0  0  0  0  0
    1.4983  -10.2800    2.8645 H   0  0  0  0  0  0  0  0  0  0  0  0
  1  9  2  0
  1  2  1  0
  1 10  1  0
  2  3  2  0
  2 11  1  0
  3  4  1  0
  4  8  1  0
  4  5  2  0
  5  6  1  0
  6  7  1  0
  7  8  2  0
  8  9  1  0
  9 12  1  0
M  END
>  <i_m_ct_stereo_status>  (8) 
1

>  <s_m_source_file>  (8) 
/var/tmp/pbs.5076255.sched01/tmpd0mq1ayv/02wja6gfv.sdf

>  <i_m_source_file_index>  (8) 
3

>  <i_lp_mmshare_version>  (8) 
48012

>  <i_f3d_flags>  (8) 
0

>  <s_epik_input>  (8) 
bjFbY0hdW2NIXVtjSF1jKGMxMiluc24y

>  <s_epik_cmdline>  (8) 
J2VwaWtfcHl0aG9uJywgJy1waHQnLCAnMi4wJywgJy1waCcsICc3LjAnLCAnLXRuJywgJzgnLCAnLW1hJywgJzIwMCcsICctaW1hZScsICc8aW5maWxlLm1hZT4nLCAnLW9tYWUnLCAnPG91dGZpbGUubWFlPic=

>  <r_lp_tautomer_probability>  (8) 
1

>  <r_epik_Ionization_Penalty>  (8) 
1.02883e-08

>  <r_epik_Ionization_Penalty_Charging>  (8) 
0

>  <r_epik_Ionization_Penalty_Neutral>  (8) 
1.02883e-08

>  <r_epik_State_Penalty>  (8) 
-0

>  <r_epik_Charging_Adjusted_Penalty>  (8) 
0

>  <i_epik_Tot_Q>  (8) 
0

>  <i_epik_Tot_abs_Q>  (8) 
0

>  <s_lp_Force_Field>  (8) 
OPLS3e

>  <r_lp_Energy>  (8) 
11.1044

>  <b_lp_Chiralities_Consistent>  (8) 
1

>  <s_lp_Variant>  (8) 
2:0-1

>  <s_i_glide_gridfile>  (8) 
pfpi4k_grid

>  <i_i_glide_lignum>  (8) 
3

>  <i_i_glide_rotatable_bonds>  (8) 
0

>  <r_i_docking_score>  (8) 
-3.94127

>  <r_i_glide_ligand_efficiency>  (8) 
-0.437919

>  <r_i_glide_ligand_efficiency_sa>  (8) 
-0.910908

>  <r_i_glide_ligand_efficiency_ln>  (8) 
-1.23272

>  <r_i_glide_gscore>  (8) 
-3.94127

>  <r_i_glide_lipo>  (8) 
-0.064327

>  <r_i_glide_hbond>  (8) 
-0.234406

>  <r_i_glide_metal>  (8) 
-0

>  <r_i_glide_rewards>  (8) 
-2.25

>  <r_i_glide_evdw>  (8) 
-15.0993

>  <r_i_glide_ecoul>  (8) 
-3.81529

>  <r_i_glide_erotb>  (8) 
0

>  <r_i_glide_esite>  (8) 
-0.0652796

>  <r_i_glide_emodel>  (8) 
-24.4558

>  <r_i_glide_energy>  (8) 
-18.9146

>  <r_i_glide_einternal>  (8) 
0

>  <r_i_glide_intrahb_reward>  (8) 
-0

>  <i_i_glide_confnum>  (8) 
1

>  <i_i_glide_posenum>  (8) 
3

>  <r_i_glide_eff_state_penalty>  (8) 
0

>  <ligand_id>  (8) 
2

>  <original_smiles>  (8) 
c1cnc2nsnc2c1

>  <smiles>  (8) 
[H]c1nc2nsnc2c([H])c1[H]

$$$$
2:0:2
     RDKit          3D

 12 13  0  0  1  0  0  0  0  0999 V2000
    3.0648   -7.3239    1.6158 C   0  0  0  0  0  0  0  0  0  0  0  0
    2.2265   -6.2469    1.2704 C   0  0  0  0  0  0  0  0  0  0  0  0
    0.8846   -6.2641    1.4431 N   0  0  0  0  0  0  0  0  0  0  0  0
    0.3181   -7.3641    1.9875 C   0  0  0  0  0  0  0  0  0  0  0  0
   -0.9875   -7.4985    2.2429 N   0  0  0  0  0  0  0  0  0  0  0  0
   -1.1579   -9.0482    2.8794 S   0  0  0  0  0  0  0  0  0  0  0  0
    0.4456   -9.5342    2.8795 N   0  0  0  0  0  0  0  0  0  0  0  0
    1.0833   -8.4841    2.3565 C   0  0  0  0  0  0  0  0  0  0  0  0
    2.4778   -8.4791    2.1662 C   0  0  0  0  0  0  0  0  0  0  0  0
    4.1312   -7.2713    1.4481 H   0  0  0  0  0  0  0  0  0  0  0  0
    2.6409   -5.3475    0.8394 H   0  0  0  0  0  0  0  0  0  0  0  0
    3.0820   -9.3338    2.4381 H   0  0  0  0  0  0  0  0  0  0  0  0
  1  9  2  0
  1  2  1  0
  1 10  1  0
  2  3  2  0
  2 11  1  0
  3  4  1  0
  4  8  1  0
  4  5  2  0
  5  6  1  0
  6  7  1  0
  7  8  2  0
  8  9  1  0
  9 12  1  0
M  END
>  <i_m_ct_stereo_status>  (9) 
1

>  <s_m_source_file>  (9) 
/var/tmp/pbs.5076255.sched01/tmpd0mq1ayv/02wja6gfv.sdf

>  <i_m_source_file_index>  (9) 
3

>  <i_lp_mmshare_version>  (9) 
48012

>  <i_f3d_flags>  (9) 
0

>  <s_epik_input>  (9) 
bjFbY0hdW2NIXVtjSF1jKGMxMiluc24y

>  <s_epik_cmdline>  (9) 
J2VwaWtfcHl0aG9uJywgJy1waHQnLCAnMi4wJywgJy1waCcsICc3LjAnLCAnLXRuJywgJzgnLCAnLW1hJywgJzIwMCcsICctaW1hZScsICc8aW5maWxlLm1hZT4nLCAnLW9tYWUnLCAnPG91dGZpbGUubWFlPic=

>  <r_lp_tautomer_probability>  (9) 
1

>  <r_epik_Ionization_Penalty>  (9) 
1.02883e-08

>  <r_epik_Ionization_Penalty_Charging>  (9) 
0

>  <r_epik_Ionization_Penalty_Neutral>  (9) 
1.02883e-08

>  <r_epik_State_Penalty>  (9) 
-0

>  <r_epik_Charging_Adjusted_Penalty>  (9) 
0

>  <i_epik_Tot_Q>  (9) 
0

>  <i_epik_Tot_abs_Q>  (9) 
0

>  <s_lp_Force_Field>  (9) 
OPLS3e

>  <r_lp_Energy>  (9) 
11.1044

>  <b_lp_Chiralities_Consistent>  (9) 
1

>  <s_lp_Variant>  (9) 
2:0-1

>  <s_i_glide_gridfile>  (9) 
pfpi4k_grid

>  <i_i_glide_lignum>  (9) 
3

>  <i_i_glide_rotatable_bonds>  (9) 
0

>  <r_i_docking_score>  (9) 
-3.87879

>  <r_i_glide_ligand_efficiency>  (9) 
-0.430976

>  <r_i_glide_ligand_efficiency_sa>  (9) 
-0.896467

>  <r_i_glide_ligand_efficiency_ln>  (9) 
-1.21317

>  <r_i_glide_gscore>  (9) 
-3.87879

>  <r_i_glide_lipo>  (9) 
-0.0500827

>  <r_i_glide_hbond>  (9) 
-0.187944

>  <r_i_glide_metal>  (9) 
-0

>  <r_i_glide_rewards>  (9) 
-2.25

>  <r_i_glide_evdw>  (9) 
-15.7889

>  <r_i_glide_ecoul>  (9) 
-3.56448

>  <r_i_glide_erotb>  (9) 
0

>  <r_i_glide_esite>  (9) 
-0.066641

>  <r_i_glide_emodel>  (9) 
-24.8062

>  <r_i_glide_energy>  (9) 
-19.3534

>  <r_i_glide_einternal>  (9) 
0

>  <r_i_glide_intrahb_reward>  (9) 
-0

>  <i_i_glide_confnum>  (9) 
1

>  <i_i_glide_posenum>  (9) 
2

>  <r_i_glide_eff_state_penalty>  (9) 
0

>  <ligand_id>  (9) 
2

>  <original_smiles>  (9) 
c1cnc2nsnc2c1

>  <smiles>  (9) 
[H]c1nc2nsnc2c([H])c1[H]

$$$$
3:0:0
     RDKit          3D

 50 52  0  0  1  0  0  0  0  0999 V2000
   -1.7756   -9.4009    2.3573 C   0  0  0  0  0  0  0  0  0  0  0  0
   -1.7932   -8.2062    3.3185 C   0  0  0  0  0  0  0  0  0  0  0  0
   -0.4186   -7.5618    3.5540 C   0  0  0  0  0  0  0  0  0  0  0  0
    0.2705   -7.1430    2.2557 C   0  0  0  0  0  0  0  0  0  0  0  0
   -0.2009   -6.2606    1.5486 O   0  0  0  0  0  0  0  0  0  0  0  0
    1.5905   -7.7856    1.8838 C   0  0  2  0  0  0  0  0  0  0  0  0
    1.5695   -9.1572    2.2172 O   0  0  0  0  0  0  0  0  0  0  0  0
    2.6915   -7.2942    2.6978 N   0  0  0  0  0  0  0  0  0  0  0  0
    3.4511   -6.2769    1.9864 C   0  0  2  0  0  0  0  0  0  0  0  0
    4.4082   -6.9348    0.9656 C   0  0  2  0  0  0  0  0  0  0  0  0
    5.4559   -7.8034    1.6879 C   0  0  0  0  0  0  0  0  0  0  0  0
    6.2710   -6.9116    2.6447 C   0  0  2  0  0  0  0  0  0  0  0  0
    5.3417   -6.2504    3.6836 C   0  0  0  0  0  0  0  0  0  0  0  0
    4.2825   -5.3930    2.9564 C   0  0  1  0  0  0  0  0  0  0  0  0
    5.0135   -4.2856    2.1562 C   0  0  0  0  0  0  0  0  0  0  0  0
    5.9547   -4.9059    1.0910 C   0  0  1  0  0  0  0  0  0  0  0  0
    6.7306   -3.8178    0.2924 C   0  0  0  0  0  0  0  0  0  0  0  0
    5.8867   -2.9584   -0.6631 C   0  0  0  0  0  0  0  0  0  0  0  0
    6.7751   -2.2549   -1.5118 O   0  0  0  0  0  0  0  0  0  0  0  0
    6.9838   -5.8180    1.8337 C   0  0  0  0  0  0  0  0  0  0  0  0
    5.1010   -5.8263    0.1725 C   0  0  0  0  0  0  0  0  0  0  0  0
   -2.7595   -9.8394    2.2497 H   0  0  0  0  0  0  0  0  0  0  0  0
   -1.1015  -10.1793    2.7188 H   0  0  0  0  0  0  0  0  0  0  0  0
   -1.4484   -9.1109    1.3595 H   0  0  0  0  0  0  0  0  0  0  0  0
   -2.4968   -7.4607    2.9638 H   0  0  0  0  0  0  0  0  0  0  0  0
   -2.1721   -8.5447    4.2841 H   0  0  0  0  0  0  0  0  0  0  0  0
   -0.5078   -6.6802    4.1844 H   0  0  0  0  0  0  0  0  0  0  0  0
    0.2285   -8.2544    4.1000 H   0  0  0  0  0  0  0  0  0  0  0  0
    1.8070   -7.6894    0.8423 H   0  0  0  0  0  0  0  0  0  0  0  0
    1.0586   -9.6123    1.5631 H   0  0  0  0  0  0  0  0  0  0  0  0
    3.2955   -8.0363    2.9885 H   0  0  0  0  0  0  0  0  0  0  0  0
    2.7542   -5.6150    1.4677 H   0  0  0  0  0  0  0  0  0  0  0  0
    3.8664   -7.5504    0.2518 H   0  0  0  0  0  0  0  0  0  0  0  0
    4.9667   -8.6100    2.2469 H   0  0  0  0  0  0  0  0  0  0  0  0
    6.1000   -8.2962    0.9610 H   0  0  0  0  0  0  0  0  0  0  0  0
    7.0055   -7.5310    3.1651 H   0  0  0  0  0  0  0  0  0  0  0  0
    4.8554   -7.0094    4.3039 H   0  0  0  0  0  0  0  0  0  0  0  0
    5.9187   -5.6263    4.3689 H   0  0  0  0  0  0  0  0  0  0  0  0
    3.6203   -4.9187    3.6812 H   0  0  0  0  0  0  0  0  0  0  0  0
    4.2825   -3.6304    1.6753 H   0  0  0  0  0  0  0  0  0  0  0  0
    5.5901   -3.6531    2.8406 H   0  0  0  0  0  0  0  0  0  0  0  0
    7.2383   -3.1574    0.9908 H   0  0  0  0  0  0  0  0  0  0  0  0
    7.5257   -4.2905   -0.2695 H   0  0  0  0  0  0  0  0  0  0  0  0
    5.2654   -3.5319   -1.3388 H   0  0  0  0  0  0  0  0  0  0  0  0
    5.2393   -2.2738   -0.1145 H   0  0  0  0  0  0  0  0  0  0  0  0
    7.1739   -2.8731   -2.0880 H   0  0  0  0  0  0  0  0  0  0  0  0
    7.6162   -5.2218    2.4974 H   0  0  0  0  0  0  0  0  0  0  0  0
    7.6668   -6.2885    1.1208 H   0  0  0  0  0  0  0  0  0  0  0  0
    5.7305   -6.2533   -0.5967 H   0  0  0  0  0  0  0  0  0  0  0  0
    4.3060   -5.2750   -0.3373 H   0  0  0  0  0  0  0  0  0  0  0  0
  1  2  1  0
  1 22  1  0
  1 23  1  0
  1 24  1  0
  2  3  1  0
  2 25  1  0
  2 26  1  0
  3  4  1  0
  3 27  1  0
  3 28  1  0
  4  5  2  0
  4  6  1  0
  6  7  1  0
  6  8  1  0
  6 29  1  6
  7 30  1  0
  8  9  1  0
  8 31  1  0
  9 14  1  0
  9 10  1  0
  9 32  1  6
 10 21  1  0
 10 11  1  0
 10 33  1  6
 11 12  1  0
 11 34  1  0
 11 35  1  0
 12 20  1  0
 12 13  1  0
 12 36  1  1
 13 14  1  0
 13 37  1  0
 13 38  1  0
 14 15  1  0
 14 39  1  1
 15 16  1  0
 15 40  1  0
 15 41  1  0
 16 17  1  6
 16 20  1  0
 16 21  1  0
 17 18  1  0
 17 42  1  0
 17 43  1  0
 18 19  1  0
 18 44  1  0
 18 45  1  0
 19 46  1  0
 20 47  1  0
 20 48  1  0
 21 49  1  0
 21 50  1  0
M  END
>  <i_m_ct_stereo_status>  (10) 
1

>  <s_m_source_file>  (10) 
/var/tmp/pbs.5076255.sched01/tmpd0mq1ayv/02wja6gfv.sdf

>  <i_m_source_file_index>  (10) 
4

>  <i_lp_mmshare_version>  (10) 
48012

>  <i_f3d_flags>  (10) 
0

>  <s_epik_input>  (10) 
W0NIM11bQ0gyXVtDSDJdQyg9TylbQ0BIXShbT0hdKVtOSF1bQ0BIXShbQ0BASF0oW0NIMl0xKVtDSDJdW0NASF0oW0NIMl0yKVtDSDJdMylbQ0BASF0yW0NIMl1bQ0BdMTNbQ0gyXVtDSDJdW09IXQ==

>  <s_epik_cmdline>  (10) 
J2VwaWtfcHl0aG9uJywgJy1waHQnLCAnMi4wJywgJy1waCcsICc3LjAnLCAnLXRuJywgJzgnLCAnLW1hJywgJzIwMCcsICctaW1hZScsICc8aW5maWxlLm1hZT4nLCAnLW9tYWUnLCAnPG91dGZpbGUubWFlPic=

>  <r_epik_Ionization_Penalty>  (10) 
0.408125

>  <r_epik_Ionization_Penalty_Charging>  (10) 
0

>  <r_epik_Ionization_Penalty_Neutral>  (10) 
0.408125

>  <r_epik_State_Penalty>  (10) 
0.00746129

>  <r_epik_Charging_Adjusted_Penalty>  (10) 
0.00746129

>  <i_epik_Tot_Q>  (10) 
0

>  <i_epik_Tot_abs_Q>  (10) 
0

>  <s_epik_Chemistry_Notes>  (10) 
This compound contains an acetal/aminal-like group ( X-CH(R)-Y where X, Y are N, S, or O) that may be acid/base labile, releasing an aldehyde.

>  <s_lp_Force_Field>  (10) 
OPLS3e

>  <r_lp_Energy>  (10) 
10.6779

>  <b_lp_Chiralities_Consistent>  (10) 
1

>  <s_lp_Variant>  (10) 
3:0-1

>  <s_i_glide_gridfile>  (10) 
pfpi4k_grid

>  <i_i_glide_lignum>  (10) 
4

>  <i_i_glide_rotatable_bonds>  (10) 
9

>  <r_i_docking_score>  (10) 
-2.66132

>  <r_i_glide_ligand_efficiency>  (10) 
-0.12673

>  <r_i_glide_ligand_efficiency_sa>  (10) 
-0.349637

>  <r_i_glide_ligand_efficiency_ln>  (10) 
-0.658007

>  <r_i_glide_gscore>  (10) 
-2.66132

>  <r_i_glide_lipo>  (10) 
-0.952045

>  <r_i_glide_hbond>  (10) 
-0.449481

>  <r_i_glide_metal>  (10) 
-0

>  <r_i_glide_rewards>  (10) 
-1.39488

>  <r_i_glide_evdw>  (10) 
-17.9168

>  <r_i_glide_ecoul>  (10) 
-9.23167

>  <r_i_glide_erotb>  (10) 
2.51684

>  <r_i_glide_esite>  (10) 
-0.101167

>  <r_i_glide_emodel>  (10) 
-27.5768

>  <r_i_glide_energy>  (10) 
-27.1485

>  <r_i_glide_einternal>  (10) 
8.04652

>  <r_i_glide_intrahb_reward>  (10) 
-0

>  <i_i_glide_confnum>  (10) 
7

>  <i_i_glide_posenum>  (10) 
1

>  <r_i_glide_eff_state_penalty>  (10) 
0

>  <ligand_id>  (10) 
3

>  <original_smiles>  (10) 
CCCC(=O)C(O)NC1C2CC3CC1CC(CCO)(C3)C2

>  <smiles>  (10) 
[H]OC([H])(C(=O)C([H])([H])C([H])([H])C([H])([H])[H])N([H])C1([H])C2([H])C([H])([H])C3([H])C([H])([H])C1([H])C([H])([H])C(C([H])([H])C([H])([H])O[H])(C3([H])[H])C2([H])[H]

$$$$
3:0:1
     RDKit          3D

 50 52  0  0  1  0  0  0  0  0999 V2000
    2.2806    1.7004    2.6503 C   0  0  0  0  0  0  0  0  0  0  0  0
    2.0233    0.5666    1.6504 C   0  0  0  0  0  0  0  0  0  0  0  0
    3.3186    0.0889    0.9609 C   0  0  0  0  0  0  0  0  0  0  0  0
    4.2966   -0.6607    1.8738 C   0  0  0  0  0  0  0  0  0  0  0  0
    4.0970   -0.7049    3.0943 O   0  0  0  0  0  0  0  0  0  0  0  0
    5.4924   -1.3556    1.2056 C   0  0  2  0  0  0  0  0  0  0  0  0
    6.2143   -0.4310    0.4145 O   0  0  0  0  0  0  0  0  0  0  0  0
    5.1105   -2.4220    0.3056 N   0  0  0  0  0  0  0  0  0  0  0  0
    4.1880   -3.3911    0.8735 C   0  0  2  0  0  0  0  0  0  0  0  0
    4.7448   -3.9931    2.1831 C   0  0  2  0  0  0  0  0  0  0  0  0
    6.0131   -4.8086    1.8728 C   0  0  0  0  0  0  0  0  0  0  0  0
    5.6518   -5.9411    0.8915 C   0  0  2  0  0  0  0  0  0  0  0  0
    5.1102   -5.3517   -0.4285 C   0  0  0  0  0  0  0  0  0  0  0  0
    3.8641   -4.5013   -0.1318 C   0  0  1  0  0  0  0  0  0  0  0  0
    2.7844   -5.3862    0.5082 C   0  0  0  0  0  0  0  0  0  0  0  0
    3.2808   -6.0256    1.8338 C   0  0  1  0  0  0  0  0  0  0  0  0
    2.2002   -6.9645    2.4575 C   0  0  0  0  0  0  0  0  0  0  0  0
    0.7735   -6.4023    2.6435 C   0  0  0  0  0  0  0  0  0  0  0  0
    0.0674   -6.3598    1.4166 O   0  0  0  0  0  0  0  0  0  0  0  0
    4.5754   -6.8315    1.5434 C   0  0  0  0  0  0  0  0  0  0  0  0
    3.6643   -4.8811    2.8045 C   0  0  0  0  0  0  0  0  0  0  0  0
    1.3582    2.0365    3.1093 H   0  0  0  0  0  0  0  0  0  0  0  0
    2.7535    2.5429    2.1467 H   0  0  0  0  0  0  0  0  0  0  0  0
    2.9478    1.4060    3.4591 H   0  0  0  0  0  0  0  0  0  0  0  0
    1.5392   -0.2823    2.1284 H   0  0  0  0  0  0  0  0  0  0  0  0
    1.3221    0.9060    0.8830 H   0  0  0  0  0  0  0  0  0  0  0  0
    3.0485   -0.6089    0.1655 H   0  0  0  0  0  0  0  0  0  0  0  0
    3.8218    0.9435    0.4889 H   0  0  0  0  0  0  0  0  0  0  0  0
    6.1466   -1.7376    1.9839 H   0  0  0  0  0  0  0  0  0  0  0  0
    6.8014    0.0655    0.9640 H   0  0  0  0  0  0  0  0  0  0  0  0
    5.9388   -2.8508   -0.0484 H   0  0  0  0  0  0  0  0  0  0  0  0
    3.2439   -2.8733    1.0593 H   0  0  0  0  0  0  0  0  0  0  0  0
    4.9873   -3.2438    2.9394 H   0  0  0  0  0  0  0  0  0  0  0  0
    6.7941   -4.1696    1.4374 H   0  0  0  0  0  0  0  0  0  0  0  0
    6.4294   -5.2045    2.8046 H   0  0  0  0  0  0  0  0  0  0  0  0
    6.5469   -6.5216    0.6826 H   0  0  0  0  0  0  0  0  0  0  0  0
    5.8605   -4.7349   -0.9380 H   0  0  0  0  0  0  0  0  0  0  0  0
    4.8372   -6.1502   -1.1220 H   0  0  0  0  0  0  0  0  0  0  0  0
    3.4676   -4.0810   -1.0652 H   0  0  0  0  0  0  0  0  0  0  0  0
    1.8956   -4.7621    0.6743 H   0  0  0  0  0  0  0  0  0  0  0  0
    2.4934   -6.1716   -0.1933 H   0  0  0  0  0  0  0  0  0  0  0  0
    2.1358   -7.9027    1.9100 H   0  0  0  0  0  0  0  0  0  0  0  0
    2.5465   -7.2670    3.4386 H   0  0  0  0  0  0  0  0  0  0  0  0
    0.2143   -7.0345    3.3450 H   0  0  0  0  0  0  0  0  0  0  0  0
    0.7892   -5.4001    3.0709 H   0  0  0  0  0  0  0  0  0  0  0  0
    0.1449   -7.2154    1.0088 H   0  0  0  0  0  0  0  0  0  0  0  0
    4.3588   -7.6671    0.8801 H   0  0  0  0  0  0  0  0  0  0  0  0
    4.9747   -7.2615    2.4653 H   0  0  0  0  0  0  0  0  0  0  0  0
    4.0368   -5.2797    3.7539 H   0  0  0  0  0  0  0  0  0  0  0  0
    2.8050   -4.2469    3.0514 H   0  0  0  0  0  0  0  0  0  0  0  0
  1  2  1  0
  1 22  1  0
  1 23  1  0
  1 24  1  0
  2  3  1  0
  2 25  1  0
  2 26  1  0
  3  4  1  0
  3 27  1  0
  3 28  1  0
  4  5  2  0
  4  6  1  0
  6  7  1  0
  6  8  1  0
  6 29  1  1
  7 30  1  0
  8  9  1  0
  8 31  1  0
  9 14  1  0
  9 10  1  0
  9 32  1  1
 10 21  1  0
 10 11  1  0
 10 33  1  1
 11 12  1  0
 11 34  1  0
 11 35  1  0
 12 20  1  0
 12 13  1  0
 12 36  1  6
 13 14  1  0
 13 37  1  0
 13 38  1  0
 14 15  1  0
 14 39  1  6
 15 16  1  0
 15 40  1  0
 15 41  1  0
 16 17  1  1
 16 20  1  0
 16 21  1  0
 17 18  1  0
 17 42  1  0
 17 43  1  0
 18 19  1  0
 18 44  1  0
 18 45  1  0
 19 46  1  0
 20 47  1  0
 20 48  1  0
 21 49  1  0
 21 50  1  0
M  END
>  <i_m_ct_stereo_status>  (11) 
1

>  <s_m_source_file>  (11) 
/var/tmp/pbs.5076255.sched01/tmpd0mq1ayv/02wja6gfv.sdf

>  <i_m_source_file_index>  (11) 
4

>  <i_lp_mmshare_version>  (11) 
48012

>  <i_f3d_flags>  (11) 
0

>  <s_epik_input>  (11) 
W0NIM11bQ0gyXVtDSDJdQyg9TylbQ0BIXShbT0hdKVtOSF1bQ0BIXShbQ0BASF0oW0NIMl0xKVtDSDJdW0NASF0oW0NIMl0yKVtDSDJdMylbQ0BASF0yW0NIMl1bQ0BdMTNbQ0gyXVtDSDJdW09IXQ==

>  <s_epik_cmdline>  (11) 
J2VwaWtfcHl0aG9uJywgJy1waHQnLCAnMi4wJywgJy1waCcsICc3LjAnLCAnLXRuJywgJzgnLCAnLW1hJywgJzIwMCcsICctaW1hZScsICc8aW5maWxlLm1hZT4nLCAnLW9tYWUnLCAnPG91dGZpbGUubWFlPic=

>  <r_epik_Ionization_Penalty>  (11) 
0.408125

>  <r_epik_Ionization_Penalty_Charging>  (11) 
0

>  <r_epik_Ionization_Penalty_Neutral>  (11) 
0.408125

>  <r_epik_State_Penalty>  (11) 
0.00746129

>  <r_epik_Charging_Adjusted_Penalty>  (11) 
0.00746129

>  <i_epik_Tot_Q>  (11) 
0

>  <i_epik_Tot_abs_Q>  (11) 
0

>  <s_epik_Chemistry_Notes>  (11) 
This compound contains an acetal/aminal-like group ( X-CH(R)-Y where X, Y are N, S, or O) that may be acid/base labile, releasing an aldehyde.

>  <s_lp_Force_Field>  (11) 
OPLS3e

>  <r_lp_Energy>  (11) 
10.6779

>  <b_lp_Chiralities_Consistent>  (11) 
1

>  <s_lp_Variant>  (11) 
3:0-1

>  <s_i_glide_gridfile>  (11) 
pfpi4k_grid

>  <i_i_glide_lignum>  (11) 
4

>  <i_i_glide_rotatable_bonds>  (11) 
9

>  <r_i_docking_score>  (11) 
-1.72742

>  <r_i_glide_ligand_efficiency>  (11) 
-0.082258

>  <r_i_glide_ligand_efficiency_sa>  (11) 
-0.226944

>  <r_i_glide_ligand_efficiency_ln>  (11) 
-0.427101

>  <r_i_glide_gscore>  (11) 
-1.72742

>  <r_i_glide_lipo>  (11) 
-0.300392

>  <r_i_glide_hbond>  (11) 
-0.257718

>  <r_i_glide_metal>  (11) 
-0

>  <r_i_glide_rewards>  (11) 
-1.66789

>  <r_i_glide_evdw>  (11) 
-16.5059

>  <r_i_glide_ecoul>  (11) 
-7.95311

>  <r_i_glide_erotb>  (11) 
2.51684

>  <r_i_glide_esite>  (11) 
0

>  <r_i_glide_emodel>  (11) 
-23.1827

>  <r_i_glide_energy>  (11) 
-24.459

>  <r_i_glide_einternal>  (11) 
7.17017

>  <r_i_glide_intrahb_reward>  (11) 
-0

>  <i_i_glide_confnum>  (11) 
7

>  <i_i_glide_posenum>  (11) 
6

>  <r_i_glide_eff_state_penalty>  (11) 
0

>  <ligand_id>  (11) 
3

>  <original_smiles>  (11) 
CCCC(=O)C(O)NC1C2CC3CC1CC(CCO)(C3)C2

>  <smiles>  (11) 
[H]OC([H])(C(=O)C([H])([H])C([H])([H])C([H])([H])[H])N([H])C1([H])C2([H])C([H])([H])C3([H])C([H])([H])C1([H])C([H])([H])C(C([H])([H])C([H])([H])O[H])(C3([H])[H])C2([H])[H]

$$$$
3:0:2
     RDKit          3D

 50 52  0  0  1  0  0  0  0  0999 V2000
    3.8828   -1.0700   -4.3465 C   0  0  0  0  0  0  0  0  0  0  0  0
    3.1730   -1.1434   -2.9884 C   0  0  0  0  0  0  0  0  0  0  0  0
    4.0932   -1.1461   -1.7662 C   0  0  0  0  0  0  0  0  0  0  0  0
    5.0495   -2.3596   -1.6797 C   0  0  0  0  0  0  0  0  0  0  0  0
    5.1732   -3.1427   -2.6182 O   0  0  0  0  0  0  0  0  0  0  0  0
    5.7909   -2.5479   -0.3576 C   0  0  2  0  0  0  0  0  0  0  0  0
    7.0950   -2.0883   -0.5387 O   0  0  0  0  0  0  0  0  0  0  0  0
    5.9326   -3.9569   -0.0170 N   0  0  0  0  0  0  0  0  0  0  0  0
    4.6816   -4.5824    0.3992 C   0  0  2  0  0  0  0  0  0  0  0  0
    4.2612   -4.0510    1.7846 C   0  0  2  0  0  0  0  0  0  0  0  0
    5.3334   -4.4216    2.8243 C   0  0  0  0  0  0  0  0  0  0  0  0
    5.4759   -5.9565    2.8856 C   0  0  2  0  0  0  0  0  0  0  0  0
    5.9028   -6.5108    1.5058 C   0  0  0  0  0  0  0  0  0  0  0  0
    4.8478   -6.1105    0.4588 C   0  0  1  0  0  0  0  0  0  0  0  0
    3.4960   -6.7433    0.8607 C   0  0  0  0  0  0  0  0  0  0  0  0
    3.0284   -6.2220    2.2469 C   0  0  1  0  0  0  0  0  0  0  0  0
    1.6788   -6.8608    2.6672 C   0  0  0  0  0  0  0  0  0  0  0  0
    0.5751   -6.8118    1.5983 C   0  0  0  0  0  0  0  0  0  0  0  0
   -0.6923   -6.9709    2.1922 O   0  0  0  0  0  0  0  0  0  0  0  0
    4.1170   -6.5671    3.2887 C   0  0  0  0  0  0  0  0  0  0  0  0
    2.9079   -4.6776    2.1696 C   0  0  0  0  0  0  0  0  0  0  0  0
    3.1537   -0.9835   -5.1454 H   0  0  0  0  0  0  0  0  0  0  0  0
    4.4857   -1.9492   -4.5661 H   0  0  0  0  0  0  0  0  0  0  0  0
    4.5422   -0.2064   -4.3949 H   0  0  0  0  0  0  0  0  0  0  0  0
    2.5413   -0.2690   -2.8868 H   0  0  0  0  0  0  0  0  0  0  0  0
    2.5052   -1.9987   -2.9434 H   0  0  0  0  0  0  0  0  0  0  0  0
    4.6888   -0.2332   -1.7206 H   0  0  0  0  0  0  0  0  0  0  0  0
    3.4858   -1.1597   -0.8559 H   0  0  0  0  0  0  0  0  0  0  0  0
    5.3152   -1.9649    0.4480 H   0  0  0  0  0  0  0  0  0  0  0  0
    7.4668   -1.9584    0.3184 H   0  0  0  0  0  0  0  0  0  0  0  0
    6.6528   -4.1090    0.6718 H   0  0  0  0  0  0  0  0  0  0  0  0
    3.9073   -4.3762   -0.3359 H   0  0  0  0  0  0  0  0  0  0  0  0
    4.1027   -2.9732    1.7859 H   0  0  0  0  0  0  0  0  0  0  0  0
    6.2894   -3.9731    2.5516 H   0  0  0  0  0  0  0  0  0  0  0  0
    5.0718   -4.0088    3.8009 H   0  0  0  0  0  0  0  0  0  0  0  0
    6.2348   -6.2156    3.6234 H   0  0  0  0  0  0  0  0  0  0  0  0
    6.8887   -6.1343    1.2242 H   0  0  0  0  0  0  0  0  0  0  0  0
    5.9997   -7.5987    1.5468 H   0  0  0  0  0  0  0  0  0  0  0  0
    5.0977   -6.4944   -0.5293 H   0  0  0  0  0  0  0  0  0  0  0  0
    2.7771   -6.4855    0.0847 H   0  0  0  0  0  0  0  0  0  0  0  0
    3.5813   -7.8334    0.8802 H   0  0  0  0  0  0  0  0  0  0  0  0
    1.8278   -7.9056    2.9468 H   0  0  0  0  0  0  0  0  0  0  0  0
    1.3334   -6.3706    3.5812 H   0  0  0  0  0  0  0  0  0  0  0  0
    0.5767   -5.8632    1.0677 H   0  0  0  0  0  0  0  0  0  0  0  0
    0.7229   -7.5988    0.8557 H   0  0  0  0  0  0  0  0  0  0  0  0
   -0.7378   -7.8464    2.5497 H   0  0  0  0  0  0  0  0  0  0  0  0
    4.2281   -7.6451    3.3841 H   0  0  0  0  0  0  0  0  0  0  0  0
    3.8338   -6.1949    4.2741 H   0  0  0  0  0  0  0  0  0  0  0  0
    2.5847   -4.2689    3.1298 H   0  0  0  0  0  0  0  0  0  0  0  0
    2.1768   -4.3596    1.4285 H   0  0  0  0  0  0  0  0  0  0  0  0
  1  2  1  0
  1 22  1  0
  1 23  1  0
  1 24  1  0
  2  3  1  0
  2 25  1  0
  2 26  1  0
  3  4  1  0
  3 27  1  0
  3 28  1  0
  4  5  2  0
  4  6  1  0
  6  7  1  0
  6  8  1  0
  6 29  1  1
  7 30  1  0
  8  9  1  0
  8 31  1  0
  9 14  1  0
  9 10  1  0
  9 32  1  6
 10 21  1  0
 10 11  1  0
 10 33  1  6
 11 12  1  0
 11 34  1  0
 11 35  1  0
 12 20  1  0
 12 13  1  0
 12 36  1  1
 13 14  1  0
 13 37  1  0
 13 38  1  0
 14 15  1  0
 14 39  1  6
 15 16  1  0
 15 40  1  0
 15 41  1  0
 16 17  1  1
 16 20  1  0
 16 21  1  0
 17 18  1  0
 17 42  1  0
 17 43  1  0
 18 19  1  0
 18 44  1  0
 18 45  1  0
 19 46  1  0
 20 47  1  0
 20 48  1  0
 21 49  1  0
 21 50  1  0
M  END
>  <i_m_ct_stereo_status>  (12) 
1

>  <s_m_source_file>  (12) 
/var/tmp/pbs.5076255.sched01/tmpd0mq1ayv/02wja6gfv.sdf

>  <i_m_source_file_index>  (12) 
4

>  <i_lp_mmshare_version>  (12) 
48012

>  <i_f3d_flags>  (12) 
0

>  <s_epik_input>  (12) 
W0NIM11bQ0gyXVtDSDJdQyg9TylbQ0BIXShbT0hdKVtOSF1bQ0BIXShbQ0BASF0oW0NIMl0xKVtDSDJdW0NASF0oW0NIMl0yKVtDSDJdMylbQ0BASF0yW0NIMl1bQ0BdMTNbQ0gyXVtDSDJdW09IXQ==

>  <s_epik_cmdline>  (12) 
J2VwaWtfcHl0aG9uJywgJy1waHQnLCAnMi4wJywgJy1waCcsICc3LjAnLCAnLXRuJywgJzgnLCAnLW1hJywgJzIwMCcsICctaW1hZScsICc8aW5maWxlLm1hZT4nLCAnLW9tYWUnLCAnPG91dGZpbGUubWFlPic=

>  <r_epik_Ionization_Penalty>  (12) 
0.408125

>  <r_epik_Ionization_Penalty_Charging>  (12) 
0

>  <r_epik_Ionization_Penalty_Neutral>  (12) 
0.408125

>  <r_epik_State_Penalty>  (12) 
0.00746129

>  <r_epik_Charging_Adjusted_Penalty>  (12) 
0.00746129

>  <i_epik_Tot_Q>  (12) 
0

>  <i_epik_Tot_abs_Q>  (12) 
0

>  <s_epik_Chemistry_Notes>  (12) 
This compound contains an acetal/aminal-like group ( X-CH(R)-Y where X, Y are N, S, or O) that may be acid/base labile, releasing an aldehyde.

>  <s_lp_Force_Field>  (12) 
OPLS3e

>  <r_lp_Energy>  (12) 
10.6779

>  <b_lp_Chiralities_Consistent>  (12) 
1

>  <s_lp_Variant>  (12) 
3:0-1

>  <s_i_glide_gridfile>  (12) 
pfpi4k_grid

>  <i_i_glide_lignum>  (12) 
4

>  <i_i_glide_rotatable_bonds>  (12) 
9

>  <r_i_docking_score>  (12) 
-1.28384

>  <r_i_glide_ligand_efficiency>  (12) 
-0.0611352

>  <r_i_glide_ligand_efficiency_sa>  (12) 
-0.168667

>  <r_i_glide_ligand_efficiency_ln>  (12) 
-0.317427

>  <r_i_glide_gscore>  (12) 
-1.28384

>  <r_i_glide_lipo>  (12) 
-0.369028

>  <r_i_glide_hbond>  (12) 
-0.16

>  <r_i_glide_metal>  (12) 
-0

>  <r_i_glide_rewards>  (12) 
-1.39488

>  <r_i_glide_evdw>  (12) 
-21.7045

>  <r_i_glide_ecoul>  (12) 
-5.12402

>  <r_i_glide_erotb>  (12) 
2.51684

>  <r_i_glide_esite>  (12) 
-0.0229436

>  <r_i_glide_emodel>  (12) 
-24.7605

>  <r_i_glide_energy>  (12) 
-26.8285

>  <r_i_glide_einternal>  (12) 
6.3836

>  <r_i_glide_intrahb_reward>  (12) 
-0

>  <i_i_glide_confnum>  (12) 
7

>  <i_i_glide_posenum>  (12) 
3

>  <r_i_glide_eff_state_penalty>  (12) 
0

>  <ligand_id>  (12) 
3

>  <original_smiles>  (12) 
CCCC(=O)C(O)NC1C2CC3CC1CC(CCO)(C3)C2

>  <smiles>  (12) 
[H]OC([H])(C(=O)C([H])([H])C([H])([H])C([H])([H])[H])N([H])C1([H])C2([H])C([H])([H])C3([H])C([H])([H])C1([H])C([H])([H])C(C([H])([H])C([H])([H])O[H])(C3([H])[H])C2([H])[H]

$$$$
3:1:0
     RDKit          3D

 51 53  0  0  1  0  0  0  0  0999 V2000
    3.9591   -3.0254   -3.4850 C   0  0  0  0  0  0  0  0  0  0  0  0
    2.8398   -2.6729   -2.4970 C   0  0  0  0  0  0  0  0  0  0  0  0
    3.1508   -3.0757   -1.0453 C   0  0  0  0  0  0  0  0  0  0  0  0
    4.3243   -2.3057   -0.4416 C   0  0  0  0  0  0  0  0  0  0  0  0
    5.3728   -2.9048   -0.1856 O   0  0  0  0  0  0  0  0  0  0  0  0
    4.0994   -0.8146   -0.1560 C   0  0  2  0  0  0  0  0  0  0  0  0
    5.2140   -0.2740    0.5177 O   0  0  0  0  0  0  0  0  0  0  0  0
    3.0137   -0.7588    0.8483 N   0  0  0  0  0  0  0  0  0  0  0  0
    2.7907    0.4957    1.5889 C   0  0  2  0  0  0  0  0  0  0  0  0
    3.2426    0.3688    3.0669 C   0  0  2  0  0  0  0  0  0  0  0  0
    2.4228   -0.7217    3.7966 C   0  0  0  0  0  0  0  0  0  0  0  0
    0.9303   -0.3449    3.7457 C   0  0  2  0  0  0  0  0  0  0  0  0
    0.4722   -0.2363    2.2802 C   0  0  0  0  0  0  0  0  0  0  0  0
    1.2964    0.8424    1.5606 C   0  0  1  0  0  0  0  0  0  0  0  0
    1.0798    2.1848    2.2593 C   0  0  0  0  0  0  0  0  0  0  0  0
    1.5203    2.1203    3.7444 C   0  0  1  0  0  0  0  0  0  0  0  0
    1.3522    3.4918    4.4481 C   0  0  0  0  0  0  0  0  0  0  0  0
   -0.0498    4.1267    4.3633 C   0  0  0  0  0  0  0  0  0  0  0  0
   -0.0201    5.4356    4.8875 O   0  0  0  0  0  0  0  0  0  0  0  0
    0.7144    1.0080    4.4568 C   0  0  0  0  0  0  0  0  0  0  0  0
    3.0178    1.7225    3.7759 C   0  0  0  0  0  0  0  0  0  0  0  0
    3.6497   -2.7894   -4.5025 H   0  0  0  0  0  0  0  0  0  0  0  0
    4.1948   -4.0909   -3.4449 H   0  0  0  0  0  0  0  0  0  0  0  0
    4.8787   -2.4736   -3.2773 H   0  0  0  0  0  0  0  0  0  0  0  0
    2.6158   -1.6083   -2.5551 H   0  0  0  0  0  0  0  0  0  0  0  0
    1.9255   -3.1841   -2.8014 H   0  0  0  0  0  0  0  0  0  0  0  0
    2.2698   -2.8856   -0.4338 H   0  0  0  0  0  0  0  0  0  0  0  0
    3.3468   -4.1463   -0.9759 H   0  0  0  0  0  0  0  0  0  0  0  0
    3.8899   -0.2527   -1.0639 H   0  0  0  0  0  0  0  0  0  0  0  0
    5.4173    0.5673    0.1280 H   0  0  0  0  0  0  0  0  0  0  0  0
    2.1450   -0.9803    0.3580 H   0  0  0  0  0  0  0  0  0  0  0  0
    3.3317    1.3168    1.1197 H   0  0  0  0  0  0  0  0  0  0  0  0
    4.3059    0.1213    3.1120 H   0  0  0  0  0  0  0  0  0  0  0  0
    2.5775   -1.7031    3.3478 H   0  0  0  0  0  0  0  0  0  0  0  0
    2.7539   -0.8089    4.8311 H   0  0  0  0  0  0  0  0  0  0  0  0
    0.3412   -1.1143    4.2475 H   0  0  0  0  0  0  0  0  0  0  0  0
    0.5946   -1.1992    1.7817 H   0  0  0  0  0  0  0  0  0  0  0  0
   -0.5806    0.0435    2.2329 H   0  0  0  0  0  0  0  0  0  0  0  0
    0.9597    0.9372    0.5292 H   0  0  0  0  0  0  0  0  0  0  0  0
    1.6454    2.9551    1.7316 H   0  0  0  0  0  0  0  0  0  0  0  0
    0.0221    2.4296    2.1537 H   0  0  0  0  0  0  0  0  0  0  0  0
    1.6296    3.3928    5.4999 H   0  0  0  0  0  0  0  0  0  0  0  0
    2.0764    4.1949    4.0315 H   0  0  0  0  0  0  0  0  0  0  0  0
   -0.3909    4.2185    3.3360 H   0  0  0  0  0  0  0  0  0  0  0  0
   -0.7791    3.5334    4.9127 H   0  0  0  0  0  0  0  0  0  0  0  0
    0.5953    5.9353    4.3666 H   0  0  0  0  0  0  0  0  0  0  0  0
   -0.3495    1.2471    4.4696 H   0  0  0  0  0  0  0  0  0  0  0  0
    1.0312    0.9246    5.4985 H   0  0  0  0  0  0  0  0  0  0  0  0
    3.3840    1.6668    4.8027 H   0  0  0  0  0  0  0  0  0  0  0  0
    3.6067    2.4970    3.2834 H   0  0  0  0  0  0  0  0  0  0  0  0
    3.2003   -1.4783    1.5325 H   0  0  0  0  0  0  0  0  0  0  0  0
  1  2  1  0
  1 22  1  0
  1 23  1  0
  1 24  1  0
  2  3  1  0
  2 25  1  0
  2 26  1  0
  3  4  1  0
  3 27  1  0
  3 28  1  0
  4  5  2  0
  4  6  1  0
  6  7  1  0
  6  8  1  0
  6 29  1  6
  7 30  1  0
  8  9  1  0
  8 31  1  0
  8 51  1  0
  9 14  1  0
  9 10  1  0
  9 32  1  6
 10 21  1  0
 10 11  1  0
 10 33  1  6
 11 12  1  0
 11 34  1  0
 11 35  1  0
 12 20  1  0
 12 13  1  0
 12 36  1  1
 13 14  1  0
 13 37  1  0
 13 38  1  0
 14 15  1  0
 14 39  1  6
 15 16  1  0
 15 40  1  0
 15 41  1  0
 16 17  1  1
 16 20  1  0
 16 21  1  0
 17 18  1  0
 17 42  1  0
 17 43  1  0
 18 19  1  0
 18 44  1  0
 18 45  1  0
 19 46  1  0
 20 47  1  0
 20 48  1  0
 21 49  1  0
 21 50  1  0
M  CHG  1   8   1
M  END
>  <i_m_ct_stereo_status>  (13) 
1

>  <s_m_source_file>  (13) 
/var/tmp/pbs.5076255.sched01/tmpd0mq1ayv/02wja6gfv.sdf

>  <i_m_source_file_index>  (13) 
5

>  <i_lp_mmshare_version>  (13) 
48012

>  <i_f3d_flags>  (13) 
0

>  <s_epik_input>  (13) 
W0NIM11bQ0gyXVtDSDJdQyg9TylbQ0BIXShbT0hdKVtOSF1bQ0BIXShbQ0BASF0oW0NIMl0xKVtDSDJdW0NASF0oW0NIMl0yKVtDSDJdMylbQ0BASF0yW0NIMl1bQ0BdMTNbQ0gyXVtDSDJdW09IXQ==

>  <s_epik_cmdline>  (13) 
J2VwaWtfcHl0aG9uJywgJy1waHQnLCAnMi4wJywgJy1waCcsICc3LjAnLCAnLXRuJywgJzgnLCAnLW1hJywgJzIwMCcsICctaW1hZScsICc8aW5maWxlLm1hZT4nLCAnLW9tYWUnLCAnPG91dGZpbGUubWFlPic=

>  <r_lp_tautomer_probability>  (13) 
0.9999

>  <r_epik_Ionization_Penalty>  (13) 
1.22304

>  <r_epik_Ionization_Penalty_Charging>  (13) 
0.413247

>  <r_epik_Ionization_Penalty_Neutral>  (13) 
0.809793

>  <r_epik_State_Penalty>  (13) 
2.6181

>  <r_epik_Charging_Adjusted_Penalty>  (13) 
3.03134

>  <i_epik_Tot_Q>  (13) 
1

>  <i_epik_Tot_abs_Q>  (13) 
1

>  <s_epik_Chemistry_Notes>  (13) 
This compound contains an acetal/aminal-like group ( X-CH(R)-Y where X, Y are N, S, or O) that may be acid/base labile, releasing an aldehyde.

>  <s_lp_Force_Field>  (13) 
OPLS3e

>  <r_lp_Energy>  (13) 
19.2059

>  <b_lp_Chiralities_Consistent>  (13) 
1

>  <s_lp_Variant>  (13) 
3:0-2

>  <s_i_glide_gridfile>  (13) 
pfpi4k_grid

>  <i_i_glide_lignum>  (13) 
5

>  <i_i_glide_rotatable_bonds>  (13) 
9

>  <r_i_docking_score>  (13) 
-2.08307

>  <r_i_glide_ligand_efficiency>  (13) 
-0.0991939

>  <r_i_glide_ligand_efficiency_sa>  (13) 
-0.273669

>  <r_i_glide_ligand_efficiency_ln>  (13) 
-0.515035

>  <r_i_glide_gscore>  (13) 
-2.08307

>  <r_i_glide_lipo>  (13) 
-0.238483

>  <r_i_glide_hbond>  (13) 
-0.2

>  <r_i_glide_metal>  (13) 
-0

>  <r_i_glide_rewards>  (13) 
-1.38801

>  <r_i_glide_evdw>  (13) 
-18.9833

>  <r_i_glide_ecoul>  (13) 
-11.4048

>  <r_i_glide_erotb>  (13) 
2.50191

>  <r_i_glide_esite>  (13) 
-0.0985979

>  <r_i_glide_emodel>  (13) 
-32.6886

>  <r_i_glide_energy>  (13) 
-30.3881

>  <r_i_glide_einternal>  (13) 
3.86212

>  <r_i_glide_intrahb_reward>  (13) 
-0

>  <i_i_glide_confnum>  (13) 
4

>  <i_i_glide_posenum>  (13) 
32

>  <r_i_glide_eff_state_penalty>  (13) 
0

>  <ligand_id>  (13) 
3

>  <original_smiles>  (13) 
CCCC(=O)C(O)NC1C2CC3CC1CC(CCO)(C3)C2

>  <smiles>  (13) 
[H]OC([H])([H])C([H])([H])C12C([H])([H])C3([H])C([H])([H])C([H])(C1([H])[H])C([H])([N+]([H])([H])C([H])(O[H])C(=O)C([H])([H])C([H])([H])C([H])([H])[H])C([H])(C3([H])[H])C2([H])[H]

$$$$
3:1:1
     RDKit          3D

 51 53  0  0  1  0  0  0  0  0999 V2000
    4.2210   -0.7636   -3.3468 C   0  0  0  0  0  0  0  0  0  0  0  0
    3.9911   -2.2436   -3.0034 C   0  0  0  0  0  0  0  0  0  0  0  0
    3.4745   -2.4838   -1.5811 C   0  0  0  0  0  0  0  0  0  0  0  0
    4.5175   -2.1896   -0.5040 C   0  0  0  0  0  0  0  0  0  0  0  0
    5.3135   -3.0641   -0.1756 O   0  0  0  0  0  0  0  0  0  0  0  0
    4.4666   -0.7989    0.1214 C   0  0  2  0  0  0  0  0  0  0  0  0
    5.4784   -0.6886    1.0990 O   0  0  0  0  0  0  0  0  0  0  0  0
    3.2194   -0.7500    0.9060 N   0  0  0  0  0  0  0  0  0  0  0  0
    2.9099    0.5063    1.6231 C   0  0  2  0  0  0  0  0  0  0  0  0
    3.3230    0.4420    3.1188 C   0  0  2  0  0  0  0  0  0  0  0  0
    2.5493   -0.6813    3.8456 C   0  0  0  0  0  0  0  0  0  0  0  0
    1.0386   -0.3983    3.7434 C   0  0  2  0  0  0  0  0  0  0  0  0
    0.6145   -0.3433    2.2614 C   0  0  0  0  0  0  0  0  0  0  0  0
    1.4021    0.7729    1.5424 C   0  0  1  0  0  0  0  0  0  0  0  0
    1.0764    2.1201    2.2038 C   0  0  0  0  0  0  0  0  0  0  0  0
    1.4758    2.1001    3.7004 C   0  0  1  0  0  0  0  0  0  0  0  0
    1.2056    3.4713    4.3632 C   0  0  0  0  0  0  0  0  0  0  0  0
   -0.2317    4.0149    4.2416 C   0  0  0  0  0  0  0  0  0  0  0  0
   -0.2556    5.3751    4.6196 O   0  0  0  0  0  0  0  0  0  0  0  0
    0.7200    0.9577    4.4164 C   0  0  0  0  0  0  0  0  0  0  0  0
    2.9897    1.8014    3.7825 C   0  0  0  0  0  0  0  0  0  0  0  0
    4.5917   -0.6586   -4.3634 H   0  0  0  0  0  0  0  0  0  0  0  0
    4.9560   -0.2900   -2.6954 H   0  0  0  0  0  0  0  0  0  0  0  0
    3.2908   -0.1916   -3.2696 H   0  0  0  0  0  0  0  0  0  0  0  0
    3.2565   -2.6525   -3.6967 H   0  0  0  0  0  0  0  0  0  0  0  0
    4.9127   -2.8094   -3.1613 H   0  0  0  0  0  0  0  0  0  0  0  0
    2.6108   -1.8502   -1.4060 H   0  0  0  0  0  0  0  0  0  0  0  0
    3.1450   -3.5151   -1.4586 H   0  0  0  0  0  0  0  0  0  0  0  0
    4.5373    0.0040   -0.6042 H   0  0  0  0  0  0  0  0  0  0  0  0
    6.0307    0.0486    0.8801 H   0  0  0  0  0  0  0  0  0  0  0  0
    2.4409   -0.9355    0.2747 H   0  0  0  0  0  0  0  0  0  0  0  0
    3.4436    1.3227    1.1413 H   0  0  0  0  0  0  0  0  0  0  0  0
    4.3950    0.2706    3.2242 H   0  0  0  0  0  0  0  0  0  0  0  0
    2.7789   -1.6603    3.4221 H   0  0  0  0  0  0  0  0  0  0  0  0
    2.8545   -0.7267    4.8912 H   0  0  0  0  0  0  0  0  0  0  0  0
    0.4832   -1.1940    4.2462 H   0  0  0  0  0  0  0  0  0  0  0  0
    0.7723   -1.3141    1.7870 H   0  0  0  0  0  0  0  0  0  0  0  0
   -0.4476   -0.1250    2.1938 H   0  0  0  0  0  0  0  0  0  0  0  0
    1.0861    0.8359    0.5023 H   0  0  0  0  0  0  0  0  0  0  0  0
    1.5940    2.9304    1.6789 H   0  0  0  0  0  0  0  0  0  0  0  0
    0.0064    2.2830    2.0720 H   0  0  0  0  0  0  0  0  0  0  0  0
    1.4683    3.4254    5.4220 H   0  0  0  0  0  0  0  0  0  0  0  0
    1.8906    4.2106    3.9423 H   0  0  0  0  0  0  0  0  0  0  0  0
   -0.5955    3.9718    3.2180 H   0  0  0  0  0  0  0  0  0  0  0  0
   -0.9177    3.4477    4.8685 H   0  0  0  0  0  0  0  0  0  0  0  0
    0.2747    5.8496    3.9964 H   0  0  0  0  0  0  0  0  0  0  0  0
   -0.3564    1.1276    4.3942 H   0  0  0  0  0  0  0  0  0  0  0  0
    1.0098    0.9113    5.4660 H   0  0  0  0  0  0  0  0  0  0  0  0
    3.3332    1.7889    4.8179 H   0  0  0  0  0  0  0  0  0  0  0  0
    3.5427    2.5979    3.2824 H   0  0  0  0  0  0  0  0  0  0  0  0
    3.2739   -1.4928    1.5775 H   0  0  0  0  0  0  0  0  0  0  0  0
  1  2  1  0
  1 22  1  0
  1 23  1  0
  1 24  1  0
  2  3  1  0
  2 25  1  0
  2 26  1  0
  3  4  1  0
  3 27  1  0
  3 28  1  0
  4  5  2  0
  4  6  1  0
  6  7  1  0
  6  8  1  0
  6 29  1  6
  7 30  1  0
  8  9  1  0
  8 31  1  0
  8 51  1  0
  9 14  1  0
  9 10  1  0
  9 32  1  6
 10 21  1  0
 10 11  1  0
 10 33  1  6
 11 12  1  0
 11 34  1  0
 11 35  1  0
 12 20  1  0
 12 13  1  0
 12 36  1  1
 13 14  1  0
 13 37  1  0
 13 38  1  0
 14 15  1  0
 14 39  1  6
 15 16  1  0
 15 40  1  0
 15 41  1  0
 16 17  1  1
 16 20  1  0
 16 21  1  0
 17 18  1  0
 17 42  1  0
 17 43  1  0
 18 19  1  0
 18 44  1  0
 18 45  1  0
 19 46  1  0
 20 47  1  0
 20 48  1  0
 21 49  1  0
 21 50  1  0
M  CHG  1   8   1
M  END
>  <i_m_ct_stereo_status>  (14) 
1

>  <s_m_source_file>  (14) 
/var/tmp/pbs.5076255.sched01/tmpd0mq1ayv/02wja6gfv.sdf

>  <i_m_source_file_index>  (14) 
5

>  <i_lp_mmshare_version>  (14) 
48012

>  <i_f3d_flags>  (14) 
0

>  <s_epik_input>  (14) 
W0NIM11bQ0gyXVtDSDJdQyg9TylbQ0BIXShbT0hdKVtOSF1bQ0BIXShbQ0BASF0oW0NIMl0xKVtDSDJdW0NASF0oW0NIMl0yKVtDSDJdMylbQ0BASF0yW0NIMl1bQ0BdMTNbQ0gyXVtDSDJdW09IXQ==

>  <s_epik_cmdline>  (14) 
J2VwaWtfcHl0aG9uJywgJy1waHQnLCAnMi4wJywgJy1waCcsICc3LjAnLCAnLXRuJywgJzgnLCAnLW1hJywgJzIwMCcsICctaW1hZScsICc8aW5maWxlLm1hZT4nLCAnLW9tYWUnLCAnPG91dGZpbGUubWFlPic=

>  <r_lp_tautomer_probability>  (14) 
0.9999

>  <r_epik_Ionization_Penalty>  (14) 
1.22304

>  <r_epik_Ionization_Penalty_Charging>  (14) 
0.413247

>  <r_epik_Ionization_Penalty_Neutral>  (14) 
0.809793

>  <r_epik_State_Penalty>  (14) 
2.6181

>  <r_epik_Charging_Adjusted_Penalty>  (14) 
3.03134

>  <i_epik_Tot_Q>  (14) 
1

>  <i_epik_Tot_abs_Q>  (14) 
1

>  <s_epik_Chemistry_Notes>  (14) 
This compound contains an acetal/aminal-like group ( X-CH(R)-Y where X, Y are N, S, or O) that may be acid/base labile, releasing an aldehyde.

>  <s_lp_Force_Field>  (14) 
OPLS3e

>  <r_lp_Energy>  (14) 
19.2059

>  <b_lp_Chiralities_Consistent>  (14) 
1

>  <s_lp_Variant>  (14) 
3:0-2

>  <s_i_glide_gridfile>  (14) 
pfpi4k_grid

>  <i_i_glide_lignum>  (14) 
5

>  <i_i_glide_rotatable_bonds>  (14) 
9

>  <r_i_docking_score>  (14) 
-1.91225

>  <r_i_glide_ligand_efficiency>  (14) 
-0.0910597

>  <r_i_glide_ligand_efficiency_sa>  (14) 
-0.251227

>  <r_i_glide_ligand_efficiency_ln>  (14) 
-0.472801

>  <r_i_glide_gscore>  (14) 
-1.91225

>  <r_i_glide_lipo>  (14) 
-0.386629

>  <r_i_glide_hbond>  (14) 
-0.2

>  <r_i_glide_metal>  (14) 
-0

>  <r_i_glide_rewards>  (14) 
-1.42053

>  <r_i_glide_evdw>  (14) 
-19.3667

>  <r_i_glide_ecoul>  (14) 
-9.09644

>  <r_i_glide_erotb>  (14) 
2.50191

>  <r_i_glide_esite>  (14) 
-0.074202

>  <r_i_glide_emodel>  (14) 
-30.3933

>  <r_i_glide_energy>  (14) 
-28.4631

>  <r_i_glide_einternal>  (14) 
3.52796

>  <r_i_glide_intrahb_reward>  (14) 
-0

>  <i_i_glide_confnum>  (14) 
4

>  <i_i_glide_posenum>  (14) 
1

>  <r_i_glide_eff_state_penalty>  (14) 
0

>  <ligand_id>  (14) 
3

>  <original_smiles>  (14) 
CCCC(=O)C(O)NC1C2CC3CC1CC(CCO)(C3)C2

>  <smiles>  (14) 
[H]OC([H])([H])C([H])([H])C12C([H])([H])C3([H])C([H])([H])C([H])(C1([H])[H])C([H])([N+]([H])([H])C([H])(O[H])C(=O)C([H])([H])C([H])([H])C([H])([H])[H])C([H])(C3([H])[H])C2([H])[H]

$$$$
3:1:2
     RDKit          3D

 51 53  0  0  1  0  0  0  0  0999 V2000
    1.1550   -6.9850    3.5243 C   0  0  0  0  0  0  0  0  0  0  0  0
    1.4908   -5.5440    3.1133 C   0  0  0  0  0  0  0  0  0  0  0  0
    2.9783   -5.1970    3.2565 C   0  0  0  0  0  0  0  0  0  0  0  0
    3.8863   -5.9959    2.3165 C   0  0  0  0  0  0  0  0  0  0  0  0
    4.7507   -6.7073    2.8003 O   0  0  0  0  0  0  0  0  0  0  0  0
    3.6915   -5.7594    0.8164 C   0  0  2  0  0  0  0  0  0  0  0  0
    4.6633   -6.4626    0.0915 O   0  0  0  0  0  0  0  0  0  0  0  0
    4.1308   -4.3680    0.5802 N   0  0  0  0  0  0  0  0  0  0  0  0
    4.0126   -3.8428   -0.7872 C   0  0  2  0  0  0  0  0  0  0  0  0
    5.3855   -3.4117   -1.3341 C   0  0  2  0  0  0  0  0  0  0  0  0
    5.9671   -2.2705   -0.4712 C   0  0  0  0  0  0  0  0  0  0  0  0
    4.9942   -1.0789   -0.4950 C   0  0  2  0  0  0  0  0  0  0  0  0
    3.6191   -1.4971    0.0601 C   0  0  0  0  0  0  0  0  0  0  0  0
    3.0551   -2.6435   -0.8108 C   0  0  1  0  0  0  0  0  0  0  0  0
    2.9009   -2.1591   -2.2718 C   0  0  0  0  0  0  0  0  0  0  0  0
    4.2560   -1.7225   -2.8517 C   0  0  1  0  0  0  0  0  0  0  0  0
    4.0482   -1.2496   -4.3028 C   0  0  0  0  0  0  0  0  0  0  0  0
    3.2257    0.0269   -4.5262 C   0  0  0  0  0  0  0  0  0  0  0  0
    3.1540    0.2511   -5.9155 O   0  0  0  0  0  0  0  0  0  0  0  0
    4.8468   -0.6098   -1.9529 C   0  0  0  0  0  0  0  0  0  0  0  0
    5.2160   -2.9344   -2.7999 C   0  0  0  0  0  0  0  0  0  0  0  0
    0.0804   -7.1608    3.4669 H   0  0  0  0  0  0  0  0  0  0  0  0
    1.4715   -7.1775    4.5498 H   0  0  0  0  0  0  0  0  0  0  0  0
    1.6434   -7.7205    2.8809 H   0  0  0  0  0  0  0  0  0  0  0  0
    1.1615   -5.3752    2.0857 H   0  0  0  0  0  0  0  0  0  0  0  0
    0.9182   -4.8533    3.7304 H   0  0  0  0  0  0  0  0  0  0  0  0
    3.1304   -4.1420    3.0429 H   0  0  0  0  0  0  0  0  0  0  0  0
    3.3176   -5.3458    4.2848 H   0  0  0  0  0  0  0  0  0  0  0  0
    2.6840   -6.0006    0.4645 H   0  0  0  0  0  0  0  0  0  0  0  0
    4.3333   -6.5983   -0.7911 H   0  0  0  0  0  0  0  0  0  0  0  0
    3.5772   -3.7790    1.1690 H   0  0  0  0  0  0  0  0  0  0  0  0
    3.6118   -4.6104   -1.4440 H   0  0  0  0  0  0  0  0  0  0  0  0
    6.0708   -4.2584   -1.3291 H   0  0  0  0  0  0  0  0  0  0  0  0
    6.1347   -2.5839    0.5556 H   0  0  0  0  0  0  0  0  0  0  0  0
    6.9395   -1.9701   -0.8598 H   0  0  0  0  0  0  0  0  0  0  0  0
    5.3878   -0.2597    0.1051 H   0  0  0  0  0  0  0  0  0  0  0  0
    3.7155   -1.7940    1.1029 H   0  0  0  0  0  0  0  0  0  0  0  0
    2.9375   -0.6449    0.0573 H   0  0  0  0  0  0  0  0  0  0  0  0
    2.0751   -2.9445   -0.4380 H   0  0  0  0  0  0  0  0  0  0  0  0
    2.4384   -2.9322   -2.8858 H   0  0  0  0  0  0  0  0  0  0  0  0
    2.2317   -1.3028   -2.3054 H   0  0  0  0  0  0  0  0  0  0  0  0
    5.0078   -1.0574   -4.7615 H   0  0  0  0  0  0  0  0  0  0  0  0
    3.6210   -2.0697   -4.8834 H   0  0  0  0  0  0  0  0  0  0  0  0
    2.2189   -0.0664   -4.1525 H   0  0  0  0  0  0  0  0  0  0  0  0
    3.6902    0.9027   -4.0767 H   0  0  0  0  0  0  0  0  0  0  0  0
    2.6019   -0.4346   -6.2780 H   0  0  0  0  0  0  0  0  0  0  0  0
    4.2125    0.2629   -1.9746 H   0  0  0  0  0  0  0  0  0  0  0  0
    5.8100   -0.2801   -2.3165 H   0  0  0  0  0  0  0  0  0  0  0  0
    6.1955   -2.6648   -3.2008 H   0  0  0  0  0  0  0  0  0  0  0  0
    4.8236   -3.7468   -3.4158 H   0  0  0  0  0  0  0  0  0  0  0  0
    5.0986   -4.3191    0.8705 H   0  0  0  0  0  0  0  0  0  0  0  0
  1  2  1  0
  1 22  1  0
  1 23  1  0
  1 24  1  0
  2  3  1  0
  2 25  1  0
  2 26  1  0
  3  4  1  0
  3 27  1  0
  3 28  1  0
  4  5  2  0
  4  6  1  0
  6  7  1  0
  6  8  1  0
  6 29  1  6
  7 30  1  0
  8  9  1  0
  8 31  1  0
  8 51  1  0
  9 14  1  0
  9 10  1  0
  9 32  1  6
 10 21  1  0
 10 11  1  0
 10 33  1  6
 11 12  1  0
 11 34  1  0
 11 35  1  0
 12 20  1  0
 12 13  1  0
 12 36  1  1
 13 14  1  0
 13 37  1  0
 13 38  1  0
 14 15  1  0
 14 39  1  1
 15 16  1  0
 15 40  1  0
 15 41  1  0
 16 17  1  6
 16 20  1  0
 16 21  1  0
 17 18  1  0
 17 42  1  0
 17 43  1  0
 18 19  1  0
 18 44  1  0
 18 45  1  0
 19 46  1  0
 20 47  1  0
 20 48  1  0
 21 49  1  0
 21 50  1  0
M  CHG  1   8   1
M  END
>  <i_m_ct_stereo_status>  (15) 
1

>  <s_m_source_file>  (15) 
/var/tmp/pbs.5076255.sched01/tmpd0mq1ayv/02wja6gfv.sdf

>  <i_m_source_file_index>  (15) 
5

>  <i_lp_mmshare_version>  (15) 
48012

>  <i_f3d_flags>  (15) 
0

>  <s_epik_input>  (15) 
W0NIM11bQ0gyXVtDSDJdQyg9TylbQ0BIXShbT0hdKVtOSF1bQ0BIXShbQ0BASF0oW0NIMl0xKVtDSDJdW0NASF0oW0NIMl0yKVtDSDJdMylbQ0BASF0yW0NIMl1bQ0BdMTNbQ0gyXVtDSDJdW09IXQ==

>  <s_epik_cmdline>  (15) 
J2VwaWtfcHl0aG9uJywgJy1waHQnLCAnMi4wJywgJy1waCcsICc3LjAnLCAnLXRuJywgJzgnLCAnLW1hJywgJzIwMCcsICctaW1hZScsICc8aW5maWxlLm1hZT4nLCAnLW9tYWUnLCAnPG91dGZpbGUubWFlPic=

>  <r_lp_tautomer_probability>  (15) 
0.9999

>  <r_epik_Ionization_Penalty>  (15) 
1.22304

>  <r_epik_Ionization_Penalty_Charging>  (15) 
0.413247

>  <r_epik_Ionization_Penalty_Neutral>  (15) 
0.809793

>  <r_epik_State_Penalty>  (15) 
2.6181

>  <r_epik_Charging_Adjusted_Penalty>  (15) 
3.03134

>  <i_epik_Tot_Q>  (15) 
1

>  <i_epik_Tot_abs_Q>  (15) 
1

>  <s_epik_Chemistry_Notes>  (15) 
This compound contains an acetal/aminal-like group ( X-CH(R)-Y where X, Y are N, S, or O) that may be acid/base labile, releasing an aldehyde.

>  <s_lp_Force_Field>  (15) 
OPLS3e

>  <r_lp_Energy>  (15) 
19.2059

>  <b_lp_Chiralities_Consistent>  (15) 
1

>  <s_lp_Variant>  (15) 
3:0-2

>  <s_i_glide_gridfile>  (15) 
pfpi4k_grid

>  <i_i_glide_lignum>  (15) 
5

>  <i_i_glide_rotatable_bonds>  (15) 
9

>  <r_i_docking_score>  (15) 
-1.80809

>  <r_i_glide_ligand_efficiency>  (15) 
-0.0860993

>  <r_i_glide_ligand_efficiency_sa>  (15) 
-0.237541

>  <r_i_glide_ligand_efficiency_ln>  (15) 
-0.447046

>  <r_i_glide_gscore>  (15) 
-1.80809

>  <r_i_glide_lipo>  (15) 
-0.444377

>  <r_i_glide_hbond>  (15) 
-0.32

>  <r_i_glide_metal>  (15) 
-0

>  <r_i_glide_rewards>  (15) 
-1.42542

>  <r_i_glide_evdw>  (15) 
-19.4679

>  <r_i_glide_ecoul>  (15) 
-7.64537

>  <r_i_glide_erotb>  (15) 
2.50191

>  <r_i_glide_esite>  (15) 
0

>  <r_i_glide_emodel>  (15) 
-29.4564

>  <r_i_glide_energy>  (15) 
-27.1133

>  <r_i_glide_einternal>  (15) 
2.97849

>  <r_i_glide_intrahb_reward>  (15) 
-0

>  <i_i_glide_confnum>  (15) 
4

>  <i_i_glide_posenum>  (15) 
3

>  <r_i_glide_eff_state_penalty>  (15) 
0

>  <ligand_id>  (15) 
3

>  <original_smiles>  (15) 
CCCC(=O)C(O)NC1C2CC3CC1CC(CCO)(C3)C2

>  <smiles>  (15) 
[H]OC([H])([H])C([H])([H])C12C([H])([H])C3([H])C([H])([H])C([H])(C1([H])[H])C([H])([N+]([H])([H])C([H])(O[H])C(=O)C([H])([H])C([H])([H])C([H])([H])[H])C([H])(C3([H])[H])C2([H])[H]

$$$$
4:0:0
     RDKit          3D

 96106  0  0  1  0  0  0  0  0999 V2000
    7.8343   -6.0044    3.0189 C   0  0  0  0  0  0  0  0  0  0  0  0
    6.7540   -5.3679    2.3365 O   0  0  0  0  0  0  0  0  0  0  0  0
    5.5632   -5.1669    3.0161 C   0  0  0  0  0  0  0  0  0  0  0  0
    5.3973   -5.4975    4.3287 C   0  0  0  0  0  0  0  0  0  0  0  0
    4.0394   -5.4661    5.0532 C   0  0  2  0  0  0  0  0  0  0  0  0
    3.0089   -6.1447    4.2069 N   0  0  0  0  0  0  0  0  0  0  0  0
    1.7835   -5.4601    4.0323 C   0  0  0  0  0  0  0  0  0  0  0  0
    1.9945   -4.2127    3.1937 C   0  0  0  0  0  0  0  0  0  0  0  0
    3.4573   -3.5223    3.0240 C   0  0  1  0  0  0  0  0  0  0  0  0
    2.8898   -2.0594    2.7382 C   0  0  2  0  0  0  0  0  0  0  0  0
    4.0647   -1.1008    2.4468 C   0  0  0  0  0  0  0  0  0  0  0  0
    4.9297   -1.4189    3.6062 C   0  0  2  0  0  0  0  0  0  0  0  0
    5.5381   -0.2971    4.4472 C   0  0  0  0  0  0  0  0  0  0  0  0
    5.7627   -2.5208    3.4317 O   0  0  0  0  0  0  0  0  0  0  0  0
    4.4939   -2.8325    4.0188 C   0  0  2  0  0  0  0  0  0  0  0  0
    4.6418   -3.0943    5.3859 O   0  0  0  0  0  0  0  0  0  0  0  0
    3.7730   -4.0714    5.8483 C   0  0  2  0  0  0  0  0  0  0  0  0
    4.2973   -4.2662    7.2848 C   0  0  0  0  0  0  0  0  0  0  0  0
    2.3827   -3.3852    5.9614 C   0  0  0  0  0  0  0  0  0  0  0  0
    1.7637   -2.3479    5.3013 C   0  0  0  0  0  0  0  0  0  0  0  0
    1.9985   -1.4548    4.0062 C   0  0  2  0  0  0  0  0  0  0  0  0
    0.5775   -1.0870    3.5021 C   0  0  0  0  0  0  0  0  0  0  0  0
    1.0282    0.3309    3.2020 C   0  0  2  0  0  0  0  0  0  0  0  0
    2.0812    0.1189    4.3181 C   0  0  1  0  0  0  0  0  0  0  0  0
    1.7164    0.7510    5.6244 N   0  0  0  0  0  0  0  0  0  0  0  0
    2.2350    0.0371    6.8088 C   0  0  0  0  0  0  0  0  0  0  0  0
    1.4557    2.0851    5.7730 C   0  0  0  0  0  0  0  0  0  0  0  0
    1.3199    2.5639    6.9027 O   0  0  0  0  0  0  0  0  0  0  0  0
    1.3142    3.0758    4.5746 C   0  0  0  0  0  0  0  0  0  0  0  0
    1.0348    4.5066    5.0999 C   0  0  0  0  0  0  0  0  0  0  0  0
    2.6069    3.2056    3.7288 C   0  0  0  0  0  0  0  0  0  0  0  0
    0.1517    2.6289    3.7559 C   0  0  0  0  0  0  0  0  0  0  0  0
   -1.0254    3.2151    3.4159 C   0  0  0  0  0  0  0  0  0  0  0  0
   -1.7641    2.3169    2.6491 N   0  0  0  0  0  0  0  0  0  0  0  0
   -1.0684    1.2416    2.4639 N   0  0  0  0  0  0  0  0  0  0  0  0
    0.0642    1.3833    3.1835 N   0  0  0  0  0  0  0  0  0  0  0  0
    4.3866   -4.5722    2.1281 C   0  0  1  0  0  0  0  0  0  0  0  0
    4.7986   -3.8345    0.7913 C   0  0  0  0  0  0  0  0  0  0  0  0
    6.1028   -3.2697    0.6666 C   0  0  0  0  0  0  0  0  0  0  0  0
    6.4939   -2.5466   -0.4700 C   0  0  0  0  0  0  0  0  0  0  0  0
    5.6143   -2.3486   -1.4666 N   0  0  0  0  0  0  0  0  0  0  0  0
    4.3664   -2.8303   -1.4388 C   0  0  0  0  0  0  0  0  0  0  0  0
    3.5378   -2.5539   -2.5458 C   0  0  0  0  0  0  0  0  0  0  0  0
    2.2294   -3.0590   -2.5805 C   0  0  0  0  0  0  0  0  0  0  0  0
    1.7676   -3.8405   -1.5149 C   0  0  0  0  0  0  0  0  0  0  0  0
    2.5999   -4.1019   -0.4069 C   0  0  0  0  0  0  0  0  0  0  0  0
    3.9170   -3.5991   -0.3250 C   0  0  0  0  0  0  0  0  0  0  0  0
    3.6753   -5.8605    1.8254 N   0  0  0  0  0  0  0  0  0  0  0  0
    4.3079   -6.6948    0.7892 C   0  0  0  0  0  0  0  0  0  0  0  0
    3.4239   -6.8021    2.9509 C   0  0  0  0  0  0  0  0  0  0  0  0
    8.6912   -6.0830    2.3498 H   0  0  0  0  0  0  0  0  0  0  0  0
    7.5675   -7.0192    3.3157 H   0  0  0  0  0  0  0  0  0  0  0  0
    8.1739   -5.4520    3.8975 H   0  0  0  0  0  0  0  0  0  0  0  0
    6.2084   -5.8714    4.9340 H   0  0  0  0  0  0  0  0  0  0  0  0
    4.2144   -6.1874    5.8492 H   0  0  0  0  0  0  0  0  0  0  0  0
    1.0644   -6.1111    3.5326 H   0  0  0  0  0  0  0  0  0  0  0  0
    1.3174   -5.2821    4.9961 H   0  0  0  0  0  0  0  0  0  0  0  0
    1.6804   -4.5009    2.2068 H   0  0  0  0  0  0  0  0  0  0  0  0
    1.1275   -3.5975    3.3709 H   0  0  0  0  0  0  0  0  0  0  0  0
    2.2812   -2.0986    1.8339 H   0  0  0  0  0  0  0  0  0  0  0  0
    4.5717   -1.3615    1.5315 H   0  0  0  0  0  0  0  0  0  0  0  0
    3.8403   -0.0476    2.3104 H   0  0  0  0  0  0  0  0  0  0  0  0
    5.9758    0.4664    3.8033 H   0  0  0  0  0  0  0  0  0  0  0  0
    6.3212   -0.6626    5.1064 H   0  0  0  0  0  0  0  0  0  0  0  0
    4.8109    0.1618    5.1117 H   0  0  0  0  0  0  0  0  0  0  0  0
    3.7328   -5.0338    7.8115 H   0  0  0  0  0  0  0  0  0  0  0  0
    4.2386   -3.3499    7.8718 H   0  0  0  0  0  0  0  0  0  0  0  0
    5.3402   -4.5803    7.2738 H   0  0  0  0  0  0  0  0  0  0  0  0
    1.8187   -3.7761    6.7969 H   0  0  0  0  0  0  0  0  0  0  0  0
    0.7914   -2.1546    5.7354 H   0  0  0  0  0  0  0  0  0  0  0  0
    0.2683   -1.6205    2.6088 H   0  0  0  0  0  0  0  0  0  0  0  0
   -0.2186   -1.0822    4.2485 H   0  0  0  0  0  0  0  0  0  0  0  0
    1.5029    0.3660    2.2183 H   0  0  0  0  0  0  0  0  0  0  0  0
    3.0253    0.5422    4.0337 H   0  0  0  0  0  0  0  0  0  0  0  0
    2.5452    0.6668    7.6389 H   0  0  0  0  0  0  0  0  0  0  0  0
    3.1101   -0.5783    6.5925 H   0  0  0  0  0  0  0  0  0  0  0  0
    1.4412   -0.5846    7.2105 H   0  0  0  0  0  0  0  0  0  0  0  0
    0.1391    4.5470    5.7217 H   0  0  0  0  0  0  0  0  0  0  0  0
    0.8857    5.2070    4.2767 H   0  0  0  0  0  0  0  0  0  0  0  0
    1.8670    4.8859    5.6963 H   0  0  0  0  0  0  0  0  0  0  0  0
    2.7724    2.3789    3.0422 H   0  0  0  0  0  0  0  0  0  0  0  0
    3.4954    3.3017    4.3578 H   0  0  0  0  0  0  0  0  0  0  0  0
    2.5667    4.0831    3.0783 H   0  0  0  0  0  0  0  0  0  0  0  0
   -1.4098    4.1977    3.6462 H   0  0  0  0  0  0  0  0  0  0  0  0
    6.8329   -3.3346    1.4594 H   0  0  0  0  0  0  0  0  0  0  0  0
    7.4792   -2.1156   -0.5828 H   0  0  0  0  0  0  0  0  0  0  0  0
    3.8826   -1.9550   -3.3729 H   0  0  0  0  0  0  0  0  0  0  0  0
    1.5769   -2.8517   -3.4247 H   0  0  0  0  0  0  0  0  0  0  0  0
    0.7718   -4.2540   -1.5672 H   0  0  0  0  0  0  0  0  0  0  0  0
    2.1918   -4.7592    0.3195 H   0  0  0  0  0  0  0  0  0  0  0  0
    3.6704   -7.5529    0.5567 H   0  0  0  0  0  0  0  0  0  0  0  0
    5.2833   -7.0862    1.0957 H   0  0  0  0  0  0  0  0  0  0  0  0
    4.4472   -6.1704   -0.1584 H   0  0  0  0  0  0  0  0  0  0  0  0
    4.2680   -7.4734    3.1355 H   0  0  0  0  0  0  0  0  0  0  0  0
    2.6188   -7.4619    2.6295 H   0  0  0  0  0  0  0  0  0  0  0  0
    5.8903   -1.8182   -2.2897 H   0  0  0  0  0  0  0  0  0  0  0  0
  1  2  1  0
  1 51  1  0
  1 52  1  0
  1 53  1  0
  2  3  1  0
  3 37  1  0
  3  4  2  0
  4  5  1  0
  4 54  1  0
  5 17  1  0
  5  6  1  0
  5 55  1  1
  6 50  1  0
  6  7  1  0
  7  8  1  0
  7 56  1  0
  7 57  1  0
  9  8  1  1
  8 58  1  0
  8 59  1  0
  9 15  1  0
  9 10  1  0
  9 37  1  0
 10 21  1  0
 10 11  1  0
 10 60  1  6
 11 12  1  0
 11 61  1  0
 11 62  1  0
 12 15  1  0
 12 13  1  1
 12 14  1  0
 13 63  1  0
 13 64  1  0
 13 65  1  0
 15 14  1  6
 15 16  1  0
 16 17  1  0
 17 18  1  1
 17 19  1  0
 18 66  1  0
 18 67  1  0
 18 68  1  0
 19 20  2  3
 19 69  1  0
 20 21  1  0
 20 70  1  0
 21 24  1  0
 21 22  1  6
 22 23  1  0
 22 71  1  0
 22 72  1  0
 23 36  1  0
 23 24  1  0
 23 73  1  6
 24 25  1  0
 24 74  1  6
 25 26  1  0
 25 27  1  0
 26 75  1  0
 26 76  1  0
 26 77  1  0
 27 28  2  0
 27 29  1  0
 29 30  1  0
 29 31  1  0
 29 32  1  0
 30 78  1  0
 30 79  1  0
 30 80  1  0
 31 81  1  0
 31 82  1  0
 31 83  1  0
 32 36  1  0
 32 33  2  0
 33 34  1  0
 33 84  1  0
 34 35  2  0
 35 36  1  0
 37 38  1  6
 37 48  1  0
 38 47  1  0
 38 39  2  0
 39 40  1  0
 39 85  1  0
 40 41  2  0
 40 86  1  0
 41 42  1  0
 41 96  1  0
 42 47  2  0
 42 43  1  0
 43 44  2  0
 43 87  1  0
 44 45  1  0
 44 88  1  0
 45 46  2  0
 45 89  1  0
 46 47  1  0
 46 90  1  0
 48 49  1  0
 48 50  1  0
 49 91  1  0
 49 92  1  0
 49 93  1  0
 50 94  1  0
 50 95  1  0
M  CHG  1  41   1
M  END
>  <i_m_ct_stereo_status>  (16) 
1

>  <s_m_source_file>  (16) 
/var/tmp/pbs.5076255.sched01/tmpd0mq1ayv/02wja6gfv.sdf

>  <i_m_source_file_index>  (16) 
6

>  <i_lp_mmshare_version>  (16) 
48012

>  <i_f3d_flags>  (16) 
0

>  <s_epik_input>  (16) 
W2NIXTFbY0hdW2NIXVtjSF1jKGMxMiljKFtjSF1bY0hdbjIpW0NAXTMoQyg9W0NIXTQpT1tDSDNdKU4oW0NIM10pW0NIMl1OKFtDSDJdW0NIMl01KVtDQEBIXTRbQ0BdKE82KShbQ0gzXSkvW0NIXT1bQ0hdXFtDQF03KFtDQEhdOFtDSDJdW0NAQF0oTzkpKFtDSDNdKVtDQF02OVtDQEBdMzU4KVtDQEhdMVtDQEBIXShbQ0gyXTcpbjJjKFtjSF1ubjIpQyhbQ0gzXSkoW0NIM10pQyg9TylOMVtDSDNd

>  <s_epik_cmdline>  (16) 
J2VwaWtfcHl0aG9uJywgJy1waHQnLCAnMi4wJywgJy1waCcsICc3LjAnLCAnLXRuJywgJzgnLCAnLW1hJywgJzIwMCcsICctaW1hZScsICc8aW5maWxlLm1hZT4nLCAnLW9tYWUnLCAnPG91dGZpbGUubWFlPic=

>  <r_lp_tautomer_probability>  (16) 
1

>  <r_epik_Ionization_Penalty>  (16) 
0.0577884

>  <r_epik_Ionization_Penalty_Charging>  (16) 
0.0373683

>  <r_epik_Ionization_Penalty_Neutral>  (16) 
0.0204202

>  <r_epik_State_Penalty>  (16) 
0.0467502

>  <r_epik_Charging_Adjusted_Penalty>  (16) 
0.0841184

>  <i_epik_Tot_Q>  (16) 
1

>  <i_epik_Tot_abs_Q>  (16) 
1

>  <s_epik_Chemistry_Notes>  (16) 
This compound contains an acetal/aminal-like group ( X-CH(R)-Y where X, Y are N, S, or O) that may be acid/base labile, releasing an aldehyde.

>  <s_lp_Force_Field>  (16) 
OPLS3e

>  <r_lp_Energy>  (16) 
266.467

>  <b_lp_Chiralities_Consistent>  (16) 
1

>  <s_lp_Variant>  (16) 
4:0-1

>  <s_i_glide_gridfile>  (16) 
pfpi4k_grid

>  <i_i_glide_lignum>  (16) 
6

>  <i_i_glide_rotatable_bonds>  (16) 
2

>  <r_i_docking_score>  (16) 
-2.28106

>  <r_i_glide_ligand_efficiency>  (16) 
-0.0456212

>  <r_i_glide_ligand_efficiency_sa>  (16) 
-0.16807

>  <r_i_glide_ligand_efficiency_ln>  (16) 
-0.464383

>  <r_i_glide_gscore>  (16) 
-2.28106

>  <r_i_glide_lipo>  (16) 
-0.513072

>  <r_i_glide_hbond>  (16) 
0

>  <r_i_glide_metal>  (16) 
-0

>  <r_i_glide_rewards>  (16) 
-0.0246608

>  <r_i_glide_evdw>  (16) 
-30.8004

>  <r_i_glide_ecoul>  (16) 
-0.658939

>  <r_i_glide_erotb>  (16) 
0.0465977

>  <r_i_glide_esite>  (16) 
-0.15106

>  <r_i_glide_emodel>  (16) 
-34.9718

>  <r_i_glide_energy>  (16) 
-31.4594

>  <r_i_glide_einternal>  (16) 
0.0989698

>  <r_i_glide_intrahb_reward>  (16) 
-0

>  <i_i_glide_confnum>  (16) 
1

>  <i_i_glide_posenum>  (16) 
10

>  <r_i_glide_eff_state_penalty>  (16) 
0

>  <ligand_id>  (16) 
4

>  <original_smiles>  (16) 
COC1=CC2N3CCC4(C5CC6(C)OC64OC2(C)C=CC52CC4C2N(C)C(=O)C(C)(C)c2cnnn24)C1(c1ccnc2ccccc12)N(C)C3

>  <smiles>  (16) 
[H]C1=C(OC([H])([H])[H])C2(c3c([H])c([H])[n+]([H])c4c([H])c([H])c([H])c([H])c34)N(C([H])([H])[H])C([H])([H])N3C([H])([H])C([H])([H])C24C25OC(C([H])([H])[H])(C([H])=C([H])C6(C([H])([H])C7([H])n8nnc([H])c8C(C([H])([H])[H])(C([H])([H])[H])C(=O)N(C([H])([H])[H])C76[H])C4([H])C([H])([H])C2(C([H])([H])[H])O5)C13[H]

$$$$
4:0:1
     RDKit          3D

 96106  0  0  1  0  0  0  0  0999 V2000
    2.9319    3.7809    9.0552 C   0  0  0  0  0  0  0  0  0  0  0  0
    2.4848    2.4503    8.7973 O   0  0  0  0  0  0  0  0  0  0  0  0
    1.8805    2.1644    7.5896 C   0  0  0  0  0  0  0  0  0  0  0  0
    1.6570    3.1223    6.6386 C   0  0  0  0  0  0  0  0  0  0  0  0
    0.8093    2.8895    5.3774 C   0  0  2  0  0  0  0  0  0  0  0  0
   -0.4730    2.2157    5.7558 N   0  0  0  0  0  0  0  0  0  0  0  0
   -0.8450    1.1018    4.9688 C   0  0  0  0  0  0  0  0  0  0  0  0
    0.1225   -0.0445    5.2048 C   0  0  0  0  0  0  0  0  0  0  0  0
    1.6144    0.1762    5.8299 C   0  0  1  0  0  0  0  0  0  0  0  0
    2.2396   -1.1291    5.1651 C   0  0  2  0  0  0  0  0  0  0  0  0
    3.7101   -1.2692    5.6197 C   0  0  0  0  0  0  0  0  0  0  0  0
    4.1920    0.1026    5.3296 C   0  0  2  0  0  0  0  0  0  0  0  0
    5.4873    0.3150    4.5577 C   0  0  0  0  0  0  0  0  0  0  0  0
    3.9827    1.0525    6.3346 O   0  0  0  0  0  0  0  0  0  0  0  0
    2.9251    0.9544    5.3540 C   0  0  2  0  0  0  0  0  0  0  0  0
    2.9587    2.0495    4.4757 O   0  0  0  0  0  0  0  0  0  0  0  0
    1.6989    2.4729    4.0752 C   0  0  2  0  0  0  0  0  0  0  0  0
    2.0618    3.7782    3.3426 C   0  0  0  0  0  0  0  0  0  0  0  0
    1.2406    1.4578    2.9901 C   0  0  0  0  0  0  0  0  0  0  0  0
    1.4932    0.1256    2.7570 C   0  0  0  0  0  0  0  0  0  0  0  0
    2.1758   -1.1062    3.5078 C   0  0  2  0  0  0  0  0  0  0  0  0
    1.4042   -2.3613    3.0189 C   0  0  0  0  0  0  0  0  0  0  0  0
    2.6994   -3.1428    2.8995 C   0  0  2  0  0  0  0  0  0  0  0  0
    3.3866   -1.7713    2.6831 C   0  0  1  0  0  0  0  0  0  0  0  0
    3.7170   -1.4627    1.2575 N   0  0  0  0  0  0  0  0  0  0  0  0
    3.6713   -0.0305    0.9215 C   0  0  0  0  0  0  0  0  0  0  0  0
    4.4971   -2.2577    0.4599 C   0  0  0  0  0  0  0  0  0  0  0  0
    4.8800   -1.8572   -0.6424 O   0  0  0  0  0  0  0  0  0  0  0  0
    4.9773   -3.6798    0.8946 C   0  0  0  0  0  0  0  0  0  0  0  0
    5.8693   -4.2960   -0.2146 C   0  0  0  0  0  0  0  0  0  0  0  0
    5.8858   -3.6508    2.1492 C   0  0  0  0  0  0  0  0  0  0  0  0
    3.7791   -4.5420    1.0969 C   0  0  0  0  0  0  0  0  0  0  0  0
    3.3510   -5.6961    0.5133 C   0  0  0  0  0  0  0  0  0  0  0  0
    2.1441   -6.0726    1.0977 N   0  0  0  0  0  0  0  0  0  0  0  0
    1.8373   -5.2196    2.0232 N   0  0  0  0  0  0  0  0  0  0  0  0
    2.7772   -4.2476    1.9908 N   0  0  0  0  0  0  0  0  0  0  0  0
    1.4136    0.6532    7.4109 C   0  0  1  0  0  0  0  0  0  0  0  0
    2.1064   -0.4330    8.3399 C   0  0  0  0  0  0  0  0  0  0  0  0
    3.3622   -0.1502    8.9532 C   0  0  0  0  0  0  0  0  0  0  0  0
    4.0381   -1.0935    9.7414 C   0  0  0  0  0  0  0  0  0  0  0  0
    3.5249   -2.3237    9.8842 N   0  0  0  0  0  0  0  0  0  0  0  0
    2.3659   -2.6979    9.3257 C   0  0  0  0  0  0  0  0  0  0  0  0
    1.9397   -4.0281    9.5275 C   0  0  0  0  0  0  0  0  0  0  0  0
    0.7313   -4.4740    8.9730 C   0  0  0  0  0  0  0  0  0  0  0  0
   -0.0582   -3.5803    8.2371 C   0  0  0  0  0  0  0  0  0  0  0  0
    0.3690   -2.2500    8.0536 C   0  0  0  0  0  0  0  0  0  0  0  0
    1.6004   -1.7684    8.5591 C   0  0  0  0  0  0  0  0  0  0  0  0
   -0.0372    0.8143    7.7845 N   0  0  0  0  0  0  0  0  0  0  0  0
   -0.2864    0.9465    9.2301 C   0  0  0  0  0  0  0  0  0  0  0  0
   -0.7706    1.9688    7.1838 C   0  0  0  0  0  0  0  0  0  0  0  0
    3.3975    3.8147   10.0395 H   0  0  0  0  0  0  0  0  0  0  0  0
    2.1026    4.4880    9.0701 H   0  0  0  0  0  0  0  0  0  0  0  0
    3.6850    4.1211    8.3425 H   0  0  0  0  0  0  0  0  0  0  0  0
    2.0095    4.1363    6.7503 H   0  0  0  0  0  0  0  0  0  0  0  0
    0.4882    3.9059    5.1529 H   0  0  0  0  0  0  0  0  0  0  0  0
   -1.8503    0.7778    5.2381 H   0  0  0  0  0  0  0  0  0  0  0  0
   -0.9498    1.3902    3.9268 H   0  0  0  0  0  0  0  0  0  0  0  0
   -0.4291   -0.6689    5.8794 H   0  0  0  0  0  0  0  0  0  0  0  0
   -0.0220   -0.7233    4.3781 H   0  0  0  0  0  0  0  0  0  0  0  0
    1.7044   -2.0008    5.5452 H   0  0  0  0  0  0  0  0  0  0  0  0
    3.7838   -1.4666    6.6809 H   0  0  0  0  0  0  0  0  0  0  0  0
    4.2866   -2.0731    5.1813 H   0  0  0  0  0  0  0  0  0  0  0  0
    6.2662   -0.3326    4.9576 H   0  0  0  0  0  0  0  0  0  0  0  0
    5.8197    1.3404    4.6794 H   0  0  0  0  0  0  0  0  0  0  0  0
    5.3792    0.1228    3.4894 H   0  0  0  0  0  0  0  0  0  0  0  0
    1.1736    4.2727    2.9520 H   0  0  0  0  0  0  0  0  0  0  0  0
    2.7345    3.6071    2.5008 H   0  0  0  0  0  0  0  0  0  0  0  0
    2.5554    4.4777    4.0178 H   0  0  0  0  0  0  0  0  0  0  0  0
    0.6515    1.9397    2.2235 H   0  0  0  0  0  0  0  0  0  0  0  0
    1.0031   -0.1884    1.8436 H   0  0  0  0  0  0  0  0  0  0  0  0
    0.7049   -2.8022    3.7320 H   0  0  0  0  0  0  0  0  0  0  0  0
    0.9382   -2.2403    2.0472 H   0  0  0  0  0  0  0  0  0  0  0  0
    2.9697   -3.5626    3.8681 H   0  0  0  0  0  0  0  0  0  0  0  0
    4.3158   -1.7146    3.2140 H   0  0  0  0  0  0  0  0  0  0  0  0
    4.4050    0.3051    0.1892 H   0  0  0  0  0  0  0  0  0  0  0  0
    3.8134    0.6262    1.7809 H   0  0  0  0  0  0  0  0  0  0  0  0
    2.7012    0.1694    0.4794 H   0  0  0  0  0  0  0  0  0  0  0  0
    5.3391   -4.3713   -1.1649 H   0  0  0  0  0  0  0  0  0  0  0  0
    6.1910   -5.3044    0.0518 H   0  0  0  0  0  0  0  0  0  0  0  0
    6.7717   -3.7068   -0.3861 H   0  0  0  0  0  0  0  0  0  0  0  0
    5.3513   -3.5368    3.0889 H   0  0  0  0  0  0  0  0  0  0  0  0
    6.6117   -2.8409    2.0749 H   0  0  0  0  0  0  0  0  0  0  0  0
    6.4366   -4.5871    2.2676 H   0  0  0  0  0  0  0  0  0  0  0  0
    3.8105   -6.2836   -0.2764 H   0  0  0  0  0  0  0  0  0  0  0  0
    3.8852    0.7838    8.8182 H   0  0  0  0  0  0  0  0  0  0  0  0
    4.9836   -0.9027   10.2314 H   0  0  0  0  0  0  0  0  0  0  0  0
    2.5347   -4.7184   10.1058 H   0  0  0  0  0  0  0  0  0  0  0  0
    0.4069   -5.4954    9.1240 H   0  0  0  0  0  0  0  0  0  0  0  0
   -0.9945   -3.9200    7.8182 H   0  0  0  0  0  0  0  0  0  0  0  0
   -0.3011   -1.6135    7.5376 H   0  0  0  0  0  0  0  0  0  0  0  0
   -1.3619    0.9793    9.4235 H   0  0  0  0  0  0  0  0  0  0  0  0
    0.1396    1.8605    9.6539 H   0  0  0  0  0  0  0  0  0  0  0  0
    0.1016    0.1043    9.8065 H   0  0  0  0  0  0  0  0  0  0  0  0
   -0.6411    2.8898    7.7561 H   0  0  0  0  0  0  0  0  0  0  0  0
   -1.8336    1.7469    7.2757 H   0  0  0  0  0  0  0  0  0  0  0  0
    4.0470   -3.0066   10.4352 H   0  0  0  0  0  0  0  0  0  0  0  0
  1  2  1  0
  1 51  1  0
  1 52  1  0
  1 53  1  0
  2  3  1  0
  3 37  1  0
  3  4  2  0
  4  5  1  0
  4 54  1  0
  5 17  1  0
  5  6  1  0
  5 55  1  6
  6 50  1  0
  6  7  1  0
  7  8  1  0
  7 56  1  0
  7 57  1  0
  9  8  1  6
  8 58  1  0
  8 59  1  0
  9 15  1  0
  9 10  1  0
  9 37  1  0
 10 21  1  0
 10 11  1  0
 10 60  1  1
 11 12  1  0
 11 61  1  0
 11 62  1  0
 12 15  1  0
 12 13  1  6
 12 14  1  0
 13 63  1  0
 13 64  1  0
 13 65  1  0
 15 14  1  1
 15 16  1  0
 16 17  1  0
 17 18  1  6
 17 19  1  0
 18 66  1  0
 18 67  1  0
 18 68  1  0
 19 20  2  3
 19 69  1  0
 20 21  1  0
 20 70  1  0
 21 24  1  0
 21 22  1  1
 22 23  1  0
 22 71  1  0
 22 72  1  0
 23 36  1  0
 23 24  1  0
 23 73  1  1
 24 25  1  0
 24 74  1  1
 25 26  1  0
 25 27  1  0
 26 75  1  0
 26 76  1  0
 26 77  1  0
 27 28  2  0
 27 29  1  0
 29 30  1  0
 29 31  1  0
 29 32  1  0
 30 78  1  0
 30 79  1  0
 30 80  1  0
 31 81  1  0
 31 82  1  0
 31 83  1  0
 32 36  1  0
 32 33  2  0
 33 34  1  0
 33 84  1  0
 34 35  2  0
 35 36  1  0
 37 38  1  1
 37 48  1  0
 38 47  1  0
 38 39  2  0
 39 40  1  0
 39 85  1  0
 40 41  2  0
 40 86  1  0
 41 42  1  0
 41 96  1  0
 42 47  2  0
 42 43  1  0
 43 44  2  0
 43 87  1  0
 44 45  1  0
 44 88  1  0
 45 46  2  0
 45 89  1  0
 46 47  1  0
 46 90  1  0
 48 49  1  0
 48 50  1  0
 49 91  1  0
 49 92  1  0
 49 93  1  0
 50 94  1  0
 50 95  1  0
M  CHG  1  41   1
M  END
>  <i_m_ct_stereo_status>  (17) 
1

>  <s_m_source_file>  (17) 
/var/tmp/pbs.5076255.sched01/tmpd0mq1ayv/02wja6gfv.sdf

>  <i_m_source_file_index>  (17) 
6

>  <i_lp_mmshare_version>  (17) 
48012

>  <i_f3d_flags>  (17) 
0

>  <s_epik_input>  (17) 
W2NIXTFbY0hdW2NIXVtjSF1jKGMxMiljKFtjSF1bY0hdbjIpW0NAXTMoQyg9W0NIXTQpT1tDSDNdKU4oW0NIM10pW0NIMl1OKFtDSDJdW0NIMl01KVtDQEBIXTRbQ0BdKE82KShbQ0gzXSkvW0NIXT1bQ0hdXFtDQF03KFtDQEhdOFtDSDJdW0NAQF0oTzkpKFtDSDNdKVtDQF02OVtDQEBdMzU4KVtDQEhdMVtDQEBIXShbQ0gyXTcpbjJjKFtjSF1ubjIpQyhbQ0gzXSkoW0NIM10pQyg9TylOMVtDSDNd

>  <s_epik_cmdline>  (17) 
J2VwaWtfcHl0aG9uJywgJy1waHQnLCAnMi4wJywgJy1waCcsICc3LjAnLCAnLXRuJywgJzgnLCAnLW1hJywgJzIwMCcsICctaW1hZScsICc8aW5maWxlLm1hZT4nLCAnLW9tYWUnLCAnPG91dGZpbGUubWFlPic=

>  <r_lp_tautomer_probability>  (17) 
1

>  <r_epik_Ionization_Penalty>  (17) 
0.0577884

>  <r_epik_Ionization_Penalty_Charging>  (17) 
0.0373683

>  <r_epik_Ionization_Penalty_Neutral>  (17) 
0.0204202

>  <r_epik_State_Penalty>  (17) 
0.0467502

>  <r_epik_Charging_Adjusted_Penalty>  (17) 
0.0841184

>  <i_epik_Tot_Q>  (17) 
1

>  <i_epik_Tot_abs_Q>  (17) 
1

>  <s_epik_Chemistry_Notes>  (17) 
This compound contains an acetal/aminal-like group ( X-CH(R)-Y where X, Y are N, S, or O) that may be acid/base labile, releasing an aldehyde.

>  <s_lp_Force_Field>  (17) 
OPLS3e

>  <r_lp_Energy>  (17) 
266.467

>  <b_lp_Chiralities_Consistent>  (17) 
1

>  <s_lp_Variant>  (17) 
4:0-1

>  <s_i_glide_gridfile>  (17) 
pfpi4k_grid

>  <i_i_glide_lignum>  (17) 
6

>  <i_i_glide_rotatable_bonds>  (17) 
2

>  <r_i_docking_score>  (17) 
-2.12422

>  <r_i_glide_ligand_efficiency>  (17) 
-0.0424843

>  <r_i_glide_ligand_efficiency_sa>  (17) 
-0.156514

>  <r_i_glide_ligand_efficiency_ln>  (17) 
-0.432453

>  <r_i_glide_gscore>  (17) 
-2.12422

>  <r_i_glide_lipo>  (17) 
-0.254339

>  <r_i_glide_hbond>  (17) 
0

>  <r_i_glide_metal>  (17) 
-0

>  <r_i_glide_rewards>  (17) 
0

>  <r_i_glide_evdw>  (17) 
-29.3685

>  <r_i_glide_ecoul>  (17) 
-2.22204

>  <r_i_glide_erotb>  (17) 
0.0465977

>  <r_i_glide_esite>  (17) 
-0.114746

>  <r_i_glide_emodel>  (17) 
-34.6017

>  <r_i_glide_energy>  (17) 
-31.5905

>  <r_i_glide_einternal>  (17) 
0.321274

>  <r_i_glide_intrahb_reward>  (17) 
-0

>  <i_i_glide_confnum>  (17) 
3

>  <i_i_glide_posenum>  (17) 
2

>  <r_i_glide_eff_state_penalty>  (17) 
0

>  <ligand_id>  (17) 
4

>  <original_smiles>  (17) 
COC1=CC2N3CCC4(C5CC6(C)OC64OC2(C)C=CC52CC4C2N(C)C(=O)C(C)(C)c2cnnn24)C1(c1ccnc2ccccc12)N(C)C3

>  <smiles>  (17) 
[H]C1=C(OC([H])([H])[H])C2(c3c([H])c([H])[n+]([H])c4c([H])c([H])c([H])c([H])c34)N(C([H])([H])[H])C([H])([H])N3C([H])([H])C([H])([H])C24C25OC(C([H])([H])[H])(C([H])=C([H])C6(C([H])([H])C7([H])n8nnc([H])c8C(C([H])([H])[H])(C([H])([H])[H])C(=O)N(C([H])([H])[H])C76[H])C4([H])C([H])([H])C2(C([H])([H])[H])O5)C13[H]

$$$$
4:0:2
     RDKit          3D

 96106  0  0  1  0  0  0  0  0999 V2000
    4.2312    7.8955    7.8706 C   0  0  0  0  0  0  0  0  0  0  0  0
    3.3717    6.8192    8.2383 O   0  0  0  0  0  0  0  0  0  0  0  0
    2.6650    6.1568    7.2482 C   0  0  0  0  0  0  0  0  0  0  0  0
    2.7416    6.5131    5.9355 C   0  0  0  0  0  0  0  0  0  0  0  0
    1.8187    5.9484    4.8422 C   0  0  2  0  0  0  0  0  0  0  0  0
    0.4012    5.9940    5.3266 N   0  0  0  0  0  0  0  0  0  0  0  0
   -0.3479    4.8115    5.1391 C   0  0  0  0  0  0  0  0  0  0  0  0
    0.1721    3.7156    6.0386 C   0  0  0  0  0  0  0  0  0  0  0  0
    1.6702    3.7475    6.6824 C   0  0  1  0  0  0  0  0  0  0  0  0
    1.7898    2.1673    6.8388 C   0  0  2  0  0  0  0  0  0  0  0  0
    3.1399    1.8248    7.5043 C   0  0  0  0  0  0  0  0  0  0  0  0
    4.0501    2.6275    6.6513 C   0  0  2  0  0  0  0  0  0  0  0  0
    5.3080    1.9982    6.0696 C   0  0  0  0  0  0  0  0  0  0  0  0
    4.2195    3.9700    7.0081 O   0  0  0  0  0  0  0  0  0  0  0  0
    3.1507    3.7278    6.0751 C   0  0  2  0  0  0  0  0  0  0  0  0
    3.5273    4.1545    4.7987 O   0  0  0  0  0  0  0  0  0  0  0  0
    2.4687    4.6717    4.0648 C   0  0  2  0  0  0  0  0  0  0  0  0
    3.2151    5.2378    2.8449 C   0  0  0  0  0  0  0  0  0  0  0  0
    1.6502    3.4463    3.5658 C   0  0  0  0  0  0  0  0  0  0  0  0
    1.4221    2.1781    4.0494 C   0  0  0  0  0  0  0  0  0  0  0  0
    1.6667    1.3583    5.3890 C   0  0  2  0  0  0  0  0  0  0  0  0
    0.4909    0.3402    5.4625 C   0  0  0  0  0  0  0  0  0  0  0  0
    1.4434   -0.7471    5.9237 C   0  0  2  0  0  0  0  0  0  0  0  0
    2.5465    0.0328    5.1665 C   0  0  1  0  0  0  0  0  0  0  0  0
    2.8908   -0.5540    3.8330 N   0  0  0  0  0  0  0  0  0  0  0  0
    3.3337    0.4419    2.8357 C   0  0  0  0  0  0  0  0  0  0  0  0
    3.3331   -1.8356    3.6668 C   0  0  0  0  0  0  0  0  0  0  0  0
    3.7664   -2.1999    2.5712 O   0  0  0  0  0  0  0  0  0  0  0  0
    3.3369   -2.9063    4.8034 C   0  0  0  0  0  0  0  0  0  0  0  0
    3.9119   -4.2421    4.2715 C   0  0  0  0  0  0  0  0  0  0  0  0
    4.2507   -2.5276    5.9961 C   0  0  0  0  0  0  0  0  0  0  0  0
    1.9195   -3.1237    5.2293 C   0  0  0  0  0  0  0  0  0  0  0  0
    1.1074   -4.2103    5.2366 C   0  0  0  0  0  0  0  0  0  0  0  0
   -0.1349   -3.8342    5.7576 N   0  0  0  0  0  0  0  0  0  0  0  0
   -0.1184   -2.5727    6.0462 N   0  0  0  0  0  0  0  0  0  0  0  0
    1.1076   -2.1163    5.6947 N   0  0  0  0  0  0  0  0  0  0  0  0
    1.7113    4.9929    7.7777 C   0  0  1  0  0  0  0  0  0  0  0  0
    2.0326    4.3795    9.2031 C   0  0  0  0  0  0  0  0  0  0  0  0
    3.3293    4.5395    9.7822 C   0  0  0  0  0  0  0  0  0  0  0  0
    3.6738    3.9777   11.0202 C   0  0  0  0  0  0  0  0  0  0  0  0
    2.7853    3.2030   11.6641 N   0  0  0  0  0  0  0  0  0  0  0  0
    1.5620    2.9632   11.1884 C   0  0  0  0  0  0  0  0  0  0  0  0
    0.7314    2.1072   11.9404 C   0  0  0  0  0  0  0  0  0  0  0  0
   -0.5682    1.8210   11.4951 C   0  0  0  0  0  0  0  0  0  0  0  0
   -1.0432    2.4189   10.3234 C   0  0  0  0  0  0  0  0  0  0  0  0
   -0.2154    3.2910    9.5897 C   0  0  0  0  0  0  0  0  0  0  0  0
    1.1210    3.5609    9.9673 C   0  0  0  0  0  0  0  0  0  0  0  0
    0.4217    5.7614    7.8109 N   0  0  0  0  0  0  0  0  0  0  0  0
    0.2849    6.6770    8.9561 C   0  0  0  0  0  0  0  0  0  0  0  0
    0.1020    6.6180    6.6348 C   0  0  0  0  0  0  0  0  0  0  0  0
    4.7204    8.2686    8.7686 H   0  0  0  0  0  0  0  0  0  0  0  0
    3.6727    8.7278    7.4431 H   0  0  0  0  0  0  0  0  0  0  0  0
    5.0261    7.5964    7.1848 H   0  0  0  0  0  0  0  0  0  0  0  0
    3.4183    7.2761    5.5798 H   0  0  0  0  0  0  0  0  0  0  0  0
    1.8537    6.7495    4.1043 H   0  0  0  0  0  0  0  0  0  0  0  0
   -1.3859    4.9902    5.3919 H   0  0  0  0  0  0  0  0  0  0  0  0
   -0.3938    4.5553    4.0864 H   0  0  0  0  0  0  0  0  0  0  0  0
   -0.5348    3.7376    6.8424 H   0  0  0  0  0  0  0  0  0  0  0  0
   -0.2255    2.7962    5.6434 H   0  0  0  0  0  0  0  0  0  0  0  0
    1.0057    1.8267    7.5129 H   0  0  0  0  0  0  0  0  0  0  0  0
    3.1929    2.1881    8.5179 H   0  0  0  0  0  0  0  0  0  0  0  0
    3.3985    0.7740    7.6036 H   0  0  0  0  0  0  0  0  0  0  0  0
    5.8383    1.4290    6.8337 H   0  0  0  0  0  0  0  0  0  0  0  0
    5.9770    2.7802    5.7135 H   0  0  0  0  0  0  0  0  0  0  0  0
    5.0954    1.3438    5.2240 H   0  0  0  0  0  0  0  0  0  0  0  0
    2.5244    5.7099    2.1499 H   0  0  0  0  0  0  0  0  0  0  0  0
    3.7495    4.4662    2.2947 H   0  0  0  0  0  0  0  0  0  0  0  0
    3.9428    5.9885    3.1484 H   0  0  0  0  0  0  0  0  0  0  0  0
    1.2289    3.6268    2.5845 H   0  0  0  0  0  0  0  0  0  0  0  0
    0.8097    1.6210    3.3508 H   0  0  0  0  0  0  0  0  0  0  0  0
   -0.2754    0.5696    6.2038 H   0  0  0  0  0  0  0  0  0  0  0  0
    0.0366    0.0576    4.5092 H   0  0  0  0  0  0  0  0  0  0  0  0
    1.5931   -0.6691    7.0027 H   0  0  0  0  0  0  0  0  0  0  0  0
    3.4555    0.0581    5.7367 H   0  0  0  0  0  0  0  0  0  0  0  0
    4.1192    0.1156    2.1598 H   0  0  0  0  0  0  0  0  0  0  0  0
    3.7249    1.3559    3.2866 H   0  0  0  0  0  0  0  0  0  0  0  0
    2.4935    0.6809    2.1912 H   0  0  0  0  0  0  0  0  0  0  0  0
    3.3514   -4.6157    3.4140 H   0  0  0  0  0  0  0  0  0  0  0  0
    3.8825   -5.0192    5.0353 H   0  0  0  0  0  0  0  0  0  0  0  0
    4.9528   -4.1367    3.9629 H   0  0  0  0  0  0  0  0  0  0  0  0
    3.8176   -1.7934    6.6705 H   0  0  0  0  0  0  0  0  0  0  0  0
    5.2168   -2.1453    5.6600 H   0  0  0  0  0  0  0  0  0  0  0  0
    4.4460   -3.3920    6.6345 H   0  0  0  0  0  0  0  0  0  0  0  0
    1.3013   -5.2295    4.9217 H   0  0  0  0  0  0  0  0  0  0  0  0
    4.1335    5.0639    9.2882 H   0  0  0  0  0  0  0  0  0  0  0  0
    4.6397    4.1018   11.4893 H   0  0  0  0  0  0  0  0  0  0  0  0
    1.0664    1.6695   12.8670 H   0  0  0  0  0  0  0  0  0  0  0  0
   -1.2136    1.1718   12.0785 H   0  0  0  0  0  0  0  0  0  0  0  0
   -2.0633    2.2311   10.0090 H   0  0  0  0  0  0  0  0  0  0  0  0
   -0.6821    3.7750    8.7673 H   0  0  0  0  0  0  0  0  0  0  0  0
   -0.7116    7.1325    8.9637 H   0  0  0  0  0  0  0  0  0  0  0  0
    1.0107    7.4986    8.9351 H   0  0  0  0  0  0  0  0  0  0  0  0
    0.3865    6.1728    9.9202 H   0  0  0  0  0  0  0  0  0  0  0  0
    0.5629    7.6110    6.6930 H   0  0  0  0  0  0  0  0  0  0  0  0
   -0.9684    6.8176    6.6863 H   0  0  0  0  0  0  0  0  0  0  0  0
    3.0599    2.7730   12.5490 H   0  0  0  0  0  0  0  0  0  0  0  0
  1  2  1  0
  1 51  1  0
  1 52  1  0
  1 53  1  0
  2  3  1  0
  3 37  1  0
  3  4  2  0
  4  5  1  0
  4 54  1  0
  5 17  1  0
  5  6  1  0
  5 55  1  6
  6 50  1  0
  6  7  1  0
  7  8  1  0
  7 56  1  0
  7 57  1  0
  9  8  1  6
  8 58  1  0
  8 59  1  0
  9 15  1  0
  9 10  1  0
  9 37  1  0
 10 21  1  0
 10 11  1  0
 10 60  1  1
 11 12  1  0
 11 61  1  0
 11 62  1  0
 12 15  1  0
 12 13  1  6
 12 14  1  0
 13 63  1  0
 13 64  1  0
 13 65  1  0
 15 14  1  1
 15 16  1  0
 16 17  1  0
 17 18  1  6
 17 19  1  0
 18 66  1  0
 18 67  1  0
 18 68  1  0
 19 20  2  3
 19 69  1  0
 20 21  1  0
 20 70  1  0
 21 24  1  0
 21 22  1  1
 22 23  1  0
 22 71  1  0
 22 72  1  0
 23 36  1  0
 23 24  1  0
 23 73  1  1
 24 25  1  0
 24 74  1  1
 25 26  1  0
 25 27  1  0
 26 75  1  0
 26 76  1  0
 26 77  1  0
 27 28  2  0
 27 29  1  0
 29 30  1  0
 29 31  1  0
 29 32  1  0
 30 78  1  0
 30 79  1  0
 30 80  1  0
 31 81  1  0
 31 82  1  0
 31 83  1  0
 32 36  1  0
 32 33  2  0
 33 34  1  0
 33 84  1  0
 34 35  2  0
 35 36  1  0
 37 38  1  1
 37 48  1  0
 38 47  1  0
 38 39  2  0
 39 40  1  0
 39 85  1  0
 40 41  2  0
 40 86  1  0
 41 42  1  0
 41 96  1  0
 42 47  2  0
 42 43  1  0
 43 44  2  0
 43 87  1  0
 44 45  1  0
 44 88  1  0
 45 46  2  0
 45 89  1  0
 46 47  1  0
 46 90  1  0
 48 49  1  0
 48 50  1  0
 49 91  1  0
 49 92  1  0
 49 93  1  0
 50 94  1  0
 50 95  1  0
M  CHG  1  41   1
M  END
>  <i_m_ct_stereo_status>  (18) 
1

>  <s_m_source_file>  (18) 
/var/tmp/pbs.5076255.sched01/tmpd0mq1ayv/02wja6gfv.sdf

>  <i_m_source_file_index>  (18) 
6

>  <i_lp_mmshare_version>  (18) 
48012

>  <i_f3d_flags>  (18) 
0

>  <s_epik_input>  (18) 
W2NIXTFbY0hdW2NIXVtjSF1jKGMxMiljKFtjSF1bY0hdbjIpW0NAXTMoQyg9W0NIXTQpT1tDSDNdKU4oW0NIM10pW0NIMl1OKFtDSDJdW0NIMl01KVtDQEBIXTRbQ0BdKE82KShbQ0gzXSkvW0NIXT1bQ0hdXFtDQF03KFtDQEhdOFtDSDJdW0NAQF0oTzkpKFtDSDNdKVtDQF02OVtDQEBdMzU4KVtDQEhdMVtDQEBIXShbQ0gyXTcpbjJjKFtjSF1ubjIpQyhbQ0gzXSkoW0NIM10pQyg9TylOMVtDSDNd

>  <s_epik_cmdline>  (18) 
J2VwaWtfcHl0aG9uJywgJy1waHQnLCAnMi4wJywgJy1waCcsICc3LjAnLCAnLXRuJywgJzgnLCAnLW1hJywgJzIwMCcsICctaW1hZScsICc8aW5maWxlLm1hZT4nLCAnLW9tYWUnLCAnPG91dGZpbGUubWFlPic=

>  <r_lp_tautomer_probability>  (18) 
1

>  <r_epik_Ionization_Penalty>  (18) 
0.0577884

>  <r_epik_Ionization_Penalty_Charging>  (18) 
0.0373683

>  <r_epik_Ionization_Penalty_Neutral>  (18) 
0.0204202

>  <r_epik_State_Penalty>  (18) 
0.0467502

>  <r_epik_Charging_Adjusted_Penalty>  (18) 
0.0841184

>  <i_epik_Tot_Q>  (18) 
1

>  <i_epik_Tot_abs_Q>  (18) 
1

>  <s_epik_Chemistry_Notes>  (18) 
This compound contains an acetal/aminal-like group ( X-CH(R)-Y where X, Y are N, S, or O) that may be acid/base labile, releasing an aldehyde.

>  <s_lp_Force_Field>  (18) 
OPLS3e

>  <r_lp_Energy>  (18) 
266.467

>  <b_lp_Chiralities_Consistent>  (18) 
1

>  <s_lp_Variant>  (18) 
4:0-1

>  <s_i_glide_gridfile>  (18) 
pfpi4k_grid

>  <i_i_glide_lignum>  (18) 
6

>  <i_i_glide_rotatable_bonds>  (18) 
2

>  <r_i_docking_score>  (18) 
-1.61458

>  <r_i_glide_ligand_efficiency>  (18) 
-0.0322916

>  <r_i_glide_ligand_efficiency_sa>  (18) 
-0.118963

>  <r_i_glide_ligand_efficiency_ln>  (18) 
-0.328699

>  <r_i_glide_gscore>  (18) 
-1.61458

>  <r_i_glide_lipo>  (18) 
-0.122896

>  <r_i_glide_hbond>  (18) 
0

>  <r_i_glide_metal>  (18) 
-0

>  <r_i_glide_rewards>  (18) 
-9.02231e-05

>  <r_i_glide_evdw>  (18) 
-23.356

>  <r_i_glide_ecoul>  (18) 
-2.15208

>  <r_i_glide_erotb>  (18) 
0.0465977

>  <r_i_glide_esite>  (18) 
-0.0475761

>  <r_i_glide_emodel>  (18) 
-27.4491

>  <r_i_glide_energy>  (18) 
-25.5081

>  <r_i_glide_einternal>  (18) 
0.530421

>  <r_i_glide_intrahb_reward>  (18) 
-0

>  <i_i_glide_confnum>  (18) 
1

>  <i_i_glide_posenum>  (18) 
12

>  <r_i_glide_eff_state_penalty>  (18) 
0

>  <ligand_id>  (18) 
4

>  <original_smiles>  (18) 
COC1=CC2N3CCC4(C5CC6(C)OC64OC2(C)C=CC52CC4C2N(C)C(=O)C(C)(C)c2cnnn24)C1(c1ccnc2ccccc12)N(C)C3

>  <smiles>  (18) 
[H]C1=C(OC([H])([H])[H])C2(c3c([H])c([H])[n+]([H])c4c([H])c([H])c([H])c([H])c34)N(C([H])([H])[H])C([H])([H])N3C([H])([H])C([H])([H])C24C25OC(C([H])([H])[H])(C([H])=C([H])C6(C([H])([H])C7([H])n8nnc([H])c8C(C([H])([H])[H])(C([H])([H])[H])C(=O)N(C([H])([H])[H])C76[H])C4([H])C([H])([H])C2(C([H])([H])[H])O5)C13[H]

$$$$
4:1:0
     RDKit          3D

 96106  0  0  1  0  0  0  0  0999 V2000
    4.4503   -9.2795    4.7357 C   0  0  0  0  0  0  0  0  0  0  0  0
    4.5600   -8.0034    4.1103 O   0  0  0  0  0  0  0  0  0  0  0  0
    4.7509   -6.8876    4.9011 C   0  0  0  0  0  0  0  0  0  0  0  0
    4.8709   -6.9569    6.2642 C   0  0  0  0  0  0  0  0  0  0  0  0
    5.2608   -5.7508    7.1487 C   0  0  1  0  0  0  0  0  0  0  0  0
    6.4827   -5.1227    6.5525 N   0  0  0  0  0  0  0  0  0  0  0  0
    6.4456   -3.7298    6.4280 C   0  0  0  0  0  0  0  0  0  0  0  0
    5.3373   -3.3110    5.4669 C   0  0  0  0  0  0  0  0  0  0  0  0
    4.1421   -4.2897    4.9421 C   0  0  2  0  0  0  0  0  0  0  0  0
    3.1462   -3.0838    4.4895 C   0  0  1  0  0  0  0  0  0  0  0  0
    1.8570   -3.7544    3.9567 C   0  0  0  0  0  0  0  0  0  0  0  0
    1.5794   -4.7521    5.0262 C   0  0  1  0  0  0  0  0  0  0  0  0
    0.1891   -4.7926    5.6297 C   0  0  0  0  0  0  0  0  0  0  0  0
    2.1851   -6.0059    4.8802 O   0  0  0  0  0  0  0  0  0  0  0  0
    2.9352   -5.0597    5.6696 C   0  0  1  0  0  0  0  0  0  0  0  0
    2.8955   -5.4122    7.0581 O   0  0  0  0  0  0  0  0  0  0  0  0
    3.9848   -4.9112    7.7891 C   0  0  1  0  0  0  0  0  0  0  0  0
    3.7555   -5.3942    9.2284 C   0  0  0  0  0  0  0  0  0  0  0  0
    3.7880   -3.3406    7.7574 C   0  0  0  0  0  0  0  0  0  0  0  0
    2.7432   -2.7289    7.1180 C   0  0  0  0  0  0  0  0  0  0  0  0
    2.7464   -2.0176    5.7108 C   0  0  1  0  0  0  0  0  0  0  0  0
    3.4580   -0.6281    5.6443 C   0  0  0  0  0  0  0  0  0  0  0  0
    2.3528   -0.1465    4.7060 C   0  0  1  0  0  0  0  0  0  0  0  0
    1.4461   -1.0988    5.4902 C   0  0  2  0  0  0  0  0  0  0  0  0
    0.6613   -0.3528    6.5304 N   0  0  0  0  0  0  0  0  0  0  0  0
    0.7585   -0.8148    7.9235 C   0  0  0  0  0  0  0  0  0  0  0  0
   -0.3925    0.4379    6.1601 C   0  0  0  0  0  0  0  0  0  0  0  0
   -1.3221    0.6531    6.9444 O   0  0  0  0  0  0  0  0  0  0  0  0
   -0.4595    1.1388    4.7660 C   0  0  0  0  0  0  0  0  0  0  0  0
   -0.8070    0.1436    3.6320 C   0  0  0  0  0  0  0  0  0  0  0  0
   -1.6076    2.1738    4.7560 C   0  0  0  0  0  0  0  0  0  0  0  0
    0.8321    1.8563    4.5216 C   0  0  0  0  0  0  0  0  0  0  0  0
    1.1420    3.1649    4.2892 C   0  0  0  0  0  0  0  0  0  0  0  0
    2.5239    3.2779    4.1352 N   0  0  0  0  0  0  0  0  0  0  0  0
    3.0619    2.1070    4.2573 N   0  0  0  0  0  0  0  0  0  0  0  0
    2.0665    1.2442    4.5391 N   0  0  0  0  0  0  0  0  0  0  0  0
    4.8782   -5.5189    4.0985 C   0  0  2  0  0  0  0  0  0  0  0  0
    4.3096   -5.4710    2.6208 C   0  0  0  0  0  0  0  0  0  0  0  0
    3.3170   -6.4093    2.2181 C   0  0  0  0  0  0  0  0  0  0  0  0
    2.7274   -6.3604    0.9488 C   0  0  0  0  0  0  0  0  0  0  0  0
    3.0902   -5.4057    0.0846 N   0  0  0  0  0  0  0  0  0  0  0  0
    3.9928   -4.4602    0.3733 C   0  0  0  0  0  0  0  0  0  0  0  0
    4.2660   -3.4941   -0.6084 C   0  0  0  0  0  0  0  0  0  0  0  0
    5.2038   -2.4800   -0.3572 C   0  0  0  0  0  0  0  0  0  0  0  0
    5.8860   -2.4663    0.8728 C   0  0  0  0  0  0  0  0  0  0  0  0
    5.6152   -3.4517    1.8376 C   0  0  0  0  0  0  0  0  0  0  0  0
    4.6478   -4.4662    1.6454 C   0  0  0  0  0  0  0  0  0  0  0  0
    6.3731   -5.4264    4.0812 N   0  0  0  0  0  0  0  0  0  0  0  0
    7.0494   -6.2571    3.0734 C   0  0  0  0  0  0  0  0  0  0  0  0
    7.1056   -5.7112    5.3470 C   0  0  0  0  0  0  0  0  0  0  0  0
    4.2920  -10.0400    3.9716 H   0  0  0  0  0  0  0  0  0  0  0  0
    3.6067   -9.3399    5.4250 H   0  0  0  0  0  0  0  0  0  0  0  0
    5.3656   -9.5455    5.2632 H   0  0  0  0  0  0  0  0  0  0  0  0
    4.7620   -7.8841    6.8049 H   0  0  0  0  0  0  0  0  0  0  0  0
    5.6615   -6.2724    8.0167 H   0  0  0  0  0  0  0  0  0  0  0  0
    6.3988   -3.3024    7.4229 H   0  0  0  0  0  0  0  0  0  0  0  0
    7.4068   -3.3536    6.0758 H   0  0  0  0  0  0  0  0  0  0  0  0
    5.0783   -2.3703    5.8932 H   0  0  0  0  0  0  0  0  0  0  0  0
    5.8396   -2.9355    4.5927 H   0  0  0  0  0  0  0  0  0  0  0  0
    3.6176   -2.5346    3.6705 H   0  0  0  0  0  0  0  0  0  0  0  0
    1.0034   -3.1390    3.7035 H   0  0  0  0  0  0  0  0  0  0  0  0
    2.0488   -4.2651    3.0246 H   0  0  0  0  0  0  0  0  0  0  0  0
   -0.0949   -3.8300    6.0581 H   0  0  0  0  0  0  0  0  0  0  0  0
    0.1404   -5.5576    6.4020 H   0  0  0  0  0  0  0  0  0  0  0  0
   -0.5258   -5.0558    4.8528 H   0  0  0  0  0  0  0  0  0  0  0  0
    4.5769   -5.0864    9.8728 H   0  0  0  0  0  0  0  0  0  0  0  0
    3.6952   -6.4811    9.2750 H   0  0  0  0  0  0  0  0  0  0  0  0
    2.8329   -4.9948    9.6479 H   0  0  0  0  0  0  0  0  0  0  0  0
    4.6589   -2.7455    7.9168 H   0  0  0  0  0  0  0  0  0  0  0  0
    1.8413   -3.3082    7.1422 H   0  0  0  0  0  0  0  0  0  0  0  0
    3.4799   -0.0680    6.5796 H   0  0  0  0  0  0  0  0  0  0  0  0
    4.4116   -0.5867    5.1166 H   0  0  0  0  0  0  0  0  0  0  0  0
    2.5110   -0.5192    3.6939 H   0  0  0  0  0  0  0  0  0  0  0  0
    0.7300   -1.6038    4.8728 H   0  0  0  0  0  0  0  0  0  0  0  0
    0.1622   -0.2341    8.6261 H   0  0  0  0  0  0  0  0  0  0  0  0
    1.7766   -0.7083    8.2934 H   0  0  0  0  0  0  0  0  0  0  0  0
    0.4171   -1.8457    8.0280 H   0  0  0  0  0  0  0  0  0  0  0  0
    0.0489   -0.4250    3.2749 H   0  0  0  0  0  0  0  0  0  0  0  0
   -1.1758    0.6619    2.7448 H   0  0  0  0  0  0  0  0  0  0  0  0
   -1.5741   -0.5667    3.9471 H   0  0  0  0  0  0  0  0  0  0  0  0
   -1.4966    2.9229    5.5404 H   0  0  0  0  0  0  0  0  0  0  0  0
   -2.5710    1.6911    4.8997 H   0  0  0  0  0  0  0  0  0  0  0  0
   -1.6600    2.6978    3.8007 H   0  0  0  0  0  0  0  0  0  0  0  0
    0.4968    4.0303    4.2182 H   0  0  0  0  0  0  0  0  0  0  0  0
    2.9433   -7.1804    2.8763 H   0  0  0  0  0  0  0  0  0  0  0  0
    1.9831   -7.0649    0.6106 H   0  0  0  0  0  0  0  0  0  0  0  0
    3.7517   -3.5094   -1.5583 H   0  0  0  0  0  0  0  0  0  0  0  0
    5.4030   -1.7277   -1.1054 H   0  0  0  0  0  0  0  0  0  0  0  0
    6.6265   -1.7052    1.0693 H   0  0  0  0  0  0  0  0  0  0  0  0
    6.2147   -3.4126    2.7199 H   0  0  0  0  0  0  0  0  0  0  0  0
    8.1231   -6.0521    3.0765 H   0  0  0  0  0  0  0  0  0  0  0  0
    6.7151   -6.0449    2.0582 H   0  0  0  0  0  0  0  0  0  0  0  0
    6.9160   -7.3265    3.2499 H   0  0  0  0  0  0  0  0  0  0  0  0
    8.0959   -5.2736    5.2312 H   0  0  0  0  0  0  0  0  0  0  0  0
    7.3002   -6.7764    5.4942 H   0  0  0  0  0  0  0  0  0  0  0  0
    2.6895   -5.4155   -0.8661 H   0  0  0  0  0  0  0  0  0  0  0  0
  1  2  1  0
  1 51  1  0
  1 52  1  0
  1 53  1  0
  2  3  1  0
  3 37  1  0
  3  4  2  0
  4  5  1  0
  4 54  1  0
  5 17  1  0
  5  6  1  0
  5 55  1  1
  6 50  1  0
  6  7  1  0
  7  8  1  0
  7 56  1  0
  7 57  1  0
  9  8  1  1
  8 58  1  0
  8 59  1  0
  9 15  1  0
  9 10  1  0
  9 37  1  0
 10 21  1  0
 10 11  1  0
 10 60  1  6
 11 12  1  0
 11 61  1  0
 11 62  1  0
 12 15  1  0
 12 13  1  1
 12 14  1  0
 13 63  1  0
 13 64  1  0
 13 65  1  0
 15 14  1  6
 15 16  1  0
 16 17  1  0
 17 18  1  1
 17 19  1  0
 18 66  1  0
 18 67  1  0
 18 68  1  0
 19 20  2  3
 19 69  1  0
 20 21  1  0
 20 70  1  0
 21 24  1  0
 21 22  1  1
 22 23  1  0
 22 71  1  0
 22 72  1  0
 23 36  1  0
 23 24  1  0
 23 73  1  6
 24 25  1  0
 24 74  1  6
 25 26  1  0
 25 27  1  0
 26 75  1  0
 26 76  1  0
 26 77  1  0
 27 28  2  0
 27 29  1  0
 29 30  1  0
 29 31  1  0
 29 32  1  0
 30 78  1  0
 30 79  1  0
 30 80  1  0
 31 81  1  0
 31 82  1  0
 31 83  1  0
 32 36  1  0
 32 33  2  0
 33 34  1  0
 33 84  1  0
 34 35  2  0
 35 36  1  0
 37 38  1  6
 37 48  1  0
 38 47  1  0
 38 39  2  0
 39 40  1  0
 39 85  1  0
 40 41  2  0
 40 86  1  0
 41 42  1  0
 41 96  1  0
 42 47  2  0
 42 43  1  0
 43 44  2  0
 43 87  1  0
 44 45  1  0
 44 88  1  0
 45 46  2  0
 45 89  1  0
 46 47  1  0
 46 90  1  0
 48 49  1  0
 48 50  1  0
 49 91  1  0
 49 92  1  0
 49 93  1  0
 50 94  1  0
 50 95  1  0
M  CHG  1  41   1
M  END
>  <i_m_ct_stereo_status>  (19) 
1

>  <s_m_source_file>  (19) 
/var/tmp/pbs.5076255.sched01/tmpd0mq1ayv/02wja6gfv.sdf

>  <i_m_source_file_index>  (19) 
7

>  <i_lp_mmshare_version>  (19) 
48012

>  <i_f3d_flags>  (19) 
2

>  <s_epik_input>  (19) 
W2NIXTFbY0hdW2NIXVtjSF1jKGMxMiljKFtjSF1bY0hdbjIpW0NAXTMoQyg9W0NIXTQpT1tDSDNdKU4oW0NIM10pW0NIMl1OKFtDSDJdW0NIMl01KVtDQEBIXTRbQ0BdKE82KShbQ0gzXSkvW0NIXT1bQ0hdXFtDQF03KFtDQEhdOFtDSDJdW0NAQF0oTzkpKFtDSDNdKVtDQF02OVtDQEBdMzU4KVtDQEhdMVtDQEBIXShbQ0gyXTcpbjJjKFtjSF1ubjIpQyhbQ0gzXSkoW0NIM10pQyg9TylOMVtDSDNd

>  <s_epik_cmdline>  (19) 
J2VwaWtfcHl0aG9uJywgJy1waHQnLCAnMi4wJywgJy1waCcsICc3LjAnLCAnLXRuJywgJzgnLCAnLW1hJywgJzIwMCcsICctaW1hZScsICc8aW5maWxlLm1hZT4nLCAnLW9tYWUnLCAnPG91dGZpbGUubWFlPic=

>  <r_lp_tautomer_probability>  (19) 
1

>  <r_epik_Ionization_Penalty>  (19) 
0.0577884

>  <r_epik_Ionization_Penalty_Charging>  (19) 
0.0373683

>  <r_epik_Ionization_Penalty_Neutral>  (19) 
0.0204202

>  <r_epik_State_Penalty>  (19) 
0.0467502

>  <r_epik_Charging_Adjusted_Penalty>  (19) 
0.0841184

>  <i_epik_Tot_Q>  (19) 
1

>  <i_epik_Tot_abs_Q>  (19) 
1

>  <s_epik_Chemistry_Notes>  (19) 
This compound contains an acetal/aminal-like group ( X-CH(R)-Y where X, Y are N, S, or O) that may be acid/base labile, releasing an aldehyde.

>  <s_lp_Force_Field>  (19) 
OPLS3e

>  <r_lp_Energy>  (19) 
300.166

>  <b_lp_Chiralities_Consistent>  (19) 
0

>  <s_lp_Variant>  (19) 
4:0-2

>  <s_i_glide_gridfile>  (19) 
pfpi4k_grid

>  <i_i_glide_lignum>  (19) 
7

>  <i_i_glide_rotatable_bonds>  (19) 
2

>  <r_i_docking_score>  (19) 
-2.71974

>  <r_i_glide_ligand_efficiency>  (19) 
-0.0543949

>  <r_i_glide_ligand_efficiency_sa>  (19) 
-0.200393

>  <r_i_glide_ligand_efficiency_ln>  (19) 
-0.553691

>  <r_i_glide_gscore>  (19) 
-2.71974

>  <r_i_glide_lipo>  (19) 
-0.255597

>  <r_i_glide_hbond>  (19) 
-0.16

>  <r_i_glide_metal>  (19) 
-0

>  <r_i_glide_rewards>  (19) 
-0.0204853

>  <r_i_glide_evdw>  (19) 
-25.0046

>  <r_i_glide_ecoul>  (19) 
-6.50379

>  <r_i_glide_erotb>  (19) 
0.0465977

>  <r_i_glide_esite>  (19) 
-0.10446

>  <r_i_glide_emodel>  (19) 
-36.6178

>  <r_i_glide_energy>  (19) 
-31.5084

>  <r_i_glide_einternal>  (19) 
0.00891344

>  <r_i_glide_intrahb_reward>  (19) 
-0

>  <i_i_glide_confnum>  (19) 
3

>  <i_i_glide_posenum>  (19) 
13

>  <r_i_glide_eff_state_penalty>  (19) 
0

>  <ligand_id>  (19) 
4

>  <original_smiles>  (19) 
COC1=CC2N3CCC4(C5CC6(C)OC64OC2(C)C=CC52CC4C2N(C)C(=O)C(C)(C)c2cnnn24)C1(c1ccnc2ccccc12)N(C)C3

>  <smiles>  (19) 
[H]C1=C(OC([H])([H])[H])C2(c3c([H])c([H])[n+]([H])c4c([H])c([H])c([H])c([H])c34)N(C([H])([H])[H])C([H])([H])N3C([H])([H])C([H])([H])C24C25OC(C([H])([H])[H])(C([H])=C([H])C6(C([H])([H])C7([H])n8nnc([H])c8C(C([H])([H])[H])(C([H])([H])[H])C(=O)N(C([H])([H])[H])C76[H])C4([H])C([H])([H])C2(C([H])([H])[H])O5)C13[H]

$$$$
4:1:1
     RDKit          3D

 96106  0  0  1  0  0  0  0  0999 V2000
    3.1476    8.6343    7.6598 C   0  0  0  0  0  0  0  0  0  0  0  0
    2.3047    7.5459    7.2925 O   0  0  0  0  0  0  0  0  0  0  0  0
    2.1709    6.4886    8.1682 C   0  0  0  0  0  0  0  0  0  0  0  0
    2.7615    6.4750    9.4021 C   0  0  0  0  0  0  0  0  0  0  0  0
    2.4983    5.3855   10.4640 C   0  0  1  0  0  0  0  0  0  0  0  0
    1.0170    5.2287   10.5992 N   0  0  0  0  0  0  0  0  0  0  0  0
    0.5445    3.9107   10.5878 C   0  0  0  0  0  0  0  0  0  0  0  0
    0.8398    3.2490    9.2450 C   0  0  0  0  0  0  0  0  0  0  0  0
    1.8685    3.8411    8.1220 C   0  0  2  0  0  0  0  0  0  0  0  0
    2.0767    2.4273    7.3448 C   0  0  1  0  0  0  0  0  0  0  0  0
    3.0764    2.7028    6.1959 C   0  0  0  0  0  0  0  0  0  0  0  0
    4.1432    3.4667    6.9009 C   0  0  1  0  0  0  0  0  0  0  0  0
    5.5819    3.0085    6.7399 C   0  0  0  0  0  0  0  0  0  0  0  0
    3.9713    4.8551    6.9681 O   0  0  0  0  0  0  0  0  0  0  0  0
    3.4549    4.1221    8.0995 C   0  0  1  0  0  0  0  0  0  0  0  0
    4.2706    4.3257    9.2579 O   0  0  0  0  0  0  0  0  0  0  0  0
    3.5824    4.1348   10.4671 C   0  0  1  0  0  0  0  0  0  0  0  0
    4.6273    4.3944   11.5624 C   0  0  0  0  0  0  0  0  0  0  0  0
    3.2303    2.5919   10.4741 C   0  0  0  0  0  0  0  0  0  0  0  0
    3.5736    1.7366    9.4616 C   0  0  0  0  0  0  0  0  0  0  0  0
    2.6593    1.1882    8.3002 C   0  0  1  0  0  0  0  0  0  0  0  0
    1.6057    0.1077    8.7041 C   0  0  0  0  0  0  0  0  0  0  0  0
    1.8929   -0.6130    7.3899 C   0  0  1  0  0  0  0  0  0  0  0  0
    3.3156   -0.0681    7.5460 C   0  0  2  0  0  0  0  0  0  0  0  0
    4.2264   -1.1078    8.1276 N   0  0  0  0  0  0  0  0  0  0  0  0
    4.9755   -0.7652    9.3454 C   0  0  0  0  0  0  0  0  0  0  0  0
    4.6484   -2.1657    7.3664 C   0  0  0  0  0  0  0  0  0  0  0  0
    5.6960   -2.7598    7.6334 O   0  0  0  0  0  0  0  0  0  0  0  0
    3.8019   -2.7194    6.1755 C   0  0  0  0  0  0  0  0  0  0  0  0
    3.8442   -1.7868    4.9358 C   0  0  0  0  0  0  0  0  0  0  0  0
    4.4133   -4.0581    5.6852 C   0  0  0  0  0  0  0  0  0  0  0  0
    2.4051   -2.9688    6.6544 C   0  0  0  0  0  0  0  0  0  0  0  0
    1.6215   -4.0906    6.7208 C   0  0  0  0  0  0  0  0  0  0  0  0
    0.3832   -3.7475    7.2527 N   0  0  0  0  0  0  0  0  0  0  0  0
    0.3818   -2.4789    7.5324 N   0  0  0  0  0  0  0  0  0  0  0  0
    1.6003   -2.0043    7.2210 N   0  0  0  0  0  0  0  0  0  0  0  0
    1.2387    5.3047    7.6439 C   0  0  2  0  0  0  0  0  0  0  0  0
    0.9734    5.2162    6.0862 C   0  0  0  0  0  0  0  0  0  0  0  0
    1.8788    5.8204    5.1638 C   0  0  0  0  0  0  0  0  0  0  0  0
    1.7121    5.7148    3.7712 C   0  0  0  0  0  0  0  0  0  0  0  0
    0.6931    4.9938    3.2892 N   0  0  0  0  0  0  0  0  0  0  0  0
   -0.2040    4.3724    4.0700 C   0  0  0  0  0  0  0  0  0  0  0  0
   -1.2333    3.6391    3.4469 C   0  0  0  0  0  0  0  0  0  0  0  0
   -2.2022    2.9748    4.2089 C   0  0  0  0  0  0  0  0  0  0  0  0
   -2.1539    3.0756    5.6059 C   0  0  0  0  0  0  0  0  0  0  0  0
   -1.1308    3.8119    6.2279 C   0  0  0  0  0  0  0  0  0  0  0  0
   -0.1109    4.4712    5.4893 C   0  0  0  0  0  0  0  0  0  0  0  0
   -0.0214    5.6772    8.3775 N   0  0  0  0  0  0  0  0  0  0  0  0
   -0.7781    6.7822    7.7737 C   0  0  0  0  0  0  0  0  0  0  0  0
    0.1024    6.0780    9.8082 C   0  0  0  0  0  0  0  0  0  0  0  0
    3.1367    9.3623    6.8569 H   0  0  0  0  0  0  0  0  0  0  0  0
    4.1887    8.3351    7.7892 H   0  0  0  0  0  0  0  0  0  0  0  0
    2.7977    9.1498    8.5546 H   0  0  0  0  0  0  0  0  0  0  0  0
    3.4119    7.2686    9.7371 H   0  0  0  0  0  0  0  0  0  0  0  0
    2.7612    5.9306   11.3688 H   0  0  0  0  0  0  0  0  0  0  0  0
    0.9288    3.4041   11.4663 H   0  0  0  0  0  0  0  0  0  0  0  0
   -0.5334    3.8898   10.7728 H   0  0  0  0  0  0  0  0  0  0  0  0
    0.9610    2.2416    9.5684 H   0  0  0  0  0  0  0  0  0  0  0  0
   -0.1269    3.1379    8.7766 H   0  0  0  0  0  0  0  0  0  0  0  0
    1.1176    2.1306    6.9103 H   0  0  0  0  0  0  0  0  0  0  0  0
    3.4482    1.8701    5.6111 H   0  0  0  0  0  0  0  0  0  0  0  0
    2.6224    3.3217    5.4356 H   0  0  0  0  0  0  0  0  0  0  0  0
    5.7174    1.9733    7.0591 H   0  0  0  0  0  0  0  0  0  0  0  0
    6.2448    3.6466    7.3229 H   0  0  0  0  0  0  0  0  0  0  0  0
    5.8752    3.0844    5.6964 H   0  0  0  0  0  0  0  0  0  0  0  0
    4.1793    4.3050   12.5504 H   0  0  0  0  0  0  0  0  0  0  0  0
    5.0440    5.3982   11.4811 H   0  0  0  0  0  0  0  0  0  0  0  0
    5.4558    3.6879   11.5090 H   0  0  0  0  0  0  0  0  0  0  0  0
    2.4135    2.2905   11.0908 H   0  0  0  0  0  0  0  0  0  0  0  0
    4.5037    1.9970    8.9909 H   0  0  0  0  0  0  0  0  0  0  0  0
    1.8675   -0.4969    9.5726 H   0  0  0  0  0  0  0  0  0  0  0  0
    0.5621    0.4180    8.7224 H   0  0  0  0  0  0  0  0  0  0  0  0
    1.3886   -0.1254    6.5561 H   0  0  0  0  0  0  0  0  0  0  0  0
    3.7625    0.2333    6.6189 H   0  0  0  0  0  0  0  0  0  0  0  0
    5.6235   -1.5622    9.7063 H   0  0  0  0  0  0  0  0  0  0  0  0
    4.2960   -0.5781   10.1752 H   0  0  0  0  0  0  0  0  0  0  0  0
    5.6351    0.0885    9.1810 H   0  0  0  0  0  0  0  0  0  0  0  0
    3.1525   -0.9491    4.9971 H   0  0  0  0  0  0  0  0  0  0  0  0
    3.5464   -2.3160    4.0281 H   0  0  0  0  0  0  0  0  0  0  0  0
    4.8462   -1.3823    4.7665 H   0  0  0  0  0  0  0  0  0  0  0  0
    4.4631   -4.7995    6.4856 H   0  0  0  0  0  0  0  0  0  0  0  0
    5.4265   -3.9231    5.2965 H   0  0  0  0  0  0  0  0  0  0  0  0
    3.8176   -4.4902    4.8791 H   0  0  0  0  0  0  0  0  0  0  0  0
    1.8526   -5.1064    6.4219 H   0  0  0  0  0  0  0  0  0  0  0  0
    2.7576    6.3523    5.4938 H   0  0  0  0  0  0  0  0  0  0  0  0
    2.3831    6.1622    3.0470 H   0  0  0  0  0  0  0  0  0  0  0  0
   -1.2769    3.5669    2.3713 H   0  0  0  0  0  0  0  0  0  0  0  0
   -2.9784    2.4055    3.7169 H   0  0  0  0  0  0  0  0  0  0  0  0
   -2.9135    2.5909    6.2031 H   0  0  0  0  0  0  0  0  0  0  0  0
   -1.1981    3.8813    7.2880 H   0  0  0  0  0  0  0  0  0  0  0  0
   -1.7254    6.9269    8.2992 H   0  0  0  0  0  0  0  0  0  0  0  0
   -1.0224    6.5795    6.7366 H   0  0  0  0  0  0  0  0  0  0  0  0
   -0.2393    7.7309    7.7840 H   0  0  0  0  0  0  0  0  0  0  0  0
   -0.8952    5.9924   10.2349 H   0  0  0  0  0  0  0  0  0  0  0  0
    0.3533    7.1346    9.9336 H   0  0  0  0  0  0  0  0  0  0  0  0
    0.5884    4.8869    2.2612 H   0  0  0  0  0  0  0  0  0  0  0  0
  1  2  1  0
  1 51  1  0
  1 52  1  0
  1 53  1  0
  2  3  1  0
  3 37  1  0
  3  4  2  0
  4  5  1  0
  4 54  1  0
  5 17  1  0
  5  6  1  0
  5 55  1  1
  6 50  1  0
  6  7  1  0
  7  8  1  0
  7 56  1  0
  7 57  1  0
  9  8  1  1
  8 58  1  0
  8 59  1  0
  9 15  1  0
  9 10  1  0
  9 37  1  0
 10 21  1  0
 10 11  1  0
 10 60  1  6
 11 12  1  0
 11 61  1  0
 11 62  1  0
 12 15  1  0
 12 13  1  1
 12 14  1  0
 13 63  1  0
 13 64  1  0
 13 65  1  0
 15 14  1  6
 15 16  1  0
 16 17  1  0
 17 18  1  1
 17 19  1  0
 18 66  1  0
 18 67  1  0
 18 68  1  0
 19 20  2  3
 19 69  1  0
 20 21  1  0
 20 70  1  0
 21 24  1  0
 21 22  1  1
 22 23  1  0
 22 71  1  0
 22 72  1  0
 23 36  1  0
 23 24  1  0
 23 73  1  6
 24 25  1  0
 24 74  1  6
 25 26  1  0
 25 27  1  0
 26 75  1  0
 26 76  1  0
 26 77  1  0
 27 28  2  0
 27 29  1  0
 29 30  1  0
 29 31  1  0
 29 32  1  0
 30 78  1  0
 30 79  1  0
 30 80  1  0
 31 81  1  0
 31 82  1  0
 31 83  1  0
 32 36  1  0
 32 33  2  0
 33 34  1  0
 33 84  1  0
 34 35  2  0
 35 36  1  0
 37 38  1  6
 37 48  1  0
 38 47  1  0
 38 39  2  0
 39 40  1  0
 39 85  1  0
 40 41  2  0
 40 86  1  0
 41 42  1  0
 41 96  1  0
 42 47  2  0
 42 43  1  0
 43 44  2  0
 43 87  1  0
 44 45  1  0
 44 88  1  0
 45 46  2  0
 45 89  1  0
 46 47  1  0
 46 90  1  0
 48 49  1  0
 48 50  1  0
 49 91  1  0
 49 92  1  0
 49 93  1  0
 50 94  1  0
 50 95  1  0
M  CHG  1  41   1
M  END
>  <i_m_ct_stereo_status>  (20) 
1

>  <s_m_source_file>  (20) 
/var/tmp/pbs.5076255.sched01/tmpd0mq1ayv/02wja6gfv.sdf

>  <i_m_source_file_index>  (20) 
7

>  <i_lp_mmshare_version>  (20) 
48012

>  <i_f3d_flags>  (20) 
2

>  <s_epik_input>  (20) 
W2NIXTFbY0hdW2NIXVtjSF1jKGMxMiljKFtjSF1bY0hdbjIpW0NAXTMoQyg9W0NIXTQpT1tDSDNdKU4oW0NIM10pW0NIMl1OKFtDSDJdW0NIMl01KVtDQEBIXTRbQ0BdKE82KShbQ0gzXSkvW0NIXT1bQ0hdXFtDQF03KFtDQEhdOFtDSDJdW0NAQF0oTzkpKFtDSDNdKVtDQF02OVtDQEBdMzU4KVtDQEhdMVtDQEBIXShbQ0gyXTcpbjJjKFtjSF1ubjIpQyhbQ0gzXSkoW0NIM10pQyg9TylOMVtDSDNd

>  <s_epik_cmdline>  (20) 
J2VwaWtfcHl0aG9uJywgJy1waHQnLCAnMi4wJywgJy1waCcsICc3LjAnLCAnLXRuJywgJzgnLCAnLW1hJywgJzIwMCcsICctaW1hZScsICc8aW5maWxlLm1hZT4nLCAnLW9tYWUnLCAnPG91dGZpbGUubWFlPic=

>  <r_lp_tautomer_probability>  (20) 
1

>  <r_epik_Ionization_Penalty>  (20) 
0.0577884

>  <r_epik_Ionization_Penalty_Charging>  (20) 
0.0373683

>  <r_epik_Ionization_Penalty_Neutral>  (20) 
0.0204202

>  <r_epik_State_Penalty>  (20) 
0.0467502

>  <r_epik_Charging_Adjusted_Penalty>  (20) 
0.0841184

>  <i_epik_Tot_Q>  (20) 
1

>  <i_epik_Tot_abs_Q>  (20) 
1

>  <s_epik_Chemistry_Notes>  (20) 
This compound contains an acetal/aminal-like group ( X-CH(R)-Y where X, Y are N, S, or O) that may be acid/base labile, releasing an aldehyde.

>  <s_lp_Force_Field>  (20) 
OPLS3e

>  <r_lp_Energy>  (20) 
300.166

>  <b_lp_Chiralities_Consistent>  (20) 
0

>  <s_lp_Variant>  (20) 
4:0-2

>  <s_i_glide_gridfile>  (20) 
pfpi4k_grid

>  <i_i_glide_lignum>  (20) 
7

>  <i_i_glide_rotatable_bonds>  (20) 
2

>  <r_i_docking_score>  (20) 
-2.19378

>  <r_i_glide_ligand_efficiency>  (20) 
-0.0438756

>  <r_i_glide_ligand_efficiency_sa>  (20) 
-0.161639

>  <r_i_glide_ligand_efficiency_ln>  (20) 
-0.446615

>  <r_i_glide_gscore>  (20) 
-2.19378

>  <r_i_glide_lipo>  (20) 
-0.0311548

>  <r_i_glide_hbond>  (20) 
-0.2

>  <r_i_glide_metal>  (20) 
-0

>  <r_i_glide_rewards>  (20) 
0

>  <r_i_glide_evdw>  (20) 
-19.8386

>  <r_i_glide_ecoul>  (20) 
-5.78456

>  <r_i_glide_erotb>  (20) 
0.0465977

>  <r_i_glide_esite>  (20) 
-0.14961

>  <r_i_glide_emodel>  (20) 
-29.6632

>  <r_i_glide_energy>  (20) 
-25.6232

>  <r_i_glide_einternal>  (20) 
0.0318646

>  <r_i_glide_intrahb_reward>  (20) 
-0

>  <i_i_glide_confnum>  (20) 
1

>  <i_i_glide_posenum>  (20) 
38

>  <r_i_glide_eff_state_penalty>  (20) 
0

>  <ligand_id>  (20) 
4

>  <original_smiles>  (20) 
COC1=CC2N3CCC4(C5CC6(C)OC64OC2(C)C=CC52CC4C2N(C)C(=O)C(C)(C)c2cnnn24)C1(c1ccnc2ccccc12)N(C)C3

>  <smiles>  (20) 
[H]C1=C(OC([H])([H])[H])C2(c3c([H])c([H])[n+]([H])c4c([H])c([H])c([H])c([H])c34)N(C([H])([H])[H])C([H])([H])N3C([H])([H])C([H])([H])C24C25OC(C([H])([H])[H])(C([H])=C([H])C6(C([H])([H])C7([H])n8nnc([H])c8C(C([H])([H])[H])(C([H])([H])[H])C(=O)N(C([H])([H])[H])C76[H])C4([H])C([H])([H])C2(C([H])([H])[H])O5)C13[H]

$$$$
4:1:2
     RDKit          3D

 96106  0  0  1  0  0  0  0  0999 V2000
    2.9830   -7.3112    6.5559 C   0  0  0  0  0  0  0  0  0  0  0  0
    3.3961   -6.2005    5.7614 O   0  0  0  0  0  0  0  0  0  0  0  0
    3.5647   -4.9663    6.3643 C   0  0  0  0  0  0  0  0  0  0  0  0
    3.4325   -4.7926    7.7124 C   0  0  0  0  0  0  0  0  0  0  0  0
    3.8150   -3.4858    8.4432 C   0  0  1  0  0  0  0  0  0  0  0  0
    5.1926   -3.1011    7.9910 N   0  0  0  0  0  0  0  0  0  0  0  0
    5.3579   -1.7581    7.6445 C   0  0  0  0  0  0  0  0  0  0  0  0
    4.4935   -1.4137    6.4422 C   0  0  0  0  0  0  0  0  0  0  0  0
    3.2933   -2.3573    5.8482 C   0  0  2  0  0  0  0  0  0  0  0  0
    2.5421   -1.1754    5.0227 C   0  0  1  0  0  0  0  0  0  0  0  0
    1.2918   -1.8105    4.3690 C   0  0  0  0  0  0  0  0  0  0  0  0
    0.7144   -2.5605    5.5119 C   0  0  1  0  0  0  0  0  0  0  0  0
   -0.7507   -2.3423    5.8480 C   0  0  0  0  0  0  0  0  0  0  0  0
    1.1696   -3.8714    5.6919 O   0  0  0  0  0  0  0  0  0  0  0  0
    1.8890   -2.8704    6.4469 C   0  0  1  0  0  0  0  0  0  0  0  0
    1.5573   -2.9473    7.8385 O   0  0  0  0  0  0  0  0  0  0  0  0
    2.5610   -2.4261    8.6753 C   0  0  1  0  0  0  0  0  0  0  0  0
    2.0348   -2.6049   10.1061 C   0  0  0  0  0  0  0  0  0  0  0  0
    2.5773   -0.8757    8.3529 C   0  0  0  0  0  0  0  0  0  0  0  0
    1.7460   -0.2992    7.4287 C   0  0  0  0  0  0  0  0  0  0  0  0
    2.0809    0.1331    5.9502 C   0  0  1  0  0  0  0  0  0  0  0  0
    2.9699    1.4110    5.7875 C   0  0  0  0  0  0  0  0  0  0  0  0
    2.1117    1.8149    4.5888 C   0  0  1  0  0  0  0  0  0  0  0  0
    0.9676    1.1175    5.3335 C   0  0  2  0  0  0  0  0  0  0  0  0
    0.1199    2.1156    6.0665 N   0  0  0  0  0  0  0  0  0  0  0  0
   -0.0719    1.9208    7.5109 C   0  0  0  0  0  0  0  0  0  0  0  0
   -0.7357    2.9319    5.3799 C   0  0  0  0  0  0  0  0  0  0  0  0
   -1.7209    3.4189    5.9359 O   0  0  0  0  0  0  0  0  0  0  0  0
   -0.4819    3.3470    3.8946 C   0  0  0  0  0  0  0  0  0  0  0  0
   -0.7526    2.1855    2.9052 C   0  0  0  0  0  0  0  0  0  0  0  0
   -1.4746    4.4655    3.4998 C   0  0  0  0  0  0  0  0  0  0  0  0
    0.9165    3.8858    3.7900 C   0  0  0  0  0  0  0  0  0  0  0  0
    1.4275    5.0922    3.4036 C   0  0  0  0  0  0  0  0  0  0  0  0
    2.8168    5.0385    3.5011 N   0  0  0  0  0  0  0  0  0  0  0  0
    3.1755    3.8700    3.9304 N   0  0  0  0  0  0  0  0  0  0  0  0
    2.0397    3.1737    4.1455 N   0  0  0  0  0  0  0  0  0  0  0  0
    3.9907   -3.7851    5.3684 C   0  0  2  0  0  0  0  0  0  0  0  0
    3.6795   -3.9718    3.8221 C   0  0  0  0  0  0  0  0  0  0  0  0
    2.7422   -4.9581    3.3871 C   0  0  0  0  0  0  0  0  0  0  0  0
    2.4227   -5.1330    2.0306 C   0  0  0  0  0  0  0  0  0  0  0  0
    2.9358   -4.3038    1.1142 N   0  0  0  0  0  0  0  0  0  0  0  0
    3.7891   -3.3172    1.4226 C   0  0  0  0  0  0  0  0  0  0  0  0
    4.2382   -2.4859    0.3803 C   0  0  0  0  0  0  0  0  0  0  0  0
    5.1331   -1.4367    0.6472 C   0  0  0  0  0  0  0  0  0  0  0  0
    5.6018   -1.2566    1.9572 C   0  0  0  0  0  0  0  0  0  0  0  0
    5.1727   -2.1148    2.9867 C   0  0  0  0  0  0  0  0  0  0  0  0
    4.2206   -3.1410    2.7771 C   0  0  0  0  0  0  0  0  0  0  0  0
    5.4727   -3.8069    5.6114 N   0  0  0  0  0  0  0  0  0  0  0  0
    6.1788   -4.8978    4.9177 C   0  0  0  0  0  0  0  0  0  0  0  0
    5.9292   -3.9494    7.0259 C   0  0  0  0  0  0  0  0  0  0  0  0
    2.8517   -8.1759    5.9071 H   0  0  0  0  0  0  0  0  0  0  0  0
    2.0270   -7.1494    7.0560 H   0  0  0  0  0  0  0  0  0  0  0  0
    3.7363   -7.5810    7.2942 H   0  0  0  0  0  0  0  0  0  0  0  0
    3.1193   -5.5868    8.3761 H   0  0  0  0  0  0  0  0  0  0  0  0
    3.9913   -3.8710    9.4477 H   0  0  0  0  0  0  0  0  0  0  0  0
    5.2067   -1.1545    8.5289 H   0  0  0  0  0  0  0  0  0  0  0  0
    6.4017   -1.5605    7.4016 H   0  0  0  0  0  0  0  0  0  0  0  0
    4.2785   -0.3926    6.6474 H   0  0  0  0  0  0  0  0  0  0  0  0
    5.2206   -1.2404    5.6699 H   0  0  0  0  0  0  0  0  0  0  0  0
    3.2029   -0.8253    4.2323 H   0  0  0  0  0  0  0  0  0  0  0  0
    0.5763   -1.1756    3.8608 H   0  0  0  0  0  0  0  0  0  0  0  0
    1.5644   -2.5101    3.5939 H   0  0  0  0  0  0  0  0  0  0  0  0
   -0.9711   -1.2901    6.0494 H   0  0  0  0  0  0  0  0  0  0  0  0
   -1.0344   -2.9487    6.7087 H   0  0  0  0  0  0  0  0  0  0  0  0
   -1.3487   -2.6493    4.9943 H   0  0  0  0  0  0  0  0  0  0  0  0
    2.7712   -2.2616   10.8310 H   0  0  0  0  0  0  0  0  0  0  0  0
    1.8287   -3.6520   10.3211 H   0  0  0  0  0  0  0  0  0  0  0  0
    1.1161   -2.0442   10.2708 H   0  0  0  0  0  0  0  0  0  0  0  0
    3.4848   -0.3527    8.5688 H   0  0  0  0  0  0  0  0  0  0  0  0
    0.7887   -0.7732    7.3710 H   0  0  0  0  0  0  0  0  0  0  0  0
    2.9077    2.1315    6.6061 H   0  0  0  0  0  0  0  0  0  0  0  0
    3.9986    1.2616    5.4498 H   0  0  0  0  0  0  0  0  0  0  0  0
    2.3929    1.2452    3.7012 H   0  0  0  0  0  0  0  0  0  0  0  0
    0.3132    0.5749    4.6808 H   0  0  0  0  0  0  0  0  0  0  0  0
   -0.7016    2.6751    7.9771 H   0  0  0  0  0  0  0  0  0  0  0  0
    0.8733    1.9935    8.0451 H   0  0  0  0  0  0  0  0  0  0  0  0
   -0.5580    0.9680    7.7161 H   0  0  0  0  0  0  0  0  0  0  0  0
    0.0755    1.4878    2.8134 H   0  0  0  0  0  0  0  0  0  0  0  0
   -0.8922    2.5440    1.8885 H   0  0  0  0  0  0  0  0  0  0  0  0
   -1.6496    1.6283    3.1747 H   0  0  0  0  0  0  0  0  0  0  0  0
   -1.3675    5.3265    4.1580 H   0  0  0  0  0  0  0  0  0  0  0  0
   -2.5070    4.1204    3.5389 H   0  0  0  0  0  0  0  0  0  0  0  0
   -1.3008    4.8171    2.4858 H   0  0  0  0  0  0  0  0  0  0  0  0
    0.9248    5.9848    3.0565 H   0  0  0  0  0  0  0  0  0  0  0  0
    2.2018   -5.6052    4.0570 H   0  0  0  0  0  0  0  0  0  0  0  0
    1.7492   -5.9012    1.6770 H   0  0  0  0  0  0  0  0  0  0  0  0
    3.8929   -2.6344   -0.6341 H   0  0  0  0  0  0  0  0  0  0  0  0
    5.4746   -0.7915   -0.1548 H   0  0  0  0  0  0  0  0  0  0  0  0
    6.3125   -0.4690    2.1701 H   0  0  0  0  0  0  0  0  0  0  0  0
    5.6341   -1.9778    3.9328 H   0  0  0  0  0  0  0  0  0  0  0  0
    7.2567   -4.8409    5.1077 H   0  0  0  0  0  0  0  0  0  0  0  0
    6.0549   -4.8567    3.8327 H   0  0  0  0  0  0  0  0  0  0  0  0
    5.8625   -5.8913    5.2500 H   0  0  0  0  0  0  0  0  0  0  0  0
    6.9785   -3.6550    7.0437 H   0  0  0  0  0  0  0  0  0  0  0  0
    5.9460   -4.9897    7.3669 H   0  0  0  0  0  0  0  0  0  0  0  0
    2.6709   -4.4184    0.1317 H   0  0  0  0  0  0  0  0  0  0  0  0
  1  2  1  0
  1 51  1  0
  1 52  1  0
  1 53  1  0
  2  3  1  0
  3 37  1  0
  3  4  2  0
  4  5  1  0
  4 54  1  0
  5 17  1  0
  5  6  1  0
  5 55  1  1
  6 50  1  0
  6  7  1  0
  7  8  1  0
  7 56  1  0
  7 57  1  0
  9  8  1  1
  8 58  1  0
  8 59  1  0
  9 15  1  0
  9 10  1  0
  9 37  1  0
 10 21  1  0
 10 11  1  0
 10 60  1  6
 11 12  1  0
 11 61  1  0
 11 62  1  0
 12 15  1  0
 12 13  1  1
 12 14  1  0
 13 63  1  0
 13 64  1  0
 13 65  1  0
 15 14  1  6
 15 16  1  0
 16 17  1  0
 17 18  1  1
 17 19  1  0
 18 66  1  0
 18 67  1  0
 18 68  1  0
 19 20  2  3
 19 69  1  0
 20 21  1  0
 20 70  1  0
 21 24  1  0
 21 22  1  1
 22 23  1  0
 22 71  1  0
 22 72  1  0
 23 36  1  0
 23 24  1  0
 23 73  1  6
 24 25  1  0
 24 74  1  6
 25 26  1  0
 25 27  1  0
 26 75  1  0
 26 76  1  0
 26 77  1  0
 27 28  2  0
 27 29  1  0
 29 30  1  0
 29 31  1  0
 29 32  1  0
 30 78  1  0
 30 79  1  0
 30 80  1  0
 31 81  1  0
 31 82  1  0
 31 83  1  0
 32 36  1  0
 32 33  2  0
 33 34  1  0
 33 84  1  0
 34 35  2  0
 35 36  1  0
 37 38  1  6
 37 48  1  0
 38 47  1  0
 38 39  2  0
 39 40  1  0
 39 85  1  0
 40 41  2  0
 40 86  1  0
 41 42  1  0
 41 96  1  0
 42 47  2  0
 42 43  1  0
 43 44  2  0
 43 87  1  0
 44 45  1  0
 44 88  1  0
 45 46  2  0
 45 89  1  0
 46 47  1  0
 46 90  1  0
 48 49  1  0
 48 50  1  0
 49 91  1  0
 49 92  1  0
 49 93  1  0
 50 94  1  0
 50 95  1  0
M  CHG  1  41   1
M  END
>  <i_m_ct_stereo_status>  (21) 
1

>  <s_m_source_file>  (21) 
/var/tmp/pbs.5076255.sched01/tmpd0mq1ayv/02wja6gfv.sdf

>  <i_m_source_file_index>  (21) 
7

>  <i_lp_mmshare_version>  (21) 
48012

>  <i_f3d_flags>  (21) 
2

>  <s_epik_input>  (21) 
W2NIXTFbY0hdW2NIXVtjSF1jKGMxMiljKFtjSF1bY0hdbjIpW0NAXTMoQyg9W0NIXTQpT1tDSDNdKU4oW0NIM10pW0NIMl1OKFtDSDJdW0NIMl01KVtDQEBIXTRbQ0BdKE82KShbQ0gzXSkvW0NIXT1bQ0hdXFtDQF03KFtDQEhdOFtDSDJdW0NAQF0oTzkpKFtDSDNdKVtDQF02OVtDQEBdMzU4KVtDQEhdMVtDQEBIXShbQ0gyXTcpbjJjKFtjSF1ubjIpQyhbQ0gzXSkoW0NIM10pQyg9TylOMVtDSDNd

>  <s_epik_cmdline>  (21) 
J2VwaWtfcHl0aG9uJywgJy1waHQnLCAnMi4wJywgJy1waCcsICc3LjAnLCAnLXRuJywgJzgnLCAnLW1hJywgJzIwMCcsICctaW1hZScsICc8aW5maWxlLm1hZT4nLCAnLW9tYWUnLCAnPG91dGZpbGUubWFlPic=

>  <r_lp_tautomer_probability>  (21) 
1

>  <r_epik_Ionization_Penalty>  (21) 
0.0577884

>  <r_epik_Ionization_Penalty_Charging>  (21) 
0.0373683

>  <r_epik_Ionization_Penalty_Neutral>  (21) 
0.0204202

>  <r_epik_State_Penalty>  (21) 
0.0467502

>  <r_epik_Charging_Adjusted_Penalty>  (21) 
0.0841184

>  <i_epik_Tot_Q>  (21) 
1

>  <i_epik_Tot_abs_Q>  (21) 
1

>  <s_epik_Chemistry_Notes>  (21) 
This compound contains an acetal/aminal-like group ( X-CH(R)-Y where X, Y are N, S, or O) that may be acid/base labile, releasing an aldehyde.

>  <s_lp_Force_Field>  (21) 
OPLS3e

>  <r_lp_Energy>  (21) 
300.166

>  <b_lp_Chiralities_Consistent>  (21) 
0

>  <s_lp_Variant>  (21) 
4:0-2

>  <s_i_glide_gridfile>  (21) 
pfpi4k_grid

>  <i_i_glide_lignum>  (21) 
7

>  <i_i_glide_rotatable_bonds>  (21) 
2

>  <r_i_docking_score>  (21) 
-2.02004

>  <r_i_glide_ligand_efficiency>  (21) 
-0.0404007

>  <r_i_glide_ligand_efficiency_sa>  (21) 
-0.148837

>  <r_i_glide_ligand_efficiency_ln>  (21) 
-0.411243

>  <r_i_glide_gscore>  (21) 
-2.02004

>  <r_i_glide_lipo>  (21) 
-0.284879

>  <r_i_glide_hbond>  (21) 
0

>  <r_i_glide_metal>  (21) 
-0

>  <r_i_glide_rewards>  (21) 
-0.00585743

>  <r_i_glide_evdw>  (21) 
-27.3021

>  <r_i_glide_ecoul>  (21) 
-2.45436

>  <r_i_glide_erotb>  (21) 
0.0465977

>  <r_i_glide_esite>  (21) 
-0.0426356

>  <r_i_glide_emodel>  (21) 
-32.7667

>  <r_i_glide_energy>  (21) 
-29.7565

>  <r_i_glide_einternal>  (21) 
0.867879

>  <r_i_glide_intrahb_reward>  (21) 
-0

>  <i_i_glide_confnum>  (21) 
3

>  <i_i_glide_posenum>  (21) 
1

>  <r_i_glide_eff_state_penalty>  (21) 
0

>  <ligand_id>  (21) 
4

>  <original_smiles>  (21) 
COC1=CC2N3CCC4(C5CC6(C)OC64OC2(C)C=CC52CC4C2N(C)C(=O)C(C)(C)c2cnnn24)C1(c1ccnc2ccccc12)N(C)C3

>  <smiles>  (21) 
[H]C1=C(OC([H])([H])[H])C2(c3c([H])c([H])[n+]([H])c4c([H])c([H])c([H])c([H])c34)N(C([H])([H])[H])C([H])([H])N3C([H])([H])C([H])([H])C24C25OC(C([H])([H])[H])(C([H])=C([H])C6(C([H])([H])C7([H])n8nnc([H])c8C(C([H])([H])[H])(C([H])([H])[H])C(=O)N(C([H])([H])[H])C76[H])C4([H])C([H])([H])C2(C([H])([H])[H])O5)C13[H]

$$$$
4:2:0
     RDKit          3D

 95105  0  0  1  0  0  0  0  0999 V2000
    7.6142   -6.0997    3.1059 C   0  0  0  0  0  0  0  0  0  0  0  0
    6.6601   -5.3245    2.3799 O   0  0  0  0  0  0  0  0  0  0  0  0
    5.3684   -5.2362    2.8714 C   0  0  0  0  0  0  0  0  0  0  0  0
    4.9740   -5.8293    4.0360 C   0  0  0  0  0  0  0  0  0  0  0  0
    3.5116   -5.8895    4.5189 C   0  0  2  0  0  0  0  0  0  0  0  0
    2.6286   -6.3348    3.3975 N   0  0  0  0  0  0  0  0  0  0  0  0
    1.4674   -5.5606    3.1672 C   0  0  0  0  0  0  0  0  0  0  0  0
    1.8450   -4.1796    2.6548 C   0  0  0  0  0  0  0  0  0  0  0  0
    3.3141   -3.5398    2.8920 C   0  0  1  0  0  0  0  0  0  0  0  0
    2.8208   -2.0249    2.8282 C   0  0  2  0  0  0  0  0  0  0  0  0
    4.0410   -1.0894    2.9472 C   0  0  0  0  0  0  0  0  0  0  0  0
    4.6854   -1.6840    4.1474 C   0  0  2  0  0  0  0  0  0  0  0  0
    5.1787   -0.7989    5.2826 C   0  0  0  0  0  0  0  0  0  0  0  0
    5.5075   -2.7815    3.9182 O   0  0  0  0  0  0  0  0  0  0  0  0
    4.1543   -3.1259    4.1791 C   0  0  2  0  0  0  0  0  0  0  0  0
    4.0523   -3.6704    5.4627 O   0  0  0  0  0  0  0  0  0  0  0  0
    3.1201   -4.6847    5.5429 C   0  0  2  0  0  0  0  0  0  0  0  0
    3.3982   -5.1942    6.9700 C   0  0  0  0  0  0  0  0  0  0  0  0
    1.7428   -3.9656    5.5671 C   0  0  0  0  0  0  0  0  0  0  0  0
    1.2648   -2.7824    5.0503 C   0  0  0  0  0  0  0  0  0  0  0  0
    1.7353   -1.6507    4.0330 C   0  0  2  0  0  0  0  0  0  0  0  0
    0.4292   -1.1121    3.3901 C   0  0  0  0  0  0  0  0  0  0  0  0
    0.9426    0.3117    3.4777 C   0  0  2  0  0  0  0  0  0  0  0  0
    1.7864   -0.1800    4.6790 C   0  0  1  0  0  0  0  0  0  0  0  0
    1.2169    0.1855    6.0123 N   0  0  0  0  0  0  0  0  0  0  0  0
    1.5067   -0.7852    7.0864 C   0  0  0  0  0  0  0  0  0  0  0  0
    0.9583    1.4727    6.3963 C   0  0  0  0  0  0  0  0  0  0  0  0
    0.6446    1.7157    7.5654 O   0  0  0  0  0  0  0  0  0  0  0  0
    1.0363    2.6933    5.4239 C   0  0  0  0  0  0  0  0  0  0  0  0
    0.7012    3.9998    6.1879 C   0  0  0  0  0  0  0  0  0  0  0  0
    2.4568    2.9260    4.8445 C   0  0  0  0  0  0  0  0  0  0  0  0
    0.0192    2.4871    4.3507 C   0  0  0  0  0  0  0  0  0  0  0  0
   -1.0744    3.1934    3.9545 C   0  0  0  0  0  0  0  0  0  0  0  0
   -1.6822    2.5219    2.8955 N   0  0  0  0  0  0  0  0  0  0  0  0
   -0.9945    1.4572    2.6152 N   0  0  0  0  0  0  0  0  0  0  0  0
    0.0051    1.3898    3.5215 N   0  0  0  0  0  0  0  0  0  0  0  0
    4.3631   -4.4274    1.9485 C   0  0  1  0  0  0  0  0  0  0  0  0
    4.9953   -3.4537    0.8722 C   0  0  0  0  0  0  0  0  0  0  0  0
    6.2723   -2.8834    1.1203 C   0  0  0  0  0  0  0  0  0  0  0  0
    6.8253   -1.9343    0.2538 C   0  0  0  0  0  0  0  0  0  0  0  0
    6.2116   -1.5169   -0.8576 N   0  0  0  0  0  0  0  0  0  0  0  0
    5.0069   -2.0382   -1.1650 C   0  0  0  0  0  0  0  0  0  0  0  0
    4.4031   -1.5892   -2.3566 C   0  0  0  0  0  0  0  0  0  0  0  0
    3.1591   -2.0881   -2.7765 C   0  0  0  0  0  0  0  0  0  0  0  0
    2.5202   -3.0564   -2.0001 C   0  0  0  0  0  0  0  0  0  0  0  0
    3.0964   -3.4861   -0.7921 C   0  0  0  0  0  0  0  0  0  0  0  0
    4.3525   -3.0069   -0.3407 C   0  0  0  0  0  0  0  0  0  0  0  0
    3.7076   -5.6029    1.2794 N   0  0  0  0  0  0  0  0  0  0  0  0
    4.4904   -6.2331    0.2033 C   0  0  0  0  0  0  0  0  0  0  0  0
    3.2467   -6.7392    2.1197 C   0  0  0  0  0  0  0  0  0  0  0  0
    8.5677   -6.0954    2.5777 H   0  0  0  0  0  0  0  0  0  0  0  0
    7.3078   -7.1430    3.1965 H   0  0  0  0  0  0  0  0  0  0  0  0
    7.8019   -5.6979    4.1029 H   0  0  0  0  0  0  0  0  0  0  0  0
    5.6668   -6.3577    4.6719 H   0  0  0  0  0  0  0  0  0  0  0  0
    3.5427   -6.7675    5.1613 H   0  0  0  0  0  0  0  0  0  0  0  0
    0.8329   -6.0569    2.4326 H   0  0  0  0  0  0  0  0  0  0  0  0
    0.8427   -5.5581    4.0558 H   0  0  0  0  0  0  0  0  0  0  0  0
    1.7461   -4.2311    1.5830 H   0  0  0  0  0  0  0  0  0  0  0  0
    0.9704   -3.5760    2.8264 H   0  0  0  0  0  0  0  0  0  0  0  0
    2.3779   -1.8486    1.8463 H   0  0  0  0  0  0  0  0  0  0  0  0
    4.6858   -1.1725    2.0884 H   0  0  0  0  0  0  0  0  0  0  0  0
    3.8553   -0.0212    2.9983 H   0  0  0  0  0  0  0  0  0  0  0  0
    5.7139    0.0652    4.8887 H   0  0  0  0  0  0  0  0  0  0  0  0
    5.8655   -1.3561    5.9201 H   0  0  0  0  0  0  0  0  0  0  0  0
    4.3616   -0.4534    5.9138 H   0  0  0  0  0  0  0  0  0  0  0  0
    2.7436   -6.0255    7.2223 H   0  0  0  0  0  0  0  0  0  0  0  0
    3.2556   -4.4153    7.7184 H   0  0  0  0  0  0  0  0  0  0  0  0
    4.4253   -5.5473    7.0594 H   0  0  0  0  0  0  0  0  0  0  0  0
    1.0415   -4.4921    6.1976 H   0  0  0  0  0  0  0  0  0  0  0  0
    0.2374   -2.6329    5.3491 H   0  0  0  0  0  0  0  0  0  0  0  0
    0.2796   -1.4211    2.3619 H   0  0  0  0  0  0  0  0  0  0  0  0
   -0.4838   -1.2267    3.9758 H   0  0  0  0  0  0  0  0  0  0  0  0
    1.5767    0.5254    2.6153 H   0  0  0  0  0  0  0  0  0  0  0  0
    2.7735    0.2419    4.6519 H   0  0  0  0  0  0  0  0  0  0  0  0
    1.6760   -0.3604    8.0736 H   0  0  0  0  0  0  0  0  0  0  0  0
    2.3975   -1.3860    6.8930 H   0  0  0  0  0  0  0  0  0  0  0  0
    0.6457   -1.4356    7.2039 H   0  0  0  0  0  0  0  0  0  0  0  0
   -0.2848    3.9597    6.6535 H   0  0  0  0  0  0  0  0  0  0  0  0
    0.7039    4.8607    5.5181 H   0  0  0  0  0  0  0  0  0  0  0  0
    1.4285    4.2052    6.9753 H   0  0  0  0  0  0  0  0  0  0  0  0
    2.7208    2.2502    4.0345 H   0  0  0  0  0  0  0  0  0  0  0  0
    3.2276    2.8449    5.6140 H   0  0  0  0  0  0  0  0  0  0  0  0
    2.5429    3.9191    4.3966 H   0  0  0  0  0  0  0  0  0  0  0  0
   -1.4768    4.1196    4.3356 H   0  0  0  0  0  0  0  0  0  0  0  0
    6.8353   -3.1077    2.0082 H   0  0  0  0  0  0  0  0  0  0  0  0
    7.7814   -1.4733    0.4702 H   0  0  0  0  0  0  0  0  0  0  0  0
    4.8958   -0.8443   -2.9568 H   0  0  0  0  0  0  0  0  0  0  0  0
    2.6929   -1.7295   -3.6877 H   0  0  0  0  0  0  0  0  0  0  0  0
    1.5701   -3.4679   -2.3171 H   0  0  0  0  0  0  0  0  0  0  0  0
    2.5470   -4.2486   -0.2887 H   0  0  0  0  0  0  0  0  0  0  0  0
    3.8801   -6.9850   -0.3035 H   0  0  0  0  0  0  0  0  0  0  0  0
    5.4004   -6.7217    0.5648 H   0  0  0  0  0  0  0  0  0  0  0  0
    4.7880   -5.5370   -0.5823 H   0  0  0  0  0  0  0  0  0  0  0  0
    4.0340   -7.4770    2.2945 H   0  0  0  0  0  0  0  0  0  0  0  0
    2.4970   -7.2696    1.5343 H   0  0  0  0  0  0  0  0  0  0  0  0
  1  2  1  0
  1 51  1  0
  1 52  1  0
  1 53  1  0
  2  3  1  0
  3 37  1  0
  3  4  2  0
  4  5  1  0
  4 54  1  0
  5 17  1  0
  5  6  1  0
  5 55  1  1
  6 50  1  0
  6  7  1  0
  7  8  1  0
  7 56  1  0
  7 57  1  0
  9  8  1  1
  8 58  1  0
  8 59  1  0
  9 15  1  0
  9 10  1  0
  9 37  1  0
 10 21  1  0
 10 11  1  0
 10 60  1  6
 11 12  1  0
 11 61  1  0
 11 62  1  0
 12 15  1  0
 12 13  1  1
 12 14  1  0
 13 63  1  0
 13 64  1  0
 13 65  1  0
 15 14  1  6
 15 16  1  0
 16 17  1  0
 17 18  1  1
 17 19  1  0
 18 66  1  0
 18 67  1  0
 18 68  1  0
 19 20  2  3
 19 69  1  0
 20 21  1  0
 20 70  1  0
 21 24  1  0
 21 22  1  6
 22 23  1  0
 22 71  1  0
 22 72  1  0
 23 36  1  0
 23 24  1  0
 23 73  1  6
 24 25  1  0
 24 74  1  6
 25 26  1  0
 25 27  1  0
 26 75  1  0
 26 76  1  0
 26 77  1  0
 27 28  2  0
 27 29  1  0
 29 30  1  0
 29 31  1  0
 29 32  1  0
 30 78  1  0
 30 79  1  0
 30 80  1  0
 31 81  1  0
 31 82  1  0
 31 83  1  0
 32 36  1  0
 32 33  2  0
 33 34  1  0
 33 84  1  0
 34 35  2  0
 35 36  1  0
 37 38  1  6
 37 48  1  0
 38 47  1  0
 38 39  2  0
 39 40  1  0
 39 85  1  0
 40 41  2  0
 40 86  1  0
 41 42  1  0
 42 47  2  0
 42 43  1  0
 43 44  2  0
 43 87  1  0
 44 45  1  0
 44 88  1  0
 45 46  2  0
 45 89  1  0
 46 47  1  0
 46 90  1  0
 48 49  1  0
 48 50  1  0
 49 91  1  0
 49 92  1  0
 49 93  1  0
 50 94  1  0
 50 95  1  0
M  END
>  <i_m_ct_stereo_status>  (22) 
1

>  <s_m_source_file>  (22) 
/var/tmp/pbs.5076255.sched01/tmpd0mq1ayv/02wja6gfv.sdf

>  <i_m_source_file_index>  (22) 
8

>  <i_lp_mmshare_version>  (22) 
48012

>  <i_f3d_flags>  (22) 
0

>  <s_epik_input>  (22) 
W2NIXTFbY0hdW2NIXVtjSF1jKGMxMiljKFtjSF1bY0hdbjIpW0NAXTMoQyg9W0NIXTQpT1tDSDNdKU4oW0NIM10pW0NIMl1OKFtDSDJdW0NIMl01KVtDQEBIXTRbQ0BdKE82KShbQ0gzXSkvW0NIXT1bQ0hdXFtDQF03KFtDQEhdOFtDSDJdW0NAQF0oTzkpKFtDSDNdKVtDQF02OVtDQEBdMzU4KVtDQEhdMVtDQEBIXShbQ0gyXTcpbjJjKFtjSF1ubjIpQyhbQ0gzXSkoW0NIM10pQyg9TylOMVtDSDNd

>  <s_epik_cmdline>  (22) 
J2VwaWtfcHl0aG9uJywgJy1waHQnLCAnMi4wJywgJy1waCcsICc3LjAnLCAnLXRuJywgJzgnLCAnLW1hJywgJzIwMCcsICctaW1hZScsICc8aW5maWxlLm1hZT4nLCAnLW9tYWUnLCAnPG91dGZpbGUubWFlPic=

>  <r_lp_tautomer_probability>  (22) 
1

>  <r_epik_Ionization_Penalty>  (22) 
1.74054

>  <r_epik_Ionization_Penalty_Charging>  (22) 
0

>  <r_epik_Ionization_Penalty_Neutral>  (22) 
1.74054

>  <r_epik_State_Penalty>  (22) 
1.77388

>  <r_epik_Charging_Adjusted_Penalty>  (22) 
1.77388

>  <i_epik_Tot_Q>  (22) 
0

>  <i_epik_Tot_abs_Q>  (22) 
0

>  <s_epik_Chemistry_Notes>  (22) 
This compound contains an acetal/aminal-like group ( X-CH(R)-Y where X, Y are N, S, or O) that may be acid/base labile, releasing an aldehyde.

>  <s_lp_Force_Field>  (22) 
OPLS3e

>  <r_lp_Energy>  (22) 
263.135

>  <b_lp_Chiralities_Consistent>  (22) 
1

>  <s_lp_Variant>  (22) 
4:0-3

>  <s_i_glide_gridfile>  (22) 
pfpi4k_grid

>  <i_i_glide_lignum>  (22) 
8

>  <i_i_glide_rotatable_bonds>  (22) 
2

>  <r_i_docking_score>  (22) 
-2.69875

>  <r_i_glide_ligand_efficiency>  (22) 
-0.0539751

>  <r_i_glide_ligand_efficiency_sa>  (22) 
-0.198846

>  <r_i_glide_ligand_efficiency_ln>  (22) 
-0.549418

>  <r_i_glide_gscore>  (22) 
-2.69875

>  <r_i_glide_lipo>  (22) 
-0.416793

>  <r_i_glide_hbond>  (22) 
-0.120249

>  <r_i_glide_metal>  (22) 
-0

>  <r_i_glide_rewards>  (22) 
-0.0246352

>  <r_i_glide_evdw>  (22) 
-34.9256

>  <r_i_glide_ecoul>  (22) 
-2.08858

>  <r_i_glide_erotb>  (22) 
0.0467278

>  <r_i_glide_esite>  (22) 
-0.124237

>  <r_i_glide_emodel>  (22) 
-41.9476

>  <r_i_glide_energy>  (22) 
-37.0142

>  <r_i_glide_einternal>  (22) 
0.558526

>  <r_i_glide_intrahb_reward>  (22) 
-0

>  <i_i_glide_confnum>  (22) 
1

>  <i_i_glide_posenum>  (22) 
21

>  <r_i_glide_eff_state_penalty>  (22) 
0

>  <ligand_id>  (22) 
4

>  <original_smiles>  (22) 
COC1=CC2N3CCC4(C5CC6(C)OC64OC2(C)C=CC52CC4C2N(C)C(=O)C(C)(C)c2cnnn24)C1(c1ccnc2ccccc12)N(C)C3

>  <smiles>  (22) 
[H]C1=C(OC([H])([H])[H])C2(c3c([H])c([H])nc4c([H])c([H])c([H])c([H])c34)N(C([H])([H])[H])C([H])([H])N3C([H])([H])C([H])([H])C24C25OC(C([H])([H])[H])(C([H])=C([H])C6(C([H])([H])C7([H])n8nnc([H])c8C(C([H])([H])[H])(C([H])([H])[H])C(=O)N(C([H])([H])[H])C76[H])C4([H])C([H])([H])C2(C([H])([H])[H])O5)C13[H]

$$$$
4:2:1
     RDKit          3D

 95105  0  0  1  0  0  0  0  0999 V2000
    2.4353    3.9412    8.7547 C   0  0  0  0  0  0  0  0  0  0  0  0
    1.9503    2.6293    8.4738 O   0  0  0  0  0  0  0  0  0  0  0  0
    1.5028    2.3283    7.1995 C   0  0  0  0  0  0  0  0  0  0  0  0
    1.4466    3.2692    6.2137 C   0  0  0  0  0  0  0  0  0  0  0  0
    0.7558    3.0429    4.8595 C   0  0  2  0  0  0  0  0  0  0  0  0
   -0.5891    2.4244    5.0978 N   0  0  0  0  0  0  0  0  0  0  0  0
   -0.9169    1.3188    4.2819 C   0  0  0  0  0  0  0  0  0  0  0  0
   -0.0392    0.1452    4.6491 C   0  0  0  0  0  0  0  0  0  0  0  0
    1.3685    0.3069    5.4646 C   0  0  1  0  0  0  0  0  0  0  0  0
    2.0237   -1.0329    4.9080 C   0  0  2  0  0  0  0  0  0  0  0  0
    3.4180   -1.2270    5.5421 C   0  0  0  0  0  0  0  0  0  0  0  0
    3.9919    0.1155    5.2883 C   0  0  2  0  0  0  0  0  0  0  0  0
    5.3825    0.2527    4.6756 C   0  0  0  0  0  0  0  0  0  0  0  0
    3.7061    1.1111    6.2285 O   0  0  0  0  0  0  0  0  0  0  0  0
    2.7660    1.0302    5.1442 C   0  0  2  0  0  0  0  0  0  0  0  0
    2.9643    2.0956    4.2622 O   0  0  0  0  0  0  0  0  0  0  0  0
    1.7845    2.5560    3.6921 C   0  0  2  0  0  0  0  0  0  0  0  0
    2.2817    3.8306    2.9855 C   0  0  0  0  0  0  0  0  0  0  0  0
    1.4123    1.5327    2.5769 C   0  0  0  0  0  0  0  0  0  0  0  0
    1.6329    0.1867    2.4007 C   0  0  0  0  0  0  0  0  0  0  0  0
    2.1667   -1.0509    3.2518 C   0  0  2  0  0  0  0  0  0  0  0  0
    1.4086   -2.2850    2.6883 C   0  0  0  0  0  0  0  0  0  0  0  0
    2.6736   -3.1201    2.7441 C   0  0  2  0  0  0  0  0  0  0  0  0
    3.4362   -1.7848    2.5911 C   0  0  1  0  0  0  0  0  0  0  0  0
    3.9429   -1.5380    1.2049 N   0  0  0  0  0  0  0  0  0  0  0  0
    4.0126   -0.1126    0.8555 C   0  0  0  0  0  0  0  0  0  0  0  0
    4.7877   -2.3806    0.5417 C   0  0  0  0  0  0  0  0  0  0  0  0
    5.3289   -2.0185   -0.5093 O   0  0  0  0  0  0  0  0  0  0  0  0
    5.1527   -3.8054    1.0572 C   0  0  0  0  0  0  0  0  0  0  0  0
    6.1503   -4.4805    0.0846 C   0  0  0  0  0  0  0  0  0  0  0  0
    5.8693   -3.7784    2.4240 C   0  0  0  0  0  0  0  0  0  0  0  0
    3.9041   -4.6102    1.1133 C   0  0  0  0  0  0  0  0  0  0  0  0
    3.5100   -5.7545    0.5058 C   0  0  0  0  0  0  0  0  0  0  0  0
    2.2278   -6.0704    0.9579 N   0  0  0  0  0  0  0  0  0  0  0  0
    1.8588   -5.1979    1.8418 N   0  0  0  0  0  0  0  0  0  0  0  0
    2.8205   -4.2527    1.8785 N   0  0  0  0  0  0  0  0  0  0  0  0
    1.0051    0.8219    6.9973 C   0  0  1  0  0  0  0  0  0  0  0  0
    1.5350   -0.2747    8.0226 C   0  0  0  0  0  0  0  0  0  0  0  0
    2.6781   -0.0062    8.8376 C   0  0  0  0  0  0  0  0  0  0  0  0
    3.1896   -0.9637    9.7171 C   0  0  0  0  0  0  0  0  0  0  0  0
    2.7048   -2.2024    9.8111 N   0  0  0  0  0  0  0  0  0  0  0  0
    1.6534   -2.5350    9.0424 C   0  0  0  0  0  0  0  0  0  0  0  0
    1.1857   -3.8591    9.1392 C   0  0  0  0  0  0  0  0  0  0  0  0
    0.0925   -4.3184    8.3851 C   0  0  0  0  0  0  0  0  0  0  0  0
   -0.5638   -3.4218    7.5345 C   0  0  0  0  0  0  0  0  0  0  0  0
   -0.1175   -2.0908    7.4532 C   0  0  0  0  0  0  0  0  0  0  0  0
    1.0085   -1.6062    8.1627 C   0  0  0  0  0  0  0  0  0  0  0  0
   -0.4718    1.0425    7.1796 N   0  0  0  0  0  0  0  0  0  0  0  0
   -0.8808    1.2284    8.5817 C   0  0  0  0  0  0  0  0  0  0  0  0
   -1.0687    2.2221    6.4837 C   0  0  0  0  0  0  0  0  0  0  0  0
    2.7854    3.9712    9.7857 H   0  0  0  0  0  0  0  0  0  0  0  0
    1.6468    4.6869    8.6633 H   0  0  0  0  0  0  0  0  0  0  0  0
    3.2839    4.2309    8.1334 H   0  0  0  0  0  0  0  0  0  0  0  0
    1.8253    4.2720    6.3458 H   0  0  0  0  0  0  0  0  0  0  0  0
    0.5142    4.0674    4.5766 H   0  0  0  0  0  0  0  0  0  0  0  0
   -1.9615    1.0440    4.4347 H   0  0  0  0  0  0  0  0  0  0  0  0
   -0.8825    1.5981    3.2360 H   0  0  0  0  0  0  0  0  0  0  0  0
   -0.7205   -0.4140    5.2522 H   0  0  0  0  0  0  0  0  0  0  0  0
   -0.1032   -0.5559    3.8350 H   0  0  0  0  0  0  0  0  0  0  0  0
    1.4111   -1.8738    5.2237 H   0  0  0  0  0  0  0  0  0  0  0  0
    3.3607   -1.3864    6.6067 H   0  0  0  0  0  0  0  0  0  0  0  0
    4.0160   -2.0648    5.1955 H   0  0  0  0  0  0  0  0  0  0  0  0
    6.0803   -0.4218    5.1715 H   0  0  0  0  0  0  0  0  0  0  0  0
    5.7469    1.2695    4.8201 H   0  0  0  0  0  0  0  0  0  0  0  0
    5.3934    0.0476    3.6048 H   0  0  0  0  0  0  0  0  0  0  0  0
    1.4673    4.3514    2.4855 H   0  0  0  0  0  0  0  0  0  0  0  0
    3.0359    3.6125    2.2328 H   0  0  0  0  0  0  0  0  0  0  0  0
    2.7198    4.5232    3.7029 H   0  0  0  0  0  0  0  0  0  0  0  0
    0.9366    2.0238    1.7348 H   0  0  0  0  0  0  0  0  0  0  0  0
    1.2327   -0.1305    1.4420 H   0  0  0  0  0  0  0  0  0  0  0  0
    0.6116   -2.6790    3.3219 H   0  0  0  0  0  0  0  0  0  0  0  0
    1.0686   -2.1801    1.6595 H   0  0  0  0  0  0  0  0  0  0  0  0
    2.7960   -3.5212    3.7513 H   0  0  0  0  0  0  0  0  0  0  0  0
    4.2897   -1.7540    3.2408 H   0  0  0  0  0  0  0  0  0  0  0  0
    4.8348    0.1684    0.2059 H   0  0  0  0  0  0  0  0  0  0  0  0
    4.0711    0.5584    1.7136 H   0  0  0  0  0  0  0  0  0  0  0  0
    3.1129    0.1031    0.3013 H   0  0  0  0  0  0  0  0  0  0  0  0
    5.7405   -4.5523   -0.9238 H   0  0  0  0  0  0  0  0  0  0  0  0
    6.3924   -5.4933    0.4050 H   0  0  0  0  0  0  0  0  0  0  0  0
    7.0916   -3.9306    0.0263 H   0  0  0  0  0  0  0  0  0  0  0  0
    5.2158   -3.6464    3.2840 H   0  0  0  0  0  0  0  0  0  0  0  0
    6.5927   -2.9693    2.4244 H   0  0  0  0  0  0  0  0  0  0  0  0
    6.3864   -4.7206    2.6205 H   0  0  0  0  0  0  0  0  0  0  0  0
    4.0318   -6.3830   -0.2107 H   0  0  0  0  0  0  0  0  0  0  0  0
    3.2435    0.9070    8.8120 H   0  0  0  0  0  0  0  0  0  0  0  0
    4.0384   -0.7271   10.3486 H   0  0  0  0  0  0  0  0  0  0  0  0
    1.6904   -4.5415    9.8076 H   0  0  0  0  0  0  0  0  0  0  0  0
   -0.2484   -5.3466    8.4792 H   0  0  0  0  0  0  0  0  0  0  0  0
   -1.4201   -3.7533    6.9589 H   0  0  0  0  0  0  0  0  0  0  0  0
   -0.7089   -1.4453    6.8600 H   0  0  0  0  0  0  0  0  0  0  0  0
   -1.9702    1.3274    8.6499 H   0  0  0  0  0  0  0  0  0  0  0  0
   -0.4621    2.1316    9.0422 H   0  0  0  0  0  0  0  0  0  0  0  0
   -0.6045    0.3815    9.2169 H   0  0  0  0  0  0  0  0  0  0  0  0
   -0.9672    3.1509    7.0574 H   0  0  0  0  0  0  0  0  0  0  0  0
   -2.1432    2.0515    6.4491 H   0  0  0  0  0  0  0  0  0  0  0  0
  1  2  1  0
  1 51  1  0
  1 52  1  0
  1 53  1  0
  2  3  1  0
  3 37  1  0
  3  4  2  0
  4  5  1  0
  4 54  1  0
  5 17  1  0
  5  6  1  0
  5 55  1  6
  6 50  1  0
  6  7  1  0
  7  8  1  0
  7 56  1  0
  7 57  1  0
  9  8  1  6
  8 58  1  0
  8 59  1  0
  9 15  1  0
  9 10  1  0
  9 37  1  0
 10 21  1  0
 10 11  1  0
 10 60  1  6
 11 12  1  0
 11 61  1  0
 11 62  1  0
 12 15  1  0
 12 13  1  6
 12 14  1  0
 13 63  1  0
 13 64  1  0
 13 65  1  0
 15 14  1  1
 15 16  1  0
 16 17  1  0
 17 18  1  6
 17 19  1  0
 18 66  1  0
 18 67  1  0
 18 68  1  0
 19 20  2  3
 19 69  1  0
 20 21  1  0
 20 70  1  0
 21 24  1  0
 21 22  1  6
 22 23  1  0
 22 71  1  0
 22 72  1  0
 23 36  1  0
 23 24  1  0
 23 73  1  1
 24 25  1  0
 24 74  1  1
 25 26  1  0
 25 27  1  0
 26 75  1  0
 26 76  1  0
 26 77  1  0
 27 28  2  0
 27 29  1  0
 29 30  1  0
 29 31  1  0
 29 32  1  0
 30 78  1  0
 30 79  1  0
 30 80  1  0
 31 81  1  0
 31 82  1  0
 31 83  1  0
 32 36  1  0
 32 33  2  0
 33 34  1  0
 33 84  1  0
 34 35  2  0
 35 36  1  0
 37 38  1  1
 37 48  1  0
 38 47  1  0
 38 39  2  0
 39 40  1  0
 39 85  1  0
 40 41  2  0
 40 86  1  0
 41 42  1  0
 42 47  2  0
 42 43  1  0
 43 44  2  0
 43 87  1  0
 44 45  1  0
 44 88  1  0
 45 46  2  0
 45 89  1  0
 46 47  1  0
 46 90  1  0
 48 49  1  0
 48 50  1  0
 49 91  1  0
 49 92  1  0
 49 93  1  0
 50 94  1  0
 50 95  1  0
M  END
>  <i_m_ct_stereo_status>  (23) 
1

>  <s_m_source_file>  (23) 
/var/tmp/pbs.5076255.sched01/tmpd0mq1ayv/02wja6gfv.sdf

>  <i_m_source_file_index>  (23) 
8

>  <i_lp_mmshare_version>  (23) 
48012

>  <i_f3d_flags>  (23) 
0

>  <s_epik_input>  (23) 
W2NIXTFbY0hdW2NIXVtjSF1jKGMxMiljKFtjSF1bY0hdbjIpW0NAXTMoQyg9W0NIXTQpT1tDSDNdKU4oW0NIM10pW0NIMl1OKFtDSDJdW0NIMl01KVtDQEBIXTRbQ0BdKE82KShbQ0gzXSkvW0NIXT1bQ0hdXFtDQF03KFtDQEhdOFtDSDJdW0NAQF0oTzkpKFtDSDNdKVtDQF02OVtDQEBdMzU4KVtDQEhdMVtDQEBIXShbQ0gyXTcpbjJjKFtjSF1ubjIpQyhbQ0gzXSkoW0NIM10pQyg9TylOMVtDSDNd

>  <s_epik_cmdline>  (23) 
J2VwaWtfcHl0aG9uJywgJy1waHQnLCAnMi4wJywgJy1waCcsICc3LjAnLCAnLXRuJywgJzgnLCAnLW1hJywgJzIwMCcsICctaW1hZScsICc8aW5maWxlLm1hZT4nLCAnLW9tYWUnLCAnPG91dGZpbGUubWFlPic=

>  <r_lp_tautomer_probability>  (23) 
1

>  <r_epik_Ionization_Penalty>  (23) 
1.74054

>  <r_epik_Ionization_Penalty_Charging>  (23) 
0

>  <r_epik_Ionization_Penalty_Neutral>  (23) 
1.74054

>  <r_epik_State_Penalty>  (23) 
1.77388

>  <r_epik_Charging_Adjusted_Penalty>  (23) 
1.77388

>  <i_epik_Tot_Q>  (23) 
0

>  <i_epik_Tot_abs_Q>  (23) 
0

>  <s_epik_Chemistry_Notes>  (23) 
This compound contains an acetal/aminal-like group ( X-CH(R)-Y where X, Y are N, S, or O) that may be acid/base labile, releasing an aldehyde.

>  <s_lp_Force_Field>  (23) 
OPLS3e

>  <r_lp_Energy>  (23) 
263.135

>  <b_lp_Chiralities_Consistent>  (23) 
1

>  <s_lp_Variant>  (23) 
4:0-3

>  <s_i_glide_gridfile>  (23) 
pfpi4k_grid

>  <i_i_glide_lignum>  (23) 
8

>  <i_i_glide_rotatable_bonds>  (23) 
2

>  <r_i_docking_score>  (23) 
-2.36638

>  <r_i_glide_ligand_efficiency>  (23) 
-0.0473276

>  <r_i_glide_ligand_efficiency_sa>  (23) 
-0.174356

>  <r_i_glide_ligand_efficiency_ln>  (23) 
-0.481752

>  <r_i_glide_gscore>  (23) 
-2.36638

>  <r_i_glide_lipo>  (23) 
-0.306896

>  <r_i_glide_hbond>  (23) 
0

>  <r_i_glide_metal>  (23) 
-0

>  <r_i_glide_rewards>  (23) 
-0.0129865

>  <r_i_glide_evdw>  (23) 
-29.2803

>  <r_i_glide_ecoul>  (23) 
-3.51486

>  <r_i_glide_erotb>  (23) 
0.0467278

>  <r_i_glide_esite>  (23) 
-0.10198

>  <r_i_glide_emodel>  (23) 
-36.2884

>  <r_i_glide_energy>  (23) 
-32.7951

>  <r_i_glide_einternal>  (23) 
1.13634

>  <r_i_glide_intrahb_reward>  (23) 
-0

>  <i_i_glide_confnum>  (23) 
3

>  <i_i_glide_posenum>  (23) 
33

>  <r_i_glide_eff_state_penalty>  (23) 
0

>  <ligand_id>  (23) 
4

>  <original_smiles>  (23) 
COC1=CC2N3CCC4(C5CC6(C)OC64OC2(C)C=CC52CC4C2N(C)C(=O)C(C)(C)c2cnnn24)C1(c1ccnc2ccccc12)N(C)C3

>  <smiles>  (23) 
[H]C1=C(OC([H])([H])[H])C2(c3c([H])c([H])nc4c([H])c([H])c([H])c([H])c34)N(C([H])([H])[H])C([H])([H])N3C([H])([H])C([H])([H])C24C25OC(C([H])([H])[H])(C([H])=C([H])C6(C([H])([H])C7([H])n8nnc([H])c8C(C([H])([H])[H])(C([H])([H])[H])C(=O)N(C([H])([H])[H])C76[H])C4([H])C([H])([H])C2(C([H])([H])[H])O5)C13[H]

$$$$
4:2:2
     RDKit          3D

 95105  0  0  1  0  0  0  0  0999 V2000
    3.4887    5.7756    5.0293 C   0  0  0  0  0  0  0  0  0  0  0  0
    2.9038    4.8846    5.9771 O   0  0  0  0  0  0  0  0  0  0  0  0
    1.9513    3.9812    5.5393 C   0  0  0  0  0  0  0  0  0  0  0  0
    1.5449    3.9089    4.2377 C   0  0  0  0  0  0  0  0  0  0  0  0
    0.3693    3.0390    3.7614 C   0  0  2  0  0  0  0  0  0  0  0  0
   -0.8126    3.2506    4.6533 N   0  0  0  0  0  0  0  0  0  0  0  0
   -1.4656    2.0844    5.1141 C   0  0  0  0  0  0  0  0  0  0  0  0
   -0.5602    1.3247    6.0682 C   0  0  0  0  0  0  0  0  0  0  0  0
    1.0574    1.5331    6.0904 C   0  0  1  0  0  0  0  0  0  0  0  0
    1.3742    0.0794    6.6581 C   0  0  2  0  0  0  0  0  0  0  0  0
    2.8947   -0.0511    6.8797 C   0  0  0  0  0  0  0  0  0  0  0  0
    3.3888    0.4310    5.5623 C   0  0  2  0  0  0  0  0  0  0  0  0
    4.4417   -0.3603    4.7973 C   0  0  0  0  0  0  0  0  0  0  0  0
    3.5324    1.8136    5.4104 O   0  0  0  0  0  0  0  0  0  0  0  0
    2.2416    1.3006    5.0362 C   0  0  2  0  0  0  0  0  0  0  0  0
    2.1156    1.2815    3.6457 O   0  0  0  0  0  0  0  0  0  0  0  0
    0.8340    1.5778    3.2076 C   0  0  2  0  0  0  0  0  0  0  0  0
    1.0797    1.7198    1.6939 C   0  0  0  0  0  0  0  0  0  0  0  0
    0.0190    0.2728    3.4166 C   0  0  0  0  0  0  0  0  0  0  0  0
    0.0969   -0.7769    4.3042 C   0  0  0  0  0  0  0  0  0  0  0  0
    0.8595   -1.1414    5.6512 C   0  0  2  0  0  0  0  0  0  0  0  0
   -0.1115   -2.0765    6.4270 C   0  0  0  0  0  0  0  0  0  0  0  0
    1.0437   -2.9710    6.8358 C   0  0  2  0  0  0  0  0  0  0  0  0
    1.7500   -2.4764    5.5489 C   0  0  1  0  0  0  0  0  0  0  0  0
    1.7011   -3.4527    4.4176 N   0  0  0  0  0  0  0  0  0  0  0  0
    1.6711   -2.8294    3.0815 C   0  0  0  0  0  0  0  0  0  0  0  0
    2.1867   -4.7290    4.4930 C   0  0  0  0  0  0  0  0  0  0  0  0
    2.2566   -5.4235    3.4762 O   0  0  0  0  0  0  0  0  0  0  0  0
    2.6709   -5.3851    5.8264 C   0  0  0  0  0  0  0  0  0  0  0  0
    3.1742   -6.8248    5.5563 C   0  0  0  0  0  0  0  0  0  0  0  0
    3.8811   -4.6534    6.4640 C   0  0  0  0  0  0  0  0  0  0  0  0
    1.5002   -5.4500    6.7575 C   0  0  0  0  0  0  0  0  0  0  0  0
    0.8507   -6.4779    7.3675 C   0  0  0  0  0  0  0  0  0  0  0  0
   -0.1821   -5.9527    8.1467 N   0  0  0  0  0  0  0  0  0  0  0  0
   -0.1974   -4.6626    8.0256 N   0  0  0  0  0  0  0  0  0  0  0  0
    0.7900   -4.3424    7.1548 N   0  0  0  0  0  0  0  0  0  0  0  0
    1.3310    3.0629    6.6781 C   0  0  1  0  0  0  0  0  0  0  0  0
    2.1510    2.9242    8.0253 C   0  0  0  0  0  0  0  0  0  0  0  0
    3.5592    3.1392    8.0136 C   0  0  0  0  0  0  0  0  0  0  0  0
    4.3318    2.9484    9.1655 C   0  0  0  0  0  0  0  0  0  0  0  0
    3.8179    2.5411   10.3285 N   0  0  0  0  0  0  0  0  0  0  0  0
    2.4920    2.3155   10.4042 C   0  0  0  0  0  0  0  0  0  0  0  0
    1.9863    1.8788   11.6430 C   0  0  0  0  0  0  0  0  0  0  0  0
    0.6178    1.6307   11.8332 C   0  0  0  0  0  0  0  0  0  0  0  0
   -0.2663    1.8355   10.7680 C   0  0  0  0  0  0  0  0  0  0  0  0
    0.2267    2.2650    9.5230 C   0  0  0  0  0  0  0  0  0  0  0  0
    1.6090    2.5029    9.2920 C   0  0  0  0  0  0  0  0  0  0  0  0
    0.0603    3.8320    6.9093 N   0  0  0  0  0  0  0  0  0  0  0  0
    0.2108    5.0572    7.7113 C   0  0  0  0  0  0  0  0  0  0  0  0
   -0.7260    4.2605    5.7234 C   0  0  0  0  0  0  0  0  0  0  0  0
    4.2006    6.4233    5.5404 H   0  0  0  0  0  0  0  0  0  0  0  0
    2.7432    6.4250    4.5677 H   0  0  0  0  0  0  0  0  0  0  0  0
    4.0413    5.2499    4.2485 H   0  0  0  0  0  0  0  0  0  0  0  0
    1.9895    4.5091    3.4579 H   0  0  0  0  0  0  0  0  0  0  0  0
    0.0759    3.5840    2.8728 H   0  0  0  0  0  0  0  0  0  0  0  0
   -2.3859    2.3564    5.6308 H   0  0  0  0  0  0  0  0  0  0  0  0
   -1.8277    1.5027    4.2719 H   0  0  0  0  0  0  0  0  0  0  0  0
   -0.9169    1.5991    7.0460 H   0  0  0  0  0  0  0  0  0  0  0  0
   -0.9755    0.3323    6.1171 H   0  0  0  0  0  0  0  0  0  0  0  0
    0.9002   -0.0176    7.6351 H   0  0  0  0  0  0  0  0  0  0  0  0
    3.2351    0.6047    7.6649 H   0  0  0  0  0  0  0  0  0  0  0  0
    3.2723   -1.0190    7.1944 H   0  0  0  0  0  0  0  0  0  0  0  0
    5.2488   -0.6618    5.4661 H   0  0  0  0  0  0  0  0  0  0  0  0
    4.8733    0.2588    4.0101 H   0  0  0  0  0  0  0  0  0  0  0  0
    4.0285   -1.2477    4.3202 H   0  0  0  0  0  0  0  0  0  0  0  0
    0.1595    1.9608    1.1648 H   0  0  0  0  0  0  0  0  0  0  0  0
    1.4804    0.8078    1.2512 H   0  0  0  0  0  0  0  0  0  0  0  0
    1.7889    2.5232    1.4976 H   0  0  0  0  0  0  0  0  0  0  0  0
   -0.7174    0.1460    2.6354 H   0  0  0  0  0  0  0  0  0  0  0  0
   -0.6448   -1.5260    4.0630 H   0  0  0  0  0  0  0  0  0  0  0  0
   -0.5943   -1.6128    7.2831 H   0  0  0  0  0  0  0  0  0  0  0  0
   -0.8303   -2.6397    5.8266 H   0  0  0  0  0  0  0  0  0  0  0  0
    1.5304   -2.5608    7.7229 H   0  0  0  0  0  0  0  0  0  0  0  0
    2.7895   -2.2808    5.7296 H   0  0  0  0  0  0  0  0  0  0  0  0
    2.1990   -3.3657    2.2957 H   0  0  0  0  0  0  0  0  0  0  0  0
    2.0938   -1.8238    3.0599 H   0  0  0  0  0  0  0  0  0  0  0  0
    0.6359   -2.7920    2.7644 H   0  0  0  0  0  0  0  0  0  0  0  0
    2.4050   -7.4479    5.0982 H   0  0  0  0  0  0  0  0  0  0  0  0
    3.4743   -7.3192    6.4808 H   0  0  0  0  0  0  0  0  0  0  0  0
    4.0414   -6.8315    4.8949 H   0  0  0  0  0  0  0  0  0  0  0  0
    3.6199   -3.7408    6.9936 H   0  0  0  0  0  0  0  0  0  0  0  0
    4.6408   -4.4033    5.7210 H   0  0  0  0  0  0  0  0  0  0  0  0
    4.3606   -5.2731    7.2246 H   0  0  0  0  0  0  0  0  0  0  0  0
    1.0361   -7.5436    7.3185 H   0  0  0  0  0  0  0  0  0  0  0  0
    4.0994    3.4050    7.1223 H   0  0  0  0  0  0  0  0  0  0  0  0
    5.4036    3.1033    9.1449 H   0  0  0  0  0  0  0  0  0  0  0  0
    2.6636    1.7371   12.4699 H   0  0  0  0  0  0  0  0  0  0  0  0
    0.2397    1.3027   12.7944 H   0  0  0  0  0  0  0  0  0  0  0  0
   -1.3284    1.6807   10.9223 H   0  0  0  0  0  0  0  0  0  0  0  0
   -0.5184    2.4523    8.7849 H   0  0  0  0  0  0  0  0  0  0  0  0
   -0.7705    5.4912    7.9285 H   0  0  0  0  0  0  0  0  0  0  0  0
    0.8099    5.8236    7.2099 H   0  0  0  0  0  0  0  0  0  0  0  0
    0.6669    4.8748    8.6857 H   0  0  0  0  0  0  0  0  0  0  0  0
   -0.3839    5.2161    5.3157 H   0  0  0  0  0  0  0  0  0  0  0  0
   -1.7342    4.4549    6.0838 H   0  0  0  0  0  0  0  0  0  0  0  0
  1  2  1  0
  1 51  1  0
  1 52  1  0
  1 53  1  0
  2  3  1  0
  3 37  1  0
  3  4  2  0
  4  5  1  0
  4 54  1  0
  5 17  1  0
  5  6  1  0
  5 55  1  6
  6 50  1  0
  6  7  1  0
  7  8  1  0
  7 56  1  0
  7 57  1  0
  9  8  1  6
  8 58  1  0
  8 59  1  0
  9 15  1  0
  9 10  1  0
  9 37  1  0
 10 21  1  0
 10 11  1  0
 10 60  1  1
 11 12  1  0
 11 61  1  0
 11 62  1  0
 12 15  1  0
 12 13  1  6
 12 14  1  0
 13 63  1  0
 13 64  1  0
 13 65  1  0
 15 14  1  6
 15 16  1  0
 16 17  1  0
 17 18  1  6
 17 19  1  0
 18 66  1  0
 18 67  1  0
 18 68  1  0
 19 20  2  3
 19 69  1  0
 20 21  1  0
 20 70  1  0
 21 24  1  0
 21 22  1  1
 22 23  1  0
 22 71  1  0
 22 72  1  0
 23 36  1  0
 23 24  1  0
 23 73  1  1
 24 25  1  0
 24 74  1  1
 25 26  1  0
 25 27  1  0
 26 75  1  0
 26 76  1  0
 26 77  1  0
 27 28  2  0
 27 29  1  0
 29 30  1  0
 29 31  1  0
 29 32  1  0
 30 78  1  0
 30 79  1  0
 30 80  1  0
 31 81  1  0
 31 82  1  0
 31 83  1  0
 32 36  1  0
 32 33  2  0
 33 34  1  0
 33 84  1  0
 34 35  2  0
 35 36  1  0
 37 38  1  1
 37 48  1  0
 38 47  1  0
 38 39  2  0
 39 40  1  0
 39 85  1  0
 40 41  2  0
 40 86  1  0
 41 42  1  0
 42 47  2  0
 42 43  1  0
 43 44  2  0
 43 87  1  0
 44 45  1  0
 44 88  1  0
 45 46  2  0
 45 89  1  0
 46 47  1  0
 46 90  1  0
 48 49  1  0
 48 50  1  0
 49 91  1  0
 49 92  1  0
 49 93  1  0
 50 94  1  0
 50 95  1  0
M  END
>  <i_m_ct_stereo_status>  (24) 
1

>  <s_m_source_file>  (24) 
/var/tmp/pbs.5076255.sched01/tmpd0mq1ayv/02wja6gfv.sdf

>  <i_m_source_file_index>  (24) 
8

>  <i_lp_mmshare_version>  (24) 
48012

>  <i_f3d_flags>  (24) 
0

>  <s_epik_input>  (24) 
W2NIXTFbY0hdW2NIXVtjSF1jKGMxMiljKFtjSF1bY0hdbjIpW0NAXTMoQyg9W0NIXTQpT1tDSDNdKU4oW0NIM10pW0NIMl1OKFtDSDJdW0NIMl01KVtDQEBIXTRbQ0BdKE82KShbQ0gzXSkvW0NIXT1bQ0hdXFtDQF03KFtDQEhdOFtDSDJdW0NAQF0oTzkpKFtDSDNdKVtDQF02OVtDQEBdMzU4KVtDQEhdMVtDQEBIXShbQ0gyXTcpbjJjKFtjSF1ubjIpQyhbQ0gzXSkoW0NIM10pQyg9TylOMVtDSDNd

>  <s_epik_cmdline>  (24) 
J2VwaWtfcHl0aG9uJywgJy1waHQnLCAnMi4wJywgJy1waCcsICc3LjAnLCAnLXRuJywgJzgnLCAnLW1hJywgJzIwMCcsICctaW1hZScsICc8aW5maWxlLm1hZT4nLCAnLW9tYWUnLCAnPG91dGZpbGUubWFlPic=

>  <r_lp_tautomer_probability>  (24) 
1

>  <r_epik_Ionization_Penalty>  (24) 
1.74054

>  <r_epik_Ionization_Penalty_Charging>  (24) 
0

>  <r_epik_Ionization_Penalty_Neutral>  (24) 
1.74054

>  <r_epik_State_Penalty>  (24) 
1.77388

>  <r_epik_Charging_Adjusted_Penalty>  (24) 
1.77388

>  <i_epik_Tot_Q>  (24) 
0

>  <i_epik_Tot_abs_Q>  (24) 
0

>  <s_epik_Chemistry_Notes>  (24) 
This compound contains an acetal/aminal-like group ( X-CH(R)-Y where X, Y are N, S, or O) that may be acid/base labile, releasing an aldehyde.

>  <s_lp_Force_Field>  (24) 
OPLS3e

>  <r_lp_Energy>  (24) 
263.135

>  <b_lp_Chiralities_Consistent>  (24) 
1

>  <s_lp_Variant>  (24) 
4:0-3

>  <s_i_glide_gridfile>  (24) 
pfpi4k_grid

>  <i_i_glide_lignum>  (24) 
8

>  <i_i_glide_rotatable_bonds>  (24) 
2

>  <r_i_docking_score>  (24) 
-1.66201

>  <r_i_glide_ligand_efficiency>  (24) 
-0.0332401

>  <r_i_glide_ligand_efficiency_sa>  (24) 
-0.122458

>  <r_i_glide_ligand_efficiency_ln>  (24) 
-0.338355

>  <r_i_glide_gscore>  (24) 
-1.66201

>  <r_i_glide_lipo>  (24) 
-0.0359461

>  <r_i_glide_hbond>  (24) 
0

>  <r_i_glide_metal>  (24) 
-0

>  <r_i_glide_rewards>  (24) 
-0.0127551

>  <r_i_glide_evdw>  (24) 
-26.0238

>  <r_i_glide_ecoul>  (24) 
-2.15492

>  <r_i_glide_erotb>  (24) 
0.0467278

>  <r_i_glide_esite>  (24) 
-0.0356047

>  <r_i_glide_emodel>  (24) 
-31.2718

>  <r_i_glide_energy>  (24) 
-28.1787

>  <r_i_glide_einternal>  (24) 
0.0271216

>  <r_i_glide_intrahb_reward>  (24) 
-0

>  <i_i_glide_confnum>  (24) 
1

>  <i_i_glide_posenum>  (24) 
4

>  <r_i_glide_eff_state_penalty>  (24) 
0

>  <ligand_id>  (24) 
4

>  <original_smiles>  (24) 
COC1=CC2N3CCC4(C5CC6(C)OC64OC2(C)C=CC52CC4C2N(C)C(=O)C(C)(C)c2cnnn24)C1(c1ccnc2ccccc12)N(C)C3

>  <smiles>  (24) 
[H]C1=C(OC([H])([H])[H])C2(c3c([H])c([H])nc4c([H])c([H])c([H])c([H])c34)N(C([H])([H])[H])C([H])([H])N3C([H])([H])C([H])([H])C24C25OC(C([H])([H])[H])(C([H])=C([H])C6(C([H])([H])C7([H])n8nnc([H])c8C(C([H])([H])[H])(C([H])([H])[H])C(=O)N(C([H])([H])[H])C76[H])C4([H])C([H])([H])C2(C([H])([H])[H])O5)C13[H]

$$$$
4:3:0
     RDKit          3D

 95105  0  0  1  0  0  0  0  0999 V2000
    2.0746   -0.9035    9.9385 C   0  0  0  0  0  0  0  0  0  0  0  0
    2.0523   -0.3570    8.6250 O   0  0  0  0  0  0  0  0  0  0  0  0
    1.6664   -1.1692    7.5771 C   0  0  0  0  0  0  0  0  0  0  0  0
    1.2559   -2.4699    7.7537 C   0  0  0  0  0  0  0  0  0  0  0  0
    0.6684   -3.3369    6.6188 C   0  0  1  0  0  0  0  0  0  0  0  0
   -0.4102   -2.5495    5.9376 N   0  0  0  0  0  0  0  0  0  0  0  0
   -0.3334   -2.5221    4.5416 C   0  0  0  0  0  0  0  0  0  0  0  0
    0.9412   -1.8466    4.0517 C   0  0  0  0  0  0  0  0  0  0  0  0
    2.2303   -1.5399    4.9963 C   0  0  2  0  0  0  0  0  0  0  0  0
    3.2910   -1.3988    3.7759 C   0  0  1  0  0  0  0  0  0  0  0  0
    4.6685   -1.1228    4.4307 C   0  0  0  0  0  0  0  0  0  0  0  0
    4.7063   -2.1490    5.5111 C   0  0  1  0  0  0  0  0  0  0  0  0
    5.9069   -3.0603    5.6352 C   0  0  0  0  0  0  0  0  0  0  0  0
    4.1504   -1.7766    6.7371 O   0  0  0  0  0  0  0  0  0  0  0  0
    3.2448   -2.4584    5.8436 C   0  0  1  0  0  0  0  0  0  0  0  0
    2.9878   -3.8003    6.2994 O   0  0  0  0  0  0  0  0  0  0  0  0
    1.7629   -4.3062    5.8438 C   0  0  1  0  0  0  0  0  0  0  0  0
    1.6945   -5.7190    6.4371 C   0  0  0  0  0  0  0  0  0  0  0  0
    1.9603   -4.4222    4.2791 C   0  0  0  0  0  0  0  0  0  0  0  0
    3.1141   -4.0792    3.6261 C   0  0  0  0  0  0  0  0  0  0  0  0
    3.3973   -2.7607    2.8097 C   0  0  1  0  0  0  0  0  0  0  0  0
    2.7100   -2.6619    1.4101 C   0  0  0  0  0  0  0  0  0  0  0  0
    3.9893   -2.0131    0.8753 C   0  0  1  0  0  0  0  0  0  0  0  0
    4.7078   -2.9005    1.8937 C   0  0  2  0  0  0  0  0  0  0  0  0
    5.2286   -4.1322    1.2192 N   0  0  0  0  0  0  0  0  0  0  0  0
    4.8492   -5.4327    1.7860 C   0  0  0  0  0  0  0  0  0  0  0  0
    6.3440   -4.0526    0.4272 C   0  0  0  0  0  0  0  0  0  0  0  0
    7.0895   -5.0182    0.3132 O   0  0  0  0  0  0  0  0  0  0  0  0
    6.7094   -2.7693   -0.3875 C   0  0  0  0  0  0  0  0  0  0  0  0
    7.2842   -1.6656    0.5294 C   0  0  0  0  0  0  0  0  0  0  0  0
    7.8317   -3.0697   -1.4080 C   0  0  0  0  0  0  0  0  0  0  0  0
    5.5046   -2.3229   -1.1285 C   0  0  0  0  0  0  0  0  0  0  0  0
    5.2223   -2.1680   -2.4512 C   0  0  0  0  0  0  0  0  0  0  0  0
    3.9353   -1.6464   -2.5724 N   0  0  0  0  0  0  0  0  0  0  0  0
    3.4154   -1.5250   -1.3997 N   0  0  0  0  0  0  0  0  0  0  0  0
    4.3105   -2.0001   -0.5181 N   0  0  0  0  0  0  0  0  0  0  0  0
    1.6989   -0.4682    6.1455 C   0  0  2  0  0  0  0  0  0  0  0  0
    2.5593    0.8491    5.9950 C   0  0  0  0  0  0  0  0  0  0  0  0
    3.6607    1.0686    6.8729 C   0  0  0  0  0  0  0  0  0  0  0  0
    4.5031    2.1754    6.7059 C   0  0  0  0  0  0  0  0  0  0  0  0
    4.3275    3.0823    5.7418 N   0  0  0  0  0  0  0  0  0  0  0  0
    3.2998    2.9290    4.8854 C   0  0  0  0  0  0  0  0  0  0  0  0
    3.1436    3.9072    3.8919 C   0  0  0  0  0  0  0  0  0  0  0  0
    2.1136    3.8301    2.9424 C   0  0  0  0  0  0  0  0  0  0  0  0
    1.2006    2.7737    3.0205 C   0  0  0  0  0  0  0  0  0  0  0  0
    1.3422    1.7939    4.0062 C   0  0  0  0  0  0  0  0  0  0  0  0
    2.3906    1.8323    4.9646 C   0  0  0  0  0  0  0  0  0  0  0  0
    0.2358   -0.1473    6.0249 N   0  0  0  0  0  0  0  0  0  0  0  0
   -0.2085    1.0298    6.7918 C   0  0  0  0  0  0  0  0  0  0  0  0
   -0.7355   -1.1971    6.4076 C   0  0  0  0  0  0  0  0  0  0  0  0
    2.3818   -0.1334   10.6427 H   0  0  0  0  0  0  0  0  0  0  0  0
    2.7831   -1.7279   10.0280 H   0  0  0  0  0  0  0  0  0  0  0  0
    1.0877   -1.2423   10.2510 H   0  0  0  0  0  0  0  0  0  0  0  0
    1.2562   -2.9461    8.7181 H   0  0  0  0  0  0  0  0  0  0  0  0
    0.1183   -4.0708    7.2051 H   0  0  0  0  0  0  0  0  0  0  0  0
   -0.4782   -3.5359    4.1994 H   0  0  0  0  0  0  0  0  0  0  0  0
   -1.1974   -1.9996    4.1260 H   0  0  0  0  0  0  0  0  0  0  0  0
    1.0868   -2.3959    3.1512 H   0  0  0  0  0  0  0  0  0  0  0  0
    0.6256   -0.9062    3.6115 H   0  0  0  0  0  0  0  0  0  0  0  0
    2.9906   -0.5319    3.1721 H   0  0  0  0  0  0  0  0  0  0  0  0
    5.5489   -1.0996    3.8109 H   0  0  0  0  0  0  0  0  0  0  0  0
    4.6922   -0.1341    4.8588 H   0  0  0  0  0  0  0  0  0  0  0  0
    6.1059   -3.5942    4.6985 H   0  0  0  0  0  0  0  0  0  0  0  0
    5.7617   -3.7697    6.4497 H   0  0  0  0  0  0  0  0  0  0  0  0
    6.7489   -2.4466    5.9353 H   0  0  0  0  0  0  0  0  0  0  0  0
    0.7543   -6.1896    6.1694 H   0  0  0  0  0  0  0  0  0  0  0  0
    1.7531   -5.6922    7.5238 H   0  0  0  0  0  0  0  0  0  0  0  0
    2.5061   -6.3536    6.0807 H   0  0  0  0  0  0  0  0  0  0  0  0
    1.0737   -4.4374    3.6918 H   0  0  0  0  0  0  0  0  0  0  0  0
    4.0010   -4.2426    4.2138 H   0  0  0  0  0  0  0  0  0  0  0  0
    2.4922   -3.6183    0.9298 H   0  0  0  0  0  0  0  0  0  0  0  0
    1.8968   -1.9442    1.3124 H   0  0  0  0  0  0  0  0  0  0  0  0
    4.0448   -0.9654    1.1742 H   0  0  0  0  0  0  0  0  0  0  0  0
    5.5468   -2.4107    2.3510 H   0  0  0  0  0  0  0  0  0  0  0  0
    5.2905   -6.2827    1.2741 H   0  0  0  0  0  0  0  0  0  0  0  0
    3.7768   -5.5993    1.7092 H   0  0  0  0  0  0  0  0  0  0  0  0
    5.1835   -5.5163    2.8190 H   0  0  0  0  0  0  0  0  0  0  0  0
    6.5269   -1.0830    1.0565 H   0  0  0  0  0  0  0  0  0  0  0  0
    7.8982   -0.9313    0.0140 H   0  0  0  0  0  0  0  0  0  0  0  0
    7.9376   -2.1336    1.2598 H   0  0  0  0  0  0  0  0  0  0  0  0
    7.5319   -3.8249   -2.1366 H   0  0  0  0  0  0  0  0  0  0  0  0
    8.7482   -3.4109   -0.9278 H   0  0  0  0  0  0  0  0  0  0  0  0
    8.0971   -2.2177   -2.0248 H   0  0  0  0  0  0  0  0  0  0  0  0
    5.8123   -2.3521   -3.3390 H   0  0  0  0  0  0  0  0  0  0  0  0
    3.9145    0.3744    7.6576 H   0  0  0  0  0  0  0  0  0  0  0  0
    5.3549    2.3268    7.3588 H   0  0  0  0  0  0  0  0  0  0  0  0
    3.8341    4.7302    3.8265 H   0  0  0  0  0  0  0  0  0  0  0  0
    2.0156    4.5743    2.1610 H   0  0  0  0  0  0  0  0  0  0  0  0
    0.3718    2.7225    2.3255 H   0  0  0  0  0  0  0  0  0  0  0  0
    0.5756    1.0562    4.0052 H   0  0  0  0  0  0  0  0  0  0  0  0
   -1.2638    1.2443    6.5799 H   0  0  0  0  0  0  0  0  0  0  0  0
    0.3342    1.9345    6.5145 H   0  0  0  0  0  0  0  0  0  0  0  0
   -0.0878    0.8999    7.8734 H   0  0  0  0  0  0  0  0  0  0  0  0
   -1.6902   -0.9164    5.9673 H   0  0  0  0  0  0  0  0  0  0  0  0
   -0.8953   -1.2088    7.4795 H   0  0  0  0  0  0  0  0  0  0  0  0
  1  2  1  0
  1 51  1  0
  1 52  1  0
  1 53  1  0
  2  3  1  0
  3 37  1  0
  3  4  2  0
  4  5  1  0
  4 54  1  0
  5 17  1  0
  5  6  1  0
  5 55  1  1
  6 50  1  0
  6  7  1  0
  7  8  1  0
  7 56  1  0
  7 57  1  0
  9  8  1  6
  8 58  1  0
  8 59  1  0
  9 15  1  0
  9 10  1  0
  9 37  1  0
 10 21  1  0
 10 11  1  0
 10 60  1  6
 11 12  1  0
 11 61  1  0
 11 62  1  0
 12 15  1  0
 12 13  1  1
 12 14  1  0
 13 63  1  0
 13 64  1  0
 13 65  1  0
 15 14  1  1
 15 16  1  0
 16 17  1  0
 17 18  1  1
 17 19  1  0
 18 66  1  0
 18 67  1  0
 18 68  1  0
 19 20  2  3
 19 69  1  0
 20 21  1  0
 20 70  1  0
 21 24  1  0
 21 22  1  6
 22 23  1  0
 22 71  1  0
 22 72  1  0
 23 36  1  0
 23 24  1  0
 23 73  1  1
 24 25  1  0
 24 74  1  1
 25 26  1  0
 25 27  1  0
 26 75  1  0
 26 76  1  0
 26 77  1  0
 27 28  2  0
 27 29  1  0
 29 30  1  0
 29 31  1  0
 29 32  1  0
 30 78  1  0
 30 79  1  0
 30 80  1  0
 31 81  1  0
 31 82  1  0
 31 83  1  0
 32 36  1  0
 32 33  2  0
 33 34  1  0
 33 84  1  0
 34 35  2  0
 35 36  1  0
 37 38  1  1
 37 48  1  0
 38 47  1  0
 38 39  2  0
 39 40  1  0
 39 85  1  0
 40 41  2  0
 40 86  1  0
 41 42  1  0
 42 47  2  0
 42 43  1  0
 43 44  2  0
 43 87  1  0
 44 45  1  0
 44 88  1  0
 45 46  2  0
 45 89  1  0
 46 47  1  0
 46 90  1  0
 48 49  1  0
 48 50  1  0
 49 91  1  0
 49 92  1  0
 49 93  1  0
 50 94  1  0
 50 95  1  0
M  END
>  <i_m_ct_stereo_status>  (25) 
1

>  <s_m_source_file>  (25) 
/var/tmp/pbs.5076255.sched01/tmpd0mq1ayv/02wja6gfv.sdf

>  <i_m_source_file_index>  (25) 
9

>  <i_lp_mmshare_version>  (25) 
48012

>  <i_f3d_flags>  (25) 
2

>  <s_epik_input>  (25) 
W2NIXTFbY0hdW2NIXVtjSF1jKGMxMiljKFtjSF1bY0hdbjIpW0NAXTMoQyg9W0NIXTQpT1tDSDNdKU4oW0NIM10pW0NIMl1OKFtDSDJdW0NIMl01KVtDQEBIXTRbQ0BdKE82KShbQ0gzXSkvW0NIXT1bQ0hdXFtDQF03KFtDQEhdOFtDSDJdW0NAQF0oTzkpKFtDSDNdKVtDQF02OVtDQEBdMzU4KVtDQEhdMVtDQEBIXShbQ0gyXTcpbjJjKFtjSF1ubjIpQyhbQ0gzXSkoW0NIM10pQyg9TylOMVtDSDNd

>  <s_epik_cmdline>  (25) 
J2VwaWtfcHl0aG9uJywgJy1waHQnLCAnMi4wJywgJy1waCcsICc3LjAnLCAnLXRuJywgJzgnLCAnLW1hJywgJzIwMCcsICctaW1hZScsICc8aW5maWxlLm1hZT4nLCAnLW9tYWUnLCAnPG91dGZpbGUubWFlPic=

>  <r_lp_tautomer_probability>  (25) 
1

>  <r_epik_Ionization_Penalty>  (25) 
1.74054

>  <r_epik_Ionization_Penalty_Charging>  (25) 
0

>  <r_epik_Ionization_Penalty_Neutral>  (25) 
1.74054

>  <r_epik_State_Penalty>  (25) 
1.77388

>  <r_epik_Charging_Adjusted_Penalty>  (25) 
1.77388

>  <i_epik_Tot_Q>  (25) 
0

>  <i_epik_Tot_abs_Q>  (25) 
0

>  <s_epik_Chemistry_Notes>  (25) 
This compound contains an acetal/aminal-like group ( X-CH(R)-Y where X, Y are N, S, or O) that may be acid/base labile, releasing an aldehyde.

>  <s_lp_Force_Field>  (25) 
OPLS3e

>  <r_lp_Energy>  (25) 
296.123

>  <b_lp_Chiralities_Consistent>  (25) 
0

>  <s_lp_Variant>  (25) 
4:0-4

>  <s_i_glide_gridfile>  (25) 
pfpi4k_grid

>  <i_i_glide_lignum>  (25) 
9

>  <i_i_glide_rotatable_bonds>  (25) 
2

>  <r_i_docking_score>  (25) 
-2.14952

>  <r_i_glide_ligand_efficiency>  (25) 
-0.0429904

>  <r_i_glide_ligand_efficiency_sa>  (25) 
-0.158378

>  <r_i_glide_ligand_efficiency_ln>  (25) 
-0.437603

>  <r_i_glide_gscore>  (25) 
-2.14952

>  <r_i_glide_lipo>  (25) 
-0.215089

>  <r_i_glide_hbond>  (25) 
0

>  <r_i_glide_metal>  (25) 
-0

>  <r_i_glide_rewards>  (25) 
-0.196824

>  <r_i_glide_evdw>  (25) 
-28.3644

>  <r_i_glide_ecoul>  (25) 
-0.966411

>  <r_i_glide_erotb>  (25) 
0.0467278

>  <r_i_glide_esite>  (25) 
-0.221153

>  <r_i_glide_emodel>  (25) 
-31.6428

>  <r_i_glide_energy>  (25) 
-29.3308

>  <r_i_glide_einternal>  (25) 
0.299735

>  <r_i_glide_intrahb_reward>  (25) 
-0

>  <i_i_glide_confnum>  (25) 
3

>  <i_i_glide_posenum>  (25) 
1

>  <r_i_glide_eff_state_penalty>  (25) 
0

>  <ligand_id>  (25) 
4

>  <original_smiles>  (25) 
COC1=CC2N3CCC4(C5CC6(C)OC64OC2(C)C=CC52CC4C2N(C)C(=O)C(C)(C)c2cnnn24)C1(c1ccnc2ccccc12)N(C)C3

>  <smiles>  (25) 
[H]C1=C(OC([H])([H])[H])C2(c3c([H])c([H])nc4c([H])c([H])c([H])c([H])c34)N(C([H])([H])[H])C([H])([H])N3C([H])([H])C([H])([H])C24C25OC(C([H])([H])[H])(C([H])=C([H])C6(C([H])([H])C7([H])n8nnc([H])c8C(C([H])([H])[H])(C([H])([H])[H])C(=O)N(C([H])([H])[H])C76[H])C4([H])C([H])([H])C2(C([H])([H])[H])O5)C13[H]

$$$$
4:3:1
     RDKit          3D

 95105  0  0  1  0  0  0  0  0999 V2000
    3.9819    1.1791   11.2013 C   0  0  0  0  0  0  0  0  0  0  0  0
    3.0498    0.7212   10.2239 O   0  0  0  0  0  0  0  0  0  0  0  0
    2.8852   -0.6318   10.0187 C   0  0  0  0  0  0  0  0  0  0  0  0
    3.5323   -1.5600   10.7992 C   0  0  0  0  0  0  0  0  0  0  0  0
    3.2152   -3.0678   10.7628 C   0  0  1  0  0  0  0  0  0  0  0  0
    1.7287   -3.2224   10.8831 N   0  0  0  0  0  0  0  0  0  0  0  0
    1.1503   -4.1195    9.9821 C   0  0  0  0  0  0  0  0  0  0  0  0
    1.3291   -3.6209    8.5556 C   0  0  0  0  0  0  0  0  0  0  0  0
    2.3449   -2.4132    8.0970 C   0  0  2  0  0  0  0  0  0  0  0  0
    2.4122   -2.8245    6.5251 C   0  0  1  0  0  0  0  0  0  0  0  0
    3.3781   -1.8232    5.8444 C   0  0  0  0  0  0  0  0  0  0  0  0
    4.5272   -1.8377    6.7813 C   0  0  1  0  0  0  0  0  0  0  0  0
    5.9133   -2.0872    6.2101 C   0  0  0  0  0  0  0  0  0  0  0  0
    4.4739   -0.9232    7.8399 O   0  0  0  0  0  0  0  0  0  0  0  0
    3.9494   -2.2402    8.1403 C   0  0  1  0  0  0  0  0  0  0  0  0
    4.8353   -2.9732    8.9962 O   0  0  0  0  0  0  0  0  0  0  0  0
    4.1839   -3.9619    9.7546 C   0  0  1  0  0  0  0  0  0  0  0  0
    5.2837   -4.6173   10.5994 C   0  0  0  0  0  0  0  0  0  0  0  0
    3.7002   -5.0228    8.6819 C   0  0  0  0  0  0  0  0  0  0  0  0
    3.9227   -4.8788    7.3382 C   0  0  0  0  0  0  0  0  0  0  0  0
    2.9123   -4.3847    6.2322 C   0  0  1  0  0  0  0  0  0  0  0  0
    1.7706   -5.3774    5.8313 C   0  0  0  0  0  0  0  0  0  0  0  0
    1.9324   -4.9219    4.3839 C   0  0  1  0  0  0  0  0  0  0  0  0
    3.4084   -4.7203    4.7410 C   0  0  2  0  0  0  0  0  0  0  0  0
    4.2312   -5.8923    4.3040 N   0  0  0  0  0  0  0  0  0  0  0  0
    5.0521   -6.5679    5.3172 C   0  0  0  0  0  0  0  0  0  0  0  0
    4.5157   -6.0857    2.9790 C   0  0  0  0  0  0  0  0  0  0  0  0
    5.5022   -6.7353    2.6368 O   0  0  0  0  0  0  0  0  0  0  0  0
    3.5779   -5.5623    1.8402 C   0  0  0  0  0  0  0  0  0  0  0  0
    3.6660   -4.0245    1.6562 C   0  0  0  0  0  0  0  0  0  0  0  0
    4.0345   -6.1557    0.4832 C   0  0  0  0  0  0  0  0  0  0  0  0
    2.1713   -6.0228    2.1264 C   0  0  0  0  0  0  0  0  0  0  0  0
    1.2888   -6.8004    1.4401 C   0  0  0  0  0  0  0  0  0  0  0  0
    0.1028   -6.8738    2.1660 N   0  0  0  0  0  0  0  0  0  0  0  0
    0.2485   -6.2576    3.2962 N   0  0  0  0  0  0  0  0  0  0  0  0
    1.4990   -5.7408    3.2953 N   0  0  0  0  0  0  0  0  0  0  0  0
    1.8361   -1.0318    8.8730 C   0  0  2  0  0  0  0  0  0  0  0  0
    1.5080    0.0597    7.7576 C   0  0  0  0  0  0  0  0  0  0  0  0
    2.3164    1.2274    7.6171 C   0  0  0  0  0  0  0  0  0  0  0  0
    2.0644    2.1707    6.6148 C   0  0  0  0  0  0  0  0  0  0  0  0
    1.1172    2.0220    5.6862 N   0  0  0  0  0  0  0  0  0  0  0  0
    0.3488    0.9195    5.7321 C   0  0  0  0  0  0  0  0  0  0  0  0
   -0.6062    0.7637    4.7085 C   0  0  0  0  0  0  0  0  0  0  0  0
   -1.4577   -0.3498    4.6686 C   0  0  0  0  0  0  0  0  0  0  0  0
   -1.3781   -1.3107    5.6827 C   0  0  0  0  0  0  0  0  0  0  0  0
   -0.4484   -1.1411    6.7235 C   0  0  0  0  0  0  0  0  0  0  0  0
    0.4684   -0.0654    6.7655 C   0  0  0  0  0  0  0  0  0  0  0  0
    0.6258   -1.2784    9.7361 N   0  0  0  0  0  0  0  0  0  0  0  0
   -0.0462   -0.0489   10.1885 C   0  0  0  0  0  0  0  0  0  0  0  0
    0.8559   -2.0279   11.0125 C   0  0  0  0  0  0  0  0  0  0  0  0
    4.0178    2.2643   11.1607 H   0  0  0  0  0  0  0  0  0  0  0  0
    5.0002    0.8331   11.0236 H   0  0  0  0  0  0  0  0  0  0  0  0
    3.6786    0.9102   12.2116 H   0  0  0  0  0  0  0  0  0  0  0  0
    4.2588   -1.2889   11.5505 H   0  0  0  0  0  0  0  0  0  0  0  0
    3.5652   -3.3669   11.7525 H   0  0  0  0  0  0  0  0  0  0  0  0
    1.5212   -5.1143   10.1940 H   0  0  0  0  0  0  0  0  0  0  0  0
    0.0836   -4.2123   10.1878 H   0  0  0  0  0  0  0  0  0  0  0  0
    1.3830   -4.5464    8.0319 H   0  0  0  0  0  0  0  0  0  0  0  0
    0.3167   -3.3762    8.2901 H   0  0  0  0  0  0  0  0  0  0  0  0
    1.4293   -2.7025    6.0793 H   0  0  0  0  0  0  0  0  0  0  0  0
    3.6547   -1.9800    4.8096 H   0  0  0  0  0  0  0  0  0  0  0  0
    2.9634   -0.8246    5.8190 H   0  0  0  0  0  0  0  0  0  0  0  0
    5.9667   -3.0380    5.6704 H   0  0  0  0  0  0  0  0  0  0  0  0
    6.6558   -2.0874    7.0058 H   0  0  0  0  0  0  0  0  0  0  0  0
    6.1572   -1.2818    5.5181 H   0  0  0  0  0  0  0  0  0  0  0  0
    4.8601   -5.3792   11.2521 H   0  0  0  0  0  0  0  0  0  0  0  0
    5.7829   -3.8832   11.2302 H   0  0  0  0  0  0  0  0  0  0  0  0
    6.0410   -5.0929    9.9773 H   0  0  0  0  0  0  0  0  0  0  0  0
    2.8757   -5.6408    8.9649 H   0  0  0  0  0  0  0  0  0  0  0  0
    4.8436   -4.3808    7.1110 H   0  0  0  0  0  0  0  0  0  0  0  0
    2.0036   -6.4348    5.9641 H   0  0  0  0  0  0  0  0  0  0  0  0
    0.7573   -5.1390    6.1611 H   0  0  0  0  0  0  0  0  0  0  0  0
    1.4441   -3.9634    4.2124 H   0  0  0  0  0  0  0  0  0  0  0  0
    3.8405   -3.8519    4.2810 H   0  0  0  0  0  0  0  0  0  0  0  0
    5.6380   -7.3978    4.9291 H   0  0  0  0  0  0  0  0  0  0  0  0
    4.4295   -7.0145    6.0899 H   0  0  0  0  0  0  0  0  0  0  0  0
    5.7762   -5.8805    5.7532 H   0  0  0  0  0  0  0  0  0  0  0  0
    3.0640   -3.4665    2.3695 H   0  0  0  0  0  0  0  0  0  0  0  0
    3.2854   -3.7173    0.6798 H   0  0  0  0  0  0  0  0  0  0  0  0
    4.6956   -3.6721    1.7344 H   0  0  0  0  0  0  0  0  0  0  0  0
    4.0336   -7.2467    0.4910 H   0  0  0  0  0  0  0  0  0  0  0  0
    5.0393   -5.8287    0.2158 H   0  0  0  0  0  0  0  0  0  0  0  0
    3.3731   -5.8383   -0.3189 H   0  0  0  0  0  0  0  0  0  0  0  0
    1.3987   -7.3011    0.4884 H   0  0  0  0  0  0  0  0  0  0  0  0
    3.1714    1.4606    8.2233 H   0  0  0  0  0  0  0  0  0  0  0  0
    2.6692    3.0664    6.5544 H   0  0  0  0  0  0  0  0  0  0  0  0
   -0.6729    1.5169    3.9368 H   0  0  0  0  0  0  0  0  0  0  0  0
   -2.1807   -0.4425    3.8662 H   0  0  0  0  0  0  0  0  0  0  0  0
   -2.0255   -2.1772    5.6662 H   0  0  0  0  0  0  0  0  0  0  0  0
   -0.4734   -1.8629    7.4990 H   0  0  0  0  0  0  0  0  0  0  0  0
   -0.9313   -0.2881   10.7877 H   0  0  0  0  0  0  0  0  0  0  0  0
   -0.3907    0.5698    9.3570 H   0  0  0  0  0  0  0  0  0  0  0  0
    0.5945    0.5743   10.8197 H   0  0  0  0  0  0  0  0  0  0  0  0
   -0.1230   -2.3552   11.3607 H   0  0  0  0  0  0  0  0  0  0  0  0
    1.2102   -1.3858   11.8244 H   0  0  0  0  0  0  0  0  0  0  0  0
  1  2  1  0
  1 51  1  0
  1 52  1  0
  1 53  1  0
  2  3  1  0
  3 37  1  0
  3  4  2  0
  4  5  1  0
  4 54  1  0
  5 17  1  0
  5  6  1  0
  5 55  1  1
  6 50  1  0
  6  7  1  0
  7  8  1  0
  7 56  1  0
  7 57  1  0
  9  8  1  1
  8 58  1  0
  8 59  1  0
  9 15  1  0
  9 10  1  0
  9 37  1  0
 10 21  1  0
 10 11  1  0
 10 60  1  6
 11 12  1  0
 11 61  1  0
 11 62  1  0
 12 15  1  0
 12 13  1  6
 12 14  1  0
 13 63  1  0
 13 64  1  0
 13 65  1  0
 15 14  1  1
 15 16  1  0
 16 17  1  0
 17 18  1  1
 17 19  1  0
 18 66  1  0
 18 67  1  0
 18 68  1  0
 19 20  2  3
 19 69  1  0
 20 21  1  0
 20 70  1  0
 21 24  1  0
 21 22  1  1
 22 23  1  0
 22 71  1  0
 22 72  1  0
 23 36  1  0
 23 24  1  0
 23 73  1  1
 24 25  1  0
 24 74  1  6
 25 26  1  0
 25 27  1  0
 26 75  1  0
 26 76  1  0
 26 77  1  0
 27 28  2  0
 27 29  1  0
 29 30  1  0
 29 31  1  0
 29 32  1  0
 30 78  1  0
 30 79  1  0
 30 80  1  0
 31 81  1  0
 31 82  1  0
 31 83  1  0
 32 36  1  0
 32 33  2  0
 33 34  1  0
 33 84  1  0
 34 35  2  0
 35 36  1  0
 37 38  1  6
 37 48  1  0
 38 47  1  0
 38 39  2  0
 39 40  1  0
 39 85  1  0
 40 41  2  0
 40 86  1  0
 41 42  1  0
 42 47  2  0
 42 43  1  0
 43 44  2  0
 43 87  1  0
 44 45  1  0
 44 88  1  0
 45 46  2  0
 45 89  1  0
 46 47  1  0
 46 90  1  0
 48 49  1  0
 48 50  1  0
 49 91  1  0
 49 92  1  0
 49 93  1  0
 50 94  1  0
 50 95  1  0
M  END
>  <i_m_ct_stereo_status>  (26) 
1

>  <s_m_source_file>  (26) 
/var/tmp/pbs.5076255.sched01/tmpd0mq1ayv/02wja6gfv.sdf

>  <i_m_source_file_index>  (26) 
9

>  <i_lp_mmshare_version>  (26) 
48012

>  <i_f3d_flags>  (26) 
2

>  <s_epik_input>  (26) 
W2NIXTFbY0hdW2NIXVtjSF1jKGMxMiljKFtjSF1bY0hdbjIpW0NAXTMoQyg9W0NIXTQpT1tDSDNdKU4oW0NIM10pW0NIMl1OKFtDSDJdW0NIMl01KVtDQEBIXTRbQ0BdKE82KShbQ0gzXSkvW0NIXT1bQ0hdXFtDQF03KFtDQEhdOFtDSDJdW0NAQF0oTzkpKFtDSDNdKVtDQF02OVtDQEBdMzU4KVtDQEhdMVtDQEBIXShbQ0gyXTcpbjJjKFtjSF1ubjIpQyhbQ0gzXSkoW0NIM10pQyg9TylOMVtDSDNd

>  <s_epik_cmdline>  (26) 
J2VwaWtfcHl0aG9uJywgJy1waHQnLCAnMi4wJywgJy1waCcsICc3LjAnLCAnLXRuJywgJzgnLCAnLW1hJywgJzIwMCcsICctaW1hZScsICc8aW5maWxlLm1hZT4nLCAnLW9tYWUnLCAnPG91dGZpbGUubWFlPic=

>  <r_lp_tautomer_probability>  (26) 
1

>  <r_epik_Ionization_Penalty>  (26) 
1.74054

>  <r_epik_Ionization_Penalty_Charging>  (26) 
0

>  <r_epik_Ionization_Penalty_Neutral>  (26) 
1.74054

>  <r_epik_State_Penalty>  (26) 
1.77388

>  <r_epik_Charging_Adjusted_Penalty>  (26) 
1.77388

>  <i_epik_Tot_Q>  (26) 
0

>  <i_epik_Tot_abs_Q>  (26) 
0

>  <s_epik_Chemistry_Notes>  (26) 
This compound contains an acetal/aminal-like group ( X-CH(R)-Y where X, Y are N, S, or O) that may be acid/base labile, releasing an aldehyde.

>  <s_lp_Force_Field>  (26) 
OPLS3e

>  <r_lp_Energy>  (26) 
296.123

>  <b_lp_Chiralities_Consistent>  (26) 
0

>  <s_lp_Variant>  (26) 
4:0-4

>  <s_i_glide_gridfile>  (26) 
pfpi4k_grid

>  <i_i_glide_lignum>  (26) 
9

>  <i_i_glide_rotatable_bonds>  (26) 
2

>  <r_i_docking_score>  (26) 
-1.69942

>  <r_i_glide_ligand_efficiency>  (26) 
-0.0339885

>  <r_i_glide_ligand_efficiency_sa>  (26) 
-0.125215

>  <r_i_glide_ligand_efficiency_ln>  (26) 
-0.345972

>  <r_i_glide_gscore>  (26) 
-1.69942

>  <r_i_glide_lipo>  (26) 
-0.153193

>  <r_i_glide_hbond>  (26) 
0

>  <r_i_glide_metal>  (26) 
-0

>  <r_i_glide_rewards>  (26) 
0

>  <r_i_glide_evdw>  (26) 
-21.445

>  <r_i_glide_ecoul>  (26) 
-2.22813

>  <r_i_glide_erotb>  (26) 
0.0467278

>  <r_i_glide_esite>  (26) 
-0.186491

>  <r_i_glide_emodel>  (26) 
-23.9585

>  <r_i_glide_energy>  (26) 
-23.6731

>  <r_i_glide_einternal>  (26) 
2.23948

>  <r_i_glide_intrahb_reward>  (26) 
-0

>  <i_i_glide_confnum>  (26) 
1

>  <i_i_glide_posenum>  (26) 
40

>  <r_i_glide_eff_state_penalty>  (26) 
0

>  <ligand_id>  (26) 
4

>  <original_smiles>  (26) 
COC1=CC2N3CCC4(C5CC6(C)OC64OC2(C)C=CC52CC4C2N(C)C(=O)C(C)(C)c2cnnn24)C1(c1ccnc2ccccc12)N(C)C3

>  <smiles>  (26) 
[H]C1=C(OC([H])([H])[H])C2(c3c([H])c([H])nc4c([H])c([H])c([H])c([H])c34)N(C([H])([H])[H])C([H])([H])N3C([H])([H])C([H])([H])C24C25OC(C([H])([H])[H])(C([H])=C([H])C6(C([H])([H])C7([H])n8nnc([H])c8C(C([H])([H])[H])(C([H])([H])[H])C(=O)N(C([H])([H])[H])C76[H])C4([H])C([H])([H])C2(C([H])([H])[H])O5)C13[H]

$$$$
4:3:2
     RDKit          3D

 95105  0  0  1  0  0  0  0  0999 V2000
    2.7822    5.8973   10.9846 C   0  0  0  0  0  0  0  0  0  0  0  0
    1.9514    5.0800   10.1689 O   0  0  0  0  0  0  0  0  0  0  0  0
    2.2168    3.7267   10.0742 C   0  0  0  0  0  0  0  0  0  0  0  0
    3.1802    3.1467   10.8697 C   0  0  0  0  0  0  0  0  0  0  0  0
    3.3669    1.6236   10.9953 C   0  0  1  0  0  0  0  0  0  0  0  0
    2.0177    1.0353   11.2835 N   0  0  0  0  0  0  0  0  0  0  0  0
    1.6834   -0.1050   10.5424 C   0  0  0  0  0  0  0  0  0  0  0  0
    1.5658    0.2505    9.0539 C   0  0  0  0  0  0  0  0  0  0  0  0
    2.1278    1.6593    8.3729 C   0  0  2  0  0  0  0  0  0  0  0  0
    2.2225    1.1137    6.8424 C   0  0  1  0  0  0  0  0  0  0  0  0
    2.7724    2.2953    5.9961 C   0  0  0  0  0  0  0  0  0  0  0  0
    3.9191    2.7421    6.8193 C   0  0  1  0  0  0  0  0  0  0  0  0
    5.2565    2.8579    6.1281 C   0  0  0  0  0  0  0  0  0  0  0  0
    3.6510    3.7112    7.7908 O   0  0  0  0  0  0  0  0  0  0  0  0
    3.6009    2.3316    8.2536 C   0  0  1  0  0  0  0  0  0  0  0  0
    4.7390    2.0131    9.0703 O   0  0  0  0  0  0  0  0  0  0  0  0
    4.4897    0.9692    9.9676 C   0  0  1  0  0  0  0  0  0  0  0  0
    5.8009    0.7777   10.7374 C   0  0  0  0  0  0  0  0  0  0  0  0
    4.2917   -0.2979    9.0451 C   0  0  0  0  0  0  0  0  0  0  0  0
    4.3756   -0.2412    7.6804 C   0  0  0  0  0  0  0  0  0  0  0  0
    3.1811   -0.2322    6.6455 C   0  0  1  0  0  0  0  0  0  0  0  0
    2.3931   -1.5680    6.4626 C   0  0  0  0  0  0  0  0  0  0  0  0
    2.2731   -1.2429    4.9784 C   0  0  1  0  0  0  0  0  0  0  0  0
    3.6138   -0.5597    5.1436 C   0  0  2  0  0  0  0  0  0  0  0  0
    4.6903   -1.4826    4.7001 N   0  0  0  0  0  0  0  0  0  0  0  0
    5.7299   -1.8245    5.6857 C   0  0  0  0  0  0  0  0  0  0  0  0
    4.8678   -1.6873    3.3650 C   0  0  0  0  0  0  0  0  0  0  0  0
    5.9563   -2.0284    2.9337 O   0  0  0  0  0  0  0  0  0  0  0  0
    3.7485   -1.6131    2.2764 C   0  0  0  0  0  0  0  0  0  0  0  0
    3.3574   -0.1532    1.9628 C   0  0  0  0  0  0  0  0  0  0  0  0
    4.2653   -2.2099    0.9300 C   0  0  0  0  0  0  0  0  0  0  0  0
    2.6034   -2.4750    2.8046 C   0  0  0  0  0  0  0  0  0  0  0  0
    2.0751   -3.6264    2.3986 C   0  0  0  0  0  0  0  0  0  0  0  0
    1.0744   -4.0271    3.3113 N   0  0  0  0  0  0  0  0  0  0  0  0
    1.0685   -3.1926    4.3120 N   0  0  0  0  0  0  0  0  0  0  0  0
    2.0362   -2.2719    4.0421 N   0  0  0  0  0  0  0  0  0  0  0  0
    1.2651    2.9116    9.0711 C   0  0  2  0  0  0  0  0  0  0  0  0
    0.5103    3.7231    7.9090 C   0  0  0  0  0  0  0  0  0  0  0  0
    0.8432    5.1078    7.6440 C   0  0  0  0  0  0  0  0  0  0  0  0
    0.2545    5.8033    6.5957 C   0  0  0  0  0  0  0  0  0  0  0  0
   -0.5798    5.2265    5.7046 N   0  0  0  0  0  0  0  0  0  0  0  0
   -0.9239    3.9415    5.8863 C   0  0  0  0  0  0  0  0  0  0  0  0
   -1.7538    3.3742    4.8931 C   0  0  0  0  0  0  0  0  0  0  0  0
   -2.0879    2.0103    4.9497 C   0  0  0  0  0  0  0  0  0  0  0  0
   -1.6920    1.2518    6.0578 C   0  0  0  0  0  0  0  0  0  0  0  0
   -0.9399    1.8280    7.1096 C   0  0  0  0  0  0  0  0  0  0  0  0
   -0.4489    3.1636    7.0148 C   0  0  0  0  0  0  0  0  0  0  0  0
    0.2702    2.3859   10.0713 N   0  0  0  0  0  0  0  0  0  0  0  0
   -0.7174    3.3870   10.4797 C   0  0  0  0  0  0  0  0  0  0  0  0
    0.8193    1.9125   11.3809 C   0  0  0  0  0  0  0  0  0  0  0  0
    2.4782    6.9232   10.8411 H   0  0  0  0  0  0  0  0  0  0  0  0
    3.8321    5.8596   10.7089 H   0  0  0  0  0  0  0  0  0  0  0  0
    2.6989    5.7004   12.0490 H   0  0  0  0  0  0  0  0  0  0  0  0
    3.8382    3.6873   11.5375 H   0  0  0  0  0  0  0  0  0  0  0  0
    3.8873    1.5489   11.9542 H   0  0  0  0  0  0  0  0  0  0  0  0
    2.3695   -0.9016   10.8077 H   0  0  0  0  0  0  0  0  0  0  0  0
    0.7211   -0.4833   10.8825 H   0  0  0  0  0  0  0  0  0  0  0  0
    1.8956   -0.6682    8.6174 H   0  0  0  0  0  0  0  0  0  0  0  0
    0.5002    0.1427    8.9217 H   0  0  0  0  0  0  0  0  0  0  0  0
    1.2293    0.8593    6.4780 H   0  0  0  0  0  0  0  0  0  0  0  0
    3.0174    2.1505    4.9450 H   0  0  0  0  0  0  0  0  0  0  0  0
    2.0810    3.1240    5.9372 H   0  0  0  0  0  0  0  0  0  0  0  0
    5.5536    1.9000    5.6719 H   0  0  0  0  0  0  0  0  0  0  0  0
    6.0101    3.1712    6.8440 H   0  0  0  0  0  0  0  0  0  0  0  0
    5.1552    3.6124    5.3477 H   0  0  0  0  0  0  0  0  0  0  0  0
    5.6706    0.0021   11.4914 H   0  0  0  0  0  0  0  0  0  0  0  0
    6.0793    1.6948   11.2491 H   0  0  0  0  0  0  0  0  0  0  0  0
    6.6198    0.4866   10.0802 H   0  0  0  0  0  0  0  0  0  0  0  0
    3.7166   -1.0930    9.4688 H   0  0  0  0  0  0  0  0  0  0  0  0
    5.0574    0.4859    7.3079 H   0  0  0  0  0  0  0  0  0  0  0  0
    2.9572   -2.4810    6.6607 H   0  0  0  0  0  0  0  0  0  0  0  0
    1.3720   -1.6053    6.8576 H   0  0  0  0  0  0  0  0  0  0  0  0
    1.5047   -0.5070    4.7791 H   0  0  0  0  0  0  0  0  0  0  0  0
    3.7085    0.3433    4.5731 H   0  0  0  0  0  0  0  0  0  0  0  0
    6.3666   -2.6673    5.4086 H   0  0  0  0  0  0  0  0  0  0  0  0
    5.3115   -2.2123    6.6047 H   0  0  0  0  0  0  0  0  0  0  0  0
    6.3121   -0.9376    5.9363 H   0  0  0  0  0  0  0  0  0  0  0  0
    2.6850    0.2719    2.7104 H   0  0  0  0  0  0  0  0  0  0  0  0
    2.8455   -0.0880    0.9946 H   0  0  0  0  0  0  0  0  0  0  0  0
    4.2609    0.4655    1.9198 H   0  0  0  0  0  0  0  0  0  0  0  0
    4.6394   -3.2268    1.0657 H   0  0  0  0  0  0  0  0  0  0  0  0
    5.1120   -1.6325    0.5606 H   0  0  0  0  0  0  0  0  0  0  0  0
    3.5068   -2.2287    0.1378 H   0  0  0  0  0  0  0  0  0  0  0  0
    2.2951   -4.1442    1.4780 H   0  0  0  0  0  0  0  0  0  0  0  0
    1.5663    5.6822    8.1902 H   0  0  0  0  0  0  0  0  0  0  0  0
    0.4448    6.8553    6.4590 H   0  0  0  0  0  0  0  0  0  0  0  0
   -2.0700    3.9738    4.0598 H   0  0  0  0  0  0  0  0  0  0  0  0
   -2.6390    1.5880    4.1044 H   0  0  0  0  0  0  0  0  0  0  0  0
   -1.9286    0.1914    6.0700 H   0  0  0  0  0  0  0  0  0  0  0  0
   -0.7003    1.2414    7.9697 H   0  0  0  0  0  0  0  0  0  0  0  0
   -1.4365    2.9579   11.1887 H   0  0  0  0  0  0  0  0  0  0  0  0
   -1.2920    3.7750    9.6338 H   0  0  0  0  0  0  0  0  0  0  0  0
   -0.2446    4.2368   10.9794 H   0  0  0  0  0  0  0  0  0  0  0  0
    0.0223    1.3559   11.8688 H   0  0  0  0  0  0  0  0  0  0  0  0
    1.0012    2.7363   12.0768 H   0  0  0  0  0  0  0  0  0  0  0  0
  1  2  1  0
  1 51  1  0
  1 52  1  0
  1 53  1  0
  2  3  1  0
  3 37  1  0
  3  4  2  0
  4  5  1  0
  4 54  1  0
  5 17  1  0
  5  6  1  0
  5 55  1  1
  6 50  1  0
  6  7  1  0
  7  8  1  0
  7 56  1  0
  7 57  1  0
  9  8  1  1
  8 58  1  0
  8 59  1  0
  9 15  1  0
  9 10  1  0
  9 37  1  0
 10 21  1  0
 10 11  1  0
 10 60  1  6
 11 12  1  0
 11 61  1  0
 11 62  1  0
 12 15  1  0
 12 13  1  6
 12 14  1  0
 13 63  1  0
 13 64  1  0
 13 65  1  0
 15 14  1  1
 15 16  1  0
 16 17  1  0
 17 18  1  1
 17 19  1  0
 18 66  1  0
 18 67  1  0
 18 68  1  0
 19 20  2  3
 19 69  1  0
 20 21  1  0
 20 70  1  0
 21 24  1  0
 21 22  1  1
 22 23  1  0
 22 71  1  0
 22 72  1  0
 23 36  1  0
 23 24  1  0
 23 73  1  1
 24 25  1  0
 24 74  1  6
 25 26  1  0
 25 27  1  0
 26 75  1  0
 26 76  1  0
 26 77  1  0
 27 28  2  0
 27 29  1  0
 29 30  1  0
 29 31  1  0
 29 32  1  0
 30 78  1  0
 30 79  1  0
 30 80  1  0
 31 81  1  0
 31 82  1  0
 31 83  1  0
 32 36  1  0
 32 33  2  0
 33 34  1  0
 33 84  1  0
 34 35  2  0
 35 36  1  0
 37 38  1  6
 37 48  1  0
 38 47  1  0
 38 39  2  0
 39 40  1  0
 39 85  1  0
 40 41  2  0
 40 86  1  0
 41 42  1  0
 42 47  2  0
 42 43  1  0
 43 44  2  0
 43 87  1  0
 44 45  1  0
 44 88  1  0
 45 46  2  0
 45 89  1  0
 46 47  1  0
 46 90  1  0
 48 49  1  0
 48 50  1  0
 49 91  1  0
 49 92  1  0
 49 93  1  0
 50 94  1  0
 50 95  1  0
M  END
>  <i_m_ct_stereo_status>  (27) 
1

>  <s_m_source_file>  (27) 
/var/tmp/pbs.5076255.sched01/tmpd0mq1ayv/02wja6gfv.sdf

>  <i_m_source_file_index>  (27) 
9

>  <i_lp_mmshare_version>  (27) 
48012

>  <i_f3d_flags>  (27) 
2

>  <s_epik_input>  (27) 
W2NIXTFbY0hdW2NIXVtjSF1jKGMxMiljKFtjSF1bY0hdbjIpW0NAXTMoQyg9W0NIXTQpT1tDSDNdKU4oW0NIM10pW0NIMl1OKFtDSDJdW0NIMl01KVtDQEBIXTRbQ0BdKE82KShbQ0gzXSkvW0NIXT1bQ0hdXFtDQF03KFtDQEhdOFtDSDJdW0NAQF0oTzkpKFtDSDNdKVtDQF02OVtDQEBdMzU4KVtDQEhdMVtDQEBIXShbQ0gyXTcpbjJjKFtjSF1ubjIpQyhbQ0gzXSkoW0NIM10pQyg9TylOMVtDSDNd

>  <s_epik_cmdline>  (27) 
J2VwaWtfcHl0aG9uJywgJy1waHQnLCAnMi4wJywgJy1waCcsICc3LjAnLCAnLXRuJywgJzgnLCAnLW1hJywgJzIwMCcsICctaW1hZScsICc8aW5maWxlLm1hZT4nLCAnLW9tYWUnLCAnPG91dGZpbGUubWFlPic=

>  <r_lp_tautomer_probability>  (27) 
1

>  <r_epik_Ionization_Penalty>  (27) 
1.74054

>  <r_epik_Ionization_Penalty_Charging>  (27) 
0

>  <r_epik_Ionization_Penalty_Neutral>  (27) 
1.74054

>  <r_epik_State_Penalty>  (27) 
1.77388

>  <r_epik_Charging_Adjusted_Penalty>  (27) 
1.77388

>  <i_epik_Tot_Q>  (27) 
0

>  <i_epik_Tot_abs_Q>  (27) 
0

>  <s_epik_Chemistry_Notes>  (27) 
This compound contains an acetal/aminal-like group ( X-CH(R)-Y where X, Y are N, S, or O) that may be acid/base labile, releasing an aldehyde.

>  <s_lp_Force_Field>  (27) 
OPLS3e

>  <r_lp_Energy>  (27) 
296.123

>  <b_lp_Chiralities_Consistent>  (27) 
0

>  <s_lp_Variant>  (27) 
4:0-4

>  <s_i_glide_gridfile>  (27) 
pfpi4k_grid

>  <i_i_glide_lignum>  (27) 
9

>  <i_i_glide_rotatable_bonds>  (27) 
2

>  <r_i_docking_score>  (27) 
-0.715597

>  <r_i_glide_ligand_efficiency>  (27) 
-0.0143119

>  <r_i_glide_ligand_efficiency_sa>  (27) 
-0.0527256

>  <r_i_glide_ligand_efficiency_ln>  (27) 
-0.145683

>  <r_i_glide_gscore>  (27) 
-0.715597

>  <r_i_glide_lipo>  (27) 
-0.0273307

>  <r_i_glide_hbond>  (27) 
0

>  <r_i_glide_metal>  (27) 
-0

>  <r_i_glide_rewards>  (27) 
-0.124185

>  <r_i_glide_evdw>  (27) 
-12.0717

>  <r_i_glide_ecoul>  (27) 
0.0863848

>  <r_i_glide_erotb>  (27) 
0.0467278

>  <r_i_glide_esite>  (27) 
-0.0201816

>  <r_i_glide_emodel>  (27) 
-7.59984

>  <r_i_glide_energy>  (27) 
-11.9853

>  <r_i_glide_einternal>  (27) 
5.32635

>  <r_i_glide_intrahb_reward>  (27) 
-0

>  <i_i_glide_confnum>  (27) 
3

>  <i_i_glide_posenum>  (27) 
13

>  <r_i_glide_eff_state_penalty>  (27) 
0

>  <ligand_id>  (27) 
4

>  <original_smiles>  (27) 
COC1=CC2N3CCC4(C5CC6(C)OC64OC2(C)C=CC52CC4C2N(C)C(=O)C(C)(C)c2cnnn24)C1(c1ccnc2ccccc12)N(C)C3

>  <smiles>  (27) 
[H]C1=C(OC([H])([H])[H])C2(c3c([H])c([H])nc4c([H])c([H])c([H])c([H])c34)N(C([H])([H])[H])C([H])([H])N3C([H])([H])C([H])([H])C24C25OC(C([H])([H])[H])(C([H])=C([H])C6(C([H])([H])C7([H])n8nnc([H])c8C(C([H])([H])[H])(C([H])([H])[H])C(=O)N(C([H])([H])[H])C76[H])C4([H])C([H])([H])C2(C([H])([H])[H])O5)C13[H]

$$$$
4:4:0
     RDKit          3D

 97107  0  0  1  0  0  0  0  0999 V2000
    4.2336  -12.3037    4.5951 C   0  0  0  0  0  0  0  0  0  0  0  0
    4.1668  -11.0007    4.0177 O   0  0  0  0  0  0  0  0  0  0  0  0
    3.1384  -10.1552    4.3800 C   0  0  0  0  0  0  0  0  0  0  0  0
    2.1536  -10.5198    5.2674 C   0  0  0  0  0  0  0  0  0  0  0  0
    0.8922   -9.6751    5.5649 C   0  0  2  0  0  0  0  0  0  0  0  0
    0.2605   -9.3403    4.2291 N   0  0  1  0  0  0  0  0  0  0  0  0
   -0.0940   -7.9621    4.0642 C   0  0  0  0  0  0  0  0  0  0  0  0
    1.1667   -7.0929    4.1320 C   0  0  0  0  0  0  0  0  0  0  0  0
    2.6399   -7.5576    4.6817 C   0  0  1  0  0  0  0  0  0  0  0  0
    3.2173   -6.0663    4.9859 C   0  0  2  0  0  0  0  0  0  0  0  0
    4.6070   -6.2293    5.6577 C   0  0  0  0  0  0  0  0  0  0  0  0
    4.3942   -7.3435    6.6206 C   0  0  2  0  0  0  0  0  0  0  0  0
    4.9247   -7.2172    8.0420 C   0  0  0  0  0  0  0  0  0  0  0  0
    4.5074   -8.6383    6.1087 O   0  0  0  0  0  0  0  0  0  0  0  0
    3.1736   -8.0943    6.1040 C   0  0  2  0  0  0  0  0  0  0  0  0
    2.3661   -8.6602    7.1359 O   0  0  0  0  0  0  0  0  0  0  0  0
    0.9990   -8.6119    6.8463 C   0  0  2  0  0  0  0  0  0  0  0  0
    0.3133   -9.2356    8.0723 C   0  0  0  0  0  0  0  0  0  0  0  0
    0.6659   -7.0553    6.8470 C   0  0  0  0  0  0  0  0  0  0  0  0
    1.5873   -6.0603    7.0828 C   0  0  0  0  0  0  0  0  0  0  0  0
    2.2857   -5.1513    5.9854 C   0  0  2  0  0  0  0  0  0  0  0  0
    1.3003   -4.1330    5.3117 C   0  0  0  0  0  0  0  0  0  0  0  0
    2.0006   -2.9139    5.8733 C   0  0  2  0  0  0  0  0  0  0  0  0
    2.9874   -3.8382    6.5574 C   0  0  1  0  0  0  0  0  0  0  0  0
    3.1446   -3.6432    8.0200 N   0  0  0  0  0  0  0  0  0  0  0  0
    4.5695   -3.6014    8.4001 C   0  0  0  0  0  0  0  0  0  0  0  0
    2.2018   -3.6252    8.9968 C   0  0  0  0  0  0  0  0  0  0  0  0
    2.4511   -4.1461   10.0839 O   0  0  0  0  0  0  0  0  0  0  0  0
    0.8437   -2.8756    8.8709 C   0  0  0  0  0  0  0  0  0  0  0  0
   -0.2870   -3.8978    8.6482 C   0  0  0  0  0  0  0  0  0  0  0  0
    0.5575   -2.2164   10.2455 C   0  0  0  0  0  0  0  0  0  0  0  0
    0.8001   -1.7908    7.8194 C   0  0  0  0  0  0  0  0  0  0  0  0
    0.2352   -0.5446    7.8499 C   0  0  0  0  0  0  0  0  0  0  0  0
    0.3363    0.0471    6.5984 N   0  0  0  0  0  0  0  0  0  0  0  0
    0.9829   -0.7533    5.8132 N   0  0  0  0  0  0  0  0  0  0  0  0
    1.2905   -1.8616    6.5308 N   0  0  0  0  0  0  0  0  0  0  0  0
    3.1504   -8.7447    3.6470 C   0  0  1  0  0  0  0  0  0  0  0  0
    4.5253   -8.2551    3.0300 C   0  0  0  0  0  0  0  0  0  0  0  0
    5.7538   -8.7919    3.5125 C   0  0  0  0  0  0  0  0  0  0  0  0
    6.9991   -8.3424    3.0470 C   0  0  0  0  0  0  0  0  0  0  0  0
    7.0484   -7.3512    2.1453 N   0  0  0  0  0  0  0  0  0  0  0  0
    5.9464   -6.7691    1.6445 C   0  0  0  0  0  0  0  0  0  0  0  0
    6.1208   -5.7238    0.7143 C   0  0  0  0  0  0  0  0  0  0  0  0
    5.0051   -5.1022    0.1341 C   0  0  0  0  0  0  0  0  0  0  0  0
    3.7189   -5.5301    0.4831 C   0  0  0  0  0  0  0  0  0  0  0  0
    3.5479   -6.5704    1.4166 C   0  0  0  0  0  0  0  0  0  0  0  0
    4.6484   -7.2099    2.0444 C   0  0  0  0  0  0  0  0  0  0  0  0
    2.1466   -9.0483    2.5681 N   0  0  0  0  0  0  0  0  0  0  0  0
    2.7066   -9.8221    1.4496 C   0  0  0  0  0  0  0  0  0  0  0  0
    0.9166   -9.8052    2.9535 C   0  0  0  0  0  0  0  0  0  0  0  0
    5.1013  -12.8243    4.1922 H   0  0  0  0  0  0  0  0  0  0  0  0
    3.3616  -12.9057    4.3461 H   0  0  0  0  0  0  0  0  0  0  0  0
    4.3531  -12.2784    5.6790 H   0  0  0  0  0  0  0  0  0  0  0  0
    2.1830  -11.4713    5.7700 H   0  0  0  0  0  0  0  0  0  0  0  0
    0.2027  -10.4418    5.9125 H   0  0  0  0  0  0  0  0  0  0  0  0
   -0.5844   -7.8128    3.1029 H   0  0  0  0  0  0  0  0  0  0  0  0
   -0.8894   -7.7364    4.7669 H   0  0  0  0  0  0  0  0  0  0  0  0
    1.3062   -6.7145    3.1302 H   0  0  0  0  0  0  0  0  0  0  0  0
    0.7258   -6.2141    4.5309 H   0  0  0  0  0  0  0  0  0  0  0  0
    3.3386   -5.5245    4.0476 H   0  0  0  0  0  0  0  0  0  0  0  0
    5.3495   -6.5196    4.9248 H   0  0  0  0  0  0  0  0  0  0  0  0
    5.0288   -5.3624    6.1501 H   0  0  0  0  0  0  0  0  0  0  0  0
    4.3228   -6.5391    8.6475 H   0  0  0  0  0  0  0  0  0  0  0  0
    5.9548   -6.8591    8.0268 H   0  0  0  0  0  0  0  0  0  0  0  0
    4.9183   -8.1902    8.5296 H   0  0  0  0  0  0  0  0  0  0  0  0
   -0.7631   -9.2845    7.9312 H   0  0  0  0  0  0  0  0  0  0  0  0
    0.5014   -8.6602    8.9781 H   0  0  0  0  0  0  0  0  0  0  0  0
    0.6670  -10.2508    8.2543 H   0  0  0  0  0  0  0  0  0  0  0  0
   -0.2056   -6.7620    6.3052 H   0  0  0  0  0  0  0  0  0  0  0  0
    2.3511   -6.3375    7.7849 H   0  0  0  0  0  0  0  0  0  0  0  0
    1.3785   -4.1309    4.2237 H   0  0  0  0  0  0  0  0  0  0  0  0
    0.2557   -4.2000    5.6030 H   0  0  0  0  0  0  0  0  0  0  0  0
    2.5353   -2.4179    5.0576 H   0  0  0  0  0  0  0  0  0  0  0  0
    3.9151   -3.6303    6.0176 H   0  0  0  0  0  0  0  0  0  0  0  0
    4.7373   -3.3681    9.4528 H   0  0  0  0  0  0  0  0  0  0  0  0
    5.1141   -2.8410    7.8378 H   0  0  0  0  0  0  0  0  0  0  0  0
    5.0640   -4.5481    8.2166 H   0  0  0  0  0  0  0  0  0  0  0  0
   -0.2905   -4.2863    7.6364 H   0  0  0  0  0  0  0  0  0  0  0  0
   -1.2717   -3.4603    8.8065 H   0  0  0  0  0  0  0  0  0  0  0  0
   -0.1988   -4.7481    9.3262 H   0  0  0  0  0  0  0  0  0  0  0  0
    1.3222   -1.4760   10.4919 H   0  0  0  0  0  0  0  0  0  0  0  0
    0.5363   -2.9449   11.0574 H   0  0  0  0  0  0  0  0  0  0  0  0
   -0.4082   -1.7106   10.2673 H   0  0  0  0  0  0  0  0  0  0  0  0
   -0.2674   -0.0359    8.6615 H   0  0  0  0  0  0  0  0  0  0  0  0
    5.7911   -9.5421    4.2861 H   0  0  0  0  0  0  0  0  0  0  0  0
    7.9504   -8.7272    3.3917 H   0  0  0  0  0  0  0  0  0  0  0  0
    7.1082   -5.4035    0.4238 H   0  0  0  0  0  0  0  0  0  0  0  0
    5.1345   -4.3112   -0.5949 H   0  0  0  0  0  0  0  0  0  0  0  0
    2.8602   -5.0697    0.0130 H   0  0  0  0  0  0  0  0  0  0  0  0
    2.5413   -6.8772    1.5829 H   0  0  0  0  0  0  0  0  0  0  0  0
    1.9711   -9.9226    0.6544 H   0  0  0  0  0  0  0  0  0  0  0  0
    3.0064  -10.8282    1.7520 H   0  0  0  0  0  0  0  0  0  0  0  0
    3.5668   -9.3510    0.9736 H   0  0  0  0  0  0  0  0  0  0  0  0
    1.0689  -10.8883    2.9808 H   0  0  0  0  0  0  0  0  0  0  0  0
    0.2016   -9.6646    2.1430 H   0  0  0  0  0  0  0  0  0  0  0  0
    7.9672   -7.0299    1.8354 H   0  0  0  0  0  0  0  0  0  0  0  0
   -0.6192   -9.8435    4.2668 H   0  0  0  0  0  0  0  0  0  0  0  0
  1  2  1  0
  1 51  1  0
  1 52  1  0
  1 53  1  0
  2  3  1  0
  3 37  1  0
  3  4  2  0
  4  5  1  0
  4 54  1  0
  5 17  1  0
  5  6  1  0
  5 55  1  1
  6 50  1  0
  6  7  1  0
  6 97  1  1
  7  8  1  0
  7 56  1  0
  7 57  1  0
  9  8  1  1
  8 58  1  0
  8 59  1  0
  9 15  1  0
  9 10  1  0
  9 37  1  0
 10 21  1  0
 10 11  1  0
 10 60  1  6
 11 12  1  0
 11 61  1  0
 11 62  1  0
 12 15  1  0
 12 13  1  1
 12 14  1  0
 13 63  1  0
 13 64  1  0
 13 65  1  0
 15 14  1  6
 15 16  1  0
 16 17  1  0
 17 18  1  1
 17 19  1  0
 18 66  1  0
 18 67  1  0
 18 68  1  0
 19 20  2  3
 19 69  1  0
 20 21  1  0
 20 70  1  0
 21 24  1  0
 21 22  1  6
 22 23  1  0
 22 71  1  0
 22 72  1  0
 23 36  1  0
 23 24  1  0
 23 73  1  6
 24 25  1  0
 24 74  1  6
 25 26  1  0
 25 27  1  0
 26 75  1  0
 26 76  1  0
 26 77  1  0
 27 28  2  0
 27 29  1  0
 29 30  1  0
 29 31  1  0
 29 32  1  0
 30 78  1  0
 30 79  1  0
 30 80  1  0
 31 81  1  0
 31 82  1  0
 31 83  1  0
 32 36  1  0
 32 33  2  0
 33 34  1  0
 33 84  1  0
 34 35  2  0
 35 36  1  0
 37 38  1  6
 37 48  1  0
 38 47  1  0
 38 39  2  0
 39 40  1  0
 39 85  1  0
 40 41  2  0
 40 86  1  0
 41 42  1  0
 41 96  1  0
 42 47  2  0
 42 43  1  0
 43 44  2  0
 43 87  1  0
 44 45  1  0
 44 88  1  0
 45 46  2  0
 45 89  1  0
 46 47  1  0
 46 90  1  0
 48 49  1  0
 48 50  1  0
 49 91  1  0
 49 92  1  0
 49 93  1  0
 50 94  1  0
 50 95  1  0
M  CHG  2   6   1  41   1
M  END
>  <i_m_ct_stereo_status>  (28) 
1

>  <s_m_source_file>  (28) 
/var/tmp/pbs.5076255.sched01/tmpd0mq1ayv/02wja6gfv.sdf

>  <i_m_source_file_index>  (28) 
10

>  <i_lp_mmshare_version>  (28) 
48012

>  <i_f3d_flags>  (28) 
0

>  <s_epik_input>  (28) 
W2NIXTFbY0hdW2NIXVtjSF1jKGMxMiljKFtjSF1bY0hdbjIpW0NAXTMoQyg9W0NIXTQpT1tDSDNdKU4oW0NIM10pW0NIMl1OKFtDSDJdW0NIMl01KVtDQEBIXTRbQ0BdKE82KShbQ0gzXSkvW0NIXT1bQ0hdXFtDQF03KFtDQEhdOFtDSDJdW0NAQF0oTzkpKFtDSDNdKVtDQF02OVtDQEBdMzU4KVtDQEhdMVtDQEBIXShbQ0gyXTcpbjJjKFtjSF1ubjIpQyhbQ0gzXSkoW0NIM10pQyg9TylOMVtDSDNd

>  <s_epik_cmdline>  (28) 
J2VwaWtfcHl0aG9uJywgJy1waHQnLCAnMi4wJywgJy1waCcsICc3LjAnLCAnLXRuJywgJzgnLCAnLW1hJywgJzIwMCcsICctaW1hZScsICc8aW5maWxlLm1hZT4nLCAnLW9tYWUnLCAnPG91dGZpbGUubWFlPic=

>  <r_lp_tautomer_probability>  (28) 
1

>  <r_epik_Ionization_Penalty>  (28) 
3.00116

>  <r_epik_Ionization_Penalty_Charging>  (28) 
3.00114

>  <r_epik_Ionization_Penalty_Neutral>  (28) 
1.28836e-05

>  <r_epik_State_Penalty>  (28) 
2.16732

>  <r_epik_Charging_Adjusted_Penalty>  (28) 
5.16846

>  <i_epik_Tot_Q>  (28) 
2

>  <i_epik_Tot_abs_Q>  (28) 
2

>  <s_epik_Chemistry_Notes>  (28) 
This compound contains an acetal/aminal-like group ( X-CH(R)-Y where X, Y are N, S, or O) that may be acid/base labile, releasing an aldehyde.

>  <s_lp_Force_Field>  (28) 
OPLS3e

>  <r_lp_Energy>  (28) 
317.411

>  <b_lp_Chiralities_Consistent>  (28) 
1

>  <s_lp_Variant>  (28) 
4:0-5

>  <s_i_glide_gridfile>  (28) 
pfpi4k_grid

>  <i_i_glide_lignum>  (28) 
10

>  <i_i_glide_rotatable_bonds>  (28) 
2

>  <r_i_docking_score>  (28) 
-2.88287

>  <r_i_glide_ligand_efficiency>  (28) 
-0.0576575

>  <r_i_glide_ligand_efficiency_sa>  (28) 
-0.212412

>  <r_i_glide_ligand_efficiency_ln>  (28) 
-0.586901

>  <r_i_glide_gscore>  (28) 
-2.88287

>  <r_i_glide_lipo>  (28) 
-0.353075

>  <r_i_glide_hbond>  (28) 
-0.13549

>  <r_i_glide_metal>  (28) 
-0

>  <r_i_glide_rewards>  (28) 
-0.078358

>  <r_i_glide_evdw>  (28) 
-27.3518

>  <r_i_glide_ecoul>  (28) 
-6.12657

>  <r_i_glide_erotb>  (28) 
0.0464681

>  <r_i_glide_esite>  (28) 
-0.0758447

>  <r_i_glide_emodel>  (28) 
-41.0374

>  <r_i_glide_energy>  (28) 
-33.4783

>  <r_i_glide_einternal>  (28) 
0.000843863

>  <r_i_glide_intrahb_reward>  (28) 
-0

>  <i_i_glide_confnum>  (28) 
3

>  <i_i_glide_posenum>  (28) 
40

>  <r_i_glide_eff_state_penalty>  (28) 
0

>  <ligand_id>  (28) 
4

>  <original_smiles>  (28) 
COC1=CC2N3CCC4(C5CC6(C)OC64OC2(C)C=CC52CC4C2N(C)C(=O)C(C)(C)c2cnnn24)C1(c1ccnc2ccccc12)N(C)C3

>  <smiles>  (28) 
[H]C1=C([H])C2(C([H])([H])C3([H])n4nnc([H])c4C(C([H])([H])[H])(C([H])([H])[H])C(=O)N(C([H])([H])[H])C32[H])C2([H])C([H])([H])C3(C([H])([H])[H])OC34OC1(C([H])([H])[H])C1([H])C([H])=C(OC([H])([H])[H])C3(c5c([H])c([H])[n+]([H])c6c([H])c([H])c([H])c([H])c56)N(C([H])([H])[H])C([H])([H])[N+]1([H])C([H])([H])C([H])([H])C342

$$$$
4:4:1
     RDKit          3D

 97107  0  0  1  0  0  0  0  0999 V2000
    4.3064   -7.0315    9.5756 C   0  0  0  0  0  0  0  0  0  0  0  0
    3.5595   -7.2516    8.3819 O   0  0  0  0  0  0  0  0  0  0  0  0
    3.2668   -6.1813    7.5612 C   0  0  0  0  0  0  0  0  0  0  0  0
    3.6176   -4.8874    7.8740 C   0  0  0  0  0  0  0  0  0  0  0  0
    3.1363   -3.6479    7.0816 C   0  0  2  0  0  0  0  0  0  0  0  0
    1.6311   -3.7647    6.9585 N   0  0  1  0  0  0  0  0  0  0  0  0
    1.1116   -3.5255    5.6465 C   0  0  0  0  0  0  0  0  0  0  0  0
    1.6504   -4.5892    4.6919 C   0  0  0  0  0  0  0  0  0  0  0  0
    2.9024   -5.6096    4.9823 C   0  0  1  0  0  0  0  0  0  0  0  0
    3.2275   -5.9681    3.4279 C   0  0  2  0  0  0  0  0  0  0  0  0
    4.4984   -6.8565    3.4077 C   0  0  0  0  0  0  0  0  0  0  0  0
    5.3916   -6.2013    4.4007 C   0  0  2  0  0  0  0  0  0  0  0  0
    6.8544   -5.9694    4.0527 C   0  0  0  0  0  0  0  0  0  0  0  0
    5.1898   -6.5452    5.7404 O   0  0  0  0  0  0  0  0  0  0  0  0
    4.4674   -5.3818    5.2908 C   0  0  2  0  0  0  0  0  0  0  0  0
    5.0531   -4.1732    5.7787 O   0  0  0  0  0  0  0  0  0  0  0  0
    4.1373   -3.1196    5.8576 C   0  0  2  0  0  0  0  0  0  0  0  0
    4.9570   -1.9235    6.3697 C   0  0  0  0  0  0  0  0  0  0  0  0
    3.7495   -2.8294    4.3427 C   0  0  0  0  0  0  0  0  0  0  0  0
    4.2534   -3.5205    3.2645 C   0  0  0  0  0  0  0  0  0  0  0  0
    3.5121   -4.6688    2.4590 C   0  0  2  0  0  0  0  0  0  0  0  0
    2.3060   -4.1417    1.6125 C   0  0  0  0  0  0  0  0  0  0  0  0
    2.9380   -4.4709    0.2768 C   0  0  2  0  0  0  0  0  0  0  0  0
    4.1422   -5.0025    1.0339 C   0  0  1  0  0  0  0  0  0  0  0  0
    5.4523   -4.4259    0.6530 N   0  0  0  0  0  0  0  0  0  0  0  0
    6.4593   -5.4840    0.4724 C   0  0  0  0  0  0  0  0  0  0  0  0
    5.8375   -3.1281    0.5562 C   0  0  0  0  0  0  0  0  0  0  0  0
    6.9846   -2.8162    0.8759 O   0  0  0  0  0  0  0  0  0  0  0  0
    4.9537   -2.0089   -0.0634 C   0  0  0  0  0  0  0  0  0  0  0  0
    4.3697   -1.1243    1.0492 C   0  0  0  0  0  0  0  0  0  0  0  0
    5.8981   -1.0979   -0.8707 C   0  0  0  0  0  0  0  0  0  0  0  0
    3.8723   -2.4783   -1.0024 C   0  0  0  0  0  0  0  0  0  0  0  0
    3.4486   -1.9668   -2.1996 C   0  0  0  0  0  0  0  0  0  0  0  0
    2.3645   -2.6954   -2.6642 N   0  0  0  0  0  0  0  0  0  0  0  0
    2.0524   -3.5718   -1.7648 N   0  0  0  0  0  0  0  0  0  0  0  0
    2.9998   -3.5217   -0.7936 N   0  0  0  0  0  0  0  0  0  0  0  0
    2.4315   -6.5595    6.2576 C   0  0  1  0  0  0  0  0  0  0  0  0
    2.4919   -8.0615    5.7558 C   0  0  0  0  0  0  0  0  0  0  0  0
    3.5606   -8.9105    6.1674 C   0  0  0  0  0  0  0  0  0  0  0  0
    3.6842  -10.2296    5.7039 C   0  0  0  0  0  0  0  0  0  0  0  0
    2.8079  -10.6994    4.8044 N   0  0  0  0  0  0  0  0  0  0  0  0
    1.7815   -9.9728    4.3417 C   0  0  0  0  0  0  0  0  0  0  0  0
    0.9365  -10.5679    3.3839 C   0  0  0  0  0  0  0  0  0  0  0  0
   -0.1594   -9.8550    2.8798 C   0  0  0  0  0  0  0  0  0  0  0  0
   -0.4189   -8.5595    3.3423 C   0  0  0  0  0  0  0  0  0  0  0  0
    0.4230   -7.9731    4.3053 C   0  0  0  0  0  0  0  0  0  0  0  0
    1.5669   -8.6409    4.8136 C   0  0  0  0  0  0  0  0  0  0  0  0
    1.0577   -6.2164    6.7691 N   0  0  0  0  0  0  0  0  0  0  0  0
    0.4730   -7.2435    7.6486 C   0  0  0  0  0  0  0  0  0  0  0  0
    0.9132   -4.9517    7.5451 C   0  0  0  0  0  0  0  0  0  0  0  0
    4.4548   -7.9864   10.0774 H   0  0  0  0  0  0  0  0  0  0  0  0
    3.7759   -6.3848   10.2732 H   0  0  0  0  0  0  0  0  0  0  0  0
    5.2982   -6.6202    9.3835 H   0  0  0  0  0  0  0  0  0  0  0  0
    4.2042   -4.6536    8.7495 H   0  0  0  0  0  0  0  0  0  0  0  0
    3.2068   -2.8690    7.8382 H   0  0  0  0  0  0  0  0  0  0  0  0
    0.0233   -3.5683    5.6596 H   0  0  0  0  0  0  0  0  0  0  0  0
    1.2999   -2.4872    5.3924 H   0  0  0  0  0  0  0  0  0  0  0  0
    0.7894   -5.1867    4.4396 H   0  0  0  0  0  0  0  0  0  0  0  0
    1.6562   -4.0069    3.8046 H   0  0  0  0  0  0  0  0  0  0  0  0
    2.3964   -6.5318    3.0034 H   0  0  0  0  0  0  0  0  0  0  0  0
    4.2661   -7.8615    3.7380 H   0  0  0  0  0  0  0  0  0  0  0  0
    4.9984   -6.9855    2.4559 H   0  0  0  0  0  0  0  0  0  0  0  0
    6.9792   -5.1561    3.3381 H   0  0  0  0  0  0  0  0  0  0  0  0
    7.2871   -6.8763    3.6285 H   0  0  0  0  0  0  0  0  0  0  0  0
    7.4180   -5.7179    4.9491 H   0  0  0  0  0  0  0  0  0  0  0  0
    4.3276   -1.0473    6.5122 H   0  0  0  0  0  0  0  0  0  0  0  0
    5.7461   -1.6458    5.6712 H   0  0  0  0  0  0  0  0  0  0  0  0
    5.4332   -2.1426    7.3250 H   0  0  0  0  0  0  0  0  0  0  0  0
    2.8195   -2.3277    4.1845 H   0  0  0  0  0  0  0  0  0  0  0  0
    5.2670   -3.8478    3.3949 H   0  0  0  0  0  0  0  0  0  0  0  0
    1.4244   -4.7629    1.7638 H   0  0  0  0  0  0  0  0  0  0  0  0
    2.0543   -3.0881    1.7167 H   0  0  0  0  0  0  0  0  0  0  0  0
    2.4203   -5.3352   -0.1505 H   0  0  0  0  0  0  0  0  0  0  0  0
    4.0909   -6.0777    0.8330 H   0  0  0  0  0  0  0  0  0  0  0  0
    7.4136   -5.1244    0.0825 H   0  0  0  0  0  0  0  0  0  0  0  0
    6.1010   -6.2249   -0.2384 H   0  0  0  0  0  0  0  0  0  0  0  0
    6.6790   -6.0115    1.3925 H   0  0  0  0  0  0  0  0  0  0  0  0
    3.5517   -1.6114    1.5660 H   0  0  0  0  0  0  0  0  0  0  0  0
    3.9630   -0.1962    0.6423 H   0  0  0  0  0  0  0  0  0  0  0  0
    5.1224   -0.8648    1.7959 H   0  0  0  0  0  0  0  0  0  0  0  0
    6.3670   -1.6500   -1.6874 H   0  0  0  0  0  0  0  0  0  0  0  0
    6.6775   -0.6774   -0.2370 H   0  0  0  0  0  0  0  0  0  0  0  0
    5.3675   -0.2549   -1.3079 H   0  0  0  0  0  0  0  0  0  0  0  0
    3.8136   -1.1159   -2.7569 H   0  0  0  0  0  0  0  0  0  0  0  0
    4.3463   -8.5802    6.8264 H   0  0  0  0  0  0  0  0  0  0  0  0
    4.4731  -10.9035    6.0088 H   0  0  0  0  0  0  0  0  0  0  0  0
    1.1162  -11.5753    3.0366 H   0  0  0  0  0  0  0  0  0  0  0  0
   -0.8118  -10.3085    2.1433 H   0  0  0  0  0  0  0  0  0  0  0  0
   -1.2819   -8.0279    2.9694 H   0  0  0  0  0  0  0  0  0  0  0  0
    0.1227   -7.0166    4.6619 H   0  0  0  0  0  0  0  0  0  0  0  0
   -0.5492   -6.9714    7.9281 H   0  0  0  0  0  0  0  0  0  0  0  0
    1.0362   -7.3813    8.5757 H   0  0  0  0  0  0  0  0  0  0  0  0
    0.4006   -8.2189    7.1668 H   0  0  0  0  0  0  0  0  0  0  0  0
    1.1712   -5.0643    8.6020 H   0  0  0  0  0  0  0  0  0  0  0  0
   -0.1500   -4.7170    7.5615 H   0  0  0  0  0  0  0  0  0  0  0  0
    2.9242  -11.6556    4.4630 H   0  0  0  0  0  0  0  0  0  0  0  0
    1.2999   -2.9872    7.5083 H   0  0  0  0  0  0  0  0  0  0  0  0
  1  2  1  0
  1 51  1  0
  1 52  1  0
  1 53  1  0
  2  3  1  0
  3 37  1  0
  3  4  2  0
  4  5  1  0
  4 54  1  0
  5 17  1  0
  5  6  1  0
  5 55  1  1
  6 50  1  0
  6  7  1  0
  6 97  1  1
  7  8  1  0
  7 56  1  0
  7 57  1  0
  9  8  1  6
  8 58  1  0
  8 59  1  0
  9 15  1  0
  9 10  1  0
  9 37  1  0
 10 21  1  0
 10 11  1  0
 10 60  1  6
 11 12  1  0
 11 61  1  0
 11 62  1  0
 12 15  1  0
 12 13  1  6
 12 14  1  0
 13 63  1  0
 13 64  1  0
 13 65  1  0
 15 14  1  1
 15 16  1  0
 16 17  1  0
 17 18  1  1
 17 19  1  0
 18 66  1  0
 18 67  1  0
 18 68  1  0
 19 20  2  3
 19 69  1  0
 20 21  1  0
 20 70  1  0
 21 24  1  0
 21 22  1  6
 22 23  1  0
 22 71  1  0
 22 72  1  0
 23 36  1  0
 23 24  1  0
 23 73  1  6
 24 25  1  0
 24 74  1  1
 25 26  1  0
 25 27  1  0
 26 75  1  0
 26 76  1  0
 26 77  1  0
 27 28  2  0
 27 29  1  0
 29 30  1  0
 29 31  1  0
 29 32  1  0
 30 78  1  0
 30 79  1  0
 30 80  1  0
 31 81  1  0
 31 82  1  0
 31 83  1  0
 32 36  1  0
 32 33  2  0
 33 34  1  0
 33 84  1  0
 34 35  2  0
 35 36  1  0
 37 38  1  6
 37 48  1  0
 38 47  1  0
 38 39  2  0
 39 40  1  0
 39 85  1  0
 40 41  2  0
 40 86  1  0
 41 42  1  0
 41 96  1  0
 42 47  2  0
 42 43  1  0
 43 44  2  0
 43 87  1  0
 44 45  1  0
 44 88  1  0
 45 46  2  0
 45 89  1  0
 46 47  1  0
 46 90  1  0
 48 49  1  0
 48 50  1  0
 49 91  1  0
 49 92  1  0
 49 93  1  0
 50 94  1  0
 50 95  1  0
M  CHG  2   6   1  41   1
M  END
>  <i_m_ct_stereo_status>  (29) 
1

>  <s_m_source_file>  (29) 
/var/tmp/pbs.5076255.sched01/tmpd0mq1ayv/02wja6gfv.sdf

>  <i_m_source_file_index>  (29) 
10

>  <i_lp_mmshare_version>  (29) 
48012

>  <i_f3d_flags>  (29) 
0

>  <s_epik_input>  (29) 
W2NIXTFbY0hdW2NIXVtjSF1jKGMxMiljKFtjSF1bY0hdbjIpW0NAXTMoQyg9W0NIXTQpT1tDSDNdKU4oW0NIM10pW0NIMl1OKFtDSDJdW0NIMl01KVtDQEBIXTRbQ0BdKE82KShbQ0gzXSkvW0NIXT1bQ0hdXFtDQF03KFtDQEhdOFtDSDJdW0NAQF0oTzkpKFtDSDNdKVtDQF02OVtDQEBdMzU4KVtDQEhdMVtDQEBIXShbQ0gyXTcpbjJjKFtjSF1ubjIpQyhbQ0gzXSkoW0NIM10pQyg9TylOMVtDSDNd

>  <s_epik_cmdline>  (29) 
J2VwaWtfcHl0aG9uJywgJy1waHQnLCAnMi4wJywgJy1waCcsICc3LjAnLCAnLXRuJywgJzgnLCAnLW1hJywgJzIwMCcsICctaW1hZScsICc8aW5maWxlLm1hZT4nLCAnLW9tYWUnLCAnPG91dGZpbGUubWFlPic=

>  <r_lp_tautomer_probability>  (29) 
1

>  <r_epik_Ionization_Penalty>  (29) 
3.00116

>  <r_epik_Ionization_Penalty_Charging>  (29) 
3.00114

>  <r_epik_Ionization_Penalty_Neutral>  (29) 
1.28836e-05

>  <r_epik_State_Penalty>  (29) 
2.16732

>  <r_epik_Charging_Adjusted_Penalty>  (29) 
5.16846

>  <i_epik_Tot_Q>  (29) 
2

>  <i_epik_Tot_abs_Q>  (29) 
2

>  <s_epik_Chemistry_Notes>  (29) 
This compound contains an acetal/aminal-like group ( X-CH(R)-Y where X, Y are N, S, or O) that may be acid/base labile, releasing an aldehyde.

>  <s_lp_Force_Field>  (29) 
OPLS3e

>  <r_lp_Energy>  (29) 
317.411

>  <b_lp_Chiralities_Consistent>  (29) 
1

>  <s_lp_Variant>  (29) 
4:0-5

>  <s_i_glide_gridfile>  (29) 
pfpi4k_grid

>  <i_i_glide_lignum>  (29) 
10

>  <i_i_glide_rotatable_bonds>  (29) 
2

>  <r_i_docking_score>  (29) 
-2.3506

>  <r_i_glide_ligand_efficiency>  (29) 
-0.0470121

>  <r_i_glide_ligand_efficiency_sa>  (29) 
-0.173194

>  <r_i_glide_ligand_efficiency_ln>  (29) 
-0.478541

>  <r_i_glide_gscore>  (29) 
-2.3506

>  <r_i_glide_lipo>  (29) 
-0.285691

>  <r_i_glide_hbond>  (29) 
0

>  <r_i_glide_metal>  (29) 
-0

>  <r_i_glide_rewards>  (29) 
-0.208196

>  <r_i_glide_evdw>  (29) 
-33.6914

>  <r_i_glide_ecoul>  (29) 
-1.09816

>  <r_i_glide_erotb>  (29) 
0.0464681

>  <r_i_glide_esite>  (29) 
-0.0538924

>  <r_i_glide_emodel>  (29) 
-40.7863

>  <r_i_glide_energy>  (29) 
-34.7895

>  <r_i_glide_einternal>  (29) 
0.086533

>  <r_i_glide_intrahb_reward>  (29) 
-0

>  <i_i_glide_confnum>  (29) 
3

>  <i_i_glide_posenum>  (29) 
9

>  <r_i_glide_eff_state_penalty>  (29) 
0

>  <ligand_id>  (29) 
4

>  <original_smiles>  (29) 
COC1=CC2N3CCC4(C5CC6(C)OC64OC2(C)C=CC52CC4C2N(C)C(=O)C(C)(C)c2cnnn24)C1(c1ccnc2ccccc12)N(C)C3

>  <smiles>  (29) 
[H]C1=C([H])C2(C([H])([H])C3([H])n4nnc([H])c4C(C([H])([H])[H])(C([H])([H])[H])C(=O)N(C([H])([H])[H])C32[H])C2([H])C([H])([H])C3(C([H])([H])[H])OC34OC1(C([H])([H])[H])C1([H])C([H])=C(OC([H])([H])[H])C3(c5c([H])c([H])[n+]([H])c6c([H])c([H])c([H])c([H])c56)N(C([H])([H])[H])C([H])([H])[N+]1([H])C([H])([H])C([H])([H])C342

$$$$
4:4:2
     RDKit          3D

 97107  0  0  1  0  0  0  0  0999 V2000
    3.2634  -11.7160    5.2188 C   0  0  0  0  0  0  0  0  0  0  0  0
    3.9412  -10.5758    4.6951 O   0  0  0  0  0  0  0  0  0  0  0  0
    3.1931   -9.5237    4.1969 C   0  0  0  0  0  0  0  0  0  0  0  0
    1.8209   -9.5239    4.1864 C   0  0  0  0  0  0  0  0  0  0  0  0
    0.9640   -8.4591    3.4589 C   0  0  2  0  0  0  0  0  0  0  0  0
    1.4977   -8.3658    2.0467 N   0  0  1  0  0  0  0  0  0  0  0  0
    1.7053   -7.0337    1.5768 C   0  0  0  0  0  0  0  0  0  0  0  0
    2.7793   -6.3562    2.4244 C   0  0  0  0  0  0  0  0  0  0  0  0
    3.3469   -6.8825    3.8690 C   0  0  1  0  0  0  0  0  0  0  0  0
    3.9556   -5.4603    4.3769 C   0  0  2  0  0  0  0  0  0  0  0  0
    4.4587   -5.6477    5.8321 C   0  0  0  0  0  0  0  0  0  0  0  0
    3.3824   -6.4598    6.4599 C   0  0  2  0  0  0  0  0  0  0  0  0
    2.8610   -6.0740    7.8374 C   0  0  0  0  0  0  0  0  0  0  0  0
    3.4419   -7.8443    6.2734 O   0  0  0  0  0  0  0  0  0  0  0  0
    2.6550   -7.1389    5.3012 C   0  0  2  0  0  0  0  0  0  0  0  0
    1.2598   -7.3235    5.5359 O   0  0  0  0  0  0  0  0  0  0  0  0
    0.4952   -7.1501    4.3777 C   0  0  2  0  0  0  0  0  0  0  0  0
   -0.9617   -7.3592    4.8225 C   0  0  0  0  0  0  0  0  0  0  0  0
    0.6672   -5.6050    4.0315 C   0  0  0  0  0  0  0  0  0  0  0  0
    1.4332   -4.7214    4.7567 C   0  0  0  0  0  0  0  0  0  0  0  0
    2.8878   -4.2101    4.3810 C   0  0  2  0  0  0  0  0  0  0  0  0
    2.8964   -3.2514    3.1371 C   0  0  0  0  0  0  0  0  0  0  0  0
    3.3498   -2.0431    3.9317 C   0  0  2  0  0  0  0  0  0  0  0  0
    3.3559   -2.9091    5.1770 C   0  0  1  0  0  0  0  0  0  0  0  0
    2.5543   -2.3984    6.3214 N   0  0  0  0  0  0  0  0  0  0  0  0
    3.3357   -2.4639    7.5717 C   0  0  0  0  0  0  0  0  0  0  0  0
    1.2595   -2.0053    6.3630 C   0  0  0  0  0  0  0  0  0  0  0  0
    0.5767   -2.2770    7.3559 O   0  0  0  0  0  0  0  0  0  0  0  0
    0.5854   -1.1250    5.2808 C   0  0  0  0  0  0  0  0  0  0  0  0
   -0.3384   -1.9953    4.4219 C   0  0  0  0  0  0  0  0  0  0  0  0
   -0.3380   -0.1233    6.0148 C   0  0  0  0  0  0  0  0  0  0  0  0
    1.5304   -0.3313    4.4097 C   0  0  0  0  0  0  0  0  0  0  0  0
    1.4345    0.9422    3.9316 C   0  0  0  0  0  0  0  0  0  0  0  0
    2.5052    1.2059    3.0793 N   0  0  0  0  0  0  0  0  0  0  0  0
    3.2565    0.1580    3.0167 N   0  0  0  0  0  0  0  0  0  0  0  0
    2.7019   -0.7763    3.8299 N   0  0  0  0  0  0  0  0  0  0  0  0
    4.0658   -8.3415    3.5756 C   0  0  1  0  0  0  0  0  0  0  0  0
    5.5710   -8.2115    4.0447 C   0  0  0  0  0  0  0  0  0  0  0  0
    5.9920   -8.8116    5.2676 C   0  0  0  0  0  0  0  0  0  0  0  0
    7.2998   -8.6729    5.7569 C   0  0  0  0  0  0  0  0  0  0  0  0
    8.1795   -7.9133    5.0828 N   0  0  0  0  0  0  0  0  0  0  0  0
    7.8714   -7.2960    3.9377 C   0  0  0  0  0  0  0  0  0  0  0  0
    8.8710   -6.5092    3.3296 C   0  0  0  0  0  0  0  0  0  0  0  0
    8.6115   -5.8530    2.1198 C   0  0  0  0  0  0  0  0  0  0  0  0
    7.3593   -5.9927    1.5098 C   0  0  0  0  0  0  0  0  0  0  0  0
    6.3657   -6.7871    2.1164 C   0  0  0  0  0  0  0  0  0  0  0  0
    6.5732   -7.4364    3.3585 C   0  0  0  0  0  0  0  0  0  0  0  0
    3.9832   -8.7438    2.1299 N   0  0  0  0  0  0  0  0  0  0  0  0
    4.9043   -9.8383    1.7677 C   0  0  0  0  0  0  0  0  0  0  0  0
    2.6628   -9.2115    1.6202 C   0  0  0  0  0  0  0  0  0  0  0  0
    3.9998  -12.4308    5.5852 H   0  0  0  0  0  0  0  0  0  0  0  0
    2.6803  -12.2248    4.4512 H   0  0  0  0  0  0  0  0  0  0  0  0
    2.6183  -11.4673    6.0620 H   0  0  0  0  0  0  0  0  0  0  0  0
    1.2458  -10.3210    4.6410 H   0  0  0  0  0  0  0  0  0  0  0  0
    0.0426   -9.0099    3.2876 H   0  0  0  0  0  0  0  0  0  0  0  0
    2.0243   -7.0329    0.5397 H   0  0  0  0  0  0  0  0  0  0  0  0
    0.7443   -6.5396    1.5115 H   0  0  0  0  0  0  0  0  0  0  0  0
    3.6246   -6.2466    1.7648 H   0  0  0  0  0  0  0  0  0  0  0  0
    2.4426   -5.3539    2.3391 H   0  0  0  0  0  0  0  0  0  0  0  0
    4.7945   -5.1755    3.7447 H   0  0  0  0  0  0  0  0  0  0  0  0
    5.3812   -6.2096    5.8420 H   0  0  0  0  0  0  0  0  0  0  0  0
    4.6655   -4.7568    6.4131 H   0  0  0  0  0  0  0  0  0  0  0  0
    2.2193   -5.1934    7.8044 H   0  0  0  0  0  0  0  0  0  0  0  0
    3.6946   -5.8785    8.5126 H   0  0  0  0  0  0  0  0  0  0  0  0
    2.2778   -6.8920    8.2594 H   0  0  0  0  0  0  0  0  0  0  0  0
   -1.6547   -7.2870    3.9863 H   0  0  0  0  0  0  0  0  0  0  0  0
   -1.2591   -6.6069    5.5531 H   0  0  0  0  0  0  0  0  0  0  0  0
   -1.1003   -8.3429    5.2737 H   0  0  0  0  0  0  0  0  0  0  0  0
    0.4934   -5.3297    3.0156 H   0  0  0  0  0  0  0  0  0  0  0  0
    1.4402   -4.9239    5.8109 H   0  0  0  0  0  0  0  0  0  0  0  0
    3.6635   -3.5187    2.4084 H   0  0  0  0  0  0  0  0  0  0  0  0
    1.9473   -3.0967    2.6266 H   0  0  0  0  0  0  0  0  0  0  0  0
    4.3940   -1.8405    3.6716 H   0  0  0  0  0  0  0  0  0  0  0  0
    4.4247   -2.9679    5.4046 H   0  0  0  0  0  0  0  0  0  0  0  0
    2.8309   -2.0113    8.4257 H   0  0  0  0  0  0  0  0  0  0  0  0
    4.2926   -1.9434    7.4843 H   0  0  0  0  0  0  0  0  0  0  0  0
    3.5568   -3.4862    7.8561 H   0  0  0  0  0  0  0  0  0  0  0  0
    0.2097   -2.6106    3.7170 H   0  0  0  0  0  0  0  0  0  0  0  0
   -1.0012   -1.3683    3.8265 H   0  0  0  0  0  0  0  0  0  0  0  0
   -0.9546   -2.6610    5.0284 H   0  0  0  0  0  0  0  0  0  0  0  0
    0.2388    0.5398    6.6623 H   0  0  0  0  0  0  0  0  0  0  0  0
   -1.0768   -0.6292    6.6344 H   0  0  0  0  0  0  0  0  0  0  0  0
   -0.8993    0.4980    5.3168 H   0  0  0  0  0  0  0  0  0  0  0  0
    0.6720    1.6954    4.1045 H   0  0  0  0  0  0  0  0  0  0  0  0
    5.3224   -9.3721    5.9027 H   0  0  0  0  0  0  0  0  0  0  0  0
    7.6503   -9.1210    6.6771 H   0  0  0  0  0  0  0  0  0  0  0  0
    9.8505   -6.4092    3.7690 H   0  0  0  0  0  0  0  0  0  0  0  0
    9.3891   -5.2547    1.6564 H   0  0  0  0  0  0  0  0  0  0  0  0
    7.1634   -5.5046    0.5633 H   0  0  0  0  0  0  0  0  0  0  0  0
    5.4677   -6.8998    1.5567 H   0  0  0  0  0  0  0  0  0  0  0  0
    4.8715  -10.0271    0.6908 H   0  0  0  0  0  0  0  0  0  0  0  0
    4.6713  -10.7836    2.2710 H   0  0  0  0  0  0  0  0  0  0  0  0
    5.9506   -9.6094    1.9808 H   0  0  0  0  0  0  0  0  0  0  0  0
    2.4662  -10.2672    1.8294 H   0  0  0  0  0  0  0  0  0  0  0  0
    2.7245   -9.1825    0.5362 H   0  0  0  0  0  0  0  0  0  0  0  0
    9.1204   -7.7989    5.4637 H   0  0  0  0  0  0  0  0  0  0  0  0
    0.7430   -8.7277    1.4837 H   0  0  0  0  0  0  0  0  0  0  0  0
  1  2  1  0
  1 51  1  0
  1 52  1  0
  1 53  1  0
  2  3  1  0
  3 37  1  0
  3  4  2  0
  4  5  1  0
  4 54  1  0
  5 17  1  0
  5  6  1  0
  5 55  1  6
  6 50  1  0
  6  7  1  0
  6 97  1  6
  7  8  1  0
  7 56  1  0
  7 57  1  0
  9  8  1  6
  8 58  1  0
  8 59  1  0
  9 15  1  0
  9 10  1  0
  9 37  1  0
 10 21  1  0
 10 11  1  0
 10 60  1  6
 11 12  1  0
 11 61  1  0
 11 62  1  0
 12 15  1  0
 12 13  1  1
 12 14  1  0
 13 63  1  0
 13 64  1  0
 13 65  1  0
 15 14  1  1
 15 16  1  0
 16 17  1  0
 17 18  1  1
 17 19  1  0
 18 66  1  0
 18 67  1  0
 18 68  1  0
 19 20  2  3
 19 69  1  0
 20 21  1  0
 20 70  1  0
 21 24  1  0
 21 22  1  6
 22 23  1  0
 22 71  1  0
 22 72  1  0
 23 36  1  0
 23 24  1  0
 23 73  1  6
 24 25  1  0
 24 74  1  1
 25 26  1  0
 25 27  1  0
 26 75  1  0
 26 76  1  0
 26 77  1  0
 27 28  2  0
 27 29  1  0
 29 30  1  0
 29 31  1  0
 29 32  1  0
 30 78  1  0
 30 79  1  0
 30 80  1  0
 31 81  1  0
 31 82  1  0
 31 83  1  0
 32 36  1  0
 32 33  2  0
 33 34  1  0
 33 84  1  0
 34 35  2  0
 35 36  1  0
 37 38  1  1
 37 48  1  0
 38 47  1  0
 38 39  2  0
 39 40  1  0
 39 85  1  0
 40 41  2  0
 40 86  1  0
 41 42  1  0
 41 96  1  0
 42 47  2  0
 42 43  1  0
 43 44  2  0
 43 87  1  0
 44 45  1  0
 44 88  1  0
 45 46  2  0
 45 89  1  0
 46 47  1  0
 46 90  1  0
 48 49  1  0
 48 50  1  0
 49 91  1  0
 49 92  1  0
 49 93  1  0
 50 94  1  0
 50 95  1  0
M  CHG  2   6   1  41   1
M  END
>  <i_m_ct_stereo_status>  (30) 
1

>  <s_m_source_file>  (30) 
/var/tmp/pbs.5076255.sched01/tmpd0mq1ayv/02wja6gfv.sdf

>  <i_m_source_file_index>  (30) 
10

>  <i_lp_mmshare_version>  (30) 
48012

>  <i_f3d_flags>  (30) 
0

>  <s_epik_input>  (30) 
W2NIXTFbY0hdW2NIXVtjSF1jKGMxMiljKFtjSF1bY0hdbjIpW0NAXTMoQyg9W0NIXTQpT1tDSDNdKU4oW0NIM10pW0NIMl1OKFtDSDJdW0NIMl01KVtDQEBIXTRbQ0BdKE82KShbQ0gzXSkvW0NIXT1bQ0hdXFtDQF03KFtDQEhdOFtDSDJdW0NAQF0oTzkpKFtDSDNdKVtDQF02OVtDQEBdMzU4KVtDQEhdMVtDQEBIXShbQ0gyXTcpbjJjKFtjSF1ubjIpQyhbQ0gzXSkoW0NIM10pQyg9TylOMVtDSDNd

>  <s_epik_cmdline>  (30) 
J2VwaWtfcHl0aG9uJywgJy1waHQnLCAnMi4wJywgJy1waCcsICc3LjAnLCAnLXRuJywgJzgnLCAnLW1hJywgJzIwMCcsICctaW1hZScsICc8aW5maWxlLm1hZT4nLCAnLW9tYWUnLCAnPG91dGZpbGUubWFlPic=

>  <r_lp_tautomer_probability>  (30) 
1

>  <r_epik_Ionization_Penalty>  (30) 
3.00116

>  <r_epik_Ionization_Penalty_Charging>  (30) 
3.00114

>  <r_epik_Ionization_Penalty_Neutral>  (30) 
1.28836e-05

>  <r_epik_State_Penalty>  (30) 
2.16732

>  <r_epik_Charging_Adjusted_Penalty>  (30) 
5.16846

>  <i_epik_Tot_Q>  (30) 
2

>  <i_epik_Tot_abs_Q>  (30) 
2

>  <s_epik_Chemistry_Notes>  (30) 
This compound contains an acetal/aminal-like group ( X-CH(R)-Y where X, Y are N, S, or O) that may be acid/base labile, releasing an aldehyde.

>  <s_lp_Force_Field>  (30) 
OPLS3e

>  <r_lp_Energy>  (30) 
317.411

>  <b_lp_Chiralities_Consistent>  (30) 
1

>  <s_lp_Variant>  (30) 
4:0-5

>  <s_i_glide_gridfile>  (30) 
pfpi4k_grid

>  <i_i_glide_lignum>  (30) 
10

>  <i_i_glide_rotatable_bonds>  (30) 
2

>  <r_i_docking_score>  (30) 
-2.255

>  <r_i_glide_ligand_efficiency>  (30) 
-0.0451

>  <r_i_glide_ligand_efficiency_sa>  (30) 
-0.16615

>  <r_i_glide_ligand_efficiency_ln>  (30) 
-0.459078

>  <r_i_glide_gscore>  (30) 
-2.255

>  <r_i_glide_lipo>  (30) 
-0.099255

>  <r_i_glide_hbond>  (30) 
0

>  <r_i_glide_metal>  (30) 
-0

>  <r_i_glide_rewards>  (30) 
0

>  <r_i_glide_evdw>  (30) 
-29.364

>  <r_i_glide_ecoul>  (30) 
-4.5829

>  <r_i_glide_erotb>  (30) 
0.0464681

>  <r_i_glide_esite>  (30) 
-0.0465782

>  <r_i_glide_emodel>  (30) 
-39.6722

>  <r_i_glide_energy>  (30) 
-33.9469

>  <r_i_glide_einternal>  (30) 
0.101427

>  <r_i_glide_intrahb_reward>  (30) 
-0

>  <i_i_glide_confnum>  (30) 
3

>  <i_i_glide_posenum>  (30) 
32

>  <r_i_glide_eff_state_penalty>  (30) 
0

>  <ligand_id>  (30) 
4

>  <original_smiles>  (30) 
COC1=CC2N3CCC4(C5CC6(C)OC64OC2(C)C=CC52CC4C2N(C)C(=O)C(C)(C)c2cnnn24)C1(c1ccnc2ccccc12)N(C)C3

>  <smiles>  (30) 
[H]C1=C([H])C2(C([H])([H])C3([H])n4nnc([H])c4C(C([H])([H])[H])(C([H])([H])[H])C(=O)N(C([H])([H])[H])C32[H])C2([H])C([H])([H])C3(C([H])([H])[H])OC34OC1(C([H])([H])[H])C1([H])C([H])=C(OC([H])([H])[H])C3(c5c([H])c([H])[n+]([H])c6c([H])c([H])c([H])c([H])c56)N(C([H])([H])[H])C([H])([H])[N+]1([H])C([H])([H])C([H])([H])C342

$$$$
5:0:0
     RDKit          3D

 39 43  0  0  1  0  0  0  0  0999 V2000
    5.8977   -0.5277    0.5125 C   0  0  0  0  0  0  0  0  0  0  0  0
    5.2559   -1.8600    0.1856 C   0  0  2  0  0  0  0  0  0  0  0  0
    6.1035   -3.0134    0.7242 C   0  0  1  0  0  0  0  0  0  0  0  0
    5.6561   -3.5125    1.9959 N   0  0  0  0  0  0  0  0  0  0  0  0
    5.3703   -4.8099    1.9517 C   0  0  0  0  0  0  0  0  0  0  0  0
    5.1430   -5.5078    2.9196 O   0  0  0  0  0  0  0  0  0  0  0  0
    5.3542   -5.2084    0.6796 N   0  0  0  0  0  0  0  0  0  0  0  0
    5.8725   -4.1988   -0.2114 C   0  0  1  0  0  0  0  0  0  0  0  0
    4.8726   -3.6978   -1.2563 C   0  0  2  0  0  0  0  0  0  0  0  0
    5.0216   -4.2244   -2.6750 C   0  0  0  0  0  0  0  0  0  0  0  0
    3.8524   -3.7546   -3.5594 C   0  0  0  0  0  0  0  0  0  0  0  0
    3.7109   -2.2457   -3.4740 C   0  0  1  0  0  0  0  0  0  0  0  0
    2.4604   -1.7012   -4.0465 C   0  0  0  0  0  0  0  0  0  0  0  0
    2.7327   -0.4805   -4.4855 C   0  0  0  0  0  0  0  0  0  0  0  0
    4.1821   -0.3312   -4.2392 C   0  0  1  0  0  0  0  0  0  0  0  0
    4.4501   -0.2215   -2.7254 C   0  0  0  0  0  0  0  0  0  0  0  0
    3.9971   -1.5456   -2.1320 C   0  0  2  0  0  0  0  0  0  0  0  0
    5.1213   -2.2043   -1.3122 C   0  0  1  0  0  0  0  0  0  0  0  0
    4.6250   -1.6442   -4.3208 O   0  0  0  0  0  0  0  0  0  0  0  0
    6.8675   -0.4262    0.0322 H   0  0  0  0  0  0  0  0  0  0  0  0
    6.0675   -0.3870    1.5800 H   0  0  0  0  0  0  0  0  0  0  0  0
    5.2146    0.2516    0.1977 H   0  0  0  0  0  0  0  0  0  0  0  0
    4.2564   -1.8761    0.6241 H   0  0  0  0  0  0  0  0  0  0  0  0
    7.1658   -2.7692    0.7728 H   0  0  0  0  0  0  0  0  0  0  0  0
    5.6020   -2.9704    2.8535 H   0  0  0  0  0  0  0  0  0  0  0  0
    5.0414   -6.1352    0.4103 H   0  0  0  0  0  0  0  0  0  0  0  0
    6.8221   -4.5062   -0.6349 H   0  0  0  0  0  0  0  0  0  0  0  0
    3.8631   -3.8864   -0.8823 H   0  0  0  0  0  0  0  0  0  0  0  0
    5.9675   -3.9113   -3.1090 H   0  0  0  0  0  0  0  0  0  0  0  0
    5.0330   -5.3072   -2.6060 H   0  0  0  0  0  0  0  0  0  0  0  0
    3.9998   -4.0919   -4.5908 H   0  0  0  0  0  0  0  0  0  0  0  0
    2.9157   -4.1747   -3.2493 H   0  0  0  0  0  0  0  0  0  0  0  0
    1.5603   -2.2816   -4.2152 H   0  0  0  0  0  0  0  0  0  0  0  0
    2.1315    0.1936   -5.0910 H   0  0  0  0  0  0  0  0  0  0  0  0
    4.5531    0.3905   -4.9755 H   0  0  0  0  0  0  0  0  0  0  0  0
    5.4709   -0.0125   -2.4598 H   0  0  0  0  0  0  0  0  0  0  0  0
    3.8162    0.5796   -2.3530 H   0  0  0  0  0  0  0  0  0  0  0  0
    3.0695   -1.4806   -1.5443 H   0  0  0  0  0  0  0  0  0  0  0  0
    6.0853   -2.0622   -1.8159 H   0  0  0  0  0  0  0  0  0  0  0  0
  1  2  1  0
  1 20  1  0
  1 21  1  0
  1 22  1  0
  2 18  1  0
  2  3  1  0
  2 23  1  1
  3  8  1  0
  3  4  1  0
  3 24  1  1
  4  5  1  0
  4 25  1  0
  5  6  2  0
  5  7  1  0
  7  8  1  0
  7 26  1  0
  8  9  1  0
  8 27  1  6
  9 18  1  0
  9 10  1  0
  9 28  1  1
 10 11  1  0
 10 29  1  0
 10 30  1  0
 12 11  1  1
 11 31  1  0
 11 32  1  0
 12 17  1  0
 12 19  1  0
 12 13  1  0
 13 14  2  0
 13 33  1  0
 14 15  1  0
 14 34  1  0
 15 16  1  0
 15 19  1  0
 15 35  1  6
 16 17  1  0
 16 36  1  0
 16 37  1  0
 17 18  1  0
 17 38  1  1
 18 39  1  6
M  END
>  <i_m_ct_stereo_status>  (31) 
1

>  <s_m_source_file>  (31) 
/var/tmp/pbs.5076255.sched01/tmpd0mq1ayv/02wja6gfv.sdf

>  <i_m_source_file_index>  (31) 
11

>  <i_lp_mmshare_version>  (31) 
48012

>  <i_f3d_flags>  (31) 
0

>  <s_epik_input>  (31) 
Tz1DKFtOSF0xKVtOSF1bQ0BIXShbQ0BIXTJbQ0gzXSlbQ0BASF0xW0NASF0oW0NIMl1bQ0gyXTMpW0NASF0yW0NASF0oW0NAQF0zNDUpW0NIMl1bQ0BASF0oTzUpW0NIXT1bQ0hdNA==

>  <s_epik_cmdline>  (31) 
J2VwaWtfcHl0aG9uJywgJy1waHQnLCAnMi4wJywgJy1waCcsICc3LjAnLCAnLXRuJywgJzgnLCAnLW1hJywgJzIwMCcsICctaW1hZScsICc8aW5maWxlLm1hZT4nLCAnLW9tYWUnLCAnPG91dGZpbGUubWFlPic=

>  <r_lp_tautomer_probability>  (31) 
1

>  <r_epik_Ionization_Penalty>  (31) 
7.42544e-05

>  <r_epik_Ionization_Penalty_Charging>  (31) 
0

>  <r_epik_Ionization_Penalty_Neutral>  (31) 
7.42544e-05

>  <r_epik_State_Penalty>  (31) 
-0

>  <r_epik_Charging_Adjusted_Penalty>  (31) 
0

>  <i_epik_Tot_Q>  (31) 
0

>  <i_epik_Tot_abs_Q>  (31) 
0

>  <s_lp_Force_Field>  (31) 
OPLS3e

>  <r_lp_Energy>  (31) 
22.1307

>  <b_lp_Chiralities_Consistent>  (31) 
1

>  <s_lp_Variant>  (31) 
5:0-1

>  <s_i_glide_gridfile>  (31) 
pfpi4k_grid

>  <i_i_glide_lignum>  (31) 
11

>  <i_i_glide_rotatable_bonds>  (31) 
0

>  <r_i_docking_score>  (31) 
-3.48127

>  <r_i_glide_ligand_efficiency>  (31) 
-0.183225

>  <r_i_glide_ligand_efficiency_sa>  (31) 
-0.488917

>  <r_i_glide_ligand_efficiency_ln>  (31) 
-0.882577

>  <r_i_glide_gscore>  (31) 
-3.48127

>  <r_i_glide_lipo>  (31) 
-1.11881

>  <r_i_glide_hbond>  (31) 
-0.32

>  <r_i_glide_metal>  (31) 
-0

>  <r_i_glide_rewards>  (31) 
-1.67731

>  <r_i_glide_evdw>  (31) 
-1.03708

>  <r_i_glide_ecoul>  (31) 
-2.71116

>  <r_i_glide_erotb>  (31) 
0

>  <r_i_glide_esite>  (31) 
0

>  <r_i_glide_emodel>  (31) 
-4.0519

>  <r_i_glide_energy>  (31) 
-3.74824

>  <r_i_glide_einternal>  (31) 
0

>  <r_i_glide_intrahb_reward>  (31) 
-0

>  <i_i_glide_confnum>  (31) 
2

>  <i_i_glide_posenum>  (31) 
38

>  <r_i_glide_eff_state_penalty>  (31) 
0

>  <ligand_id>  (31) 
5

>  <original_smiles>  (31) 
CC1C2NC(=O)NC2C2CCC34C=CC(CC3C12)O4

>  <smiles>  (31) 
[H]C1=C([H])C23OC1([H])C([H])([H])C2([H])C1([H])C([H])(C([H])([H])[H])C2([H])N([H])C(=O)N([H])C2([H])C1([H])C([H])([H])C3([H])[H]

$$$$
5:0:1
     RDKit          3D

 39 43  0  0  1  0  0  0  0  0999 V2000
    2.5024   -0.6297    2.1505 C   0  0  0  0  0  0  0  0  0  0  0  0
    3.1167   -2.0362    2.2183 C   0  0  2  0  0  0  0  0  0  0  0  0
    3.7069   -2.3356    3.6078 C   0  0  1  0  0  0  0  0  0  0  0  0
    2.8497   -3.1323    4.4547 N   0  0  0  0  0  0  0  0  0  0  0  0
    3.4251   -4.2684    4.8334 C   0  0  0  0  0  0  0  0  0  0  0  0
    2.9617   -5.0542    5.6446 O   0  0  0  0  0  0  0  0  0  0  0  0
    4.5711   -4.4192    4.1736 N   0  0  0  0  0  0  0  0  0  0  0  0
    4.9159   -3.2469    3.3980 C   0  0  1  0  0  0  0  0  0  0  0  0
    4.9584   -3.5170    1.8972 C   0  0  2  0  0  0  0  0  0  0  0  0
    6.3384   -3.7564    1.2806 C   0  0  0  0  0  0  0  0  0  0  0  0
    6.1858   -4.0652   -0.2094 C   0  0  0  0  0  0  0  0  0  0  0  0
    5.3199   -3.0132   -0.9413 C   0  0  1  0  0  0  0  0  0  0  0  0
    4.9206   -3.4210   -2.3276 C   0  0  0  0  0  0  0  0  0  0  0  0
    4.7327   -2.2909   -2.9901 C   0  0  0  0  0  0  0  0  0  0  0  0
    5.0166   -1.1808   -2.0020 C   0  0  1  0  0  0  0  0  0  0  0  0
    3.8808   -1.1419   -0.9776 C   0  0  0  0  0  0  0  0  0  0  0  0
    4.0693   -2.4716   -0.2102 C   0  0  2  0  0  0  0  0  0  0  0  0
    4.3203   -2.2700    1.2958 C   0  0  1  0  0  0  0  0  0  0  0  0
    5.9895   -1.7672   -1.1610 O   0  0  0  0  0  0  0  0  0  0  0  0
    3.2514    0.1379    2.3539 H   0  0  0  0  0  0  0  0  0  0  0  0
    1.7106   -0.5256    2.8938 H   0  0  0  0  0  0  0  0  0  0  0  0
    2.0661   -0.4302    1.1710 H   0  0  0  0  0  0  0  0  0  0  0  0
    2.3403   -2.7798    1.9819 H   0  0  0  0  0  0  0  0  0  0  0  0
    4.0037   -1.4210    4.1297 H   0  0  0  0  0  0  0  0  0  0  0  0
    1.9818   -2.8004    4.8668 H   0  0  0  0  0  0  0  0  0  0  0  0
    5.1775   -5.2208    4.3213 H   0  0  0  0  0  0  0  0  0  0  0  0
    5.8202   -2.7749    3.7826 H   0  0  0  0  0  0  0  0  0  0  0  0
    4.3108   -4.3789    1.6815 H   0  0  0  0  0  0  0  0  0  0  0  0
    6.9417   -2.8561    1.3766 H   0  0  0  0  0  0  0  0  0  0  0  0
    6.8633   -4.5724    1.7831 H   0  0  0  0  0  0  0  0  0  0  0  0
    7.1609   -4.1180   -0.6854 H   0  0  0  0  0  0  0  0  0  0  0  0
    5.7260   -5.0483   -0.3284 H   0  0  0  0  0  0  0  0  0  0  0  0
    4.7981   -4.4186   -2.6847 H   0  0  0  0  0  0  0  0  0  0  0  0
    4.4083   -2.1743   -4.0119 H   0  0  0  0  0  0  0  0  0  0  0  0
    5.2707   -0.2395   -2.4716 H   0  0  0  0  0  0  0  0  0  0  0  0
    4.0157   -0.2808   -0.3162 H   0  0  0  0  0  0  0  0  0  0  0  0
    2.9204   -1.0705   -1.4920 H   0  0  0  0  0  0  0  0  0  0  0  0
    3.2323   -3.1645   -0.3630 H   0  0  0  0  0  0  0  0  0  0  0  0
    5.0259   -1.4430    1.4329 H   0  0  0  0  0  0  0  0  0  0  0  0
  1  2  1  0
  1 20  1  0
  1 21  1  0
  1 22  1  0
  2 18  1  0
  2  3  1  0
  2 23  1  6
  3  8  1  0
  3  4  1  0
  3 24  1  1
  4  5  1  0
  4 25  1  0
  5  6  2  0
  5  7  1  0
  7  8  1  0
  7 26  1  0
  8  9  1  0
  8 27  1  1
  9 18  1  0
  9 10  1  0
  9 28  1  1
 10 11  1  0
 10 29  1  0
 10 30  1  0
 12 11  1  1
 11 31  1  0
 11 32  1  0
 12 17  1  0
 12 19  1  0
 12 13  1  0
 13 14  2  0
 13 33  1  0
 14 15  1  0
 14 34  1  0
 15 16  1  0
 15 19  1  0
 15 35  1  6
 16 17  1  0
 16 36  1  0
 16 37  1  0
 17 18  1  0
 17 38  1  1
 18 39  1  6
M  END
>  <i_m_ct_stereo_status>  (32) 
1

>  <s_m_source_file>  (32) 
/var/tmp/pbs.5076255.sched01/tmpd0mq1ayv/02wja6gfv.sdf

>  <i_m_source_file_index>  (32) 
11

>  <i_lp_mmshare_version>  (32) 
48012

>  <i_f3d_flags>  (32) 
0

>  <s_epik_input>  (32) 
Tz1DKFtOSF0xKVtOSF1bQ0BIXShbQ0BIXTJbQ0gzXSlbQ0BASF0xW0NASF0oW0NIMl1bQ0gyXTMpW0NASF0yW0NASF0oW0NAQF0zNDUpW0NIMl1bQ0BASF0oTzUpW0NIXT1bQ0hdNA==

>  <s_epik_cmdline>  (32) 
J2VwaWtfcHl0aG9uJywgJy1waHQnLCAnMi4wJywgJy1waCcsICc3LjAnLCAnLXRuJywgJzgnLCAnLW1hJywgJzIwMCcsICctaW1hZScsICc8aW5maWxlLm1hZT4nLCAnLW9tYWUnLCAnPG91dGZpbGUubWFlPic=

>  <r_lp_tautomer_probability>  (32) 
1

>  <r_epik_Ionization_Penalty>  (32) 
7.42544e-05

>  <r_epik_Ionization_Penalty_Charging>  (32) 
0

>  <r_epik_Ionization_Penalty_Neutral>  (32) 
7.42544e-05

>  <r_epik_State_Penalty>  (32) 
-0

>  <r_epik_Charging_Adjusted_Penalty>  (32) 
0

>  <i_epik_Tot_Q>  (32) 
0

>  <i_epik_Tot_abs_Q>  (32) 
0

>  <s_lp_Force_Field>  (32) 
OPLS3e

>  <r_lp_Energy>  (32) 
22.1307

>  <b_lp_Chiralities_Consistent>  (32) 
1

>  <s_lp_Variant>  (32) 
5:0-1

>  <s_i_glide_gridfile>  (32) 
pfpi4k_grid

>  <i_i_glide_lignum>  (32) 
11

>  <i_i_glide_rotatable_bonds>  (32) 
0

>  <r_i_docking_score>  (32) 
-3.35474

>  <r_i_glide_ligand_efficiency>  (32) 
-0.176565

>  <r_i_glide_ligand_efficiency_sa>  (32) 
-0.471148

>  <r_i_glide_ligand_efficiency_ln>  (32) 
-0.8505

>  <r_i_glide_gscore>  (32) 
-3.35474

>  <r_i_glide_lipo>  (32) 
-0.446681

>  <r_i_glide_hbond>  (32) 
-0.0842709

>  <r_i_glide_metal>  (32) 
-0

>  <r_i_glide_rewards>  (32) 
-1.6341

>  <r_i_glide_evdw>  (32) 
-18.678

>  <r_i_glide_ecoul>  (32) 
-1.70527

>  <r_i_glide_erotb>  (32) 
0

>  <r_i_glide_esite>  (32) 
0

>  <r_i_glide_emodel>  (32) 
-24.5472

>  <r_i_glide_energy>  (32) 
-20.3832

>  <r_i_glide_einternal>  (32) 
0

>  <r_i_glide_intrahb_reward>  (32) 
-0

>  <i_i_glide_confnum>  (32) 
1

>  <i_i_glide_posenum>  (32) 
1

>  <r_i_glide_eff_state_penalty>  (32) 
0

>  <ligand_id>  (32) 
5

>  <original_smiles>  (32) 
CC1C2NC(=O)NC2C2CCC34C=CC(CC3C12)O4

>  <smiles>  (32) 
[H]C1=C([H])C23OC1([H])C([H])([H])C2([H])C1([H])C([H])(C([H])([H])[H])C2([H])N([H])C(=O)N([H])C2([H])C1([H])C([H])([H])C3([H])[H]

$$$$
5:0:2
     RDKit          3D

 39 43  0  0  1  0  0  0  0  0999 V2000
    5.7812   -0.8486    2.3944 C   0  0  0  0  0  0  0  0  0  0  0  0
    4.3547   -1.4063    2.2929 C   0  0  2  0  0  0  0  0  0  0  0  0
    3.9784   -2.2797    3.5152 C   0  0  1  0  0  0  0  0  0  0  0  0
    3.1590   -1.6009    4.4901 N   0  0  0  0  0  0  0  0  0  0  0  0
    1.9843   -2.1752    4.6843 C   0  0  0  0  0  0  0  0  0  0  0  0
    1.1408   -1.8375    5.5021 O   0  0  0  0  0  0  0  0  0  0  0  0
    1.8453   -3.1543    3.7765 N   0  0  0  0  0  0  0  0  0  0  0  0
    3.0361   -3.3757    3.0046 C   0  0  1  0  0  0  0  0  0  0  0  0
    2.8532   -3.0743    1.5097 C   0  0  2  0  0  0  0  0  0  0  0  0
    2.6095   -4.2744    0.6008 C   0  0  0  0  0  0  0  0  0  0  0  0
    2.3441   -3.7653   -0.8222 C   0  0  0  0  0  0  0  0  0  0  0  0
    3.4798   -2.8452   -1.3189 C   0  0  1  0  0  0  0  0  0  0  0  0
    3.1534   -2.1418   -2.6010 C   0  0  0  0  0  0  0  0  0  0  0  0
    4.3195   -1.8873   -3.1850 C   0  0  0  0  0  0  0  0  0  0  0  0
    5.3688   -2.3809   -2.2353 C   0  0  1  0  0  0  0  0  0  0  0  0
    5.3994   -1.4757   -0.9815 C   0  0  0  0  0  0  0  0  0  0  0  0
    4.0197   -1.7930   -0.3273 C   0  0  2  0  0  0  0  0  0  0  0  0
    4.1393   -2.3643    1.1082 C   0  0  1  0  0  0  0  0  0  0  0  0
    4.7199   -3.4813   -1.6065 O   0  0  0  0  0  0  0  0  0  0  0  0
    6.5052   -1.6676    2.4574 H   0  0  0  0  0  0  0  0  0  0  0  0
    5.8859   -0.2380    3.2941 H   0  0  0  0  0  0  0  0  0  0  0  0
    6.0383   -0.2385    1.5223 H   0  0  0  0  0  0  0  0  0  0  0  0
    3.6516   -0.5682    2.1893 H   0  0  0  0  0  0  0  0  0  0  0  0
    4.8728   -2.7135    3.9727 H   0  0  0  0  0  0  0  0  0  0  0  0
    3.5142   -0.8387    5.0625 H   0  0  0  0  0  0  0  0  0  0  0  0
    1.0233   -3.7372    3.7379 H   0  0  0  0  0  0  0  0  0  0  0  0
    3.4449   -4.3860    3.1649 H   0  0  0  0  0  0  0  0  0  0  0  0
    2.0238   -2.3570    1.4082 H   0  0  0  0  0  0  0  0  0  0  0  0
    3.5031   -4.9130    0.5944 H   0  0  0  0  0  0  0  0  0  0  0  0
    1.7981   -4.8835    0.9776 H   0  0  0  0  0  0  0  0  0  0  0  0
    2.1503   -4.5858   -1.5069 H   0  0  0  0  0  0  0  0  0  0  0  0
    1.4303   -3.1756   -0.8382 H   0  0  0  0  0  0  0  0  0  0  0  0
    2.1823   -1.8960   -2.9440 H   0  0  0  0  0  0  0  0  0  0  0  0
    4.4826   -1.3443   -4.1005 H   0  0  0  0  0  0  0  0  0  0  0  0
    6.3174   -2.6122   -2.7226 H   0  0  0  0  0  0  0  0  0  0  0  0
    6.2314   -1.7863   -0.3368 H   0  0  0  0  0  0  0  0  0  0  0  0
    5.5039   -0.4170   -1.2345 H   0  0  0  0  0  0  0  0  0  0  0  0
    3.3562   -0.9187   -0.3146 H   0  0  0  0  0  0  0  0  0  0  0  0
    4.9394   -3.1196    1.1280 H   0  0  0  0  0  0  0  0  0  0  0  0
  1  2  1  0
  1 20  1  0
  1 21  1  0
  1 22  1  0
  2 18  1  0
  2  3  1  0
  2 23  1  6
  3  8  1  0
  3  4  1  0
  3 24  1  1
  4  5  1  0
  4 25  1  0
  5  6  2  0
  5  7  1  0
  7  8  1  0
  7 26  1  0
  8  9  1  0
  8 27  1  6
  9 18  1  0
  9 10  1  0
  9 28  1  1
 10 11  1  0
 10 29  1  0
 10 30  1  0
 12 11  1  1
 11 31  1  0
 11 32  1  0
 12 17  1  0
 12 19  1  0
 12 13  1  0
 13 14  2  0
 13 33  1  0
 14 15  1  0
 14 34  1  0
 15 16  1  0
 15 19  1  0
 15 35  1  6
 16 17  1  0
 16 36  1  0
 16 37  1  0
 17 18  1  0
 17 38  1  1
 18 39  1  6
M  END
>  <i_m_ct_stereo_status>  (33) 
1

>  <s_m_source_file>  (33) 
/var/tmp/pbs.5076255.sched01/tmpd0mq1ayv/02wja6gfv.sdf

>  <i_m_source_file_index>  (33) 
11

>  <i_lp_mmshare_version>  (33) 
48012

>  <i_f3d_flags>  (33) 
0

>  <s_epik_input>  (33) 
Tz1DKFtOSF0xKVtOSF1bQ0BIXShbQ0BIXTJbQ0gzXSlbQ0BASF0xW0NASF0oW0NIMl1bQ0gyXTMpW0NASF0yW0NASF0oW0NAQF0zNDUpW0NIMl1bQ0BASF0oTzUpW0NIXT1bQ0hdNA==

>  <s_epik_cmdline>  (33) 
J2VwaWtfcHl0aG9uJywgJy1waHQnLCAnMi4wJywgJy1waCcsICc3LjAnLCAnLXRuJywgJzgnLCAnLW1hJywgJzIwMCcsICctaW1hZScsICc8aW5maWxlLm1hZT4nLCAnLW9tYWUnLCAnPG91dGZpbGUubWFlPic=

>  <r_lp_tautomer_probability>  (33) 
1

>  <r_epik_Ionization_Penalty>  (33) 
7.42544e-05

>  <r_epik_Ionization_Penalty_Charging>  (33) 
0

>  <r_epik_Ionization_Penalty_Neutral>  (33) 
7.42544e-05

>  <r_epik_State_Penalty>  (33) 
-0

>  <r_epik_Charging_Adjusted_Penalty>  (33) 
0

>  <i_epik_Tot_Q>  (33) 
0

>  <i_epik_Tot_abs_Q>  (33) 
0

>  <s_lp_Force_Field>  (33) 
OPLS3e

>  <r_lp_Energy>  (33) 
22.1307

>  <b_lp_Chiralities_Consistent>  (33) 
1

>  <s_lp_Variant>  (33) 
5:0-1

>  <s_i_glide_gridfile>  (33) 
pfpi4k_grid

>  <i_i_glide_lignum>  (33) 
11

>  <i_i_glide_rotatable_bonds>  (33) 
0

>  <r_i_docking_score>  (33) 
-2.90523

>  <r_i_glide_ligand_efficiency>  (33) 
-0.152907

>  <r_i_glide_ligand_efficiency_sa>  (33) 
-0.408018

>  <r_i_glide_ligand_efficiency_ln>  (33) 
-0.736539

>  <r_i_glide_gscore>  (33) 
-2.90523

>  <r_i_glide_lipo>  (33) 
-0.23568

>  <r_i_glide_hbond>  (33) 
0

>  <r_i_glide_metal>  (33) 
-0

>  <r_i_glide_rewards>  (33) 
-1.6341

>  <r_i_glide_evdw>  (33) 
-19.7668

>  <r_i_glide_ecoul>  (33) 
-0.314078

>  <r_i_glide_erotb>  (33) 
0

>  <r_i_glide_esite>  (33) 
0

>  <r_i_glide_emodel>  (33) 
-23.6326

>  <r_i_glide_energy>  (33) 
-20.0809

>  <r_i_glide_einternal>  (33) 
0

>  <r_i_glide_intrahb_reward>  (33) 
-0

>  <i_i_glide_confnum>  (33) 
2

>  <i_i_glide_posenum>  (33) 
9

>  <r_i_glide_eff_state_penalty>  (33) 
0

>  <ligand_id>  (33) 
5

>  <original_smiles>  (33) 
CC1C2NC(=O)NC2C2CCC34C=CC(CC3C12)O4

>  <smiles>  (33) 
[H]C1=C([H])C23OC1([H])C([H])([H])C2([H])C1([H])C([H])(C([H])([H])[H])C2([H])N([H])C(=O)N([H])C2([H])C1([H])C([H])([H])C3([H])[H]

$$$$
6:0:0
     RDKit          3D

 52 56  0  0  1  0  0  0  0  0999 V2000
    4.1578   -8.4840    1.1950 C   0  0  0  0  0  0  0  0  0  0  0  0
    4.4687   -7.0551    1.5741 C   0  0  0  0  0  0  0  0  0  0  0  0
    4.8798   -7.0182    3.0346 C   0  0  0  0  0  0  0  0  0  0  0  0
    5.1242   -6.1496    0.5529 C   0  0  2  0  0  0  0  0  0  0  0  0
    6.1216   -5.0719    0.8226 C   0  0  0  0  0  0  0  0  0  0  0  0
    5.8786   -3.9146   -0.1379 C   0  0  2  0  0  0  0  0  0  0  0  0
    6.5363   -2.5258    0.1663 C   0  0  0  0  0  0  0  0  0  0  0  0
    6.5778   -1.9020    1.5559 C   0  0  0  0  0  0  0  0  0  0  0  0
    7.9906   -2.4143   -0.3389 C   0  0  0  0  0  0  0  0  0  0  0  0
    5.4015   -2.0519   -0.7073 C   0  0  2  0  0  0  0  0  0  0  0  0
    5.7232   -1.7638   -2.1636 C   0  0  0  0  0  0  0  0  0  0  0  0
    4.4715   -1.1382   -2.7250 C   0  0  0  0  0  0  0  0  0  0  0  0
    3.5538   -1.5243   -1.5818 C   0  0  2  0  0  0  0  0  0  0  0  0
    4.3631   -1.1182   -0.4696 O   0  0  0  0  0  0  0  0  0  0  0  0
    3.4586   -3.0776   -1.3826 C   0  0  1  0  0  0  0  0  0  0  0  0
    2.0175   -3.5466   -1.1950 C   0  0  0  0  0  0  0  0  0  0  0  0
    3.8794   -3.7668   -2.5502 O   0  0  0  0  0  0  0  0  0  0  0  0
    4.4780   -3.2327   -0.2344 C   0  0  1  0  0  0  0  0  0  0  0  0
    3.7095   -3.2888    1.1229 C   0  0  0  0  0  0  0  0  0  0  0  0
    3.2314   -4.6820    1.6570 C   0  0  1  0  0  0  0  0  0  0  0  0
    1.8201   -4.7139    1.7843 O   0  0  0  0  0  0  0  0  0  0  0  0
    3.6926   -5.9180    0.8987 C   0  0  2  0  0  0  0  0  0  0  0  0
    5.0262   -9.1215    1.3608 H   0  0  0  0  0  0  0  0  0  0  0  0
    3.8953   -8.5474    0.1397 H   0  0  0  0  0  0  0  0  0  0  0  0
    3.3231   -8.8629    1.7853 H   0  0  0  0  0  0  0  0  0  0  0  0
    5.1723   -6.0167    3.3542 H   0  0  0  0  0  0  0  0  0  0  0  0
    5.7338   -7.6778    3.1969 H   0  0  0  0  0  0  0  0  0  0  0  0
    4.0487   -7.3492    3.6620 H   0  0  0  0  0  0  0  0  0  0  0  0
    5.2539   -6.5839   -0.4236 H   0  0  0  0  0  0  0  0  0  0  0  0
    6.0351   -4.7360    1.8569 H   0  0  0  0  0  0  0  0  0  0  0  0
    7.1341   -5.4718    0.7229 H   0  0  0  0  0  0  0  0  0  0  0  0
    6.1486   -4.2175   -1.1515 H   0  0  0  0  0  0  0  0  0  0  0  0
    7.4013   -1.1956    1.6854 H   0  0  0  0  0  0  0  0  0  0  0  0
    6.6029   -2.6813    2.3108 H   0  0  0  0  0  0  0  0  0  0  0  0
    5.6880   -1.3130    1.7834 H   0  0  0  0  0  0  0  0  0  0  0  0
    8.3690   -1.4009   -0.3082 H   0  0  0  0  0  0  0  0  0  0  0  0
    8.0982   -2.7917   -1.3568 H   0  0  0  0  0  0  0  0  0  0  0  0
    8.6950   -2.9786    0.2698 H   0  0  0  0  0  0  0  0  0  0  0  0
    6.5452   -1.1094   -2.2134 H   0  0  0  0  0  0  0  0  0  0  0  0
    6.0396   -2.6373   -2.7309 H   0  0  0  0  0  0  0  0  0  0  0  0
    4.5440   -0.0548   -2.7804 H   0  0  0  0  0  0  0  0  0  0  0  0
    4.1552   -1.5111   -3.6966 H   0  0  0  0  0  0  0  0  0  0  0  0
    2.6216   -0.9844   -1.6295 H   0  0  0  0  0  0  0  0  0  0  0  0
    1.5433   -3.0737   -0.3544 H   0  0  0  0  0  0  0  0  0  0  0  0
    1.9511   -4.6183   -1.0369 H   0  0  0  0  0  0  0  0  0  0  0  0
    1.4368   -3.2905   -2.0834 H   0  0  0  0  0  0  0  0  0  0  0  0
    3.5244   -4.6488   -2.5288 H   0  0  0  0  0  0  0  0  0  0  0  0
    4.3679   -2.9608    1.9143 H   0  0  0  0  0  0  0  0  0  0  0  0
    2.9327   -2.5247    1.1770 H   0  0  0  0  0  0  0  0  0  0  0  0
    3.5837   -4.7504    2.6790 H   0  0  0  0  0  0  0  0  0  0  0  0
    1.5614   -3.9268    2.2166 H   0  0  0  0  0  0  0  0  0  0  0  0
    3.0165   -6.2167    0.1046 H   0  0  0  0  0  0  0  0  0  0  0  0
  1  2  1  0
  1 23  1  0
  1 24  1  0
  1 25  1  0
  2 22  1  0
  2  3  1  0
  2  4  1  0
  3 26  1  0
  3 27  1  0
  3 28  1  0
  4 22  1  0
  4  5  1  0
  4 29  1  6
  5  6  1  0
  5 30  1  0
  5 31  1  0
  6 18  1  0
  6  7  1  0
  6 32  1  6
  7  8  1  0
  7  9  1  0
 10  7  1  1
  8 33  1  0
  8 34  1  0
  8 35  1  0
  9 36  1  0
  9 37  1  0
  9 38  1  0
 10 14  1  0
 10 18  1  0
 10 11  1  0
 11 12  1  0
 11 39  1  0
 11 40  1  0
 12 13  1  0
 12 41  1  0
 12 42  1  0
 13 14  1  0
 13 15  1  0
 13 43  1  6
 15 16  1  0
 15 17  1  6
 15 18  1  0
 16 44  1  0
 16 45  1  0
 16 46  1  0
 17 47  1  0
 18 19  1  1
 19 20  1  0
 19 48  1  0
 19 49  1  0
 20 21  1  0
 20 22  1  0
 20 50  1  1
 21 51  1  0
 22 52  1  6
M  END
>  <i_m_ct_stereo_status>  (34) 
1

>  <s_m_source_file>  (34) 
/var/tmp/pbs.5076255.sched01/tmpd0mq1ayv/02wja6gfv.sdf

>  <i_m_source_file_index>  (34) 
12

>  <i_lp_mmshare_version>  (34) 
48012

>  <i_f3d_flags>  (34) 
0

>  <s_epik_input>  (34) 
W0NIM11DMShbQ0gzXSlbQ0BASF0oW0NAQEhdKFtDSDJdMilbT0hdKVtDQEhdMVtDSDJdW0NASF0oQzMoW0NIM10pW0NIM10pW0NAQF0yKFtDQEBdMzQ1KVtDQF0oW0NIM10pKFtPSF0pW0NAQEhdKE81KVtDSDJdW0NIMl00

>  <s_epik_cmdline>  (34) 
J2VwaWtfcHl0aG9uJywgJy1waHQnLCAnMi4wJywgJy1waCcsICc3LjAnLCAnLXRuJywgJzgnLCAnLW1hJywgJzIwMCcsICctaW1hZScsICc8aW5maWxlLm1hZT4nLCAnLW9tYWUnLCAnPG91dGZpbGUubWFlPic=

>  <r_lp_tautomer_probability>  (34) 
1

>  <r_epik_Ionization_Penalty>  (34) 
6.52044e-07

>  <r_epik_Ionization_Penalty_Charging>  (34) 
0

>  <r_epik_Ionization_Penalty_Neutral>  (34) 
6.52044e-07

>  <r_epik_State_Penalty>  (34) 
-0

>  <r_epik_Charging_Adjusted_Penalty>  (34) 
0

>  <i_epik_Tot_Q>  (34) 
0

>  <i_epik_Tot_abs_Q>  (34) 
0

>  <s_lp_Force_Field>  (34) 
OPLS3e

>  <r_lp_Energy>  (34) 
104.92

>  <b_lp_Chiralities_Consistent>  (34) 
1

>  <s_lp_Variant>  (34) 
6:0-1

>  <s_i_glide_gridfile>  (34) 
pfpi4k_grid

>  <i_i_glide_lignum>  (34) 
12

>  <i_i_glide_rotatable_bonds>  (34) 
2

>  <r_i_docking_score>  (34) 
-3.4557

>  <r_i_glide_ligand_efficiency>  (34) 
-0.157077

>  <r_i_glide_ligand_efficiency_sa>  (34) 
-0.440137

>  <r_i_glide_ligand_efficiency_ln>  (34) 
-0.8447

>  <r_i_glide_gscore>  (34) 
-3.4557

>  <r_i_glide_lipo>  (34) 
-0.572321

>  <r_i_glide_hbond>  (34) 
-0.0206097

>  <r_i_glide_metal>  (34) 
-0

>  <r_i_glide_rewards>  (34) 
-1.31973

>  <r_i_glide_evdw>  (34) 
-9.62005

>  <r_i_glide_ecoul>  (34) 
-7.08027

>  <r_i_glide_erotb>  (34) 
0

>  <r_i_glide_esite>  (34) 
0

>  <r_i_glide_emodel>  (34) 
-19.5739

>  <r_i_glide_energy>  (34) 
-16.7003

>  <r_i_glide_einternal>  (34) 
1.15876

>  <r_i_glide_intrahb_reward>  (34) 
-0

>  <i_i_glide_confnum>  (34) 
1

>  <i_i_glide_posenum>  (34) 
2

>  <r_i_glide_eff_state_penalty>  (34) 
0

>  <ligand_id>  (34) 
6

>  <original_smiles>  (34) 
CC1(C)C2CC3C(C)(C)C45CCC(O4)C(C)(O)C35CC(O)C21

>  <smiles>  (34) 
[H]OC1([H])C([H])([H])C23C([H])(C([H])([H])C4([H])C1([H])C4(C([H])([H])[H])C([H])([H])[H])C(C([H])([H])[H])(C([H])([H])[H])C21OC([H])(C([H])([H])C1([H])[H])C3(O[H])C([H])([H])[H]

$$$$
6:0:1
     RDKit          3D

 52 56  0  0  1  0  0  0  0  0999 V2000
    3.8499   -2.8945   -3.7302 C   0  0  0  0  0  0  0  0  0  0  0  0
    3.9963   -2.3856   -2.3208 C   0  0  0  0  0  0  0  0  0  0  0  0
    3.7982   -0.8751   -2.3193 C   0  0  0  0  0  0  0  0  0  0  0  0
    3.4874   -3.2447   -1.1827 C   0  0  2  0  0  0  0  0  0  0  0  0
    2.8888   -2.7677    0.1016 C   0  0  0  0  0  0  0  0  0  0  0  0
    3.2828   -3.6640    1.2621 C   0  0  2  0  0  0  0  0  0  0  0  0
    3.0633   -3.1343    2.7243 C   0  0  0  0  0  0  0  0  0  0  0  0
    3.3173   -1.6741    3.1494 C   0  0  0  0  0  0  0  0  0  0  0  0
    1.6648   -3.4610    3.2892 C   0  0  0  0  0  0  0  0  0  0  0  0
    4.1675   -4.1280    3.0104 C   0  0  2  0  0  0  0  0  0  0  0  0
    3.7666   -5.5048    3.6095 C   0  0  0  0  0  0  0  0  0  0  0  0
    5.0760   -6.2132    3.8369 C   0  0  0  0  0  0  0  0  0  0  0  0
    5.9788   -5.2427    3.0938 C   0  0  2  0  0  0  0  0  0  0  0  0
    5.4460   -4.0008    3.6025 O   0  0  0  0  0  0  0  0  0  0  0  0
    5.6591   -5.1708    1.5633 C   0  0  1  0  0  0  0  0  0  0  0  0
    6.9684   -5.2001    0.7466 C   0  0  0  0  0  0  0  0  0  0  0  0
    4.9344   -6.2701    1.0364 O   0  0  0  0  0  0  0  0  0  0  0  0
    4.7882   -3.9073    1.5722 C   0  0  1  0  0  0  0  0  0  0  0  0
    5.6672   -2.6758    1.1629 C   0  0  0  0  0  0  0  0  0  0  0  0
    5.8403   -2.3287   -0.3616 C   0  0  1  0  0  0  0  0  0  0  0  0
    7.1996   -2.4278   -0.7654 O   0  0  0  0  0  0  0  0  0  0  0  0
    4.9794   -3.0927   -1.3707 C   0  0  2  0  0  0  0  0  0  0  0  0
    2.8562   -2.6588   -4.1260 H   0  0  0  0  0  0  0  0  0  0  0  0
    3.9836   -3.9793   -3.7597 H   0  0  0  0  0  0  0  0  0  0  0  0
    4.6001   -2.4300   -4.3682 H   0  0  0  0  0  0  0  0  0  0  0  0
    3.8418   -0.4679   -1.3199 H   0  0  0  0  0  0  0  0  0  0  0  0
    2.8183   -0.6253   -2.7371 H   0  0  0  0  0  0  0  0  0  0  0  0
    4.5684   -0.3887   -2.9241 H   0  0  0  0  0  0  0  0  0  0  0  0
    3.0692   -4.1957   -1.5005 H   0  0  0  0  0  0  0  0  0  0  0  0
    3.1633   -1.7280    0.2909 H   0  0  0  0  0  0  0  0  0  0  0  0
    1.8096   -2.7849   -0.0095 H   0  0  0  0  0  0  0  0  0  0  0  0
    2.8073   -4.6370    1.1353 H   0  0  0  0  0  0  0  0  0  0  0  0
    2.7495   -1.3973    4.0360 H   0  0  0  0  0  0  0  0  0  0  0  0
    3.0490   -0.9652    2.3746 H   0  0  0  0  0  0  0  0  0  0  0  0
    4.3582   -1.5151    3.4333 H   0  0  0  0  0  0  0  0  0  0  0  0
    1.6578   -3.4263    4.3774 H   0  0  0  0  0  0  0  0  0  0  0  0
    1.3421   -4.4589    3.0059 H   0  0  0  0  0  0  0  0  0  0  0  0
    0.9072   -2.7729    2.9315 H   0  0  0  0  0  0  0  0  0  0  0  0
    3.2269   -5.3989    4.5487 H   0  0  0  0  0  0  0  0  0  0  0  0
    3.1176   -6.0854    2.9458 H   0  0  0  0  0  0  0  0  0  0  0  0
    5.3271   -6.2180    4.8969 H   0  0  0  0  0  0  0  0  0  0  0  0
    5.1104   -7.2314    3.4640 H   0  0  0  0  0  0  0  0  0  0  0  0
    7.0355   -5.3809    3.3317 H   0  0  0  0  0  0  0  0  0  0  0  0
    7.7037   -4.4653    1.0720 H   0  0  0  0  0  0  0  0  0  0  0  0
    6.7696   -5.0654   -0.3104 H   0  0  0  0  0  0  0  0  0  0  0  0
    7.4524   -6.1721    0.8696 H   0  0  0  0  0  0  0  0  0  0  0  0
    4.7178   -6.0926    0.1453 H   0  0  0  0  0  0  0  0  0  0  0  0
    5.2321   -1.7684    1.5525 H   0  0  0  0  0  0  0  0  0  0  0  0
    6.6302   -2.6783    1.6765 H   0  0  0  0  0  0  0  0  0  0  0  0
    5.6254   -1.2676   -0.4555 H   0  0  0  0  0  0  0  0  0  0  0  0
    7.4751   -3.3120   -0.6549 H   0  0  0  0  0  0  0  0  0  0  0  0
    5.4474   -3.9869   -1.7710 H   0  0  0  0  0  0  0  0  0  0  0  0
  1  2  1  0
  1 23  1  0
  1 24  1  0
  1 25  1  0
  2 22  1  0
  2  3  1  0
  2  4  1  0
  3 26  1  0
  3 27  1  0
  3 28  1  0
  4 22  1  0
  4  5  1  0
  4 29  1  6
  5  6  1  0
  5 30  1  0
  5 31  1  0
  6 18  1  0
  6  7  1  0
  6 32  1  1
  7  8  1  0
  7  9  1  0
 10  7  1  1
  8 33  1  0
  8 34  1  0
  8 35  1  0
  9 36  1  0
  9 37  1  0
  9 38  1  0
 10 14  1  0
 10 18  1  0
 10 11  1  0
 11 12  1  0
 11 39  1  0
 11 40  1  0
 12 13  1  0
 12 41  1  0
 12 42  1  0
 13 14  1  0
 13 15  1  0
 13 43  1  6
 15 16  1  0
 15 17  1  6
 15 18  1  0
 16 44  1  0
 16 45  1  0
 16 46  1  0
 17 47  1  0
 18 19  1  1
 19 20  1  0
 19 48  1  0
 19 49  1  0
 20 21  1  0
 20 22  1  0
 20 50  1  1
 21 51  1  0
 22 52  1  6
M  END
>  <i_m_ct_stereo_status>  (35) 
1

>  <s_m_source_file>  (35) 
/var/tmp/pbs.5076255.sched01/tmpd0mq1ayv/02wja6gfv.sdf

>  <i_m_source_file_index>  (35) 
12

>  <i_lp_mmshare_version>  (35) 
48012

>  <i_f3d_flags>  (35) 
0

>  <s_epik_input>  (35) 
W0NIM11DMShbQ0gzXSlbQ0BASF0oW0NAQEhdKFtDSDJdMilbT0hdKVtDQEhdMVtDSDJdW0NASF0oQzMoW0NIM10pW0NIM10pW0NAQF0yKFtDQEBdMzQ1KVtDQF0oW0NIM10pKFtPSF0pW0NAQEhdKE81KVtDSDJdW0NIMl00

>  <s_epik_cmdline>  (35) 
J2VwaWtfcHl0aG9uJywgJy1waHQnLCAnMi4wJywgJy1waCcsICc3LjAnLCAnLXRuJywgJzgnLCAnLW1hJywgJzIwMCcsICctaW1hZScsICc8aW5maWxlLm1hZT4nLCAnLW9tYWUnLCAnPG91dGZpbGUubWFlPic=

>  <r_lp_tautomer_probability>  (35) 
1

>  <r_epik_Ionization_Penalty>  (35) 
6.52044e-07

>  <r_epik_Ionization_Penalty_Charging>  (35) 
0

>  <r_epik_Ionization_Penalty_Neutral>  (35) 
6.52044e-07

>  <r_epik_State_Penalty>  (35) 
-0

>  <r_epik_Charging_Adjusted_Penalty>  (35) 
0

>  <i_epik_Tot_Q>  (35) 
0

>  <i_epik_Tot_abs_Q>  (35) 
0

>  <s_lp_Force_Field>  (35) 
OPLS3e

>  <r_lp_Energy>  (35) 
104.92

>  <b_lp_Chiralities_Consistent>  (35) 
1

>  <s_lp_Variant>  (35) 
6:0-1

>  <s_i_glide_gridfile>  (35) 
pfpi4k_grid

>  <i_i_glide_lignum>  (35) 
12

>  <i_i_glide_rotatable_bonds>  (35) 
2

>  <r_i_docking_score>  (35) 
-3.31606

>  <r_i_glide_ligand_efficiency>  (35) 
-0.15073

>  <r_i_glide_ligand_efficiency_sa>  (35) 
-0.422352

>  <r_i_glide_ligand_efficiency_ln>  (35) 
-0.810566

>  <r_i_glide_gscore>  (35) 
-3.31606

>  <r_i_glide_lipo>  (35) 
-0.554079

>  <r_i_glide_hbond>  (35) 
-0.129346

>  <r_i_glide_metal>  (35) 
-0

>  <r_i_glide_rewards>  (35) 
-1.31973

>  <r_i_glide_evdw>  (35) 
-17.0548

>  <r_i_glide_ecoul>  (35) 
-3.06777

>  <r_i_glide_erotb>  (35) 
0

>  <r_i_glide_esite>  (35) 
0

>  <r_i_glide_emodel>  (35) 
-24.0351

>  <r_i_glide_energy>  (35) 
-20.1226

>  <r_i_glide_einternal>  (35) 
0.00388087

>  <r_i_glide_intrahb_reward>  (35) 
-0

>  <i_i_glide_confnum>  (35) 
1

>  <i_i_glide_posenum>  (35) 
31

>  <r_i_glide_eff_state_penalty>  (35) 
0

>  <ligand_id>  (35) 
6

>  <original_smiles>  (35) 
CC1(C)C2CC3C(C)(C)C45CCC(O4)C(C)(O)C35CC(O)C21

>  <smiles>  (35) 
[H]OC1([H])C([H])([H])C23C([H])(C([H])([H])C4([H])C1([H])C4(C([H])([H])[H])C([H])([H])[H])C(C([H])([H])[H])(C([H])([H])[H])C21OC([H])(C([H])([H])C1([H])[H])C3(O[H])C([H])([H])[H]

$$$$
6:0:2
     RDKit          3D

 52 56  0  0  1  0  0  0  0  0999 V2000
    3.0052   -2.5065   -3.5781 C   0  0  0  0  0  0  0  0  0  0  0  0
    3.6822   -2.0598   -2.3035 C   0  0  0  0  0  0  0  0  0  0  0  0
    4.1387   -0.6257   -2.4824 C   0  0  0  0  0  0  0  0  0  0  0  0
    3.1571   -2.5661   -0.9685 C   0  0  2  0  0  0  0  0  0  0  0  0
    3.1550   -1.8235    0.3380 C   0  0  0  0  0  0  0  0  0  0  0  0
    3.4247   -2.7775    1.4848 C   0  0  2  0  0  0  0  0  0  0  0  0
    3.8146   -2.1736    2.8810 C   0  0  0  0  0  0  0  0  0  0  0  0
    4.7514   -0.9619    3.0446 C   0  0  0  0  0  0  0  0  0  0  0  0
    2.6104   -1.8387    3.7668 C   0  0  0  0  0  0  0  0  0  0  0  0
    4.4273   -3.5460    3.0636 C   0  0  2  0  0  0  0  0  0  0  0  0
    3.6649   -4.5823    3.9037 C   0  0  0  0  0  0  0  0  0  0  0  0
    4.5743   -5.7881    3.9463 C   0  0  0  0  0  0  0  0  0  0  0  0
    5.5792   -5.3438    2.8984 C   0  0  2  0  0  0  0  0  0  0  0  0
    5.7541   -3.9772    3.3062 O   0  0  0  0  0  0  0  0  0  0  0  0
    4.9449   -5.1665    1.4713 C   0  0  1  0  0  0  0  0  0  0  0  0
    5.8702   -5.7979    0.4159 C   0  0  0  0  0  0  0  0  0  0  0  0
    3.7196   -5.8622    1.2683 O   0  0  0  0  0  0  0  0  0  0  0  0
    4.7121   -3.6510    1.5097 C   0  0  1  0  0  0  0  0  0  0  0  0
    5.8899   -2.9454    0.7551 C   0  0  0  0  0  0  0  0  0  0  0  0
    5.7968   -2.7439   -0.7973 C   0  0  1  0  0  0  0  0  0  0  0  0
    6.8357   -3.4498   -1.4294 O   0  0  0  0  0  0  0  0  0  0  0  0
    4.4709   -3.0836   -1.4753 C   0  0  2  0  0  0  0  0  0  0  0  0
    2.1501   -1.8676   -3.7949 H   0  0  0  0  0  0  0  0  0  0  0  0
    2.6488   -3.5358   -3.4748 H   0  0  0  0  0  0  0  0  0  0  0  0
    3.6985   -2.4560   -4.4150 H   0  0  0  0  0  0  0  0  0  0  0  0
    4.5654   -0.2165   -1.5670 H   0  0  0  0  0  0  0  0  0  0  0  0
    3.2928    0.0079   -2.7530 H   0  0  0  0  0  0  0  0  0  0  0  0
    4.8901   -0.5710   -3.2677 H   0  0  0  0  0  0  0  0  0  0  0  0
    2.3104   -3.2436   -1.0637 H   0  0  0  0  0  0  0  0  0  0  0  0
    3.9038   -1.0321    0.3108 H   0  0  0  0  0  0  0  0  0  0  0  0
    2.2230   -1.3178    0.4906 H   0  0  0  0  0  0  0  0  0  0  0  0
    2.5636   -3.4512    1.6065 H   0  0  0  0  0  0  0  0  0  0  0  0
    4.5968   -0.4306    3.9838 H   0  0  0  0  0  0  0  0  0  0  0  0
    4.6195   -0.2232    2.2499 H   0  0  0  0  0  0  0  0  0  0  0  0
    5.8029   -1.2581    3.0703 H   0  0  0  0  0  0  0  0  0  0  0  0
    2.8793   -1.7720    4.8222 H   0  0  0  0  0  0  0  0  0  0  0  0
    1.8331   -2.6063    3.6982 H   0  0  0  0  0  0  0  0  0  0  0  0
    2.1289   -0.9014    3.4887 H   0  0  0  0  0  0  0  0  0  0  0  0
    3.4760   -4.2260    4.9137 H   0  0  0  0  0  0  0  0  0  0  0  0
    2.6982   -4.8453    3.4840 H   0  0  0  0  0  0  0  0  0  0  0  0
    5.0590   -5.8672    4.9163 H   0  0  0  0  0  0  0  0  0  0  0  0
    4.0879   -6.7350    3.7214 H   0  0  0  0  0  0  0  0  0  0  0  0
    6.5182   -5.8948    2.9223 H   0  0  0  0  0  0  0  0  0  0  0  0
    6.8976   -5.4470    0.4693 H   0  0  0  0  0  0  0  0  0  0  0  0
    5.4830   -5.6568   -0.5898 H   0  0  0  0  0  0  0  0  0  0  0  0
    5.9208   -6.8758    0.5881 H   0  0  0  0  0  0  0  0  0  0  0  0
    3.4553   -5.7232    0.3859 H   0  0  0  0  0  0  0  0  0  0  0  0
    5.9839   -1.9239    1.1096 H   0  0  0  0  0  0  0  0  0  0  0  0
    6.8556   -3.3520    1.0471 H   0  0  0  0  0  0  0  0  0  0  0  0
    6.0208   -1.6971   -0.9856 H   0  0  0  0  0  0  0  0  0  0  0  0
    6.6772   -4.3620   -1.3262 H   0  0  0  0  0  0  0  0  0  0  0  0
    4.4229   -4.1028   -1.8580 H   0  0  0  0  0  0  0  0  0  0  0  0
  1  2  1  0
  1 23  1  0
  1 24  1  0
  1 25  1  0
  2 22  1  0
  2  3  1  0
  2  4  1  0
  3 26  1  0
  3 27  1  0
  3 28  1  0
  4 22  1  0
  4  5  1  0
  4 29  1  6
  5  6  1  0
  5 30  1  0
  5 31  1  0
  6 18  1  0
  6  7  1  0
  6 32  1  1
  7  8  1  0
  7  9  1  0
 10  7  1  6
  8 33  1  0
  8 34  1  0
  8 35  1  0
  9 36  1  0
  9 37  1  0
  9 38  1  0
 10 14  1  0
 10 18  1  0
 10 11  1  0
 11 12  1  0
 11 39  1  0
 11 40  1  0
 12 13  1  0
 12 41  1  0
 12 42  1  0
 13 14  1  0
 13 15  1  0
 13 43  1  6
 15 16  1  0
 15 17  1  1
 15 18  1  0
 16 44  1  0
 16 45  1  0
 16 46  1  0
 17 47  1  0
 18 19  1  1
 19 20  1  0
 19 48  1  0
 19 49  1  0
 20 21  1  0
 20 22  1  0
 20 50  1  1
 21 51  1  0
 22 52  1  6
M  END
>  <i_m_ct_stereo_status>  (36) 
1

>  <s_m_source_file>  (36) 
/var/tmp/pbs.5076255.sched01/tmpd0mq1ayv/02wja6gfv.sdf

>  <i_m_source_file_index>  (36) 
12

>  <i_lp_mmshare_version>  (36) 
48012

>  <i_f3d_flags>  (36) 
0

>  <s_epik_input>  (36) 
W0NIM11DMShbQ0gzXSlbQ0BASF0oW0NAQEhdKFtDSDJdMilbT0hdKVtDQEhdMVtDSDJdW0NASF0oQzMoW0NIM10pW0NIM10pW0NAQF0yKFtDQEBdMzQ1KVtDQF0oW0NIM10pKFtPSF0pW0NAQEhdKE81KVtDSDJdW0NIMl00

>  <s_epik_cmdline>  (36) 
J2VwaWtfcHl0aG9uJywgJy1waHQnLCAnMi4wJywgJy1waCcsICc3LjAnLCAnLXRuJywgJzgnLCAnLW1hJywgJzIwMCcsICctaW1hZScsICc8aW5maWxlLm1hZT4nLCAnLW9tYWUnLCAnPG91dGZpbGUubWFlPic=

>  <r_lp_tautomer_probability>  (36) 
1

>  <r_epik_Ionization_Penalty>  (36) 
6.52044e-07

>  <r_epik_Ionization_Penalty_Charging>  (36) 
0

>  <r_epik_Ionization_Penalty_Neutral>  (36) 
6.52044e-07

>  <r_epik_State_Penalty>  (36) 
-0

>  <r_epik_Charging_Adjusted_Penalty>  (36) 
0

>  <i_epik_Tot_Q>  (36) 
0

>  <i_epik_Tot_abs_Q>  (36) 
0

>  <s_lp_Force_Field>  (36) 
OPLS3e

>  <r_lp_Energy>  (36) 
104.92

>  <b_lp_Chiralities_Consistent>  (36) 
1

>  <s_lp_Variant>  (36) 
6:0-1

>  <s_i_glide_gridfile>  (36) 
pfpi4k_grid

>  <i_i_glide_lignum>  (36) 
12

>  <i_i_glide_rotatable_bonds>  (36) 
2

>  <r_i_docking_score>  (36) 
-2.82968

>  <r_i_glide_ligand_efficiency>  (36) 
-0.128622

>  <r_i_glide_ligand_efficiency_sa>  (36) 
-0.360404

>  <r_i_glide_ligand_efficiency_ln>  (36) 
-0.691678

>  <r_i_glide_gscore>  (36) 
-2.82968

>  <r_i_glide_lipo>  (36) 
-0.657376

>  <r_i_glide_hbond>  (36) 
0

>  <r_i_glide_metal>  (36) 
-0

>  <r_i_glide_rewards>  (36) 
-1.31973

>  <r_i_glide_evdw>  (36) 
-14.8866

>  <r_i_glide_ecoul>  (36) 
-0.721669

>  <r_i_glide_erotb>  (36) 
0

>  <r_i_glide_esite>  (36) 
0

>  <r_i_glide_emodel>  (36) 
-18.8341

>  <r_i_glide_energy>  (36) 
-15.6082

>  <r_i_glide_einternal>  (36) 
0.0381972

>  <r_i_glide_intrahb_reward>  (36) 
-0

>  <i_i_glide_confnum>  (36) 
1

>  <i_i_glide_posenum>  (36) 
1

>  <r_i_glide_eff_state_penalty>  (36) 
0

>  <ligand_id>  (36) 
6

>  <original_smiles>  (36) 
CC1(C)C2CC3C(C)(C)C45CCC(O4)C(C)(O)C35CC(O)C21

>  <smiles>  (36) 
[H]OC1([H])C([H])([H])C23C([H])(C([H])([H])C4([H])C1([H])C4(C([H])([H])[H])C([H])([H])[H])C(C([H])([H])[H])(C([H])([H])[H])C21OC([H])(C([H])([H])C1([H])[H])C3(O[H])C([H])([H])[H]

$$$$
7:0:0
     RDKit          3D

 79 85  0  0  1  0  0  0  0  0999 V2000
    4.5792   -3.7958   -3.3005 C   0  0  0  0  0  0  0  0  0  0  0  0
    4.0671   -3.0515   -2.0769 C   0  0  0  0  0  0  0  0  0  0  0  0
    3.3691   -1.7445   -2.3974 C   0  0  0  0  0  0  0  0  0  0  0  0
    4.1899   -3.4939   -0.8114 C   0  0  0  0  0  0  0  0  0  0  0  0
    4.8191   -4.8068   -0.3598 C   0  0  0  0  0  0  0  0  0  0  0  0
    4.4688   -5.2143    1.0968 C   0  0  2  0  0  0  0  0  0  0  0  0
    5.5180   -6.2710    1.6245 C   0  0  0  0  0  0  0  0  0  0  0  0
    5.1327   -7.5678    1.7119 C   0  0  0  0  0  0  0  0  0  0  0  0
    3.9509   -7.8628    0.9753 C   0  0  0  0  0  0  0  0  0  0  0  0
    2.9536   -7.1513    1.8722 C   0  0  1  0  0  0  0  0  0  0  0  0
    1.9264   -8.3003    1.8842 C   0  0  0  0  0  0  0  0  0  0  0  0
    2.5978   -9.5673    2.5940 C   0  0  2  0  0  0  0  0  0  0  0  0
    1.5904  -10.1587    3.6279 C   0  0  1  0  0  0  0  0  0  0  0  0
    1.5111  -11.6988    3.6246 C   0  0  0  0  0  0  0  0  0  0  0  0
    2.0496   -9.5761    4.9749 C   0  0  0  0  0  0  0  0  0  0  0  0
    3.1835   -8.5856    4.6188 C   0  0  2  0  0  0  0  0  0  0  0  0
    2.4291   -7.3990    4.2461 O   0  0  0  0  0  0  0  0  0  0  0  0
    3.0527   -6.4727    3.3696 C   0  0  1  0  0  0  0  0  0  0  0  0
    4.0727   -5.8019    4.3966 C   0  0  1  0  0  0  0  0  0  0  0  0
    4.9894   -4.8377    3.9544 O   0  0  0  0  0  0  0  0  0  0  0  0
    3.2261   -4.9959    5.4437 C   0  0  1  0  0  0  0  0  0  0  0  0
    4.1187   -4.3688    6.5647 C   0  0  0  0  0  0  0  0  0  0  0  0
    3.5646   -3.1195    7.2872 C   0  0  0  0  0  0  0  0  0  0  0  0
    2.4904   -3.4797    8.3367 C   0  0  0  0  0  0  0  0  0  0  0  0
    4.7298   -2.4152    8.0159 C   0  0  0  0  0  0  0  0  0  0  0  0
    2.9801   -2.1700    6.2698 C   0  0  0  0  0  0  0  0  0  0  0  0
    2.4104   -2.5687    5.1215 C   0  0  0  0  0  0  0  0  0  0  0  0
    2.2228   -4.0205    4.7140 C   0  0  2  0  0  0  0  0  0  0  0  0
    0.7481   -4.3675    5.0367 C   0  0  0  0  0  0  0  0  0  0  0  0
    2.3698   -4.1248    3.2832 O   0  0  0  0  0  0  0  0  0  0  0  0
    2.1760   -5.4168    2.7200 C   0  0  1  0  0  0  0  0  0  0  0  0
    2.9258   -5.6886    1.3734 C   0  0  1  0  0  0  0  0  0  0  0  0
    2.1070   -5.4690    0.2524 O   0  0  0  0  0  0  0  0  0  0  0  0
    3.9385   -9.2632    3.4264 C   0  0  1  0  0  0  0  0  0  0  0  0
    4.3988  -10.5202    3.8873 O   0  0  0  0  0  0  0  0  0  0  0  0
    5.2545   -8.5028    2.8625 C   0  0  0  0  0  0  0  0  0  0  0  0
    6.3213   -8.6559    3.4760 O   0  0  0  0  0  0  0  0  0  0  0  0
    5.1898   -3.1325   -3.9113 H   0  0  0  0  0  0  0  0  0  0  0  0
    3.7443   -4.1401   -3.9115 H   0  0  0  0  0  0  0  0  0  0  0  0
    5.1871   -4.6563   -3.0348 H   0  0  0  0  0  0  0  0  0  0  0  0
    2.5008   -1.9322   -3.0301 H   0  0  0  0  0  0  0  0  0  0  0  0
    4.0387   -1.0667   -2.9259 H   0  0  0  0  0  0  0  0  0  0  0  0
    3.0156   -1.2447   -1.4936 H   0  0  0  0  0  0  0  0  0  0  0  0
    3.8155   -2.8615   -0.0157 H   0  0  0  0  0  0  0  0  0  0  0  0
    4.6214   -5.6003   -1.0753 H   0  0  0  0  0  0  0  0  0  0  0  0
    5.8985   -4.6354   -0.4038 H   0  0  0  0  0  0  0  0  0  0  0  0
    4.6287   -4.3006    1.6580 H   0  0  0  0  0  0  0  0  0  0  0  0
    6.3419   -5.9103    2.2246 H   0  0  0  0  0  0  0  0  0  0  0  0
    4.0423   -7.4299   -0.0164 H   0  0  0  0  0  0  0  0  0  0  0  0
    3.9005   -8.9229    0.7300 H   0  0  0  0  0  0  0  0  0  0  0  0
    1.0177   -7.9839    2.3845 H   0  0  0  0  0  0  0  0  0  0  0  0
    1.5922   -8.5631    0.8795 H   0  0  0  0  0  0  0  0  0  0  0  0
    2.7868  -10.3329    1.8419 H   0  0  0  0  0  0  0  0  0  0  0  0
    0.5798   -9.8079    3.4246 H   0  0  0  0  0  0  0  0  0  0  0  0
    2.4672  -12.1745    3.8382 H   0  0  0  0  0  0  0  0  0  0  0  0
    1.1745  -12.0716    2.6602 H   0  0  0  0  0  0  0  0  0  0  0  0
    0.8019  -12.0614    4.3677 H   0  0  0  0  0  0  0  0  0  0  0  0
    1.2333   -9.0979    5.5196 H   0  0  0  0  0  0  0  0  0  0  0  0
    2.4276  -10.3706    5.6226 H   0  0  0  0  0  0  0  0  0  0  0  0
    3.8238   -8.4141    5.4875 H   0  0  0  0  0  0  0  0  0  0  0  0
    4.6882   -6.5370    4.9097 H   0  0  0  0  0  0  0  0  0  0  0  0
    5.5778   -5.2389    3.3229 H   0  0  0  0  0  0  0  0  0  0  0  0
    2.6154   -5.7262    5.9730 H   0  0  0  0  0  0  0  0  0  0  0  0
    4.3362   -5.1404    7.3056 H   0  0  0  0  0  0  0  0  0  0  0  0
    5.1003   -4.0987    6.1841 H   0  0  0  0  0  0  0  0  0  0  0  0
    2.8979   -4.0559    9.1703 H   0  0  0  0  0  0  0  0  0  0  0  0
    1.6901   -4.0723    7.9027 H   0  0  0  0  0  0  0  0  0  0  0  0
    2.0301   -2.5815    8.7564 H   0  0  0  0  0  0  0  0  0  0  0  0
    5.2139   -3.0667    8.7503 H   0  0  0  0  0  0  0  0  0  0  0  0
    4.4013   -1.5151    8.5430 H   0  0  0  0  0  0  0  0  0  0  0  0
    5.5013   -2.1016    7.3084 H   0  0  0  0  0  0  0  0  0  0  0  0
    3.0763   -1.1190    6.4847 H   0  0  0  0  0  0  0  0  0  0  0  0
    2.0444   -1.8372    4.4266 H   0  0  0  0  0  0  0  0  0  0  0  0
    0.4987   -4.1324    6.0721 H   0  0  0  0  0  0  0  0  0  0  0  0
    0.5144   -5.4264    4.8948 H   0  0  0  0  0  0  0  0  0  0  0  0
    0.0613   -3.7861    4.4185 H   0  0  0  0  0  0  0  0  0  0  0  0
    1.1179   -5.7054    2.6698 H   0  0  0  0  0  0  0  0  0  0  0  0
    2.6338   -5.6326   -0.5260 H   0  0  0  0  0  0  0  0  0  0  0  0
    4.6127  -11.0558    3.1284 H   0  0  0  0  0  0  0  0  0  0  0  0
  1  2  1  0
  1 38  1  0
  1 39  1  0
  1 40  1  0
  2  3  1  0
  2  4  2  3
  3 41  1  0
  3 42  1  0
  3 43  1  0
  4  5  1  0
  4 44  1  0
  5  6  1  0
  5 45  1  0
  5 46  1  0
  6 32  1  0
  6  7  1  0
  6 47  1  1
  7  8  2  0
  7 48  1  0
  8 36  1  0
  8  9  1  0
 10  9  1  6
  9 49  1  0
  9 50  1  0
 10 18  1  0
 10 32  1  0
 10 11  1  0
 11 12  1  0
 11 51  1  0
 11 52  1  0
 12 34  1  0
 12 13  1  0
 12 53  1  6
 13 14  1  0
 13 15  1  0
 13 54  1  6
 14 55  1  0
 14 56  1  0
 14 57  1  0
 15 16  1  0
 15 58  1  0
 15 59  1  0
 16 17  1  0
 16 34  1  0
 16 60  1  1
 18 17  1  1
 18 31  1  0
 18 19  1  0
 19 20  1  0
 19 21  1  0
 19 61  1  1
 20 62  1  0
 21 28  1  0
 21 22  1  0
 21 63  1  1
 22 23  1  0
 22 64  1  0
 22 65  1  0
 23 24  1  0
 23 25  1  0
 23 26  1  0
 24 66  1  0
 24 67  1  0
 24 68  1  0
 25 69  1  0
 25 70  1  0
 25 71  1  0
 26 27  2  0
 26 72  1  0
 27 28  1  0
 27 73  1  0
 28 29  1  6
 28 30  1  0
 29 74  1  0
 29 75  1  0
 29 76  1  0
 30 31  1  0
 31 32  1  0
 31 77  1  6
 32 33  1  6
 33 78  1  0
 34 35  1  1
 34 36  1  0
 35 79  1  0
 36 37  2  0
M  END
>  <i_m_ct_stereo_status>  (37) 
1

>  <s_m_source_file>  (37) 
/var/tmp/pbs.5076255.sched01/tmpd0mq1ayv/02wja6gfv.sdf

>  <i_m_source_file_index>  (37) 
13

>  <i_lp_mmshare_version>  (37) 
48012

>  <i_f3d_flags>  (37) 
0

>  <s_epik_input>  (37) 
W0NIXTE9W0NIXUMoW0NIM10pKFtDSDNdKVtDSDJdW0NASF0oW0NAQEhdMltPSF0pW0NAXTEoW0NIM10pT1tDQEhdKFtDQEBdMjNbQ0BAXTQ1NilbQ0BAXTYoW09IXSlbQ0BIXShbQ0gyXVtDSF09QyhbQ0gzXSlbQ0gzXSlbQ0hdPUMoW0NIMl00KUMoPU8pW0NAXTcoW09IXSlbQ0BIXShbQ0gyXTUpW0NAQEhdKFtDSDNdKVtDSDJdW0NAQEhdN08z

>  <s_epik_cmdline>  (37) 
J2VwaWtfcHl0aG9uJywgJy1waHQnLCAnMi4wJywgJy1waCcsICc3LjAnLCAnLXRuJywgJzgnLCAnLW1hJywgJzIwMCcsICctaW1hZScsICc8aW5maWxlLm1hZT4nLCAnLW9tYWUnLCAnPG91dGZpbGUubWFlPic=

>  <r_lp_tautomer_probability>  (37) 
1

>  <r_epik_Ionization_Penalty>  (37) 
4.75454e-07

>  <r_epik_Ionization_Penalty_Charging>  (37) 
0

>  <r_epik_Ionization_Penalty_Neutral>  (37) 
4.75454e-07

>  <r_epik_State_Penalty>  (37) 
-0

>  <r_epik_Charging_Adjusted_Penalty>  (37) 
0

>  <i_epik_Tot_Q>  (37) 
0

>  <i_epik_Tot_abs_Q>  (37) 
0

>  <s_lp_Force_Field>  (37) 
OPLS3e

>  <r_lp_Energy>  (37) 
200.271

>  <b_lp_Chiralities_Consistent>  (37) 
1

>  <s_lp_Variant>  (37) 
7:0-1

>  <s_i_glide_gridfile>  (37) 
pfpi4k_grid

>  <i_i_glide_lignum>  (37) 
13

>  <i_i_glide_rotatable_bonds>  (37) 
5

>  <r_i_docking_score>  (37) 
-1.9047

>  <r_i_glide_ligand_efficiency>  (37) 
-0.0514783

>  <r_i_glide_ligand_efficiency_sa>  (37) 
-0.171537

>  <r_i_glide_ligand_efficiency_ln>  (37) 
-0.413084

>  <r_i_glide_gscore>  (37) 
-1.9047

>  <r_i_glide_lipo>  (37) 
-0.317406

>  <r_i_glide_hbond>  (37) 
0

>  <r_i_glide_metal>  (37) 
-0

>  <r_i_glide_rewards>  (37) 
0

>  <r_i_glide_evdw>  (37) 
-24.3181

>  <r_i_glide_ecoul>  (37) 
-3.51618

>  <r_i_glide_erotb>  (37) 
0.157131

>  <r_i_glide_esite>  (37) 
-0.00108972

>  <r_i_glide_emodel>  (37) 
-28.7717

>  <r_i_glide_energy>  (37) 
-27.8343

>  <r_i_glide_einternal>  (37) 
5.00494

>  <r_i_glide_intrahb_reward>  (37) 
-0

>  <i_i_glide_confnum>  (37) 
2

>  <i_i_glide_posenum>  (37) 
8

>  <r_i_glide_eff_state_penalty>  (37) 
0

>  <ligand_id>  (37) 
7

>  <original_smiles>  (37) 
CC(C)=CCC1C=C2CC34CC5C(C)CC(OC36C(O)C3CC(C)(C)C=CC3(C)OC6C14O)C5(O)C2=O

>  <smiles>  (37) 
[H]OC1([H])C2([H])C([H])([H])C(C([H])([H])[H])(C([H])([H])[H])C([H])=C([H])C2(C([H])([H])[H])OC2([H])C13OC1([H])C([H])([H])C([H])(C([H])([H])[H])C4([H])C([H])([H])C35C([H])([H])C(=C([H])C([H])(C([H])([H])C([H])=C(C([H])([H])[H])C([H])([H])[H])C25O[H])C(=O)C14O[H]

$$$$
7:0:1
     RDKit          3D

 79 85  0  0  1  0  0  0  0  0999 V2000
    4.2859   -3.4908   -3.0498 C   0  0  0  0  0  0  0  0  0  0  0  0
    4.4200   -2.6504   -1.7918 C   0  0  0  0  0  0  0  0  0  0  0  0
    4.0778   -1.1865   -1.9880 C   0  0  0  0  0  0  0  0  0  0  0  0
    4.8026   -3.1292   -0.5878 C   0  0  0  0  0  0  0  0  0  0  0  0
    5.1389   -4.5728   -0.2375 C   0  0  0  0  0  0  0  0  0  0  0  0
    4.6717   -5.0132    1.1731 C   0  0  2  0  0  0  0  0  0  0  0  0
    5.5270   -6.2641    1.6451 C   0  0  0  0  0  0  0  0  0  0  0  0
    4.9440   -7.4880    1.6175 C   0  0  0  0  0  0  0  0  0  0  0  0
    3.7608   -7.5248    0.8367 C   0  0  0  0  0  0  0  0  0  0  0  0
    2.8343   -6.7292    1.7591 C   0  0  1  0  0  0  0  0  0  0  0  0
    1.6297   -7.6762    1.6560 C   0  0  0  0  0  0  0  0  0  0  0  0
    2.0591   -9.0877    2.2807 C   0  0  2  0  0  0  0  0  0  0  0  0
    0.9390   -9.5768    3.2425 C   0  0  1  0  0  0  0  0  0  0  0  0
    0.6127  -11.0765    3.1178 C   0  0  0  0  0  0  0  0  0  0  0  0
    1.4369   -9.1772    4.6426 C   0  0  0  0  0  0  0  0  0  0  0  0
    2.7250   -8.3670    4.3939 C   0  0  2  0  0  0  0  0  0  0  0  0
    2.1846   -7.0516    4.1061 O   0  0  0  0  0  0  0  0  0  0  0  0
    2.9932   -6.1882    3.3121 C   0  0  1  0  0  0  0  0  0  0  0  0
    4.0779   -5.7599    4.3963 C   0  0  1  0  0  0  0  0  0  0  0  0
    5.1698   -4.9425    4.0326 O   0  0  0  0  0  0  0  0  0  0  0  0
    3.3460   -4.8982    5.4809 C   0  0  1  0  0  0  0  0  0  0  0  0
    4.2770   -4.5203    6.6799 C   0  0  0  0  0  0  0  0  0  0  0  0
    3.9196   -3.2458    7.4817 C   0  0  0  0  0  0  0  0  0  0  0  0
    2.7570   -3.4921    8.4662 C   0  0  0  0  0  0  0  0  0  0  0  0
    5.1619   -2.7960    8.2800 C   0  0  0  0  0  0  0  0  0  0  0  0
    3.5392   -2.1426    6.5149 C   0  0  0  0  0  0  0  0  0  0  0  0
    2.9499   -2.3583    5.3296 C   0  0  0  0  0  0  0  0  0  0  0  0
    2.5276   -3.7227    4.8088 C   0  0  2  0  0  0  0  0  0  0  0  0
    1.0057   -3.8392    5.0725 C   0  0  0  0  0  0  0  0  0  0  0  0
    2.7137   -3.7368    3.3813 O   0  0  0  0  0  0  0  0  0  0  0  0
    2.3304   -4.9453    2.7188 C   0  0  1  0  0  0  0  0  0  0  0  0
    3.0700   -5.2521    1.3762 C   0  0  1  0  0  0  0  0  0  0  0  0
    2.3521   -4.8361    0.2315 O   0  0  0  0  0  0  0  0  0  0  0  0
    3.3969   -9.0784    3.1757 C   0  0  1  0  0  0  0  0  0  0  0  0
    3.6497  -10.4293    3.5343 O   0  0  0  0  0  0  0  0  0  0  0  0
    4.8466   -8.5114    2.7075 C   0  0  0  0  0  0  0  0  0  0  0  0
    5.8570   -8.8783    3.3108 O   0  0  0  0  0  0  0  0  0  0  0  0
    4.8347   -3.0267   -3.8690 H   0  0  0  0  0  0  0  0  0  0  0  0
    3.2365   -3.5618   -3.3352 H   0  0  0  0  0  0  0  0  0  0  0  0
    4.6765   -4.5009   -2.9469 H   0  0  0  0  0  0  0  0  0  0  0  0
    3.0402   -1.0904   -2.3107 H   0  0  0  0  0  0  0  0  0  0  0  0
    4.7149   -0.7412   -2.7529 H   0  0  0  0  0  0  0  0  0  0  0  0
    4.1971   -0.6137   -1.0679 H   0  0  0  0  0  0  0  0  0  0  0  0
    4.8987   -2.4301    0.2304 H   0  0  0  0  0  0  0  0  0  0  0  0
    4.7794   -5.2674   -0.9918 H   0  0  0  0  0  0  0  0  0  0  0  0
    6.2259   -4.6328   -0.2754 H   0  0  0  0  0  0  0  0  0  0  0  0
    4.9677   -4.1779    1.8015 H   0  0  0  0  0  0  0  0  0  0  0  0
    6.3451   -6.0769    2.3187 H   0  0  0  0  0  0  0  0  0  0  0  0
    3.9068   -7.0459   -0.1301 H   0  0  0  0  0  0  0  0  0  0  0  0
    3.5379   -8.5418    0.5178 H   0  0  0  0  0  0  0  0  0  0  0  0
    0.7707   -7.2464    2.1696 H   0  0  0  0  0  0  0  0  0  0  0  0
    1.2835   -7.8021    0.6298 H   0  0  0  0  0  0  0  0  0  0  0  0
    2.1482   -9.8177    1.4736 H   0  0  0  0  0  0  0  0  0  0  0  0
    0.0055   -9.0520    3.0437 H   0  0  0  0  0  0  0  0  0  0  0  0
    1.4687  -11.7215    3.3038 H   0  0  0  0  0  0  0  0  0  0  0  0
    0.2296  -11.3071    2.1234 H   0  0  0  0  0  0  0  0  0  0  0  0
   -0.1612  -11.3568    3.8330 H   0  0  0  0  0  0  0  0  0  0  0  0
    0.6926   -8.6068    5.1991 H   0  0  0  0  0  0  0  0  0  0  0  0
    1.6574  -10.0641    5.2393 H   0  0  0  0  0  0  0  0  0  0  0  0
    3.3586   -8.3641    5.2813 H   0  0  0  0  0  0  0  0  0  0  0  0
    4.5455   -6.6219    4.8649 H   0  0  0  0  0  0  0  0  0  0  0  0
    5.7014   -4.7850    4.7971 H   0  0  0  0  0  0  0  0  0  0  0  0
    2.6014   -5.5494    5.9400 H   0  0  0  0  0  0  0  0  0  0  0  0
    4.3426   -5.3704    7.3596 H   0  0  0  0  0  0  0  0  0  0  0  0
    5.3007   -4.3812    6.3390 H   0  0  0  0  0  0  0  0  0  0  0  0
    3.0357   -4.1853    9.2616 H   0  0  0  0  0  0  0  0  0  0  0  0
    1.8861   -3.9125    7.9685 H   0  0  0  0  0  0  0  0  0  0  0  0
    2.4393   -2.5623    8.9420 H   0  0  0  0  0  0  0  0  0  0  0  0
    5.4988   -3.5708    8.9717 H   0  0  0  0  0  0  0  0  0  0  0  0
    4.9623   -1.8963    8.8654 H   0  0  0  0  0  0  0  0  0  0  0  0
    5.9963   -2.5683    7.6136 H   0  0  0  0  0  0  0  0  0  0  0  0
    3.7907   -1.1338    6.8098 H   0  0  0  0  0  0  0  0  0  0  0  0
    2.7298   -1.5199    4.6879 H   0  0  0  0  0  0  0  0  0  0  0  0
    0.7662   -3.6385    6.1149 H   0  0  0  0  0  0  0  0  0  0  0  0
    0.6125   -4.8307    4.8431 H   0  0  0  0  0  0  0  0  0  0  0  0
    0.4511   -3.1117    4.4771 H   0  0  0  0  0  0  0  0  0  0  0  0
    1.2472   -5.0321    2.6254 H   0  0  0  0  0  0  0  0  0  0  0  0
    2.9637   -4.3587   -0.3139 H   0  0  0  0  0  0  0  0  0  0  0  0
    3.8304  -10.9231    2.7450 H   0  0  0  0  0  0  0  0  0  0  0  0
  1  2  1  0
  1 38  1  0
  1 39  1  0
  1 40  1  0
  2  3  1  0
  2  4  2  3
  3 41  1  0
  3 42  1  0
  3 43  1  0
  4  5  1  0
  4 44  1  0
  5  6  1  0
  5 45  1  0
  5 46  1  0
  6 32  1  0
  6  7  1  0
  6 47  1  1
  7  8  2  0
  7 48  1  0
  8 36  1  0
  8  9  1  0
 10  9  1  6
  9 49  1  0
  9 50  1  0
 10 18  1  0
 10 32  1  0
 10 11  1  0
 11 12  1  0
 11 51  1  0
 11 52  1  0
 12 34  1  0
 12 13  1  0
 12 53  1  6
 13 14  1  0
 13 15  1  0
 13 54  1  6
 14 55  1  0
 14 56  1  0
 14 57  1  0
 15 16  1  0
 15 58  1  0
 15 59  1  0
 16 17  1  0
 16 34  1  0
 16 60  1  1
 18 17  1  1
 18 31  1  0
 18 19  1  0
 19 20  1  0
 19 21  1  0
 19 61  1  1
 20 62  1  0
 21 28  1  0
 21 22  1  0
 21 63  1  1
 22 23  1  0
 22 64  1  0
 22 65  1  0
 23 24  1  0
 23 25  1  0
 23 26  1  0
 24 66  1  0
 24 67  1  0
 24 68  1  0
 25 69  1  0
 25 70  1  0
 25 71  1  0
 26 27  2  0
 26 72  1  0
 27 28  1  0
 27 73  1  0
 28 29  1  6
 28 30  1  0
 29 74  1  0
 29 75  1  0
 29 76  1  0
 30 31  1  0
 31 32  1  0
 31 77  1  6
 32 33  1  6
 33 78  1  0
 34 35  1  1
 34 36  1  0
 35 79  1  0
 36 37  2  0
M  END
>  <i_m_ct_stereo_status>  (38) 
1

>  <s_m_source_file>  (38) 
/var/tmp/pbs.5076255.sched01/tmpd0mq1ayv/02wja6gfv.sdf

>  <i_m_source_file_index>  (38) 
13

>  <i_lp_mmshare_version>  (38) 
48012

>  <i_f3d_flags>  (38) 
0

>  <s_epik_input>  (38) 
W0NIXTE9W0NIXUMoW0NIM10pKFtDSDNdKVtDSDJdW0NASF0oW0NAQEhdMltPSF0pW0NAXTEoW0NIM10pT1tDQEhdKFtDQEBdMjNbQ0BAXTQ1NilbQ0BAXTYoW09IXSlbQ0BIXShbQ0gyXVtDSF09QyhbQ0gzXSlbQ0gzXSlbQ0hdPUMoW0NIMl00KUMoPU8pW0NAXTcoW09IXSlbQ0BIXShbQ0gyXTUpW0NAQEhdKFtDSDNdKVtDSDJdW0NAQEhdN08z

>  <s_epik_cmdline>  (38) 
J2VwaWtfcHl0aG9uJywgJy1waHQnLCAnMi4wJywgJy1waCcsICc3LjAnLCAnLXRuJywgJzgnLCAnLW1hJywgJzIwMCcsICctaW1hZScsICc8aW5maWxlLm1hZT4nLCAnLW9tYWUnLCAnPG91dGZpbGUubWFlPic=

>  <r_lp_tautomer_probability>  (38) 
1

>  <r_epik_Ionization_Penalty>  (38) 
4.75454e-07

>  <r_epik_Ionization_Penalty_Charging>  (38) 
0

>  <r_epik_Ionization_Penalty_Neutral>  (38) 
4.75454e-07

>  <r_epik_State_Penalty>  (38) 
-0

>  <r_epik_Charging_Adjusted_Penalty>  (38) 
0

>  <i_epik_Tot_Q>  (38) 
0

>  <i_epik_Tot_abs_Q>  (38) 
0

>  <s_lp_Force_Field>  (38) 
OPLS3e

>  <r_lp_Energy>  (38) 
200.271

>  <b_lp_Chiralities_Consistent>  (38) 
1

>  <s_lp_Variant>  (38) 
7:0-1

>  <s_i_glide_gridfile>  (38) 
pfpi4k_grid

>  <i_i_glide_lignum>  (38) 
13

>  <i_i_glide_rotatable_bonds>  (38) 
5

>  <r_i_docking_score>  (38) 
-1.77577

>  <r_i_glide_ligand_efficiency>  (38) 
-0.0479937

>  <r_i_glide_ligand_efficiency_sa>  (38) 
-0.159926

>  <r_i_glide_ligand_efficiency_ln>  (38) 
-0.385122

>  <r_i_glide_gscore>  (38) 
-1.77577

>  <r_i_glide_lipo>  (38) 
-0.486686

>  <r_i_glide_hbond>  (38) 
0

>  <r_i_glide_metal>  (38) 
-0

>  <r_i_glide_rewards>  (38) 
0

>  <r_i_glide_evdw>  (38) 
-23.7977

>  <r_i_glide_ecoul>  (38) 
-1.68528

>  <r_i_glide_erotb>  (38) 
0.157131

>  <r_i_glide_esite>  (38) 
-0.0035357

>  <r_i_glide_emodel>  (38) 
-26.5836

>  <r_i_glide_energy>  (38) 
-25.4829

>  <r_i_glide_einternal>  (38) 
4.41678

>  <r_i_glide_intrahb_reward>  (38) 
-0

>  <i_i_glide_confnum>  (38) 
2

>  <i_i_glide_posenum>  (38) 
1

>  <r_i_glide_eff_state_penalty>  (38) 
0

>  <ligand_id>  (38) 
7

>  <original_smiles>  (38) 
CC(C)=CCC1C=C2CC34CC5C(C)CC(OC36C(O)C3CC(C)(C)C=CC3(C)OC6C14O)C5(O)C2=O

>  <smiles>  (38) 
[H]OC1([H])C2([H])C([H])([H])C(C([H])([H])[H])(C([H])([H])[H])C([H])=C([H])C2(C([H])([H])[H])OC2([H])C13OC1([H])C([H])([H])C([H])(C([H])([H])[H])C4([H])C([H])([H])C35C([H])([H])C(=C([H])C([H])(C([H])([H])C([H])=C(C([H])([H])[H])C([H])([H])[H])C25O[H])C(=O)C14O[H]

$$$$
8:0:0
     RDKit          3D

 50 54  0  0  1  0  0  0  0  0999 V2000
    2.0337   -8.3784    1.9758 C   0  0  0  0  0  0  0  0  0  0  0  0
    2.1328   -6.8978    2.4314 C   0  0  0  0  0  0  0  0  0  0  0  0
    0.6786   -6.3610    2.3944 C   0  0  0  0  0  0  0  0  0  0  0  0
    2.6388   -6.8140    3.8867 C   0  0  0  0  0  0  0  0  0  0  0  0
    2.8487   -7.8116    4.5731 O   0  0  0  0  0  0  0  0  0  0  0  0
    2.8405   -5.4149    4.4611 C   0  0  0  0  0  0  0  0  0  0  0  0
    3.6893   -4.5425    3.5238 C   0  0  0  0  0  0  0  0  0  0  0  0
    3.1797   -4.5555    2.0551 C   0  0  2  0  0  0  0  0  0  0  0  0
    3.0547   -6.0111    1.5041 C   0  0  1  0  0  0  0  0  0  0  0  0
    4.5031   -6.5029    1.2087 C   0  0  1  0  0  0  0  0  0  0  0  0
    4.5665   -7.8144    0.6973 O   0  0  0  0  0  0  0  0  0  0  0  0
    5.1063   -5.6251    0.0974 C   0  0  0  0  0  0  0  0  0  0  0  0
    5.2953   -4.1295    0.4618 C   0  0  1  0  0  0  0  0  0  0  0  0
    6.5255   -4.0059    1.3833 C   0  0  0  0  0  0  0  0  0  0  0  0
    5.5419   -3.2329   -0.7729 C   0  0  0  0  0  0  0  0  0  0  0  0
    5.2875   -3.6549   -2.0426 C   0  0  0  0  0  0  0  0  0  0  0  0
    4.4451   -2.7324   -2.8424 C   0  0  0  0  0  0  0  0  0  0  0  0
    4.0432   -3.0191   -3.9712 O   0  0  0  0  0  0  0  0  0  0  0  0
    4.1085   -1.4624   -2.0586 C   0  0  2  0  0  0  0  0  0  0  0  0
    5.3978   -0.9254   -1.6701 O   0  0  0  0  0  0  0  0  0  0  0  0
    5.3064   -1.7446   -0.4727 C   0  0  1  0  0  0  0  0  0  0  0  0
    3.7939   -1.6273   -0.5310 C   0  0  2  0  0  0  0  0  0  0  0  0
    3.0369   -2.8111    0.1242 C   0  0  0  0  0  0  0  0  0  0  0  0
    3.9706   -3.5698    1.1355 C   0  0  1  0  0  0  0  0  0  0  0  0
    1.8794   -8.4560    0.8987 H   0  0  0  0  0  0  0  0  0  0  0  0
    1.1991   -8.8947    2.4530 H   0  0  0  0  0  0  0  0  0  0  0  0
    2.9201   -8.9582    2.2346 H   0  0  0  0  0  0  0  0  0  0  0  0
    0.3071   -6.3047    1.3707 H   0  0  0  0  0  0  0  0  0  0  0  0
    0.5811   -5.3710    2.8397 H   0  0  0  0  0  0  0  0  0  0  0  0
   -0.0009   -7.0102    2.9500 H   0  0  0  0  0  0  0  0  0  0  0  0
    1.8640   -4.9612    4.6133 H   0  0  0  0  0  0  0  0  0  0  0  0
    3.3034   -5.4898    5.4439 H   0  0  0  0  0  0  0  0  0  0  0  0
    3.6807   -3.5215    3.9059 H   0  0  0  0  0  0  0  0  0  0  0  0
    4.7244   -4.8742    3.5931 H   0  0  0  0  0  0  0  0  0  0  0  0
    2.1784   -4.1359    2.1122 H   0  0  0  0  0  0  0  0  0  0  0  0
    2.5475   -5.9585    0.5398 H   0  0  0  0  0  0  0  0  0  0  0  0
    5.1279   -6.4848    2.1019 H   0  0  0  0  0  0  0  0  0  0  0  0
    4.2908   -8.4121    1.3767 H   0  0  0  0  0  0  0  0  0  0  0  0
    6.0676   -6.0292   -0.2231 H   0  0  0  0  0  0  0  0  0  0  0  0
    4.4290   -5.7356   -0.7472 H   0  0  0  0  0  0  0  0  0  0  0  0
    6.4668   -4.6598    2.2490 H   0  0  0  0  0  0  0  0  0  0  0  0
    6.6524   -2.9897    1.7554 H   0  0  0  0  0  0  0  0  0  0  0  0
    7.4408   -4.2707    0.8518 H   0  0  0  0  0  0  0  0  0  0  0  0
    5.2657   -4.6865   -2.3479 H   0  0  0  0  0  0  0  0  0  0  0  0
    3.4708   -0.7327   -2.5666 H   0  0  0  0  0  0  0  0  0  0  0  0
    5.7726   -1.3107    0.4144 H   0  0  0  0  0  0  0  0  0  0  0  0
    3.4814   -0.6632   -0.1337 H   0  0  0  0  0  0  0  0  0  0  0  0
    2.1551   -2.4336    0.6409 H   0  0  0  0  0  0  0  0  0  0  0  0
    2.6643   -3.5064   -0.6324 H   0  0  0  0  0  0  0  0  0  0  0  0
    4.2893   -2.7746    1.8091 H   0  0  0  0  0  0  0  0  0  0  0  0
  1  2  1  0
  1 25  1  0
  1 26  1  0
  1 27  1  0
  2  9  1  0
  2  3  1  0
  2  4  1  0
  3 28  1  0
  3 29  1  0
  3 30  1  0
  4  5  2  0
  4  6  1  0
  6  7  1  0
  6 31  1  0
  6 32  1  0
  7  8  1  0
  7 33  1  0
  7 34  1  0
  8 24  1  0
  8  9  1  0
  8 35  1  1
  9 10  1  0
  9 36  1  6
 10 11  1  0
 10 12  1  0
 10 37  1  1
 11 38  1  0
 12 13  1  0
 12 39  1  0
 12 40  1  0
 13 24  1  0
 13 14  1  1
 13 15  1  0
 14 41  1  0
 14 42  1  0
 14 43  1  0
 15 21  1  0
 15 16  2  0
 16 17  1  0
 16 44  1  0
 17 18  2  0
 17 19  1  0
 19 22  1  0
 19 20  1  0
 19 45  1  6
 20 21  1  0
 21 22  1  0
 21 46  1  1
 22 23  1  0
 22 47  1  1
 23 24  1  0
 23 48  1  0
 23 49  1  0
 24 50  1  1
M  END
>  <i_m_ct_stereo_status>  (39) 
1

>  <s_m_source_file>  (39) 
/var/tmp/pbs.5076255.sched01/tmpd0mq1ayv/02wja6gfv.sdf

>  <i_m_source_file_index>  (39) 
14

>  <i_lp_mmshare_version>  (39) 
48012

>  <i_f3d_flags>  (39) 
0

>  <s_epik_input>  (39) 
W0NIMl0xW0NIMl1DKD1PKUMoW0NIM10pKFtDSDNdKVtDQEhdKFtDQEBIXShbT0hdKVtDSDJdMilbQ0BASF0xW0NAQEhdM1tDSDJdW0NASF0oW0NAQEhdKE80KUMoPU8pW0NIXTUpW0NASF00Qz01W0NAXTIzW0NIM10=

>  <s_epik_cmdline>  (39) 
J2VwaWtfcHl0aG9uJywgJy1waHQnLCAnMi4wJywgJy1waCcsICc3LjAnLCAnLXRuJywgJzgnLCAnLW1hJywgJzIwMCcsICctaW1hZScsICc8aW5maWxlLm1hZT4nLCAnLW9tYWUnLCAnPG91dGZpbGUubWFlPic=

>  <r_lp_tautomer_probability>  (39) 
1

>  <r_epik_Ionization_Penalty>  (39) 
2.11157e-07

>  <r_epik_Ionization_Penalty_Charging>  (39) 
0

>  <r_epik_Ionization_Penalty_Neutral>  (39) 
2.11157e-07

>  <r_epik_State_Penalty>  (39) 
-0

>  <r_epik_Charging_Adjusted_Penalty>  (39) 
0

>  <i_epik_Tot_Q>  (39) 
0

>  <i_epik_Tot_abs_Q>  (39) 
0

>  <s_lp_Force_Field>  (39) 
OPLS3e

>  <r_lp_Energy>  (39) 
93.3672

>  <b_lp_Chiralities_Consistent>  (39) 
1

>  <s_lp_Variant>  (39) 
8:0-1

>  <s_i_glide_gridfile>  (39) 
pfpi4k_grid

>  <i_i_glide_lignum>  (39) 
14

>  <i_i_glide_rotatable_bonds>  (39) 
1

>  <r_i_docking_score>  (39) 
-3.89415

>  <r_i_glide_ligand_efficiency>  (39) 
-0.162256

>  <r_i_glide_ligand_efficiency_sa>  (39) 
-0.468028

>  <r_i_glide_ligand_efficiency_ln>  (39) 
-0.932048

>  <r_i_glide_gscore>  (39) 
-3.89415

>  <r_i_glide_lipo>  (39) 
-0.462785

>  <r_i_glide_hbond>  (39) 
-0.12748

>  <r_i_glide_metal>  (39) 
-0

>  <r_i_glide_rewards>  (39) 
-1.28849

>  <r_i_glide_evdw>  (39) 
-28.7535

>  <r_i_glide_ecoul>  (39) 
-3.84772

>  <r_i_glide_erotb>  (39) 
0

>  <r_i_glide_esite>  (39) 
-0.000557293

>  <r_i_glide_emodel>  (39) 
-40.0038

>  <r_i_glide_energy>  (39) 
-32.6012

>  <r_i_glide_einternal>  (39) 
0.317655

>  <r_i_glide_intrahb_reward>  (39) 
-0

>  <i_i_glide_confnum>  (39) 
1

>  <i_i_glide_posenum>  (39) 
38

>  <r_i_glide_eff_state_penalty>  (39) 
0

>  <ligand_id>  (39) 
8

>  <original_smiles>  (39) 
CC1(C)C(=O)CCC2C1C(O)CC1(C)C3=CC(=O)C4OC3C4CC21

>  <smiles>  (39) 
[H]OC1([H])C([H])([H])C2(C([H])([H])[H])C3=C([H])C(=O)C4([H])OC3([H])C4([H])C([H])([H])C2([H])C2([H])C([H])([H])C([H])([H])C(=O)C(C([H])([H])[H])(C([H])([H])[H])C12[H]

$$$$
8:0:1
     RDKit          3D

 50 54  0  0  1  0  0  0  0  0999 V2000
    2.1027   -8.3315    2.0455 C   0  0  0  0  0  0  0  0  0  0  0  0
    2.1972   -6.8446    2.4793 C   0  0  0  0  0  0  0  0  0  0  0  0
    0.7394   -6.3171    2.4481 C   0  0  0  0  0  0  0  0  0  0  0  0
    2.7164   -6.7415    3.9301 C   0  0  0  0  0  0  0  0  0  0  0  0
    2.9240   -7.7239    4.6342 O   0  0  0  0  0  0  0  0  0  0  0  0
    2.9178   -5.3327    4.4827 C   0  0  0  0  0  0  0  0  0  0  0  0
    3.7532   -4.4704    3.5249 C   0  0  0  0  0  0  0  0  0  0  0  0
    3.2316   -4.5073    2.0600 C   0  0  2  0  0  0  0  0  0  0  0  0
    3.1049   -5.9708    1.5274 C   0  0  1  0  0  0  0  0  0  0  0  0
    4.5535   -6.4635    1.2187 C   0  0  1  0  0  0  0  0  0  0  0  0
    4.6405   -7.7950    0.7530 O   0  0  0  0  0  0  0  0  0  0  0  0
    5.1426   -5.5938    0.0940 C   0  0  0  0  0  0  0  0  0  0  0  0
    5.3300   -4.0929    0.4424 C   0  0  1  0  0  0  0  0  0  0  0  0
    6.5689   -3.9505    1.3483 C   0  0  0  0  0  0  0  0  0  0  0  0
    5.5609   -3.2092   -0.8046 C   0  0  0  0  0  0  0  0  0  0  0  0
    5.3010   -3.6460   -2.0678 C   0  0  0  0  0  0  0  0  0  0  0  0
    4.4412   -2.7409   -2.8712 C   0  0  0  0  0  0  0  0  0  0  0  0
    4.0292   -3.0454   -3.9909 O   0  0  0  0  0  0  0  0  0  0  0  0
    4.1050   -1.4626   -2.0992 C   0  0  2  0  0  0  0  0  0  0  0  0
    5.3950   -0.9138   -1.7300 O   0  0  0  0  0  0  0  0  0  0  0  0
    5.3208   -1.7172   -0.5228 C   0  0  1  0  0  0  0  0  0  0  0  0
    3.8064   -1.6128   -0.5688 C   0  0  2  0  0  0  0  0  0  0  0  0
    3.0616   -2.7911    0.1091 C   0  0  0  0  0  0  0  0  0  0  0  0
    4.0093   -3.5309    1.1217 C   0  0  1  0  0  0  0  0  0  0  0  0
    1.9358   -8.4254    0.9719 H   0  0  0  0  0  0  0  0  0  0  0  0
    1.2804   -8.8493    2.5406 H   0  0  0  0  0  0  0  0  0  0  0  0
    3.0022   -8.8950    2.2962 H   0  0  0  0  0  0  0  0  0  0  0  0
    0.3575   -6.2858    1.4274 H   0  0  0  0  0  0  0  0  0  0  0  0
    0.6317   -5.3200    2.8746 H   0  0  0  0  0  0  0  0  0  0  0  0
    0.0710   -6.9617    3.0232 H   0  0  0  0  0  0  0  0  0  0  0  0
    1.9396   -4.8826    4.6369 H   0  0  0  0  0  0  0  0  0  0  0  0
    3.3881   -5.3916    5.4636 H   0  0  0  0  0  0  0  0  0  0  0  0
    3.7430   -3.4441    3.8948 H   0  0  0  0  0  0  0  0  0  0  0  0
    4.7903   -4.7976    3.5909 H   0  0  0  0  0  0  0  0  0  0  0  0
    2.2297   -4.0913    2.1242 H   0  0  0  0  0  0  0  0  0  0  0  0
    2.5836   -5.9295    0.5702 H   0  0  0  0  0  0  0  0  0  0  0  0
    5.1824   -6.4203    2.1072 H   0  0  0  0  0  0  0  0  0  0  0  0
    4.1280   -7.8877   -0.0320 H   0  0  0  0  0  0  0  0  0  0  0  0
    6.1053   -5.9909   -0.2278 H   0  0  0  0  0  0  0  0  0  0  0  0
    4.4606   -5.7127   -0.7447 H   0  0  0  0  0  0  0  0  0  0  0  0
    6.5194   -4.5922    2.2230 H   0  0  0  0  0  0  0  0  0  0  0  0
    6.6964   -2.9290    1.7059 H   0  0  0  0  0  0  0  0  0  0  0  0
    7.4798   -4.2186    0.8128 H   0  0  0  0  0  0  0  0  0  0  0  0
    5.2783   -4.6802   -2.3618 H   0  0  0  0  0  0  0  0  0  0  0  0
    3.4588   -0.7442   -2.6098 H   0  0  0  0  0  0  0  0  0  0  0  0
    5.7906   -1.2708    0.3552 H   0  0  0  0  0  0  0  0  0  0  0  0
    3.4929   -0.6470   -0.1802 H   0  0  0  0  0  0  0  0  0  0  0  0
    2.1837   -2.4105    0.6298 H   0  0  0  0  0  0  0  0  0  0  0  0
    2.6865   -3.4975   -0.6340 H   0  0  0  0  0  0  0  0  0  0  0  0
    4.3292   -2.7243    1.7825 H   0  0  0  0  0  0  0  0  0  0  0  0
  1  2  1  0
  1 25  1  0
  1 26  1  0
  1 27  1  0
  2  9  1  0
  2  3  1  0
  2  4  1  0
  3 28  1  0
  3 29  1  0
  3 30  1  0
  4  5  2  0
  4  6  1  0
  6  7  1  0
  6 31  1  0
  6 32  1  0
  7  8  1  0
  7 33  1  0
  7 34  1  0
  8 24  1  0
  8  9  1  0
  8 35  1  1
  9 10  1  0
  9 36  1  6
 10 11  1  0
 10 12  1  0
 10 37  1  1
 11 38  1  0
 12 13  1  0
 12 39  1  0
 12 40  1  0
 13 24  1  0
 13 14  1  1
 13 15  1  0
 14 41  1  0
 14 42  1  0
 14 43  1  0
 15 21  1  0
 15 16  2  0
 16 17  1  0
 16 44  1  0
 17 18  2  0
 17 19  1  0
 19 22  1  0
 19 20  1  0
 19 45  1  6
 20 21  1  0
 21 22  1  0
 21 46  1  1
 22 23  1  0
 22 47  1  1
 23 24  1  0
 23 48  1  0
 23 49  1  0
 24 50  1  1
M  END
>  <i_m_ct_stereo_status>  (40) 
1

>  <s_m_source_file>  (40) 
/var/tmp/pbs.5076255.sched01/tmpd0mq1ayv/02wja6gfv.sdf

>  <i_m_source_file_index>  (40) 
14

>  <i_lp_mmshare_version>  (40) 
48012

>  <i_f3d_flags>  (40) 
0

>  <s_epik_input>  (40) 
W0NIMl0xW0NIMl1DKD1PKUMoW0NIM10pKFtDSDNdKVtDQEhdKFtDQEBIXShbT0hdKVtDSDJdMilbQ0BASF0xW0NAQEhdM1tDSDJdW0NASF0oW0NAQEhdKE80KUMoPU8pW0NIXTUpW0NASF00Qz01W0NAXTIzW0NIM10=

>  <s_epik_cmdline>  (40) 
J2VwaWtfcHl0aG9uJywgJy1waHQnLCAnMi4wJywgJy1waCcsICc3LjAnLCAnLXRuJywgJzgnLCAnLW1hJywgJzIwMCcsICctaW1hZScsICc8aW5maWxlLm1hZT4nLCAnLW9tYWUnLCAnPG91dGZpbGUubWFlPic=

>  <r_lp_tautomer_probability>  (40) 
1

>  <r_epik_Ionization_Penalty>  (40) 
2.11157e-07

>  <r_epik_Ionization_Penalty_Charging>  (40) 
0

>  <r_epik_Ionization_Penalty_Neutral>  (40) 
2.11157e-07

>  <r_epik_State_Penalty>  (40) 
-0

>  <r_epik_Charging_Adjusted_Penalty>  (40) 
0

>  <i_epik_Tot_Q>  (40) 
0

>  <i_epik_Tot_abs_Q>  (40) 
0

>  <s_lp_Force_Field>  (40) 
OPLS3e

>  <r_lp_Energy>  (40) 
93.3672

>  <b_lp_Chiralities_Consistent>  (40) 
1

>  <s_lp_Variant>  (40) 
8:0-1

>  <s_i_glide_gridfile>  (40) 
pfpi4k_grid

>  <i_i_glide_lignum>  (40) 
14

>  <i_i_glide_rotatable_bonds>  (40) 
1

>  <r_i_docking_score>  (40) 
-3.81194

>  <r_i_glide_ligand_efficiency>  (40) 
-0.158831

>  <r_i_glide_ligand_efficiency_sa>  (40) 
-0.458148

>  <r_i_glide_ligand_efficiency_ln>  (40) 
-0.912373

>  <r_i_glide_gscore>  (40) 
-3.81194

>  <r_i_glide_lipo>  (40) 
-0.470144

>  <r_i_glide_hbond>  (40) 
-0.132197

>  <r_i_glide_metal>  (40) 
-0

>  <r_i_glide_rewards>  (40) 
-1.29031

>  <r_i_glide_evdw>  (40) 
-28.7142

>  <r_i_glide_ecoul>  (40) 
-3.22121

>  <r_i_glide_erotb>  (40) 
0

>  <r_i_glide_esite>  (40) 
-0.000398279

>  <r_i_glide_emodel>  (40) 
-39.3027

>  <r_i_glide_energy>  (40) 
-31.9354

>  <r_i_glide_einternal>  (40) 
0.00155614

>  <r_i_glide_intrahb_reward>  (40) 
-0

>  <i_i_glide_confnum>  (40) 
2

>  <i_i_glide_posenum>  (40) 
17

>  <r_i_glide_eff_state_penalty>  (40) 
0

>  <ligand_id>  (40) 
8

>  <original_smiles>  (40) 
CC1(C)C(=O)CCC2C1C(O)CC1(C)C3=CC(=O)C4OC3C4CC21

>  <smiles>  (40) 
[H]OC1([H])C([H])([H])C2(C([H])([H])[H])C3=C([H])C(=O)C4([H])OC3([H])C4([H])C([H])([H])C2([H])C2([H])C([H])([H])C([H])([H])C(=O)C(C([H])([H])[H])(C([H])([H])[H])C12[H]

$$$$
8:0:2
     RDKit          3D

 50 54  0  0  1  0  0  0  0  0999 V2000
    2.0017   -8.3235    2.0803 C   0  0  0  0  0  0  0  0  0  0  0  0
    2.1460   -6.8423    2.5193 C   0  0  0  0  0  0  0  0  0  0  0  0
    0.6997   -6.2892    2.5181 C   0  0  0  0  0  0  0  0  0  0  0  0
    2.6934   -6.7587    3.9614 C   0  0  0  0  0  0  0  0  0  0  0  0
    2.8799   -7.7476    4.6553 O   0  0  0  0  0  0  0  0  0  0  0  0
    2.9297   -5.3566    4.5207 C   0  0  0  0  0  0  0  0  0  0  0  0
    3.7643   -4.5093    3.5526 C   0  0  0  0  0  0  0  0  0  0  0  0
    3.2151   -4.5292    2.0960 C   0  0  2  0  0  0  0  0  0  0  0  0
    3.0538   -5.9859    1.5571 C   0  0  1  0  0  0  0  0  0  0  0  0
    4.4916   -6.4963    1.2357 C   0  0  1  0  0  0  0  0  0  0  0  0
    4.5167   -7.8109    0.7192 O   0  0  0  0  0  0  0  0  0  0  0  0
    5.0706   -5.6363    0.1006 C   0  0  0  0  0  0  0  0  0  0  0  0
    5.2957   -4.1466    0.4472 C   0  0  1  0  0  0  0  0  0  0  0  0
    6.5542   -4.0405    1.3299 C   0  0  0  0  0  0  0  0  0  0  0  0
    5.5193   -3.2710   -0.8008 C   0  0  0  0  0  0  0  0  0  0  0  0
    5.2225   -3.6994   -2.0624 C   0  0  0  0  0  0  0  0  0  0  0  0
    4.3918   -2.7560   -2.8402 C   0  0  0  0  0  0  0  0  0  0  0  0
    3.9620   -3.0434   -3.9637 O   0  0  0  0  0  0  0  0  0  0  0  0
    4.0870   -1.4892   -2.0612 C   0  0  2  0  0  0  0  0  0  0  0  0
    5.3931   -0.9714   -1.7195 O   0  0  0  0  0  0  0  0  0  0  0  0
    5.3200   -1.7761   -0.5182 C   0  0  1  0  0  0  0  0  0  0  0  0
    3.8168   -1.6429   -0.5258 C   0  0  2  0  0  0  0  0  0  0  0  0
    3.0506   -2.7938    0.1671 C   0  0  0  0  0  0  0  0  0  0  0  0
    4.0007   -3.5665    1.1540 C   0  0  1  0  0  0  0  0  0  0  0  0
    1.8177   -8.4053    1.0083 H   0  0  0  0  0  0  0  0  0  0  0  0
    1.1765   -8.8267    2.5876 H   0  0  0  0  0  0  0  0  0  0  0  0
    2.8920   -8.9069    2.3100 H   0  0  0  0  0  0  0  0  0  0  0  0
    0.2979   -6.2464    1.5063 H   0  0  0  0  0  0  0  0  0  0  0  0
    0.6241   -5.2930    2.9507 H   0  0  0  0  0  0  0  0  0  0  0  0
    0.0261   -6.9165    3.1046 H   0  0  0  0  0  0  0  0  0  0  0  0
    1.9647   -4.8898    4.6953 H   0  0  0  0  0  0  0  0  0  0  0  0
    3.4141   -5.4348    5.4935 H   0  0  0  0  0  0  0  0  0  0  0  0
    3.7814   -3.4852    3.9277 H   0  0  0  0  0  0  0  0  0  0  0  0
    4.7939   -4.8635    3.5994 H   0  0  0  0  0  0  0  0  0  0  0  0
    2.2256   -4.0879    2.1788 H   0  0  0  0  0  0  0  0  0  0  0  0
    2.5170   -5.9403    0.6082 H   0  0  0  0  0  0  0  0  0  0  0  0
    5.1312   -6.4848    2.1240 H   0  0  0  0  0  0  0  0  0  0  0  0
    5.3933   -8.1462    0.7994 H   0  0  0  0  0  0  0  0  0  0  0  0
    6.0101   -6.0570   -0.2483 H   0  0  0  0  0  0  0  0  0  0  0  0
    4.3592   -5.7482   -0.7152 H   0  0  0  0  0  0  0  0  0  0  0  0
    6.5044   -4.6838    2.2028 H   0  0  0  0  0  0  0  0  0  0  0  0
    6.7122   -3.0255    1.6885 H   0  0  0  0  0  0  0  0  0  0  0  0
    7.4458   -4.3295    0.7760 H   0  0  0  0  0  0  0  0  0  0  0  0
    5.1606   -4.7299   -2.3584 H   0  0  0  0  0  0  0  0  0  0  0  0
    3.4440   -0.7477   -2.5392 H   0  0  0  0  0  0  0  0  0  0  0  0
    5.8051   -1.3466    0.3581 H   0  0  0  0  0  0  0  0  0  0  0  0
    3.5416   -0.6630   -0.1444 H   0  0  0  0  0  0  0  0  0  0  0  0
    2.1859   -2.3976    0.7002 H   0  0  0  0  0  0  0  0  0  0  0  0
    2.6569   -3.4865   -0.5817 H   0  0  0  0  0  0  0  0  0  0  0  0
    4.3471   -2.7720    1.8116 H   0  0  0  0  0  0  0  0  0  0  0  0
  1  2  1  0
  1 25  1  0
  1 26  1  0
  1 27  1  0
  2  9  1  0
  2  3  1  0
  2  4  1  0
  3 28  1  0
  3 29  1  0
  3 30  1  0
  4  5  2  0
  4  6  1  0
  6  7  1  0
  6 31  1  0
  6 32  1  0
  7  8  1  0
  7 33  1  0
  7 34  1  0
  8 24  1  0
  8  9  1  0
  8 35  1  1
  9 10  1  0
  9 36  1  6
 10 11  1  0
 10 12  1  0
 10 37  1  1
 11 38  1  0
 12 13  1  0
 12 39  1  0
 12 40  1  0
 13 24  1  0
 13 14  1  1
 13 15  1  0
 14 41  1  0
 14 42  1  0
 14 43  1  0
 15 21  1  0
 15 16  2  0
 16 17  1  0
 16 44  1  0
 17 18  2  0
 17 19  1  0
 19 22  1  0
 19 20  1  0
 19 45  1  6
 20 21  1  0
 21 22  1  0
 21 46  1  1
 22 23  1  0
 22 47  1  1
 23 24  1  0
 23 48  1  0
 23 49  1  0
 24 50  1  1
M  END
>  <i_m_ct_stereo_status>  (41) 
1

>  <s_m_source_file>  (41) 
/var/tmp/pbs.5076255.sched01/tmpd0mq1ayv/02wja6gfv.sdf

>  <i_m_source_file_index>  (41) 
14

>  <i_lp_mmshare_version>  (41) 
48012

>  <i_f3d_flags>  (41) 
0

>  <s_epik_input>  (41) 
W0NIMl0xW0NIMl1DKD1PKUMoW0NIM10pKFtDSDNdKVtDQEhdKFtDQEBIXShbT0hdKVtDSDJdMilbQ0BASF0xW0NAQEhdM1tDSDJdW0NASF0oW0NAQEhdKE80KUMoPU8pW0NIXTUpW0NASF00Qz01W0NAXTIzW0NIM10=

>  <s_epik_cmdline>  (41) 
J2VwaWtfcHl0aG9uJywgJy1waHQnLCAnMi4wJywgJy1waCcsICc3LjAnLCAnLXRuJywgJzgnLCAnLW1hJywgJzIwMCcsICctaW1hZScsICc8aW5maWxlLm1hZT4nLCAnLW9tYWUnLCAnPG91dGZpbGUubWFlPic=

>  <r_lp_tautomer_probability>  (41) 
1

>  <r_epik_Ionization_Penalty>  (41) 
2.11157e-07

>  <r_epik_Ionization_Penalty_Charging>  (41) 
0

>  <r_epik_Ionization_Penalty_Neutral>  (41) 
2.11157e-07

>  <r_epik_State_Penalty>  (41) 
-0

>  <r_epik_Charging_Adjusted_Penalty>  (41) 
0

>  <i_epik_Tot_Q>  (41) 
0

>  <i_epik_Tot_abs_Q>  (41) 
0

>  <s_lp_Force_Field>  (41) 
OPLS3e

>  <r_lp_Energy>  (41) 
93.3672

>  <b_lp_Chiralities_Consistent>  (41) 
1

>  <s_lp_Variant>  (41) 
8:0-1

>  <s_i_glide_gridfile>  (41) 
pfpi4k_grid

>  <i_i_glide_lignum>  (41) 
14

>  <i_i_glide_rotatable_bonds>  (41) 
1

>  <r_i_docking_score>  (41) 
-3.74609

>  <r_i_glide_ligand_efficiency>  (41) 
-0.156087

>  <r_i_glide_ligand_efficiency_sa>  (41) 
-0.450233

>  <r_i_glide_ligand_efficiency_ln>  (41) 
-0.896611

>  <r_i_glide_gscore>  (41) 
-3.74609

>  <r_i_glide_lipo>  (41) 
-0.447496

>  <r_i_glide_hbond>  (41) 
-0.113598

>  <r_i_glide_metal>  (41) 
-0

>  <r_i_glide_rewards>  (41) 
-1.27752

>  <r_i_glide_evdw>  (41) 
-28.961

>  <r_i_glide_ecoul>  (41) 
-3.06015

>  <r_i_glide_erotb>  (41) 
0

>  <r_i_glide_esite>  (41) 
-0.000398301

>  <r_i_glide_emodel>  (41) 
-38.9437

>  <r_i_glide_energy>  (41) 
-32.0212

>  <r_i_glide_einternal>  (41) 
0.448008

>  <r_i_glide_intrahb_reward>  (41) 
-0

>  <i_i_glide_confnum>  (41) 
2

>  <i_i_glide_posenum>  (41) 
9

>  <r_i_glide_eff_state_penalty>  (41) 
0

>  <ligand_id>  (41) 
8

>  <original_smiles>  (41) 
CC1(C)C(=O)CCC2C1C(O)CC1(C)C3=CC(=O)C4OC3C4CC21

>  <smiles>  (41) 
[H]OC1([H])C([H])([H])C2(C([H])([H])[H])C3=C([H])C(=O)C4([H])OC3([H])C4([H])C([H])([H])C2([H])C2([H])C([H])([H])C([H])([H])C(=O)C(C([H])([H])[H])(C([H])([H])[H])C12[H]

$$$$
10:0:0
     RDKit          3D

 82 88  0  0  1  0  0  0  0  0999 V2000
    5.7347   -0.6298    0.8222 C   0  0  0  0  0  0  0  0  0  0  0  0
    4.2432   -0.3890    1.0397 C   0  0  0  0  0  0  0  0  0  0  0  0
    3.7775   -0.0971    2.2502 C   0  0  0  0  0  0  0  0  0  0  0  0
    2.2939    0.0678    2.6181 C   0  0  2  0  0  0  0  0  0  0  0  0
    1.9742    1.4112    3.3242 C   0  0  0  0  0  0  0  0  0  0  0  0
    1.7790   -1.0234    3.3972 O   0  0  0  0  0  0  0  0  0  0  0  0
    2.1422   -1.3821    4.7586 C   0  0  1  0  0  0  0  0  0  0  0  0
    3.6524   -1.0870    5.0824 C   0  0  0  0  0  0  0  0  0  0  0  0
    1.2620   -0.6137    5.8518 C   0  0  1  0  0  0  0  0  0  0  0  0
   -0.1396   -0.6819    5.5817 O   0  0  0  0  0  0  0  0  0  0  0  0
    1.5619   -1.1477    7.2805 C   0  0  1  0  0  0  0  0  0  0  0  0
    0.5322   -0.8948    8.2167 O   0  0  0  0  0  0  0  0  0  0  0  0
    1.9632   -2.6087    7.3680 C   0  0  0  0  0  0  0  0  0  0  0  0
    2.1099   -3.4072    6.2740 C   0  0  0  0  0  0  0  0  0  0  0  0
    2.7387   -4.7758    6.2695 C   0  0  0  0  0  0  0  0  0  0  0  0
    3.3284   -4.8427    4.8674 C   0  0  0  0  0  0  0  0  0  0  0  0
    2.8365   -3.8519    4.1047 C   0  0  0  0  0  0  0  0  0  0  0  0
    3.1631   -3.5614    2.6878 C   0  0  2  0  0  0  0  0  0  0  0  0
    2.2070   -4.0479    1.6890 O   0  0  0  0  0  0  0  0  0  0  0  0
    3.5502   -4.6173    1.6586 C   0  0  1  0  0  0  0  0  0  0  0  0
    4.4438   -4.2743    0.5778 C   0  0  0  0  0  0  0  0  0  0  0  0
    5.1787   -5.3541    0.3356 C   0  0  0  0  0  0  0  0  0  0  0  0
    4.8065   -6.4526    1.0717 O   0  0  0  0  0  0  0  0  0  0  0  0
    3.6210   -6.1190    1.8045 C   0  0  1  0  0  0  0  0  0  0  0  0
    3.6135   -6.7742    3.2084 C   0  0  2  0  0  0  0  0  0  0  0  0
    2.2201   -7.3557    3.5824 C   0  0  1  0  0  0  0  0  0  0  0  0
    1.6898   -8.4898    2.6896 C   0  0  0  0  0  0  0  0  0  0  0  0
    0.6226   -9.2160    3.5449 C   0  0  0  0  0  0  0  0  0  0  0  0
   -0.7768   -8.6372    3.2402 C   0  0  0  0  0  0  0  0  0  0  0  0
    0.6188  -10.7251    3.2451 C   0  0  0  0  0  0  0  0  0  0  0  0
    1.0219   -8.9338    5.0165 C   0  0  0  0  0  0  0  0  0  0  0  0
    2.2104   -8.0229    4.9214 C   0  0  0  0  0  0  0  0  0  0  0  0
    3.2362   -7.9156    5.8139 C   0  0  0  0  0  0  0  0  0  0  0  0
    4.4408   -7.0348    5.5536 C   0  0  0  0  0  0  0  0  0  0  0  0
    4.2470   -5.9937    4.4172 C   0  0  2  0  0  0  0  0  0  0  0  0
    5.6486   -5.4416    4.0655 C   0  0  0  0  0  0  0  0  0  0  0  0
    1.8675   -2.9462    4.8687 C   0  0  2  0  0  0  0  0  0  0  0  0
    0.4472   -3.3915    4.4544 C   0  0  0  0  0  0  0  0  0  0  0  0
    5.9252   -1.5977    0.3532 H   0  0  0  0  0  0  0  0  0  0  0  0
    6.2868   -0.6499    1.7760 H   0  0  0  0  0  0  0  0  0  0  0  0
    6.1866    0.1451    0.2075 H   0  0  0  0  0  0  0  0  0  0  0  0
    3.5947   -0.5027    0.1225 H   0  0  0  0  0  0  0  0  0  0  0  0
    4.4848    0.0628    3.0380 H   0  0  0  0  0  0  0  0  0  0  0  0
    1.6923    0.0248    1.6869 H   0  0  0  0  0  0  0  0  0  0  0  0
    2.3353    2.2411    2.6896 H   0  0  0  0  0  0  0  0  0  0  0  0
    2.4975    1.4804    4.2886 H   0  0  0  0  0  0  0  0  0  0  0  0
    0.8768    1.5021    3.4852 H   0  0  0  0  0  0  0  0  0  0  0  0
    3.9396   -1.3853    6.0878 H   0  0  0  0  0  0  0  0  0  0  0  0
    3.8246   -0.0079    5.0321 H   0  0  0  0  0  0  0  0  0  0  0  0
    4.2910   -1.5464    4.3167 H   0  0  0  0  0  0  0  0  0  0  0  0
    1.4894    0.4458    5.8689 H   0  0  0  0  0  0  0  0  0  0  0  0
   -0.3283   -1.5413    5.2940 H   0  0  0  0  0  0  0  0  0  0  0  0
    2.4261   -0.5872    7.6435 H   0  0  0  0  0  0  0  0  0  0  0  0
    0.9093   -0.8415    9.0749 H   0  0  0  0  0  0  0  0  0  0  0  0
    2.2660   -2.9857    8.3200 H   0  0  0  0  0  0  0  0  0  0  0  0
    3.4670   -4.8902    7.0603 H   0  0  0  0  0  0  0  0  0  0  0  0
    1.9470   -5.5183    6.3464 H   0  0  0  0  0  0  0  0  0  0  0  0
    3.5989   -2.5867    2.5130 H   0  0  0  0  0  0  0  0  0  0  0  0
    4.5104   -3.3046    0.0983 H   0  0  0  0  0  0  0  0  0  0  0  0
    5.9824   -5.4863   -0.3494 H   0  0  0  0  0  0  0  0  0  0  0  0
    2.7993   -6.5170    1.2030 H   0  0  0  0  0  0  0  0  0  0  0  0
    4.2506   -7.6474    3.0699 H   0  0  0  0  0  0  0  0  0  0  0  0
    1.4814   -6.5500    3.6121 H   0  0  0  0  0  0  0  0  0  0  0  0
    1.2975   -8.1434    1.7369 H   0  0  0  0  0  0  0  0  0  0  0  0
    2.5092   -9.1811    2.4752 H   0  0  0  0  0  0  0  0  0  0  0  0
   -1.5475   -9.1023    3.8577 H   0  0  0  0  0  0  0  0  0  0  0  0
   -1.0561   -8.8070    2.1993 H   0  0  0  0  0  0  0  0  0  0  0  0
   -0.8156   -7.5638    3.4282 H   0  0  0  0  0  0  0  0  0  0  0  0
   -0.1258  -11.2460    3.8502 H   0  0  0  0  0  0  0  0  0  0  0  0
    1.5834  -11.1837    3.4616 H   0  0  0  0  0  0  0  0  0  0  0  0
    0.3841  -10.9201    2.1974 H   0  0  0  0  0  0  0  0  0  0  0  0
    0.2262   -8.4136    5.5463 H   0  0  0  0  0  0  0  0  0  0  0  0
    1.2562   -9.8313    5.5785 H   0  0  0  0  0  0  0  0  0  0  0  0
    3.2275   -8.5077    6.7040 H   0  0  0  0  0  0  0  0  0  0  0  0
    4.7473   -6.5661    6.4826 H   0  0  0  0  0  0  0  0  0  0  0  0
    5.2597   -7.7043    5.3052 H   0  0  0  0  0  0  0  0  0  0  0  0
    6.3095   -6.2280    3.6926 H   0  0  0  0  0  0  0  0  0  0  0  0
    6.1300   -5.0017    4.9406 H   0  0  0  0  0  0  0  0  0  0  0  0
    5.6318   -4.6606    3.3030 H   0  0  0  0  0  0  0  0  0  0  0  0
    0.4048   -4.4776    4.4350 H   0  0  0  0  0  0  0  0  0  0  0  0
    0.2032   -3.0357    3.4545 H   0  0  0  0  0  0  0  0  0  0  0  0
   -0.3082   -3.0764    5.1652 H   0  0  0  0  0  0  0  0  0  0  0  0
  1  2  1  0
  1 39  1  0
  1 40  1  0
  1 41  1  0
  2  3  2  3
  2 42  1  0
  3  4  1  0
  3 43  1  0
  4  5  1  0
  4  6  1  0
  4 44  1  6
  5 45  1  0
  5 46  1  0
  5 47  1  0
  7  6  1  6
  7 37  1  0
  7  8  1  0
  7  9  1  0
  8 48  1  0
  8 49  1  0
  8 50  1  0
  9 10  1  0
  9 11  1  0
  9 51  1  1
 10 52  1  0
 11 12  1  0
 11 13  1  0
 11 53  1  1
 12 54  1  0
 13 14  2  0
 13 55  1  0
 14 37  1  0
 14 15  1  0
 15 16  1  0
 15 56  1  0
 15 57  1  0
 16 35  1  0
 16 17  2  0
 17 18  1  0
 17 37  1  0
 18 20  1  0
 18 19  1  0
 18 58  1  1
 20 19  1  6
 20 24  1  0
 20 21  1  0
 21 22  2  0
 21 59  1  0
 22 23  1  0
 22 60  1  0
 23 24  1  0
 24 25  1  0
 24 61  1  6
 25 35  1  0
 25 26  1  0
 25 62  1  6
 26 32  1  0
 26 27  1  0
 26 63  1  1
 27 28  1  0
 27 64  1  0
 27 65  1  0
 28 29  1  0
 28 30  1  0
 28 31  1  0
 29 66  1  0
 29 67  1  0
 29 68  1  0
 30 69  1  0
 30 70  1  0
 30 71  1  0
 31 32  1  0
 31 72  1  0
 31 73  1  0
 32 33  2  0
 33 34  1  0
 33 74  1  0
 34 35  1  0
 34 75  1  0
 34 76  1  0
 35 36  1  6
 36 77  1  0
 36 78  1  0
 36 79  1  0
 37 38  1  6
 38 80  1  0
 38 81  1  0
 38 82  1  0
M  END
>  <i_m_ct_stereo_status>  (42) 
1

>  <s_m_source_file>  (42) 
/var/tmp/pbs.5076255.sched01/tmpd0mq1ayv/02wja6gfv.sdf

>  <i_m_source_file_index>  (42) 
16

>  <i_lp_mmshare_version>  (42) 
48012

>  <i_f3d_flags>  (42) 
0

>  <s_epik_input>  (42) 
W0NIM10vW0NIXT1bQ0hdL1tDQEhdKFtDSDNdKU9bQ0BAXShbQ0gzXSkoW0NAQEhdKFtPSF0pW0NAQEhdKFtPSF0pW0NIXT0xKVtDQF0yKFtDSDNdKUMxW0NIMl1DKD1DMltDQEhdKE8zKVtDQEBdMzQ1KVtDQF02KFtDSDNdKVtDQEhdKFtDQEBIXTVPW0NIXT1bQ0hdNClbQ0BASF03Qyg9W0NIXVtDSDJdNilbQ0gyXUMoW0NIMl03KShbQ0gzXSlbQ0gzXQ==

>  <s_epik_cmdline>  (42) 
J2VwaWtfcHl0aG9uJywgJy1waHQnLCAnMi4wJywgJy1waCcsICc3LjAnLCAnLXRuJywgJzgnLCAnLW1hJywgJzIwMCcsICctaW1hZScsICc8aW5maWxlLm1hZT4nLCAnLW9tYWUnLCAnPG91dGZpbGUubWFlPic=

>  <r_lp_tautomer_probability>  (42) 
1

>  <r_epik_Ionization_Penalty>  (42) 
5.99779e-07

>  <r_epik_Ionization_Penalty_Charging>  (42) 
0

>  <r_epik_Ionization_Penalty_Neutral>  (42) 
5.99779e-07

>  <r_epik_State_Penalty>  (42) 
-0

>  <r_epik_Charging_Adjusted_Penalty>  (42) 
0

>  <i_epik_Tot_Q>  (42) 
0

>  <i_epik_Tot_abs_Q>  (42) 
0

>  <s_lp_Force_Field>  (42) 
OPLS3e

>  <r_lp_Energy>  (42) 
34.7286

>  <b_lp_Chiralities_Consistent>  (42) 
1

>  <s_lp_Variant>  (42) 
10:0-1

>  <s_i_glide_gridfile>  (42) 
pfpi4k_grid

>  <i_i_glide_lignum>  (42) 
16

>  <i_i_glide_rotatable_bonds>  (42) 
5

>  <r_i_docking_score>  (42) 
-1.87372

>  <r_i_glide_ligand_efficiency>  (42) 
-0.0493085

>  <r_i_glide_ligand_efficiency_sa>  (42) 
-0.165774

>  <r_i_glide_ligand_efficiency_ln>  (42) 
-0.40403

>  <r_i_glide_gscore>  (42) 
-1.87372

>  <r_i_glide_lipo>  (42) 
-0.507938

>  <r_i_glide_hbond>  (42) 
0

>  <r_i_glide_metal>  (42) 
-0

>  <r_i_glide_rewards>  (42) 
0

>  <r_i_glide_evdw>  (42) 
-27.6039

>  <r_i_glide_ecoul>  (42) 
-1.42004

>  <r_i_glide_erotb>  (42) 
0.227415

>  <r_i_glide_esite>  (42) 
0

>  <r_i_glide_emodel>  (42) 
-30.353

>  <r_i_glide_energy>  (42) 
-29.0239

>  <r_i_glide_einternal>  (42) 
2.29618

>  <r_i_glide_intrahb_reward>  (42) 
-0

>  <i_i_glide_confnum>  (42) 
4

>  <i_i_glide_posenum>  (42) 
30

>  <r_i_glide_eff_state_penalty>  (42) 
0

>  <ligand_id>  (42) 
10

>  <original_smiles>  (42) 
CC=CC(C)OC1(C)C(O)C(O)C=C2CC3=C(C4OC45C=COC5C4C5CC(C)(C)CC5=CCC34C)C21C

>  <smiles>  (42) 
[H]OC1([H])C([H])=C2C([H])([H])C3=C(C4([H])OC45C([H])=C([H])OC5([H])C4([H])C5([H])C(=C([H])C([H])([H])C34C([H])([H])[H])C([H])([H])C(C([H])([H])[H])(C([H])([H])[H])C5([H])[H])C2(C([H])([H])[H])C(OC([H])(C([H])=C([H])C([H])([H])[H])C([H])([H])[H])(C([H])([H])[H])C1([H])O[H]

$$$$
10:0:1
     RDKit          3D

 82 88  0  0  1  0  0  0  0  0999 V2000
    1.8741    4.2363    3.6824 C   0  0  0  0  0  0  0  0  0  0  0  0
    2.6507    2.9477    3.5334 C   0  0  0  0  0  0  0  0  0  0  0  0
    2.1693    1.8337    2.9638 C   0  0  0  0  0  0  0  0  0  0  0  0
    2.9467    0.5411    2.8265 C   0  0  2  0  0  0  0  0  0  0  0  0
    3.1569    0.1680    1.3573 C   0  0  0  0  0  0  0  0  0  0  0  0
    2.2411   -0.5549    3.4006 O   0  0  0  0  0  0  0  0  0  0  0  0
    2.2632   -0.8621    4.8037 C   0  0  1  0  0  0  0  0  0  0  0  0
    3.6697   -0.5857    5.4088 C   0  0  0  0  0  0  0  0  0  0  0  0
    1.2361    0.0223    5.5955 C   0  0  1  0  0  0  0  0  0  0  0  0
   -0.0135    0.0695    4.9380 O   0  0  0  0  0  0  0  0  0  0  0  0
    1.0441   -0.4705    7.0682 C   0  0  1  0  0  0  0  0  0  0  0  0
   -0.1862   -0.0776    7.6561 O   0  0  0  0  0  0  0  0  0  0  0  0
    1.2736   -1.9586    7.2777 C   0  0  0  0  0  0  0  0  0  0  0  0
    1.6281   -2.8089    6.2997 C   0  0  0  0  0  0  0  0  0  0  0  0
    2.0956   -4.2309    6.5042 C   0  0  0  0  0  0  0  0  0  0  0  0
    3.0531   -4.4113    5.3387 C   0  0  0  0  0  0  0  0  0  0  0  0
    2.9261   -3.4112    4.4555 C   0  0  0  0  0  0  0  0  0  0  0  0
    3.6565   -3.2223    3.1787 C   0  0  2  0  0  0  0  0  0  0  0  0
    3.0098   -3.6608    1.9741 O   0  0  0  0  0  0  0  0  0  0  0  0
    4.2096   -4.3510    2.3553 C   0  0  1  0  0  0  0  0  0  0  0  0
    5.4169   -4.1438    1.5624 C   0  0  0  0  0  0  0  0  0  0  0  0
    6.0724   -5.3017    1.5543 C   0  0  0  0  0  0  0  0  0  0  0  0
    5.4054   -6.3237    2.1723 O   0  0  0  0  0  0  0  0  0  0  0  0
    4.0925   -5.8552    2.5317 C   0  0  1  0  0  0  0  0  0  0  0  0
    3.6176   -6.4492    3.8825 C   0  0  2  0  0  0  0  0  0  0  0  0
    2.1276   -6.8851    3.8385 C   0  0  1  0  0  0  0  0  0  0  0  0
    1.7659   -8.0145    2.8619 C   0  0  0  0  0  0  0  0  0  0  0  0
    0.4311   -8.6123    3.3790 C   0  0  0  0  0  0  0  0  0  0  0  0
   -0.7572   -7.9326    2.6709 C   0  0  0  0  0  0  0  0  0  0  0  0
    0.3743  -10.1286    3.1243 C   0  0  0  0  0  0  0  0  0  0  0  0
    0.4182   -8.2923    4.8959 C   0  0  0  0  0  0  0  0  0  0  0  0
    1.6720   -7.4876    5.1386 C   0  0  0  0  0  0  0  0  0  0  0  0
    2.3907   -7.4356    6.2733 C   0  0  0  0  0  0  0  0  0  0  0  0
    3.7024   -6.6693    6.3739 C   0  0  0  0  0  0  0  0  0  0  0  0
    3.9453   -5.6681    5.1998 C   0  0  2  0  0  0  0  0  0  0  0  0
    5.4353   -5.2584    5.2701 C   0  0  0  0  0  0  0  0  0  0  0  0
    1.8660   -2.3896    4.8672 C   0  0  2  0  0  0  0  0  0  0  0  0
    0.5899   -2.7452    4.0724 C   0  0  0  0  0  0  0  0  0  0  0  0
    1.7952    4.5086    4.7357 H   0  0  0  0  0  0  0  0  0  0  0  0
    0.8672    4.1395    3.2715 H   0  0  0  0  0  0  0  0  0  0  0  0
    2.3828    5.0406    3.1523 H   0  0  0  0  0  0  0  0  0  0  0  0
    3.6609    2.9516    3.9214 H   0  0  0  0  0  0  0  0  0  0  0  0
    1.1606    1.8245    2.5712 H   0  0  0  0  0  0  0  0  0  0  0  0
    3.9444    0.6646    3.2426 H   0  0  0  0  0  0  0  0  0  0  0  0
    3.7213    0.9454    0.8460 H   0  0  0  0  0  0  0  0  0  0  0  0
    2.2045    0.0298    0.8449 H   0  0  0  0  0  0  0  0  0  0  0  0
    3.7197   -0.7617    1.2607 H   0  0  0  0  0  0  0  0  0  0  0  0
    3.7599   -0.9534    6.4277 H   0  0  0  0  0  0  0  0  0  0  0  0
    3.8664    0.4843    5.4602 H   0  0  0  0  0  0  0  0  0  0  0  0
    4.4787   -1.0321    4.8379 H   0  0  0  0  0  0  0  0  0  0  0  0
    1.5790    1.0560    5.6202 H   0  0  0  0  0  0  0  0  0  0  0  0
    0.1336    0.4310    4.0748 H   0  0  0  0  0  0  0  0  0  0  0  0
    1.8286    0.0023    7.6612 H   0  0  0  0  0  0  0  0  0  0  0  0
   -0.1295    0.8525    7.8236 H   0  0  0  0  0  0  0  0  0  0  0  0
    1.2169   -2.3160    8.2935 H   0  0  0  0  0  0  0  0  0  0  0  0
    2.5497   -4.3706    7.4818 H   0  0  0  0  0  0  0  0  0  0  0  0
    1.2520   -4.9084    6.3830 H   0  0  0  0  0  0  0  0  0  0  0  0
    4.1778   -2.2743    3.0965 H   0  0  0  0  0  0  0  0  0  0  0  0
    5.7245   -3.2043    1.1196 H   0  0  0  0  0  0  0  0  0  0  0  0
    7.0316   -5.5511    1.1172 H   0  0  0  0  0  0  0  0  0  0  0  0
    3.4466   -6.2099    1.7289 H   0  0  0  0  0  0  0  0  0  0  0  0
    4.1801   -7.3804    3.9554 H   0  0  0  0  0  0  0  0  0  0  0  0
    1.4875   -6.0234    3.6428 H   0  0  0  0  0  0  0  0  0  0  0  0
    1.7047   -7.6812    1.8281 H   0  0  0  0  0  0  0  0  0  0  0  0
    2.5429   -8.7810    2.9007 H   0  0  0  0  0  0  0  0  0  0  0  0
   -1.7088   -8.3091    3.0474 H   0  0  0  0  0  0  0  0  0  0  0  0
   -0.7354   -8.1222    1.5976 H   0  0  0  0  0  0  0  0  0  0  0  0
   -0.7429   -6.8537    2.8188 H   0  0  0  0  0  0  0  0  0  0  0  0
   -0.5631  -10.5497    3.4884 H   0  0  0  0  0  0  0  0  0  0  0  0
    1.1877  -10.6526    3.6278 H   0  0  0  0  0  0  0  0  0  0  0  0
    0.4447  -10.3535    2.0615 H   0  0  0  0  0  0  0  0  0  0  0  0
   -0.4433   -7.6810    5.1661 H   0  0  0  0  0  0  0  0  0  0  0  0
    0.4014   -9.1847    5.5228 H   0  0  0  0  0  0  0  0  0  0  0  0
    2.0690   -7.9775    7.1510 H   0  0  0  0  0  0  0  0  0  0  0  0
    3.7691   -6.1809    7.3465 H   0  0  0  0  0  0  0  0  0  0  0  0
    4.4877   -7.4252    6.3760 H   0  0  0  0  0  0  0  0  0  0  0  0
    6.0895   -6.1191    5.1223 H   0  0  0  0  0  0  0  0  0  0  0  0
    5.6807   -4.8252    6.2407 H   0  0  0  0  0  0  0  0  0  0  0  0
    5.7164   -4.5190    4.5214 H   0  0  0  0  0  0  0  0  0  0  0  0
    0.4328   -3.8243    4.0670 H   0  0  0  0  0  0  0  0  0  0  0  0
    0.6417   -2.4238    3.0306 H   0  0  0  0  0  0  0  0  0  0  0  0
   -0.3102   -2.3233    4.5183 H   0  0  0  0  0  0  0  0  0  0  0  0
  1  2  1  0
  1 39  1  0
  1 40  1  0
  1 41  1  0
  2  3  2  3
  2 42  1  0
  3  4  1  0
  3 43  1  0
  4  5  1  0
  4  6  1  0
  4 44  1  1
  5 45  1  0
  5 46  1  0
  5 47  1  0
  7  6  1  6
  7 37  1  0
  7  8  1  0
  7  9  1  0
  8 48  1  0
  8 49  1  0
  8 50  1  0
  9 10  1  0
  9 11  1  0
  9 51  1  1
 10 52  1  0
 11 12  1  0
 11 13  1  0
 11 53  1  1
 12 54  1  0
 13 14  2  0
 13 55  1  0
 14 37  1  0
 14 15  1  0
 15 16  1  0
 15 56  1  0
 15 57  1  0
 16 35  1  0
 16 17  2  0
 17 18  1  0
 17 37  1  0
 18 20  1  0
 18 19  1  0
 18 58  1  6
 20 19  1  6
 20 24  1  0
 20 21  1  0
 21 22  2  0
 21 59  1  0
 22 23  1  0
 22 60  1  0
 23 24  1  0
 24 25  1  0
 24 61  1  6
 25 35  1  0
 25 26  1  0
 25 62  1  1
 26 32  1  0
 26 27  1  0
 26 63  1  6
 27 28  1  0
 27 64  1  0
 27 65  1  0
 28 29  1  0
 28 30  1  0
 28 31  1  0
 29 66  1  0
 29 67  1  0
 29 68  1  0
 30 69  1  0
 30 70  1  0
 30 71  1  0
 31 32  1  0
 31 72  1  0
 31 73  1  0
 32 33  2  0
 33 34  1  0
 33 74  1  0
 34 35  1  0
 34 75  1  0
 34 76  1  0
 35 36  1  6
 36 77  1  0
 36 78  1  0
 36 79  1  0
 37 38  1  6
 38 80  1  0
 38 81  1  0
 38 82  1  0
M  END
>  <i_m_ct_stereo_status>  (43) 
1

>  <s_m_source_file>  (43) 
/var/tmp/pbs.5076255.sched01/tmpd0mq1ayv/02wja6gfv.sdf

>  <i_m_source_file_index>  (43) 
16

>  <i_lp_mmshare_version>  (43) 
48012

>  <i_f3d_flags>  (43) 
0

>  <s_epik_input>  (43) 
W0NIM10vW0NIXT1bQ0hdL1tDQEhdKFtDSDNdKU9bQ0BAXShbQ0gzXSkoW0NAQEhdKFtPSF0pW0NAQEhdKFtPSF0pW0NIXT0xKVtDQF0yKFtDSDNdKUMxW0NIMl1DKD1DMltDQEhdKE8zKVtDQEBdMzQ1KVtDQF02KFtDSDNdKVtDQEhdKFtDQEBIXTVPW0NIXT1bQ0hdNClbQ0BASF03Qyg9W0NIXVtDSDJdNilbQ0gyXUMoW0NIMl03KShbQ0gzXSlbQ0gzXQ==

>  <s_epik_cmdline>  (43) 
J2VwaWtfcHl0aG9uJywgJy1waHQnLCAnMi4wJywgJy1waCcsICc3LjAnLCAnLXRuJywgJzgnLCAnLW1hJywgJzIwMCcsICctaW1hZScsICc8aW5maWxlLm1hZT4nLCAnLW9tYWUnLCAnPG91dGZpbGUubWFlPic=

>  <r_lp_tautomer_probability>  (43) 
1

>  <r_epik_Ionization_Penalty>  (43) 
5.99779e-07

>  <r_epik_Ionization_Penalty_Charging>  (43) 
0

>  <r_epik_Ionization_Penalty_Neutral>  (43) 
5.99779e-07

>  <r_epik_State_Penalty>  (43) 
-0

>  <r_epik_Charging_Adjusted_Penalty>  (43) 
0

>  <i_epik_Tot_Q>  (43) 
0

>  <i_epik_Tot_abs_Q>  (43) 
0

>  <s_lp_Force_Field>  (43) 
OPLS3e

>  <r_lp_Energy>  (43) 
34.7286

>  <b_lp_Chiralities_Consistent>  (43) 
1

>  <s_lp_Variant>  (43) 
10:0-1

>  <s_i_glide_gridfile>  (43) 
pfpi4k_grid

>  <i_i_glide_lignum>  (43) 
16

>  <i_i_glide_rotatable_bonds>  (43) 
5

>  <r_i_docking_score>  (43) 
-1.59738

>  <r_i_glide_ligand_efficiency>  (43) 
-0.0420362

>  <r_i_glide_ligand_efficiency_sa>  (43) 
-0.141325

>  <r_i_glide_ligand_efficiency_ln>  (43) 
-0.344442

>  <r_i_glide_gscore>  (43) 
-1.59738

>  <r_i_glide_lipo>  (43) 
-0.23075

>  <r_i_glide_hbond>  (43) 
0

>  <r_i_glide_metal>  (43) 
-0

>  <r_i_glide_rewards>  (43) 
0

>  <r_i_glide_evdw>  (43) 
-26.6959

>  <r_i_glide_ecoul>  (43) 
-1.72832

>  <r_i_glide_erotb>  (43) 
0.227415

>  <r_i_glide_esite>  (43) 
0

>  <r_i_glide_emodel>  (43) 
-30.7792

>  <r_i_glide_energy>  (43) 
-28.4242

>  <r_i_glide_einternal>  (43) 
1.47964

>  <r_i_glide_intrahb_reward>  (43) 
-0

>  <i_i_glide_confnum>  (43) 
4

>  <i_i_glide_posenum>  (43) 
23

>  <r_i_glide_eff_state_penalty>  (43) 
0

>  <ligand_id>  (43) 
10

>  <original_smiles>  (43) 
CC=CC(C)OC1(C)C(O)C(O)C=C2CC3=C(C4OC45C=COC5C4C5CC(C)(C)CC5=CCC34C)C21C

>  <smiles>  (43) 
[H]OC1([H])C([H])=C2C([H])([H])C3=C(C4([H])OC45C([H])=C([H])OC5([H])C4([H])C5([H])C(=C([H])C([H])([H])C34C([H])([H])[H])C([H])([H])C(C([H])([H])[H])(C([H])([H])[H])C5([H])[H])C2(C([H])([H])[H])C(OC([H])(C([H])=C([H])C([H])([H])[H])C([H])([H])[H])(C([H])([H])[H])C1([H])O[H]

$$$$
10:0:2
     RDKit          3D

 82 88  0  0  1  0  0  0  0  0999 V2000
    9.1076   -3.4809    9.8842 C   0  0  0  0  0  0  0  0  0  0  0  0
    8.5229   -3.4362    8.4907 C   0  0  0  0  0  0  0  0  0  0  0  0
    7.2101   -3.4903    8.2183 C   0  0  0  0  0  0  0  0  0  0  0  0
    6.6183   -3.4893    6.8241 C   0  0  2  0  0  0  0  0  0  0  0  0
    5.7072   -2.2722    6.6188 C   0  0  0  0  0  0  0  0  0  0  0  0
    5.7892   -4.6241    6.5885 O   0  0  0  0  0  0  0  0  0  0  0  0
    6.3037   -5.9607    6.4542 C   0  0  1  0  0  0  0  0  0  0  0  0
    7.5568   -5.9683    5.5269 C   0  0  0  0  0  0  0  0  0  0  0  0
    6.7417   -6.5600    7.8391 C   0  0  1  0  0  0  0  0  0  0  0  0
    5.7752   -6.3113    8.8427 O   0  0  0  0  0  0  0  0  0  0  0  0
    7.0633   -8.0821    7.7523 C   0  0  1  0  0  0  0  0  0  0  0  0
    6.9432   -8.7318    9.0037 O   0  0  0  0  0  0  0  0  0  0  0  0
    6.2844   -8.8365    6.6866 C   0  0  0  0  0  0  0  0  0  0  0  0
    5.4080   -8.2570    5.8508 C   0  0  0  0  0  0  0  0  0  0  0  0
    4.8050   -8.9150    4.6326 C   0  0  0  0  0  0  0  0  0  0  0  0
    4.6147   -7.7274    3.7068 C   0  0  0  0  0  0  0  0  0  0  0  0
    4.7744   -6.5720    4.3684 C   0  0  0  0  0  0  0  0  0  0  0  0
    4.6561   -5.1921    3.8360 C   0  0  2  0  0  0  0  0  0  0  0  0
    3.4040   -4.5151    4.0224 O   0  0  0  0  0  0  0  0  0  0  0  0
    3.7809   -4.8202    2.6716 C   0  0  1  0  0  0  0  0  0  0  0  0
    4.1665   -3.7224    1.7922 C   0  0  0  0  0  0  0  0  0  0  0  0
    3.7284   -4.0348    0.5757 C   0  0  0  0  0  0  0  0  0  0  0  0
    2.9844   -5.1820    0.5265 O   0  0  0  0  0  0  0  0  0  0  0  0
    2.7878   -5.6472    1.8737 C   0  0  1  0  0  0  0  0  0  0  0  0
    2.8126   -7.1936    1.9596 C   0  0  2  0  0  0  0  0  0  0  0  0
    1.6926   -7.7461    2.8799 C   0  0  1  0  0  0  0  0  0  0  0  0
    0.2472   -7.4846    2.4362 C   0  0  0  0  0  0  0  0  0  0  0  0
   -0.6115   -8.5420    3.1724 C   0  0  0  0  0  0  0  0  0  0  0  0
   -1.1495   -7.9472    4.4823 C   0  0  0  0  0  0  0  0  0  0  0  0
   -1.7978   -8.9884    2.3125 C   0  0  0  0  0  0  0  0  0  0  0  0
    0.3567   -9.7195    3.4519 C   0  0  0  0  0  0  0  0  0  0  0  0
    1.6969   -9.2479    2.9470 C   0  0  0  0  0  0  0  0  0  0  0  0
    2.6924  -10.0090    2.4654 C   0  0  0  0  0  0  0  0  0  0  0  0
    3.9637   -9.4118    1.8826 C   0  0  0  0  0  0  0  0  0  0  0  0
    4.1787   -7.9058    2.2328 C   0  0  2  0  0  0  0  0  0  0  0  0
    5.2915   -7.3899    1.2929 C   0  0  0  0  0  0  0  0  0  0  0  0
    5.0939   -6.7776    5.8497 C   0  0  2  0  0  0  0  0  0  0  0  0
    3.7608   -6.5868    6.6161 C   0  0  0  0  0  0  0  0  0  0  0  0
    9.7761   -4.3377    9.9777 H   0  0  0  0  0  0  0  0  0  0  0  0
    8.3238   -3.5724   10.6369 H   0  0  0  0  0  0  0  0  0  0  0  0
    9.6783   -2.5745   10.0774 H   0  0  0  0  0  0  0  0  0  0  0  0
    9.2390   -3.3673    7.6831 H   0  0  0  0  0  0  0  0  0  0  0  0
    6.4946   -3.5609    9.0257 H   0  0  0  0  0  0  0  0  0  0  0  0
    7.4130   -3.4319    6.0848 H   0  0  0  0  0  0  0  0  0  0  0  0
    6.2492   -1.3356    6.7635 H   0  0  0  0  0  0  0  0  0  0  0  0
    4.8665   -2.2946    7.3153 H   0  0  0  0  0  0  0  0  0  0  0  0
    5.2937   -2.2688    5.6082 H   0  0  0  0  0  0  0  0  0  0  0  0
    7.8823   -6.9785    5.2866 H   0  0  0  0  0  0  0  0  0  0  0  0
    8.4076   -5.4874    6.0094 H   0  0  0  0  0  0  0  0  0  0  0  0
    7.4025   -5.4603    4.5791 H   0  0  0  0  0  0  0  0  0  0  0  0
    7.6512   -6.0784    8.1899 H   0  0  0  0  0  0  0  0  0  0  0  0
    4.9841   -6.7728    8.6066 H   0  0  0  0  0  0  0  0  0  0  0  0
    8.1074   -8.1733    7.4490 H   0  0  0  0  0  0  0  0  0  0  0  0
    7.2339   -9.6246    8.9022 H   0  0  0  0  0  0  0  0  0  0  0  0
    6.5193   -9.8833    6.5599 H   0  0  0  0  0  0  0  0  0  0  0  0
    5.4498   -9.6951    4.2361 H   0  0  0  0  0  0  0  0  0  0  0  0
    3.8329   -9.3297    4.8951 H   0  0  0  0  0  0  0  0  0  0  0  0
    5.5332   -4.5720    3.9937 H   0  0  0  0  0  0  0  0  0  0  0  0
    4.7438   -2.8550    2.0870 H   0  0  0  0  0  0  0  0  0  0  0  0
    3.8573   -3.5044   -0.3596 H   0  0  0  0  0  0  0  0  0  0  0  0
    1.7976   -5.2810    2.1425 H   0  0  0  0  0  0  0  0  0  0  0  0
    2.5245   -7.5033    0.9557 H   0  0  0  0  0  0  0  0  0  0  0  0
    1.8269   -7.3831    3.9003 H   0  0  0  0  0  0  0  0  0  0  0  0
   -0.0765   -6.4680    2.6456 H   0  0  0  0  0  0  0  0  0  0  0  0
    0.1667   -7.6404    1.3581 H   0  0  0  0  0  0  0  0  0  0  0  0
   -1.7301   -8.6862    5.0344 H   0  0  0  0  0  0  0  0  0  0  0  0
   -1.8094   -7.0987    4.3019 H   0  0  0  0  0  0  0  0  0  0  0  0
   -0.3413   -7.6162    5.1356 H   0  0  0  0  0  0  0  0  0  0  0  0
   -2.3933   -9.7437    2.8256 H   0  0  0  0  0  0  0  0  0  0  0  0
   -1.4628   -9.4175    1.3699 H   0  0  0  0  0  0  0  0  0  0  0  0
   -2.4534   -8.1483    2.0871 H   0  0  0  0  0  0  0  0  0  0  0  0
    0.4359   -9.9228    4.5209 H   0  0  0  0  0  0  0  0  0  0  0  0
    0.0633  -10.6473    2.9601 H   0  0  0  0  0  0  0  0  0  0  0  0
    2.6054  -11.0861    2.4451 H   0  0  0  0  0  0  0  0  0  0  0  0
    4.8155  -10.0283    2.1689 H   0  0  0  0  0  0  0  0  0  0  0  0
    3.8752   -9.5286    0.8025 H   0  0  0  0  0  0  0  0  0  0  0  0
    4.9842   -7.4540    0.2487 H   0  0  0  0  0  0  0  0  0  0  0  0
    6.2040   -7.9772    1.4050 H   0  0  0  0  0  0  0  0  0  0  0  0
    5.5665   -6.3526    1.4781 H   0  0  0  0  0  0  0  0  0  0  0  0
    2.9487   -7.0840    6.0845 H   0  0  0  0  0  0  0  0  0  0  0  0
    3.4845   -5.5353    6.7187 H   0  0  0  0  0  0  0  0  0  0  0  0
    3.7766   -7.0443    7.6037 H   0  0  0  0  0  0  0  0  0  0  0  0
  1  2  1  0
  1 39  1  0
  1 40  1  0
  1 41  1  0
  2  3  2  3
  2 42  1  0
  3  4  1  0
  3 43  1  0
  4  5  1  0
  4  6  1  0
  4 44  1  6
  5 45  1  0
  5 46  1  0
  5 47  1  0
  7  6  1  1
  7 37  1  0
  7  8  1  0
  7  9  1  0
  8 48  1  0
  8 49  1  0
  8 50  1  0
  9 10  1  0
  9 11  1  0
  9 51  1  1
 10 52  1  0
 11 12  1  0
 11 13  1  0
 11 53  1  6
 12 54  1  0
 13 14  2  0
 13 55  1  0
 14 37  1  0
 14 15  1  0
 15 16  1  0
 15 56  1  0
 15 57  1  0
 16 35  1  0
 16 17  2  0
 17 18  1  0
 17 37  1  0
 18 20  1  0
 18 19  1  0
 18 58  1  6
 20 19  1  1
 20 24  1  0
 20 21  1  0
 21 22  2  0
 21 59  1  0
 22 23  1  0
 22 60  1  0
 23 24  1  0
 24 25  1  0
 24 61  1  1
 25 35  1  0
 25 26  1  0
 25 62  1  6
 26 32  1  0
 26 27  1  0
 26 63  1  1
 27 28  1  0
 27 64  1  0
 27 65  1  0
 28 29  1  0
 28 30  1  0
 28 31  1  0
 29 66  1  0
 29 67  1  0
 29 68  1  0
 30 69  1  0
 30 70  1  0
 30 71  1  0
 31 32  1  0
 31 72  1  0
 31 73  1  0
 32 33  2  0
 33 34  1  0
 33 74  1  0
 34 35  1  0
 34 75  1  0
 34 76  1  0
 35 36  1  6
 36 77  1  0
 36 78  1  0
 36 79  1  0
 37 38  1  1
 38 80  1  0
 38 81  1  0
 38 82  1  0
M  END
>  <i_m_ct_stereo_status>  (44) 
1

>  <s_m_source_file>  (44) 
/var/tmp/pbs.5076255.sched01/tmpd0mq1ayv/02wja6gfv.sdf

>  <i_m_source_file_index>  (44) 
16

>  <i_lp_mmshare_version>  (44) 
48012

>  <i_f3d_flags>  (44) 
0

>  <s_epik_input>  (44) 
W0NIM10vW0NIXT1bQ0hdL1tDQEhdKFtDSDNdKU9bQ0BAXShbQ0gzXSkoW0NAQEhdKFtPSF0pW0NAQEhdKFtPSF0pW0NIXT0xKVtDQF0yKFtDSDNdKUMxW0NIMl1DKD1DMltDQEhdKE8zKVtDQEBdMzQ1KVtDQF02KFtDSDNdKVtDQEhdKFtDQEBIXTVPW0NIXT1bQ0hdNClbQ0BASF03Qyg9W0NIXVtDSDJdNilbQ0gyXUMoW0NIMl03KShbQ0gzXSlbQ0gzXQ==

>  <s_epik_cmdline>  (44) 
J2VwaWtfcHl0aG9uJywgJy1waHQnLCAnMi4wJywgJy1waCcsICc3LjAnLCAnLXRuJywgJzgnLCAnLW1hJywgJzIwMCcsICctaW1hZScsICc8aW5maWxlLm1hZT4nLCAnLW9tYWUnLCAnPG91dGZpbGUubWFlPic=

>  <r_lp_tautomer_probability>  (44) 
1

>  <r_epik_Ionization_Penalty>  (44) 
5.99779e-07

>  <r_epik_Ionization_Penalty_Charging>  (44) 
0

>  <r_epik_Ionization_Penalty_Neutral>  (44) 
5.99779e-07

>  <r_epik_State_Penalty>  (44) 
-0

>  <r_epik_Charging_Adjusted_Penalty>  (44) 
0

>  <i_epik_Tot_Q>  (44) 
0

>  <i_epik_Tot_abs_Q>  (44) 
0

>  <s_lp_Force_Field>  (44) 
OPLS3e

>  <r_lp_Energy>  (44) 
34.7286

>  <b_lp_Chiralities_Consistent>  (44) 
1

>  <s_lp_Variant>  (44) 
10:0-1

>  <s_i_glide_gridfile>  (44) 
pfpi4k_grid

>  <i_i_glide_lignum>  (44) 
16

>  <i_i_glide_rotatable_bonds>  (44) 
5

>  <r_i_docking_score>  (44) 
-1.5706

>  <r_i_glide_ligand_efficiency>  (44) 
-0.0413315

>  <r_i_glide_ligand_efficiency_sa>  (44) 
-0.138956

>  <r_i_glide_ligand_efficiency_ln>  (44) 
-0.338667

>  <r_i_glide_gscore>  (44) 
-1.5706

>  <r_i_glide_lipo>  (44) 
-0.474376

>  <r_i_glide_hbond>  (44) 
0

>  <r_i_glide_metal>  (44) 
-0

>  <r_i_glide_rewards>  (44) 
0

>  <r_i_glide_evdw>  (44) 
-27.3936

>  <r_i_glide_ecoul>  (44) 
0.306954

>  <r_i_glide_erotb>  (44) 
0.227415

>  <r_i_glide_esite>  (44) 
0

>  <r_i_glide_emodel>  (44) 
-29.9622

>  <r_i_glide_energy>  (44) 
-27.0867

>  <r_i_glide_einternal>  (44) 
0.429851

>  <r_i_glide_intrahb_reward>  (44) 
-0

>  <i_i_glide_confnum>  (44) 
4

>  <i_i_glide_posenum>  (44) 
6

>  <r_i_glide_eff_state_penalty>  (44) 
0

>  <ligand_id>  (44) 
10

>  <original_smiles>  (44) 
CC=CC(C)OC1(C)C(O)C(O)C=C2CC3=C(C4OC45C=COC5C4C5CC(C)(C)CC5=CCC34C)C21C

>  <smiles>  (44) 
[H]OC1([H])C([H])=C2C([H])([H])C3=C(C4([H])OC45C([H])=C([H])OC5([H])C4([H])C5([H])C(=C([H])C([H])([H])C34C([H])([H])[H])C([H])([H])C(C([H])([H])[H])(C([H])([H])[H])C5([H])[H])C2(C([H])([H])[H])C(OC([H])(C([H])=C([H])C([H])([H])[H])C([H])([H])[H])(C([H])([H])[H])C1([H])O[H]

$$$$
10:1:0
     RDKit          3D

 82 88  0  0  1  0  0  0  0  0999 V2000
   -0.5914   -9.3485    3.0341 C   0  0  0  0  0  0  0  0  0  0  0  0
    0.1876  -10.6198    2.6626 C   0  0  0  0  0  0  0  0  0  0  0  0
    1.1273  -11.3281    3.3421 C   0  0  0  0  0  0  0  0  0  0  0  0
    1.7098  -11.0795    4.7381 C   0  0  2  0  0  0  0  0  0  0  0  0
    0.8626  -10.2232    5.7083 C   0  0  0  0  0  0  0  0  0  0  0  0
    2.9589  -10.3801    4.6347 O   0  0  0  0  0  0  0  0  0  0  0  0
    4.2370  -11.0208    4.4925 C   0  0  1  0  0  0  0  0  0  0  0  0
    4.2257  -12.4308    5.1689 C   0  0  0  0  0  0  0  0  0  0  0  0
    4.5956  -11.2386    2.9840 C   0  0  1  0  0  0  0  0  0  0  0  0
    4.3884  -10.0832    2.1970 O   0  0  0  0  0  0  0  0  0  0  0  0
    6.0666  -11.7235    2.8000 C   0  0  1  0  0  0  0  0  0  0  0  0
    6.5936  -11.4989    1.5044 O   0  0  0  0  0  0  0  0  0  0  0  0
    7.0332  -11.2173    3.8581 C   0  0  0  0  0  0  0  0  0  0  0  0
    6.6630  -10.4734    4.9124 C   0  0  0  0  0  0  0  0  0  0  0  0
    7.5211  -10.1415    6.1140 C   0  0  0  0  0  0  0  0  0  0  0  0
    6.4811  -10.0410    7.2164 C   0  0  0  0  0  0  0  0  0  0  0  0
    5.2409   -9.9744    6.7022 C   0  0  0  0  0  0  0  0  0  0  0  0
    3.9616   -9.8419    7.4354 C   0  0  2  0  0  0  0  0  0  0  0  0
    3.3950   -8.5244    7.5629 O   0  0  0  0  0  0  0  0  0  0  0  0
    3.8194   -9.1568    8.7804 C   0  0  1  0  0  0  0  0  0  0  0  0
    2.8124   -9.6073    9.7235 C   0  0  0  0  0  0  0  0  0  0  0  0
    3.3199   -9.4299   10.9293 C   0  0  0  0  0  0  0  0  0  0  0  0
    4.5433   -8.8144   10.9390 O   0  0  0  0  0  0  0  0  0  0  0  0
    4.8526   -8.4069    9.5984 C   0  0  1  0  0  0  0  0  0  0  0  0
    6.3703   -8.5605    9.3061 C   0  0  2  0  0  0  0  0  0  0  0  0
    6.9437   -7.3373    8.5314 C   0  0  1  0  0  0  0  0  0  0  0  0
    6.9071   -5.9818    9.2550 C   0  0  0  0  0  0  0  0  0  0  0  0
    7.9606   -5.1002    8.5415 C   0  0  0  0  0  0  0  0  0  0  0  0
    7.2825   -4.2606    7.4398 C   0  0  0  0  0  0  0  0  0  0  0  0
    8.6576   -4.1549    9.5372 C   0  0  0  0  0  0  0  0  0  0  0  0
    8.9663   -6.1037    7.9193 C   0  0  0  0  0  0  0  0  0  0  0  0
    8.4154   -7.4716    8.2500 C   0  0  0  0  0  0  0  0  0  0  0  0
    9.1066   -8.6064    8.4416 C   0  0  0  0  0  0  0  0  0  0  0  0
    8.4394   -9.9019    8.8787 C   0  0  0  0  0  0  0  0  0  0  0  0
    6.8885   -9.9119    8.7047 C   0  0  2  0  0  0  0  0  0  0  0  0
    6.3601  -11.1312    9.4970 C   0  0  0  0  0  0  0  0  0  0  0  0
    5.2457  -10.0191    5.1722 C   0  0  2  0  0  0  0  0  0  0  0  0
    5.1056   -8.5532    4.6935 C   0  0  0  0  0  0  0  0  0  0  0  0
   -0.4172   -8.6174    2.2404 H   0  0  0  0  0  0  0  0  0  0  0  0
   -0.3610   -8.8608    3.9425 H   0  0  0  0  0  0  0  0  0  0  0  0
   -1.6520   -9.6192    3.0847 H   0  0  0  0  0  0  0  0  0  0  0  0
   -0.0644  -11.0592    1.6837 H   0  0  0  0  0  0  0  0  0  0  0  0
    1.5625  -12.2274    2.8805 H   0  0  0  0  0  0  0  0  0  0  0  0
    1.7764  -12.0628    5.2304 H   0  0  0  0  0  0  0  0  0  0  0  0
   -0.1443  -10.6504    5.7401 H   0  0  0  0  0  0  0  0  0  0  0  0
    0.9083   -9.1731    5.4264 H   0  0  0  0  0  0  0  0  0  0  0  0
    1.2508  -10.2440    6.7425 H   0  0  0  0  0  0  0  0  0  0  0  0
    5.2140  -12.8808    5.2549 H   0  0  0  0  0  0  0  0  0  0  0  0
    3.6269  -13.1319    4.5839 H   0  0  0  0  0  0  0  0  0  0  0  0
    3.7942  -12.4282    6.1686 H   0  0  0  0  0  0  0  0  0  0  0  0
    3.9259  -11.9856    2.5526 H   0  0  0  0  0  0  0  0  0  0  0  0
    4.2166  -10.3976    1.3185 H   0  0  0  0  0  0  0  0  0  0  0  0
    6.0565  -12.8044    2.9008 H   0  0  0  0  0  0  0  0  0  0  0  0
    5.9116  -11.7381    0.8889 H   0  0  0  0  0  0  0  0  0  0  0  0
    8.0466  -11.5747    3.7982 H   0  0  0  0  0  0  0  0  0  0  0  0
    8.2879  -10.8943    6.2790 H   0  0  0  0  0  0  0  0  0  0  0  0
    7.9743   -9.1595    5.9593 H   0  0  0  0  0  0  0  0  0  0  0  0
    3.2595  -10.6417    7.2552 H   0  0  0  0  0  0  0  0  0  0  0  0
    1.8617  -10.0478    9.4514 H   0  0  0  0  0  0  0  0  0  0  0  0
    2.9166   -9.6929   11.8873 H   0  0  0  0  0  0  0  0  0  0  0  0
    4.5797   -7.3524    9.5689 H   0  0  0  0  0  0  0  0  0  0  0  0
    6.8250   -8.4919   10.2953 H   0  0  0  0  0  0  0  0  0  0  0  0
    6.4316   -7.2432    7.5724 H   0  0  0  0  0  0  0  0  0  0  0  0
    5.9173   -5.5260    9.2593 H   0  0  0  0  0  0  0  0  0  0  0  0
    7.2057   -6.1316   10.2935 H   0  0  0  0  0  0  0  0  0  0  0  0
    8.0032   -3.6555    6.8916 H   0  0  0  0  0  0  0  0  0  0  0  0
    6.5459   -3.5742    7.8593 H   0  0  0  0  0  0  0  0  0  0  0  0
    6.7677   -4.8889    6.7113 H   0  0  0  0  0  0  0  0  0  0  0  0
    9.4073   -3.5298    9.0482 H   0  0  0  0  0  0  0  0  0  0  0  0
    9.1629   -4.7107   10.3275 H   0  0  0  0  0  0  0  0  0  0  0  0
    7.9398   -3.4891   10.0168 H   0  0  0  0  0  0  0  0  0  0  0  0
    9.0063   -6.0053    6.8346 H   0  0  0  0  0  0  0  0  0  0  0  0
    9.9817   -5.9885    8.2926 H   0  0  0  0  0  0  0  0  0  0  0  0
   10.1789   -8.6119    8.3394 H   0  0  0  0  0  0  0  0  0  0  0  0
    8.9058  -10.7339    8.3704 H   0  0  0  0  0  0  0  0  0  0  0  0
    8.7013  -10.0510    9.9221 H   0  0  0  0  0  0  0  0  0  0  0  0
    6.5774  -11.0486   10.5627 H   0  0  0  0  0  0  0  0  0  0  0  0
    6.8140  -12.0562    9.1446 H   0  0  0  0  0  0  0  0  0  0  0  0
    5.2840  -11.2669    9.4073 H   0  0  0  0  0  0  0  0  0  0  0  0
    5.7453   -7.9037    5.2824 H   0  0  0  0  0  0  0  0  0  0  0  0
    4.0877   -8.1759    4.7833 H   0  0  0  0  0  0  0  0  0  0  0  0
    5.4368   -8.4339    3.6682 H   0  0  0  0  0  0  0  0  0  0  0  0
  1  2  1  0
  1 39  1  0
  1 40  1  0
  1 41  1  0
  2  3  2  3
  2 42  1  0
  3  4  1  0
  3 43  1  0
  4  5  1  0
  4  6  1  0
  4 44  1  1
  5 45  1  0
  5 46  1  0
  5 47  1  0
  7  6  1  6
  7 37  1  0
  7  8  1  0
  7  9  1  0
  8 48  1  0
  8 49  1  0
  8 50  1  0
  9 10  1  0
  9 11  1  0
  9 51  1  6
 10 52  1  0
 11 12  1  0
 11 13  1  0
 11 53  1  1
 12 54  1  0
 13 14  2  0
 13 55  1  0
 14 37  1  0
 14 15  1  0
 15 16  1  0
 15 56  1  0
 15 57  1  0
 16 35  1  0
 16 17  2  0
 17 18  1  0
 17 37  1  0
 18 20  1  0
 18 19  1  0
 18 58  1  1
 20 19  1  6
 20 24  1  0
 20 21  1  0
 21 22  2  0
 21 59  1  0
 22 23  1  0
 22 60  1  0
 23 24  1  0
 24 25  1  0
 24 61  1  1
 25 35  1  0
 25 26  1  0
 25 62  1  1
 26 32  1  0
 26 27  1  0
 26 63  1  6
 27 28  1  0
 27 64  1  0
 27 65  1  0
 28 29  1  0
 28 30  1  0
 28 31  1  0
 29 66  1  0
 29 67  1  0
 29 68  1  0
 30 69  1  0
 30 70  1  0
 30 71  1  0
 31 32  1  0
 31 72  1  0
 31 73  1  0
 32 33  2  0
 33 34  1  0
 33 74  1  0
 34 35  1  0
 34 75  1  0
 34 76  1  0
 35 36  1  1
 36 77  1  0
 36 78  1  0
 36 79  1  0
 37 38  1  6
 38 80  1  0
 38 81  1  0
 38 82  1  0
M  END
>  <i_m_ct_stereo_status>  (45) 
1

>  <s_m_source_file>  (45) 
/var/tmp/pbs.5076255.sched01/tmpd0mq1ayv/02wja6gfv.sdf

>  <i_m_source_file_index>  (45) 
17

>  <i_lp_mmshare_version>  (45) 
48012

>  <i_f3d_flags>  (45) 
0

>  <s_epik_input>  (45) 
W0NIM10vW0NIXT1bQ0hdL1tDQEhdKFtDSDNdKU9bQ0BAXShbQ0gzXSkoW0NAQEhdKFtPSF0pW0NAQEhdKFtPSF0pW0NIXT0xKVtDQF0yKFtDSDNdKUMxW0NIMl1DKD1DMltDQEhdKE8zKVtDQEBdMzQ1KVtDQF02KFtDSDNdKVtDQEhdKFtDQEBIXTVPW0NIXT1bQ0hdNClbQ0BASF03Qyg9W0NIXVtDSDJdNilbQ0gyXUMoW0NIMl03KShbQ0gzXSlbQ0gzXQ==

>  <s_epik_cmdline>  (45) 
J2VwaWtfcHl0aG9uJywgJy1waHQnLCAnMi4wJywgJy1waCcsICc3LjAnLCAnLXRuJywgJzgnLCAnLW1hJywgJzIwMCcsICctaW1hZScsICc8aW5maWxlLm1hZT4nLCAnLW9tYWUnLCAnPG91dGZpbGUubWFlPic=

>  <r_lp_tautomer_probability>  (45) 
1

>  <r_epik_Ionization_Penalty>  (45) 
5.99779e-07

>  <r_epik_Ionization_Penalty_Charging>  (45) 
0

>  <r_epik_Ionization_Penalty_Neutral>  (45) 
5.99779e-07

>  <r_epik_State_Penalty>  (45) 
-0

>  <r_epik_Charging_Adjusted_Penalty>  (45) 
0

>  <i_epik_Tot_Q>  (45) 
0

>  <i_epik_Tot_abs_Q>  (45) 
0

>  <s_lp_Force_Field>  (45) 
OPLS3e

>  <r_lp_Energy>  (45) 
36.164

>  <b_lp_Chiralities_Consistent>  (45) 
1

>  <s_lp_Variant>  (45) 
10:0-2

>  <s_i_glide_gridfile>  (45) 
pfpi4k_grid

>  <i_i_glide_lignum>  (45) 
17

>  <i_i_glide_rotatable_bonds>  (45) 
5

>  <r_i_docking_score>  (45) 
-2.40041

>  <r_i_glide_ligand_efficiency>  (45) 
-0.0631688

>  <r_i_glide_ligand_efficiency_sa>  (45) 
-0.212372

>  <r_i_glide_ligand_efficiency_ln>  (45) 
-0.5176

>  <r_i_glide_gscore>  (45) 
-2.40041

>  <r_i_glide_lipo>  (45) 
-0.391384

>  <r_i_glide_hbond>  (45) 
0

>  <r_i_glide_metal>  (45) 
-0

>  <r_i_glide_rewards>  (45) 
0

>  <r_i_glide_evdw>  (45) 
-19.3459

>  <r_i_glide_ecoul>  (45) 
-8.461

>  <r_i_glide_erotb>  (45) 
0.227415

>  <r_i_glide_esite>  (45) 
0

>  <r_i_glide_emodel>  (45) 
-29.61

>  <r_i_glide_energy>  (45) 
-27.8069

>  <r_i_glide_einternal>  (45) 
4.21664

>  <r_i_glide_intrahb_reward>  (45) 
-0

>  <i_i_glide_confnum>  (45) 
2

>  <i_i_glide_posenum>  (45) 
11

>  <r_i_glide_eff_state_penalty>  (45) 
0

>  <ligand_id>  (45) 
10

>  <original_smiles>  (45) 
CC=CC(C)OC1(C)C(O)C(O)C=C2CC3=C(C4OC45C=COC5C4C5CC(C)(C)CC5=CCC34C)C21C

>  <smiles>  (45) 
[H]OC1([H])C([H])=C2C([H])([H])C3=C(C4([H])OC45C([H])=C([H])OC5([H])C4([H])C5([H])C(=C([H])C([H])([H])C34C([H])([H])[H])C([H])([H])C(C([H])([H])[H])(C([H])([H])[H])C5([H])[H])C2(C([H])([H])[H])C(OC([H])(C([H])=C([H])C([H])([H])[H])C([H])([H])[H])(C([H])([H])[H])C1([H])O[H]

$$$$
10:1:1
     RDKit          3D

 82 88  0  0  1  0  0  0  0  0999 V2000
   -1.6730   -8.9108    2.3868 C   0  0  0  0  0  0  0  0  0  0  0  0
   -0.6012   -9.9852    2.5043 C   0  0  0  0  0  0  0  0  0  0  0  0
    0.3105  -10.1959    3.4763 C   0  0  0  0  0  0  0  0  0  0  0  0
    0.6128   -9.4092    4.7478 C   0  0  2  0  0  0  0  0  0  0  0  0
   -0.3232   -8.2377    5.0091 C   0  0  0  0  0  0  0  0  0  0  0  0
    1.8968   -8.7806    4.7047 O   0  0  0  0  0  0  0  0  0  0  0  0
    3.1417   -9.4973    4.5947 C   0  0  1  0  0  0  0  0  0  0  0  0
    3.0579  -10.8600    5.3591 C   0  0  0  0  0  0  0  0  0  0  0  0
    3.4683   -9.8053    3.0895 C   0  0  1  0  0  0  0  0  0  0  0  0
    3.2908   -8.6645    2.2646 O   0  0  0  0  0  0  0  0  0  0  0  0
    4.8974  -10.3725    2.9133 C   0  0  1  0  0  0  0  0  0  0  0  0
    5.3582  -10.2447    1.5794 O   0  0  0  0  0  0  0  0  0  0  0  0
    5.9138   -9.8658    3.9125 C   0  0  0  0  0  0  0  0  0  0  0  0
    5.6137   -9.0542    4.9388 C   0  0  0  0  0  0  0  0  0  0  0  0
    6.5093   -8.7112    6.1016 C   0  0  0  0  0  0  0  0  0  0  0  0
    5.5056   -8.4977    7.2285 C   0  0  0  0  0  0  0  0  0  0  0  0
    4.2612   -8.3929    6.7313 C   0  0  0  0  0  0  0  0  0  0  0  0
    2.9955   -8.1488    7.4844 C   0  0  2  0  0  0  0  0  0  0  0  0
    2.5175   -6.8035    7.5636 O   0  0  0  0  0  0  0  0  0  0  0  0
    2.9375   -7.3985    8.7859 C   0  0  1  0  0  0  0  0  0  0  0  0
    1.9290   -7.7492    9.7863 C   0  0  0  0  0  0  0  0  0  0  0  0
    2.4801   -7.5335   10.9770 C   0  0  0  0  0  0  0  0  0  0  0  0
    3.7283   -6.9856   10.9234 O   0  0  0  0  0  0  0  0  0  0  0  0
    4.0287   -6.6661    9.5551 C   0  0  1  0  0  0  0  0  0  0  0  0
    5.5268   -6.9111    9.2355 C   0  0  2  0  0  0  0  0  0  0  0  0
    6.1391   -5.7615    8.3824 C   0  0  1  0  0  0  0  0  0  0  0  0
    6.1963   -4.3724    9.0346 C   0  0  0  0  0  0  0  0  0  0  0  0
    7.2775   -3.5853    8.2562 C   0  0  0  0  0  0  0  0  0  0  0  0
    6.6201   -2.7658    7.1271 C   0  0  0  0  0  0  0  0  0  0  0  0
    8.0476   -2.6310    9.1885 C   0  0  0  0  0  0  0  0  0  0  0  0
    8.2101   -4.6745    7.6683 C   0  0  0  0  0  0  0  0  0  0  0  0
    7.5984   -5.9880    8.0851 C   0  0  0  0  0  0  0  0  0  0  0  0
    8.2302   -7.1498    8.3152 C   0  0  0  0  0  0  0  0  0  0  0  0
    7.5101   -8.3862    8.8276 C   0  0  0  0  0  0  0  0  0  0  0  0
    5.9567   -8.3173    8.6904 C   0  0  2  0  0  0  0  0  0  0  0  0
    5.3848   -9.4672    9.5545 C   0  0  0  0  0  0  0  0  0  0  0  0
    4.2209   -8.5157    5.2109 C   0  0  2  0  0  0  0  0  0  0  0  0
    4.1455   -7.0671    4.6570 C   0  0  0  0  0  0  0  0  0  0  0  0
   -1.5442   -8.4529    1.3957 H   0  0  0  0  0  0  0  0  0  0  0  0
   -1.6842   -8.1727    3.1749 H   0  0  0  0  0  0  0  0  0  0  0  0
   -2.6160   -9.4722    2.3420 H   0  0  0  0  0  0  0  0  0  0  0  0
   -0.5368  -10.7167    1.7160 H   0  0  0  0  0  0  0  0  0  0  0  0
    0.9320  -11.0688    3.3570 H   0  0  0  0  0  0  0  0  0  0  0  0
    0.5423  -10.0886    5.6061 H   0  0  0  0  0  0  0  0  0  0  0  0
   -1.3558   -8.5953    5.0119 H   0  0  0  0  0  0  0  0  0  0  0  0
   -0.2653   -7.5395    4.1638 H   0  0  0  0  0  0  0  0  0  0  0  0
   -0.1099   -7.7101    5.9390 H   0  0  0  0  0  0  0  0  0  0  0  0
    4.0306  -11.3426    5.4531 H   0  0  0  0  0  0  0  0  0  0  0  0
    2.4252  -11.5788    4.8449 H   0  0  0  0  0  0  0  0  0  0  0  0
    2.6502  -10.7681    6.3648 H   0  0  0  0  0  0  0  0  0  0  0  0
    2.8112  -10.5606    2.6617 H   0  0  0  0  0  0  0  0  0  0  0  0
    3.3892   -8.9517    1.3699 H   0  0  0  0  0  0  0  0  0  0  0  0
    4.8404  -11.4482    3.0775 H   0  0  0  0  0  0  0  0  0  0  0  0
    4.9446  -10.9001    1.0584 H   0  0  0  0  0  0  0  0  0  0  0  0
    6.9092  -10.2837    3.8548 H   0  0  0  0  0  0  0  0  0  0  0  0
    7.2349   -9.4996    6.2861 H   0  0  0  0  0  0  0  0  0  0  0  0
    7.0200   -7.7727    5.8914 H   0  0  0  0  0  0  0  0  0  0  0  0
    2.2309   -8.9031    7.3367 H   0  0  0  0  0  0  0  0  0  0  0  0
    0.9508   -8.1468    9.5587 H   0  0  0  0  0  0  0  0  0  0  0  0
    2.0758   -7.7194   11.9538 H   0  0  0  0  0  0  0  0  0  0  0  0
    3.8076   -5.6011    9.4713 H   0  0  0  0  0  0  0  0  0  0  0  0
    6.0100   -6.8225   10.2086 H   0  0  0  0  0  0  0  0  0  0  0  0
    5.6127   -5.6895    7.4297 H   0  0  0  0  0  0  0  0  0  0  0  0
    5.2312   -3.8665    9.0414 H   0  0  0  0  0  0  0  0  0  0  0  0
    6.5080   -4.4840   10.0772 H   0  0  0  0  0  0  0  0  0  0  0  0
    7.3643   -2.2308    6.5342 H   0  0  0  0  0  0  0  0  0  0  0  0
    5.9308   -2.0223    7.5279 H   0  0  0  0  0  0  0  0  0  0  0  0
    6.0539   -3.4013    6.4458 H   0  0  0  0  0  0  0  0  0  0  0  0
    8.8159   -2.0751    8.6476 H   0  0  0  0  0  0  0  0  0  0  0  0
    8.5429   -3.1742    9.9926 H   0  0  0  0  0  0  0  0  0  0  0  0
    7.3775   -1.9042    9.6470 H   0  0  0  0  0  0  0  0  0  0  0  0
    8.2178   -4.6469    6.5794 H   0  0  0  0  0  0  0  0  0  0  0  0
    9.2399   -4.5983    8.0124 H   0  0  0  0  0  0  0  0  0  0  0  0
    9.2981   -7.2183    8.1805 H   0  0  0  0  0  0  0  0  0  0  0  0
    7.9187   -9.2683    8.3477 H   0  0  0  0  0  0  0  0  0  0  0  0
    7.7850   -8.4858    9.8744 H   0  0  0  0  0  0  0  0  0  0  0  0
    5.6360   -9.3390   10.6082 H   0  0  0  0  0  0  0  0  0  0  0  0
    5.7833  -10.4309    9.2398 H   0  0  0  0  0  0  0  0  0  0  0  0
    4.3008   -9.5502    9.4984 H   0  0  0  0  0  0  0  0  0  0  0  0
    4.8334   -6.4232    5.1996 H   0  0  0  0  0  0  0  0  0  0  0  0
    3.1481   -6.6320    4.7502 H   0  0  0  0  0  0  0  0  0  0  0  0
    4.4560   -7.0157    3.6182 H   0  0  0  0  0  0  0  0  0  0  0  0
  1  2  1  0
  1 39  1  0
  1 40  1  0
  1 41  1  0
  2  3  2  3
  2 42  1  0
  3  4  1  0
  3 43  1  0
  4  5  1  0
  4  6  1  0
  4 44  1  1
  5 45  1  0
  5 46  1  0
  5 47  1  0
  7  6  1  6
  7 37  1  0
  7  8  1  0
  7  9  1  0
  8 48  1  0
  8 49  1  0
  8 50  1  0
  9 10  1  0
  9 11  1  0
  9 51  1  6
 10 52  1  0
 11 12  1  0
 11 13  1  0
 11 53  1  1
 12 54  1  0
 13 14  2  0
 13 55  1  0
 14 37  1  0
 14 15  1  0
 15 16  1  0
 15 56  1  0
 15 57  1  0
 16 35  1  0
 16 17  2  0
 17 18  1  0
 17 37  1  0
 18 20  1  0
 18 19  1  0
 18 58  1  1
 20 19  1  6
 20 24  1  0
 20 21  1  0
 21 22  2  0
 21 59  1  0
 22 23  1  0
 22 60  1  0
 23 24  1  0
 24 25  1  0
 24 61  1  1
 25 35  1  0
 25 26  1  0
 25 62  1  1
 26 32  1  0
 26 27  1  0
 26 63  1  6
 27 28  1  0
 27 64  1  0
 27 65  1  0
 28 29  1  0
 28 30  1  0
 28 31  1  0
 29 66  1  0
 29 67  1  0
 29 68  1  0
 30 69  1  0
 30 70  1  0
 30 71  1  0
 31 32  1  0
 31 72  1  0
 31 73  1  0
 32 33  2  0
 33 34  1  0
 33 74  1  0
 34 35  1  0
 34 75  1  0
 34 76  1  0
 35 36  1  1
 36 77  1  0
 36 78  1  0
 36 79  1  0
 37 38  1  6
 38 80  1  0
 38 81  1  0
 38 82  1  0
M  END
>  <i_m_ct_stereo_status>  (46) 
1

>  <s_m_source_file>  (46) 
/var/tmp/pbs.5076255.sched01/tmpd0mq1ayv/02wja6gfv.sdf

>  <i_m_source_file_index>  (46) 
17

>  <i_lp_mmshare_version>  (46) 
48012

>  <i_f3d_flags>  (46) 
0

>  <s_epik_input>  (46) 
W0NIM10vW0NIXT1bQ0hdL1tDQEhdKFtDSDNdKU9bQ0BAXShbQ0gzXSkoW0NAQEhdKFtPSF0pW0NAQEhdKFtPSF0pW0NIXT0xKVtDQF0yKFtDSDNdKUMxW0NIMl1DKD1DMltDQEhdKE8zKVtDQEBdMzQ1KVtDQF02KFtDSDNdKVtDQEhdKFtDQEBIXTVPW0NIXT1bQ0hdNClbQ0BASF03Qyg9W0NIXVtDSDJdNilbQ0gyXUMoW0NIMl03KShbQ0gzXSlbQ0gzXQ==

>  <s_epik_cmdline>  (46) 
J2VwaWtfcHl0aG9uJywgJy1waHQnLCAnMi4wJywgJy1waCcsICc3LjAnLCAnLXRuJywgJzgnLCAnLW1hJywgJzIwMCcsICctaW1hZScsICc8aW5maWxlLm1hZT4nLCAnLW9tYWUnLCAnPG91dGZpbGUubWFlPic=

>  <r_lp_tautomer_probability>  (46) 
1

>  <r_epik_Ionization_Penalty>  (46) 
5.99779e-07

>  <r_epik_Ionization_Penalty_Charging>  (46) 
0

>  <r_epik_Ionization_Penalty_Neutral>  (46) 
5.99779e-07

>  <r_epik_State_Penalty>  (46) 
-0

>  <r_epik_Charging_Adjusted_Penalty>  (46) 
0

>  <i_epik_Tot_Q>  (46) 
0

>  <i_epik_Tot_abs_Q>  (46) 
0

>  <s_lp_Force_Field>  (46) 
OPLS3e

>  <r_lp_Energy>  (46) 
36.164

>  <b_lp_Chiralities_Consistent>  (46) 
1

>  <s_lp_Variant>  (46) 
10:0-2

>  <s_i_glide_gridfile>  (46) 
pfpi4k_grid

>  <i_i_glide_lignum>  (46) 
17

>  <i_i_glide_rotatable_bonds>  (46) 
5

>  <r_i_docking_score>  (46) 
-2.00696

>  <r_i_glide_ligand_efficiency>  (46) 
-0.0528149

>  <r_i_glide_ligand_efficiency_sa>  (46) 
-0.177562

>  <r_i_glide_ligand_efficiency_ln>  (46) 
-0.432761

>  <r_i_glide_gscore>  (46) 
-2.00696

>  <r_i_glide_lipo>  (46) 
-0.357721

>  <r_i_glide_hbond>  (46) 
0

>  <r_i_glide_metal>  (46) 
-0

>  <r_i_glide_rewards>  (46) 
0

>  <r_i_glide_evdw>  (46) 
-20.0611

>  <r_i_glide_ecoul>  (46) 
-5.82403

>  <r_i_glide_erotb>  (46) 
0.227415

>  <r_i_glide_esite>  (46) 
0

>  <r_i_glide_emodel>  (46) 
-28.2084

>  <r_i_glide_energy>  (46) 
-25.8851

>  <r_i_glide_einternal>  (46) 
2.05558

>  <r_i_glide_intrahb_reward>  (46) 
-0

>  <i_i_glide_confnum>  (46) 
2

>  <i_i_glide_posenum>  (46) 
1

>  <r_i_glide_eff_state_penalty>  (46) 
0

>  <ligand_id>  (46) 
10

>  <original_smiles>  (46) 
CC=CC(C)OC1(C)C(O)C(O)C=C2CC3=C(C4OC45C=COC5C4C5CC(C)(C)CC5=CCC34C)C21C

>  <smiles>  (46) 
[H]OC1([H])C([H])=C2C([H])([H])C3=C(C4([H])OC45C([H])=C([H])OC5([H])C4([H])C5([H])C(=C([H])C([H])([H])C34C([H])([H])[H])C([H])([H])C(C([H])([H])[H])(C([H])([H])[H])C5([H])[H])C2(C([H])([H])[H])C(OC([H])(C([H])=C([H])C([H])([H])[H])C([H])([H])[H])(C([H])([H])[H])C1([H])O[H]

$$$$
10:1:2
     RDKit          3D

 82 88  0  0  1  0  0  0  0  0999 V2000
   -1.5006   -9.1187    2.3613 C   0  0  0  0  0  0  0  0  0  0  0  0
   -0.0498   -9.5828    2.4946 C   0  0  0  0  0  0  0  0  0  0  0  0
    0.9202   -9.2097    3.3651 C   0  0  0  0  0  0  0  0  0  0  0  0
    0.8957   -8.1900    4.5202 C   0  0  2  0  0  0  0  0  0  0  0  0
   -0.4920   -7.8439    5.0661 C   0  0  0  0  0  0  0  0  0  0  0  0
    1.4098   -6.9246    4.0971 O   0  0  0  0  0  0  0  0  0  0  0  0
    2.8102   -6.6229    3.9488 C   0  0  1  0  0  0  0  0  0  0  0  0
    3.5615   -7.0850    5.2332 C   0  0  0  0  0  0  0  0  0  0  0  0
    3.4692   -7.3648    2.7321 C   0  0  1  0  0  0  0  0  0  0  0  0
    2.7207   -7.2230    1.5356 O   0  0  0  0  0  0  0  0  0  0  0  0
    4.9135   -6.8798    2.4595 C   0  0  1  0  0  0  0  0  0  0  0  0
    5.3405   -7.1561    1.1430 O   0  0  0  0  0  0  0  0  0  0  0  0
    5.1666   -5.4188    2.8074 C   0  0  0  0  0  0  0  0  0  0  0  0
    4.2525   -4.6231    3.3813 C   0  0  0  0  0  0  0  0  0  0  0  0
    4.5076   -3.2515    3.9699 C   0  0  0  0  0  0  0  0  0  0  0  0
    3.4867   -3.2025    5.0886 C   0  0  0  0  0  0  0  0  0  0  0  0
    2.5779   -4.1863    4.9626 C   0  0  0  0  0  0  0  0  0  0  0  0
    1.4059   -4.4688    5.8242 C   0  0  2  0  0  0  0  0  0  0  0  0
    0.1223   -3.9605    5.3940 O   0  0  0  0  0  0  0  0  0  0  0  0
    0.6622   -3.4019    6.6100 C   0  0  1  0  0  0  0  0  0  0  0  0
    0.0334   -3.7337    7.8736 C   0  0  0  0  0  0  0  0  0  0  0  0
    0.1246   -2.6632    8.6376 C   0  0  0  0  0  0  0  0  0  0  0  0
    0.6556   -1.5657    8.0057 O   0  0  0  0  0  0  0  0  0  0  0  0
    0.8512   -1.8953    6.6214 C   0  0  1  0  0  0  0  0  0  0  0  0
    2.1462   -1.2448    6.0661 C   0  0  2  0  0  0  0  0  0  0  0  0
    1.9308   -0.6271    4.6520 C   0  0  1  0  0  0  0  0  0  0  0  0
    0.9373    0.5421    4.5565 C   0  0  0  0  0  0  0  0  0  0  0  0
    1.2892    1.2851    3.2459 C   0  0  0  0  0  0  0  0  0  0  0  0
    0.4158    0.7644    2.0853 C   0  0  0  0  0  0  0  0  0  0  0  0
    1.0746    2.8015    3.3974 C   0  0  0  0  0  0  0  0  0  0  0  0
    2.7824    0.9519    2.9908 C   0  0  0  0  0  0  0  0  0  0  0  0
    3.1772    0.0160    4.1097 C   0  0  0  0  0  0  0  0  0  0  0  0
    4.3898   -0.1253    4.6661 C   0  0  0  0  0  0  0  0  0  0  0  0
    4.6333   -1.0344    5.8630 C   0  0  0  0  0  0  0  0  0  0  0  0
    3.4850   -2.0573    6.1324 C   0  0  2  0  0  0  0  0  0  0  0  0
    3.7316   -2.6416    7.5444 C   0  0  0  0  0  0  0  0  0  0  0  0
    2.8507   -5.0600    3.7313 C   0  0  2  0  0  0  0  0  0  0  0  0
    1.8930   -4.5592    2.6278 C   0  0  0  0  0  0  0  0  0  0  0  0
   -1.6421   -8.7813    1.3394 H   0  0  0  0  0  0  0  0  0  0  0  0
   -1.8561   -8.3299    3.0224 H   0  0  0  0  0  0  0  0  0  0  0  0
   -2.1289   -9.9812    2.5436 H   0  0  0  0  0  0  0  0  0  0  0  0
    0.2802  -10.3416    1.7888 H   0  0  0  0  0  0  0  0  0  0  0  0
    1.8970   -9.7011    3.2567 H   0  0  0  0  0  0  0  0  0  0  0  0
    1.4782   -8.6014    5.3487 H   0  0  0  0  0  0  0  0  0  0  0  0
   -1.0272   -8.7640    5.2684 H   0  0  0  0  0  0  0  0  0  0  0  0
   -1.0320   -7.2296    4.3522 H   0  0  0  0  0  0  0  0  0  0  0  0
   -0.4381   -7.2596    5.9909 H   0  0  0  0  0  0  0  0  0  0  0  0
    4.5810   -6.7048    5.2798 H   0  0  0  0  0  0  0  0  0  0  0  0
    3.6516   -8.1727    5.2714 H   0  0  0  0  0  0  0  0  0  0  0  0
    3.0655   -6.7886    6.1541 H   0  0  0  0  0  0  0  0  0  0  0  0
    3.5499   -8.4374    2.9285 H   0  0  0  0  0  0  0  0  0  0  0  0
    2.9732   -7.9234    0.9542 H   0  0  0  0  0  0  0  0  0  0  0  0
    5.5789   -7.4524    3.1016 H   0  0  0  0  0  0  0  0  0  0  0  0
    4.7635   -6.7168    0.5368 H   0  0  0  0  0  0  0  0  0  0  0  0
    6.1709   -5.0608    2.6780 H   0  0  0  0  0  0  0  0  0  0  0  0
    5.5403   -3.1460    4.2896 H   0  0  0  0  0  0  0  0  0  0  0  0
    4.2625   -2.4991    3.2204 H   0  0  0  0  0  0  0  0  0  0  0  0
    1.3758   -5.4626    6.2504 H   0  0  0  0  0  0  0  0  0  0  0  0
   -0.3692   -4.7073    8.1274 H   0  0  0  0  0  0  0  0  0  0  0  0
   -0.1538   -2.5257    9.6676 H   0  0  0  0  0  0  0  0  0  0  0  0
   -0.0164   -1.4618    6.1220 H   0  0  0  0  0  0  0  0  0  0  0  0
    2.2994   -0.3860    6.7193 H   0  0  0  0  0  0  0  0  0  0  0  0
    1.6289   -1.4072    3.9536 H   0  0  0  0  0  0  0  0  0  0  0  0
   -0.1060    0.2229    4.5847 H   0  0  0  0  0  0  0  0  0  0  0  0
    1.0978    1.2110    5.4051 H   0  0  0  0  0  0  0  0  0  0  0  0
    0.6682    1.2422    1.1384 H   0  0  0  0  0  0  0  0  0  0  0  0
   -0.6409    0.9573    2.2679 H   0  0  0  0  0  0  0  0  0  0  0  0
    0.5352   -0.3103    1.9462 H   0  0  0  0  0  0  0  0  0  0  0  0
    1.3289    3.3365    2.4827 H   0  0  0  0  0  0  0  0  0  0  0  0
    1.6886    3.2195    4.1953 H   0  0  0  0  0  0  0  0  0  0  0  0
    0.0346    3.0306    3.6251 H   0  0  0  0  0  0  0  0  0  0  0  0
    2.9179    0.4332    2.0407 H   0  0  0  0  0  0  0  0  0  0  0  0
    3.4187    1.8337    2.9734 H   0  0  0  0  0  0  0  0  0  0  0  0
    5.2244    0.4507    4.3035 H   0  0  0  0  0  0  0  0  0  0  0  0
    5.5947   -1.5245    5.7529 H   0  0  0  0  0  0  0  0  0  0  0  0
    4.7650   -0.3832    6.7250 H   0  0  0  0  0  0  0  0  0  0  0  0
    3.6826   -1.8704    8.3139 H   0  0  0  0  0  0  0  0  0  0  0  0
    4.7160   -3.1032    7.6119 H   0  0  0  0  0  0  0  0  0  0  0  0
    3.0135   -3.4081    7.8220 H   0  0  0  0  0  0  0  0  0  0  0  0
    1.8760   -3.4702    2.6050 H   0  0  0  0  0  0  0  0  0  0  0  0
    0.8666   -4.8955    2.7777 H   0  0  0  0  0  0  0  0  0  0  0  0
    2.2237   -4.8581    1.6358 H   0  0  0  0  0  0  0  0  0  0  0  0
  1  2  1  0
  1 39  1  0
  1 40  1  0
  1 41  1  0
  2  3  2  3
  2 42  1  0
  3  4  1  0
  3 43  1  0
  4  5  1  0
  4  6  1  0
  4 44  1  1
  5 45  1  0
  5 46  1  0
  5 47  1  0
  7  6  1  1
  7 37  1  0
  7  8  1  0
  7  9  1  0
  8 48  1  0
  8 49  1  0
  8 50  1  0
  9 10  1  0
  9 11  1  0
  9 51  1  1
 10 52  1  0
 11 12  1  0
 11 13  1  0
 11 53  1  1
 12 54  1  0
 13 14  2  0
 13 55  1  0
 14 37  1  0
 14 15  1  0
 15 16  1  0
 15 56  1  0
 15 57  1  0
 16 35  1  0
 16 17  2  0
 17 18  1  0
 17 37  1  0
 18 20  1  0
 18 19  1  0
 18 58  1  1
 20 19  1  6
 20 24  1  0
 20 21  1  0
 21 22  2  0
 21 59  1  0
 22 23  1  0
 22 60  1  0
 23 24  1  0
 24 25  1  0
 24 61  1  6
 25 35  1  0
 25 26  1  0
 25 62  1  1
 26 32  1  0
 26 27  1  0
 26 63  1  6
 27 28  1  0
 27 64  1  0
 27 65  1  0
 28 29  1  0
 28 30  1  0
 28 31  1  0
 29 66  1  0
 29 67  1  0
 29 68  1  0
 30 69  1  0
 30 70  1  0
 30 71  1  0
 31 32  1  0
 31 72  1  0
 31 73  1  0
 32 33  2  0
 33 34  1  0
 33 74  1  0
 34 35  1  0
 34 75  1  0
 34 76  1  0
 35 36  1  1
 36 77  1  0
 36 78  1  0
 36 79  1  0
 37 38  1  6
 38 80  1  0
 38 81  1  0
 38 82  1  0
M  END
>  <i_m_ct_stereo_status>  (47) 
1

>  <s_m_source_file>  (47) 
/var/tmp/pbs.5076255.sched01/tmpd0mq1ayv/02wja6gfv.sdf

>  <i_m_source_file_index>  (47) 
17

>  <i_lp_mmshare_version>  (47) 
48012

>  <i_f3d_flags>  (47) 
0

>  <s_epik_input>  (47) 
W0NIM10vW0NIXT1bQ0hdL1tDQEhdKFtDSDNdKU9bQ0BAXShbQ0gzXSkoW0NAQEhdKFtPSF0pW0NAQEhdKFtPSF0pW0NIXT0xKVtDQF0yKFtDSDNdKUMxW0NIMl1DKD1DMltDQEhdKE8zKVtDQEBdMzQ1KVtDQF02KFtDSDNdKVtDQEhdKFtDQEBIXTVPW0NIXT1bQ0hdNClbQ0BASF03Qyg9W0NIXVtDSDJdNilbQ0gyXUMoW0NIMl03KShbQ0gzXSlbQ0gzXQ==

>  <s_epik_cmdline>  (47) 
J2VwaWtfcHl0aG9uJywgJy1waHQnLCAnMi4wJywgJy1waCcsICc3LjAnLCAnLXRuJywgJzgnLCAnLW1hJywgJzIwMCcsICctaW1hZScsICc8aW5maWxlLm1hZT4nLCAnLW9tYWUnLCAnPG91dGZpbGUubWFlPic=

>  <r_lp_tautomer_probability>  (47) 
1

>  <r_epik_Ionization_Penalty>  (47) 
5.99779e-07

>  <r_epik_Ionization_Penalty_Charging>  (47) 
0

>  <r_epik_Ionization_Penalty_Neutral>  (47) 
5.99779e-07

>  <r_epik_State_Penalty>  (47) 
-0

>  <r_epik_Charging_Adjusted_Penalty>  (47) 
0

>  <i_epik_Tot_Q>  (47) 
0

>  <i_epik_Tot_abs_Q>  (47) 
0

>  <s_lp_Force_Field>  (47) 
OPLS3e

>  <r_lp_Energy>  (47) 
36.164

>  <b_lp_Chiralities_Consistent>  (47) 
1

>  <s_lp_Variant>  (47) 
10:0-2

>  <s_i_glide_gridfile>  (47) 
pfpi4k_grid

>  <i_i_glide_lignum>  (47) 
17

>  <i_i_glide_rotatable_bonds>  (47) 
5

>  <r_i_docking_score>  (47) 
-1.49823

>  <r_i_glide_ligand_efficiency>  (47) 
-0.039427

>  <r_i_glide_ligand_efficiency_sa>  (47) 
-0.132553

>  <r_i_glide_ligand_efficiency_ln>  (47) 
-0.323062

>  <r_i_glide_gscore>  (47) 
-1.49823

>  <r_i_glide_lipo>  (47) 
-0.313279

>  <r_i_glide_hbond>  (47) 
0

>  <r_i_glide_metal>  (47) 
-0

>  <r_i_glide_rewards>  (47) 
0

>  <r_i_glide_evdw>  (47) 
-25.7693

>  <r_i_glide_ecoul>  (47) 
-0.82599

>  <r_i_glide_erotb>  (47) 
0.227415

>  <r_i_glide_esite>  (47) 
0

>  <r_i_glide_emodel>  (47) 
-28.0888

>  <r_i_glide_energy>  (47) 
-26.5953

>  <r_i_glide_einternal>  (47) 
1.94999

>  <r_i_glide_intrahb_reward>  (47) 
-0

>  <i_i_glide_confnum>  (47) 
3

>  <i_i_glide_posenum>  (47) 
39

>  <r_i_glide_eff_state_penalty>  (47) 
0

>  <ligand_id>  (47) 
10

>  <original_smiles>  (47) 
CC=CC(C)OC1(C)C(O)C(O)C=C2CC3=C(C4OC45C=COC5C4C5CC(C)(C)CC5=CCC34C)C21C

>  <smiles>  (47) 
[H]OC1([H])C([H])=C2C([H])([H])C3=C(C4([H])OC45C([H])=C([H])OC5([H])C4([H])C5([H])C(=C([H])C([H])([H])C34C([H])([H])[H])C([H])([H])C(C([H])([H])[H])(C([H])([H])[H])C5([H])[H])C2(C([H])([H])[H])C(OC([H])(C([H])=C([H])C([H])([H])[H])C([H])([H])[H])(C([H])([H])[H])C1([H])O[H]

$$$$
11:0:0
     RDKit          3D

 90 95  0  0  1  0  0  0  0  0999 V2000
    1.6165   -5.3178    8.9935 C   0  0  0  0  0  0  0  0  0  0  0  0
    1.8177   -6.8032    8.7381 C   0  0  0  0  0  0  0  0  0  0  0  0
    1.2841   -7.7902    9.4213 C   0  0  0  0  0  0  0  0  0  0  0  0
    1.7717   -9.1379    8.9723 C   0  0  1  0  0  0  0  0  0  0  0  0
    0.6720   -9.9614    8.7419 O   0  0  0  0  0  0  0  0  0  0  0  0
    2.6188   -8.8556    7.6952 C   0  0  1  0  0  0  0  0  0  0  0  0
    2.0554   -9.4203    6.3653 C   0  0  0  0  0  0  0  0  0  0  0  0
    0.9986   -8.4914    5.7709 C   0  0  0  0  0  0  0  0  0  0  0  0
   -0.1731   -8.8551    5.6729 O   0  0  0  0  0  0  0  0  0  0  0  0
    1.4447   -7.0577    5.3572 C   0  0  1  0  0  0  0  0  0  0  0  0
    0.2536   -6.1042    5.6671 C   0  0  0  0  0  0  0  0  0  0  0  0
    2.5731   -6.6357    6.3027 C   0  0  0  0  0  0  0  0  0  0  0  0
    3.4313   -5.6732    5.9178 C   0  0  0  0  0  0  0  0  0  0  0  0
    3.3776   -4.9356    4.6145 C   0  0  0  0  0  0  0  0  0  0  0  0
    2.5003   -5.5076    3.4621 C   0  0  2  0  0  0  0  0  0  0  0  0
    1.8786   -6.9488    3.8125 C   0  0  2  0  0  0  0  0  0  0  0  0
    0.5961   -7.2617    2.9672 C   0  0  0  0  0  0  0  0  0  0  0  0
    2.9493   -8.0226    3.4429 C   0  0  0  0  0  0  0  0  0  0  0  0
    3.5903   -7.8835    2.0439 C   0  0  0  0  0  0  0  0  0  0  0  0
    4.2413   -6.4944    1.7832 C   0  0  1  0  0  0  0  0  0  0  0  0
    5.5216   -6.5252    2.6730 C   0  0  0  0  0  0  0  0  0  0  0  0
    4.7243   -6.4132    0.3195 C   0  0  0  0  0  0  0  0  0  0  0  0
    5.3960   -5.0687   -0.0177 C   0  0  0  0  0  0  0  0  0  0  0  0
    4.4920   -3.8517    0.2061 C   0  0  1  0  0  0  0  0  0  0  0  0
    3.5877   -3.7105   -0.8969 O   0  0  0  0  0  0  0  0  0  0  0  0
    3.9313   -2.7908   -1.8799 C   0  0  2  0  0  0  0  0  0  0  0  0
    4.0563   -1.5451   -1.2901 O   0  0  0  0  0  0  0  0  0  0  0  0
    4.4651   -0.5585   -2.2059 C   0  0  0  0  0  0  0  0  0  0  0  0
    3.3890   -0.2798   -3.2344 C   0  0  1  0  0  0  0  0  0  0  0  0
    3.8156    0.7298   -4.1260 O   0  0  0  0  0  0  0  0  0  0  0  0
    3.0587   -1.5662   -3.9346 C   0  0  1  0  0  0  0  0  0  0  0  0
    4.1937   -1.7805   -4.7168 O   0  0  0  0  0  0  0  0  0  0  0  0
    2.7712   -2.6945   -2.9014 C   0  0  1  0  0  0  0  0  0  0  0  0
    2.6267   -3.8317   -3.6820 O   0  0  0  0  0  0  0  0  0  0  0  0
    3.7547   -3.8517    1.6048 C   0  0  0  0  0  0  0  0  0  0  0  0
    4.7687   -3.1612    2.5665 C   0  0  0  0  0  0  0  0  0  0  0  0
    2.6185   -2.7932    1.5296 C   0  0  0  0  0  0  0  0  0  0  0  0
    3.1776   -5.3341    2.0057 C   0  0  2  0  0  0  0  0  0  0  0  0
    2.0176   -5.5670    0.9758 C   0  0  0  0  0  0  0  0  0  0  0  0
    2.7714   -7.3019    7.6665 C   0  0  1  0  0  0  0  0  0  0  0  0
    2.5742   -4.8656    9.2451 H   0  0  0  0  0  0  0  0  0  0  0  0
    0.9328   -5.1668    9.8316 H   0  0  0  0  0  0  0  0  0  0  0  0
    1.2124   -4.8162    8.1164 H   0  0  0  0  0  0  0  0  0  0  0  0
    0.5927   -7.6850   10.2501 H   0  0  0  0  0  0  0  0  0  0  0  0
    2.3989   -9.5553    9.7655 H   0  0  0  0  0  0  0  0  0  0  0  0
    0.9918  -10.8016    8.3944 H   0  0  0  0  0  0  0  0  0  0  0  0
    3.5998   -9.3210    7.8352 H   0  0  0  0  0  0  0  0  0  0  0  0
    2.8668   -9.5430    5.6500 H   0  0  0  0  0  0  0  0  0  0  0  0
    1.6278  -10.4159    6.4838 H   0  0  0  0  0  0  0  0  0  0  0  0
   -0.0767   -6.2362    6.6973 H   0  0  0  0  0  0  0  0  0  0  0  0
   -0.6297   -6.2796    5.0493 H   0  0  0  0  0  0  0  0  0  0  0  0
    0.5347   -5.0552    5.5576 H   0  0  0  0  0  0  0  0  0  0  0  0
    4.2160   -5.3778    6.5944 H   0  0  0  0  0  0  0  0  0  0  0  0
    3.0411   -3.9297    4.8594 H   0  0  0  0  0  0  0  0  0  0  0  0
    4.4211   -4.8669    4.3453 H   0  0  0  0  0  0  0  0  0  0  0  0
    1.6443   -4.8326    3.4651 H   0  0  0  0  0  0  0  0  0  0  0  0
    0.8030   -7.8126    2.0563 H   0  0  0  0  0  0  0  0  0  0  0  0
    0.0379   -6.3618    2.7266 H   0  0  0  0  0  0  0  0  0  0  0  0
   -0.1211   -7.9087    3.4600 H   0  0  0  0  0  0  0  0  0  0  0  0
    3.7368   -8.0231    4.1922 H   0  0  0  0  0  0  0  0  0  0  0  0
    2.5086   -9.0177    3.4850 H   0  0  0  0  0  0  0  0  0  0  0  0
    4.3436   -8.6632    1.9336 H   0  0  0  0  0  0  0  0  0  0  0  0
    2.8744   -8.1630    1.2774 H   0  0  0  0  0  0  0  0  0  0  0  0
    6.1820   -5.6769    2.5552 H   0  0  0  0  0  0  0  0  0  0  0  0
    6.1375   -7.3901    2.4108 H   0  0  0  0  0  0  0  0  0  0  0  0
    5.3161   -6.6382    3.7333 H   0  0  0  0  0  0  0  0  0  0  0  0
    5.4163   -7.2326    0.1440 H   0  0  0  0  0  0  0  0  0  0  0  0
    3.9114   -6.5792   -0.3824 H   0  0  0  0  0  0  0  0  0  0  0  0
    6.3062   -4.9361    0.5659 H   0  0  0  0  0  0  0  0  0  0  0  0
    5.7213   -5.0485   -1.0535 H   0  0  0  0  0  0  0  0  0  0  0  0
    5.1899   -3.0125    0.1715 H   0  0  0  0  0  0  0  0  0  0  0  0
    4.8795   -3.0437   -2.3422 H   0  0  0  0  0  0  0  0  0  0  0  0
    4.5548    0.2939   -1.5945 H   0  0  0  0  0  0  0  0  0  0  0  0
    5.4464   -0.7637   -2.6377 H   0  0  0  0  0  0  0  0  0  0  0  0
    2.4527    0.0544   -2.8044 H   0  0  0  0  0  0  0  0  0  0  0  0
    3.3389    1.4945   -3.8204 H   0  0  0  0  0  0  0  0  0  0  0  0
    2.1895   -1.3996   -4.5748 H   0  0  0  0  0  0  0  0  0  0  0  0
    4.3911   -0.9095   -5.0538 H   0  0  0  0  0  0  0  0  0  0  0  0
    1.8580   -2.4687   -2.3343 H   0  0  0  0  0  0  0  0  0  0  0  0
    2.6197   -4.5985   -3.1060 H   0  0  0  0  0  0  0  0  0  0  0  0
    4.3028   -2.8189    3.4864 H   0  0  0  0  0  0  0  0  0  0  0  0
    5.1685   -2.2434    2.1285 H   0  0  0  0  0  0  0  0  0  0  0  0
    5.6373   -3.7573    2.8096 H   0  0  0  0  0  0  0  0  0  0  0  0
    2.0573   -2.7432    2.4616 H   0  0  0  0  0  0  0  0  0  0  0  0
    1.9114   -2.9737    0.7205 H   0  0  0  0  0  0  0  0  0  0  0  0
    3.0264   -1.7981    1.3348 H   0  0  0  0  0  0  0  0  0  0  0  0
    2.1794   -5.1665   -0.0124 H   0  0  0  0  0  0  0  0  0  0  0  0
    1.1154   -5.1087    1.3508 H   0  0  0  0  0  0  0  0  0  0  0  0
    1.7763   -6.5903    0.7332 H   0  0  0  0  0  0  0  0  0  0  0  0
    3.7659   -7.0616    8.0334 H   0  0  0  0  0  0  0  0  0  0  0  0
  1  2  1  0
  1 41  1  0
  1 42  1  0
  1 43  1  0
  2 40  1  0
  2  3  2  0
  3  4  1  0
  3 44  1  0
  4  5  1  0
  4  6  1  0
  4 45  1  1
  5 46  1  0
  6 40  1  0
  6  7  1  0
  6 47  1  1
  7  8  1  0
  7 48  1  0
  7 49  1  0
  8  9  2  0
  8 10  1  0
 10 16  1  0
 10 11  1  6
 10 12  1  0
 11 50  1  0
 11 51  1  0
 11 52  1  0
 12 13  2  0
 12 40  1  0
 13 14  1  0
 13 53  1  0
 14 15  1  0
 14 54  1  0
 14 55  1  0
 15 38  1  0
 15 16  1  0
 15 56  1  6
 16 17  1  6
 16 18  1  0
 17 57  1  0
 17 58  1  0
 17 59  1  0
 18 19  1  0
 18 60  1  0
 18 61  1  0
 19 20  1  0
 19 62  1  0
 19 63  1  0
 20 38  1  0
 20 21  1  1
 20 22  1  0
 21 64  1  0
 21 65  1  0
 21 66  1  0
 22 23  1  0
 22 67  1  0
 22 68  1  0
 23 24  1  0
 23 69  1  0
 23 70  1  0
 24 25  1  0
 24 35  1  0
 24 71  1  1
 25 26  1  0
 26 33  1  0
 26 27  1  0
 26 72  1  6
 27 28  1  0
 28 29  1  0
 28 73  1  0
 28 74  1  0
 29 30  1  0
 29 31  1  0
 29 75  1  1
 30 76  1  0
 31 32  1  0
 31 33  1  0
 31 77  1  6
 32 78  1  0
 33 34  1  0
 33 79  1  1
 34 80  1  0
 35 36  1  0
 35 37  1  0
 35 38  1  0
 36 81  1  0
 36 82  1  0
 36 83  1  0
 37 84  1  0
 37 85  1  0
 37 86  1  0
 38 39  1  6
 39 87  1  0
 39 88  1  0
 39 89  1  0
 40 90  1  1
M  END
>  <i_m_ct_stereo_status>  (48) 
1

>  <s_m_source_file>  (48) 
/var/tmp/pbs.5076255.sched01/tmpd0mq1ayv/02wja6gfv.sdf

>  <i_m_source_file_index>  (48) 
18

>  <i_lp_mmshare_version>  (48) 
48012

>  <i_f3d_flags>  (48) 
0

>  <s_epik_input>  (48) 
W0NIM11DMT1bQ0hdW0NAQEhdKFtPSF0pW0NAQEhdKFtDSDJdQzI9TylbQ0BIXTFDKFtDQF0yM1tDSDNdKT1bQ0hdW0NIMl1bQ0BASF00W0NAQF0zKFtDSDNdKVtDSDJdW0NIMl1bQ0BdNShbQ0gzXSlbQ0BdNChbQ0gzXSlDKFtDSDNdKShbQ0gzXSlbQ0BASF0oW0NIMl1bQ0gyXTUpT1tDQEBIXTZPW0NIMl1bQ0BASF0oW09IXSlbQ0BASF0oW09IXSlbQ0BIXTZbT0hd

>  <s_epik_cmdline>  (48) 
J2VwaWtfcHl0aG9uJywgJy1waHQnLCAnMi4wJywgJy1waCcsICc3LjAnLCAnLXRuJywgJzgnLCAnLW1hJywgJzIwMCcsICctaW1hZScsICc8aW5maWxlLm1hZT4nLCAnLW9tYWUnLCAnPG91dGZpbGUubWFlPic=

>  <r_lp_tautomer_probability>  (48) 
1

>  <r_epik_Ionization_Penalty>  (48) 
1.54338e-06

>  <r_epik_Ionization_Penalty_Charging>  (48) 
0

>  <r_epik_Ionization_Penalty_Neutral>  (48) 
1.54338e-06

>  <r_epik_State_Penalty>  (48) 
-0

>  <r_epik_Charging_Adjusted_Penalty>  (48) 
0

>  <i_epik_Tot_Q>  (48) 
0

>  <i_epik_Tot_abs_Q>  (48) 
0

>  <s_epik_Chemistry_Notes>  (48) 
This compound contains an acetal/aminal-like group ( X-CH(R)-Y where X, Y are N, S, or O) that may be acid/base labile, releasing an aldehyde.

>  <s_lp_Force_Field>  (48) 
OPLS3e

>  <r_lp_Energy>  (48) 
111.415

>  <b_lp_Chiralities_Consistent>  (48) 
1

>  <s_lp_Variant>  (48) 
11:0-1

>  <s_i_glide_gridfile>  (48) 
pfpi4k_grid

>  <i_i_glide_lignum>  (48) 
18

>  <i_i_glide_rotatable_bonds>  (48) 
6

>  <r_i_docking_score>  (48) 
-4.12186

>  <r_i_glide_ligand_efficiency>  (48) 
-0.103047

>  <r_i_glide_ligand_efficiency_sa>  (48) 
-0.352414

>  <r_i_glide_ligand_efficiency_ln>  (48) 
-0.879072

>  <r_i_glide_gscore>  (48) 
-4.12186

>  <r_i_glide_lipo>  (48) 
-0.510662

>  <r_i_glide_hbond>  (48) 
0

>  <r_i_glide_metal>  (48) 
-0

>  <r_i_glide_rewards>  (48) 
0

>  <r_i_glide_evdw>  (48) 
-17.6434

>  <r_i_glide_ecoul>  (48) 
-18.1538

>  <r_i_glide_erotb>  (48) 
0.038444

>  <r_i_glide_esite>  (48) 
-0.0444009

>  <r_i_glide_emodel>  (48) 
-45.0801

>  <r_i_glide_energy>  (48) 
-35.7972

>  <r_i_glide_einternal>  (48) 
4.34236

>  <r_i_glide_intrahb_reward>  (48) 
-0

>  <i_i_glide_confnum>  (48) 
1

>  <i_i_glide_posenum>  (48) 
2

>  <r_i_glide_eff_state_penalty>  (48) 
0

>  <ligand_id>  (48) 
11

>  <original_smiles>  (48) 
CC1=CC(O)C2CC(=O)C3(C)C(=CCC4C3(C)CCC3(C)CCC(OC5OCC(O)C(O)C5O)C(C)(C)C43C)C12

>  <smiles>  (48) 
[H]OC1([H])C([H])=C(C([H])([H])[H])C2([H])C3=C([H])C([H])([H])C4([H])C(C([H])([H])[H])(C([H])([H])C([H])([H])C5(C([H])([H])[H])C([H])([H])C([H])([H])C([H])(OC6([H])OC([H])([H])C([H])(O[H])C([H])(O[H])C6([H])O[H])C(C([H])([H])[H])(C([H])([H])[H])C45C([H])([H])[H])C3(C([H])([H])[H])C(=O)C([H])([H])C12[H]

$$$$
11:0:1
     RDKit          3D

 90 95  0  0  1  0  0  0  0  0999 V2000
    0.5867  -10.2979    2.8834 C   0  0  0  0  0  0  0  0  0  0  0  0
    1.9286  -10.7027    3.4640 C   0  0  0  0  0  0  0  0  0  0  0  0
    2.5988  -11.8326    3.2259 C   0  0  0  0  0  0  0  0  0  0  0  0
    3.8500  -11.9604    4.0428 C   0  0  1  0  0  0  0  0  0  0  0  0
    4.9390  -12.3810    3.2414 O   0  0  0  0  0  0  0  0  0  0  0  0
    4.0013  -10.5753    4.7318 C   0  0  1  0  0  0  0  0  0  0  0  0
    5.2366   -9.7561    4.3067 C   0  0  0  0  0  0  0  0  0  0  0  0
    4.9628   -8.9728    3.0296 C   0  0  0  0  0  0  0  0  0  0  0  0
    5.6191   -9.2131    2.0143 O   0  0  0  0  0  0  0  0  0  0  0  0
    3.8300   -7.9029    3.0600 C   0  0  1  0  0  0  0  0  0  0  0  0
    3.1313   -7.9406    1.6757 C   0  0  0  0  0  0  0  0  0  0  0  0
    2.7633   -8.3609    4.0687 C   0  0  0  0  0  0  0  0  0  0  0  0
    1.9336   -7.4695    4.6073 C   0  0  0  0  0  0  0  0  0  0  0  0
    1.9308   -5.9936    4.3239 C   0  0  0  0  0  0  0  0  0  0  0  0
    3.1674   -5.3790    3.5984 C   0  0  2  0  0  0  0  0  0  0  0  0
    4.3687   -6.4225    3.4005 C   0  0  2  0  0  0  0  0  0  0  0  0
    5.3174   -6.0040    2.2224 C   0  0  0  0  0  0  0  0  0  0  0  0
    5.2129   -6.4003    4.7162 C   0  0  0  0  0  0  0  0  0  0  0  0
    5.6136   -5.0004    5.2419 C   0  0  0  0  0  0  0  0  0  0  0  0
    4.4145   -4.0474    5.4911 C   0  0  1  0  0  0  0  0  0  0  0  0
    3.7157   -4.6503    6.7500 C   0  0  0  0  0  0  0  0  0  0  0  0
    4.9240   -2.6385    5.9052 C   0  0  0  0  0  0  0  0  0  0  0  0
    3.7778   -1.6470    6.1647 C   0  0  0  0  0  0  0  0  0  0  0  0
    2.8344   -1.4605    4.9531 C   0  0  1  0  0  0  0  0  0  0  0  0
    3.4467   -0.5021    4.0556 O   0  0  0  0  0  0  0  0  0  0  0  0
    2.7999    0.7105    3.7166 C   0  0  2  0  0  0  0  0  0  0  0  0
    2.0991    1.2072    4.8388 O   0  0  0  0  0  0  0  0  0  0  0  0
    1.3852    2.4161    4.6250 C   0  0  0  0  0  0  0  0  0  0  0  0
    0.3132    2.2280    3.5331 C   0  0  1  0  0  0  0  0  0  0  0  0
   -0.3742    3.4395    3.2749 O   0  0  0  0  0  0  0  0  0  0  0  0
    0.9781    1.7273    2.2404 C   0  0  1  0  0  0  0  0  0  0  0  0
    1.8515    2.7189    1.7188 O   0  0  0  0  0  0  0  0  0  0  0  0
    1.7963    0.4728    2.5327 C   0  0  1  0  0  0  0  0  0  0  0  0
    2.4695    0.1236    1.3164 O   0  0  0  0  0  0  0  0  0  0  0  0
    2.3461   -2.8334    4.3048 C   0  0  0  0  0  0  0  0  0  0  0  0
    1.0725   -3.1934    5.1323 C   0  0  0  0  0  0  0  0  0  0  0  0
    1.7072   -2.5974    2.9101 C   0  0  0  0  0  0  0  0  0  0  0  0
    3.5620   -3.9102    4.1487 C   0  0  2  0  0  0  0  0  0  0  0  0
    4.4752   -3.2555    3.0279 C   0  0  0  0  0  0  0  0  0  0  0  0
    2.6526   -9.8415    4.4714 C   0  0  1  0  0  0  0  0  0  0  0  0
   -0.1480  -10.1591    3.6760 H   0  0  0  0  0  0  0  0  0  0  0  0
    0.2016  -11.0572    2.2056 H   0  0  0  0  0  0  0  0  0  0  0  0
    0.6561   -9.3684    2.3242 H   0  0  0  0  0  0  0  0  0  0  0  0
    2.2709  -12.6127    2.5591 H   0  0  0  0  0  0  0  0  0  0  0  0
    3.6705  -12.7205    4.8044 H   0  0  0  0  0  0  0  0  0  0  0  0
    4.7059  -12.2850    2.3231 H   0  0  0  0  0  0  0  0  0  0  0  0
    4.1010  -10.7427    5.8066 H   0  0  0  0  0  0  0  0  0  0  0  0
    5.4890   -9.0504    5.0942 H   0  0  0  0  0  0  0  0  0  0  0  0
    6.1161  -10.3922    4.1823 H   0  0  0  0  0  0  0  0  0  0  0  0
    2.8238   -8.9573    1.4231 H   0  0  0  0  0  0  0  0  0  0  0  0
    3.7707   -7.6077    0.8532 H   0  0  0  0  0  0  0  0  0  0  0  0
    2.2289   -7.3303    1.6681 H   0  0  0  0  0  0  0  0  0  0  0  0
    1.1810   -7.8100    5.3014 H   0  0  0  0  0  0  0  0  0  0  0  0
    1.0318   -5.7998    3.7464 H   0  0  0  0  0  0  0  0  0  0  0  0
    1.7566   -5.5577    5.2939 H   0  0  0  0  0  0  0  0  0  0  0  0
    2.7874   -5.2148    2.5894 H   0  0  0  0  0  0  0  0  0  0  0  0
    6.1732   -5.4175    2.5367 H   0  0  0  0  0  0  0  0  0  0  0  0
    4.7884   -5.4623    1.4420 H   0  0  0  0  0  0  0  0  0  0  0  0
    5.7917   -6.8326    1.7102 H   0  0  0  0  0  0  0  0  0  0  0  0
    4.6807   -6.9264    5.5029 H   0  0  0  0  0  0  0  0  0  0  0  0
    6.1342   -6.9612    4.5783 H   0  0  0  0  0  0  0  0  0  0  0  0
    6.1709   -5.1190    6.1690 H   0  0  0  0  0  0  0  0  0  0  0  0
    6.3507   -4.5593    4.5827 H   0  0  0  0  0  0  0  0  0  0  0  0
    2.9009   -4.0730    7.1597 H   0  0  0  0  0  0  0  0  0  0  0  0
    4.4282   -4.7152    7.5702 H   0  0  0  0  0  0  0  0  0  0  0  0
    3.3534   -5.6616    6.6183 H   0  0  0  0  0  0  0  0  0  0  0  0
    5.5368   -2.7188    6.8029 H   0  0  0  0  0  0  0  0  0  0  0  0
    5.5830   -2.2161    5.1474 H   0  0  0  0  0  0  0  0  0  0  0  0
    3.1905   -1.9693    7.0185 H   0  0  0  0  0  0  0  0  0  0  0  0
    4.1826   -0.6875    6.4781 H   0  0  0  0  0  0  0  0  0  0  0  0
    1.9610   -0.9838    5.3892 H   0  0  0  0  0  0  0  0  0  0  0  0
    3.5905    1.4394    3.4525 H   0  0  0  0  0  0  0  0  0  0  0  0
    0.9171    2.6986    5.5663 H   0  0  0  0  0  0  0  0  0  0  0  0
    2.1089    3.1902    4.3547 H   0  0  0  0  0  0  0  0  0  0  0  0
   -0.4229    1.4923    3.8781 H   0  0  0  0  0  0  0  0  0  0  0  0
   -0.1492    3.7306    2.3880 H   0  0  0  0  0  0  0  0  0  0  0  0
    0.2138    1.4537    1.5067 H   0  0  0  0  0  0  0  0  0  0  0  0
    1.2501    3.3609    1.2643 H   0  0  0  0  0  0  0  0  0  0  0  0
    1.0378   -0.1845    2.8535 H   0  0  0  0  0  0  0  0  0  0  0  0
    1.8457   -0.2413    0.7010 H   0  0  0  0  0  0  0  0  0  0  0  0
    0.4400   -3.9113    4.6210 H   0  0  0  0  0  0  0  0  0  0  0  0
    0.4101   -2.3321    5.2468 H   0  0  0  0  0  0  0  0  0  0  0  0
    1.2641   -3.5304    6.1376 H   0  0  0  0  0  0  0  0  0  0  0  0
    1.4709   -3.5168    2.3678 H   0  0  0  0  0  0  0  0  0  0  0  0
    2.3955   -2.0507    2.2700 H   0  0  0  0  0  0  0  0  0  0  0  0
    0.7688   -2.0666    3.0034 H   0  0  0  0  0  0  0  0  0  0  0  0
    4.5882   -2.1817    3.0831 H   0  0  0  0  0  0  0  0  0  0  0  0
    4.1005   -3.4417    2.0222 H   0  0  0  0  0  0  0  0  0  0  0  0
    5.5070   -3.5595    3.0213 H   0  0  0  0  0  0  0  0  0  0  0  0
    2.0565   -9.9086    5.3778 H   0  0  0  0  0  0  0  0  0  0  0  0
  1  2  1  0
  1 41  1  0
  1 42  1  0
  1 43  1  0
  2 40  1  0
  2  3  2  0
  3  4  1  0
  3 44  1  0
  4  5  1  0
  4  6  1  0
  4 45  1  1
  5 46  1  0
  6 40  1  0
  6  7  1  0
  6 47  1  1
  7  8  1  0
  7 48  1  0
  7 49  1  0
  8  9  2  0
  8 10  1  0
 10 16  1  0
 10 11  1  6
 10 12  1  0
 11 50  1  0
 11 51  1  0
 11 52  1  0
 12 13  2  0
 12 40  1  0
 13 14  1  0
 13 53  1  0
 14 15  1  0
 14 54  1  0
 14 55  1  0
 15 38  1  0
 15 16  1  0
 15 56  1  6
 16 17  1  6
 16 18  1  0
 17 57  1  0
 17 58  1  0
 17 59  1  0
 18 19  1  0
 18 60  1  0
 18 61  1  0
 19 20  1  0
 19 62  1  0
 19 63  1  0
 20 38  1  0
 20 21  1  1
 20 22  1  0
 21 64  1  0
 21 65  1  0
 21 66  1  0
 22 23  1  0
 22 67  1  0
 22 68  1  0
 23 24  1  0
 23 69  1  0
 23 70  1  0
 24 25  1  0
 24 35  1  0
 24 71  1  1
 25 26  1  0
 26 33  1  0
 26 27  1  0
 26 72  1  6
 27 28  1  0
 28 29  1  0
 28 73  1  0
 28 74  1  0
 29 30  1  0
 29 31  1  0
 29 75  1  1
 30 76  1  0
 31 32  1  0
 31 33  1  0
 31 77  1  6
 32 78  1  0
 33 34  1  0
 33 79  1  1
 34 80  1  0
 35 36  1  0
 35 37  1  0
 35 38  1  0
 36 81  1  0
 36 82  1  0
 36 83  1  0
 37 84  1  0
 37 85  1  0
 37 86  1  0
 38 39  1  6
 39 87  1  0
 39 88  1  0
 39 89  1  0
 40 90  1  1
M  END
>  <i_m_ct_stereo_status>  (49) 
1

>  <s_m_source_file>  (49) 
/var/tmp/pbs.5076255.sched01/tmpd0mq1ayv/02wja6gfv.sdf

>  <i_m_source_file_index>  (49) 
18

>  <i_lp_mmshare_version>  (49) 
48012

>  <i_f3d_flags>  (49) 
0

>  <s_epik_input>  (49) 
W0NIM11DMT1bQ0hdW0NAQEhdKFtPSF0pW0NAQEhdKFtDSDJdQzI9TylbQ0BIXTFDKFtDQF0yM1tDSDNdKT1bQ0hdW0NIMl1bQ0BASF00W0NAQF0zKFtDSDNdKVtDSDJdW0NIMl1bQ0BdNShbQ0gzXSlbQ0BdNChbQ0gzXSlDKFtDSDNdKShbQ0gzXSlbQ0BASF0oW0NIMl1bQ0gyXTUpT1tDQEBIXTZPW0NIMl1bQ0BASF0oW09IXSlbQ0BASF0oW09IXSlbQ0BIXTZbT0hd

>  <s_epik_cmdline>  (49) 
J2VwaWtfcHl0aG9uJywgJy1waHQnLCAnMi4wJywgJy1waCcsICc3LjAnLCAnLXRuJywgJzgnLCAnLW1hJywgJzIwMCcsICctaW1hZScsICc8aW5maWxlLm1hZT4nLCAnLW9tYWUnLCAnPG91dGZpbGUubWFlPic=

>  <r_lp_tautomer_probability>  (49) 
1

>  <r_epik_Ionization_Penalty>  (49) 
1.54338e-06

>  <r_epik_Ionization_Penalty_Charging>  (49) 
0

>  <r_epik_Ionization_Penalty_Neutral>  (49) 
1.54338e-06

>  <r_epik_State_Penalty>  (49) 
-0

>  <r_epik_Charging_Adjusted_Penalty>  (49) 
0

>  <i_epik_Tot_Q>  (49) 
0

>  <i_epik_Tot_abs_Q>  (49) 
0

>  <s_epik_Chemistry_Notes>  (49) 
This compound contains an acetal/aminal-like group ( X-CH(R)-Y where X, Y are N, S, or O) that may be acid/base labile, releasing an aldehyde.

>  <s_lp_Force_Field>  (49) 
OPLS3e

>  <r_lp_Energy>  (49) 
111.415

>  <b_lp_Chiralities_Consistent>  (49) 
1

>  <s_lp_Variant>  (49) 
11:0-1

>  <s_i_glide_gridfile>  (49) 
pfpi4k_grid

>  <i_i_glide_lignum>  (49) 
18

>  <i_i_glide_rotatable_bonds>  (49) 
6

>  <r_i_docking_score>  (49) 
-3.89147

>  <r_i_glide_ligand_efficiency>  (49) 
-0.0972867

>  <r_i_glide_ligand_efficiency_sa>  (49) 
-0.332716

>  <r_i_glide_ligand_efficiency_ln>  (49) 
-0.829935

>  <r_i_glide_gscore>  (49) 
-3.89147

>  <r_i_glide_lipo>  (49) 
-0.240546

>  <r_i_glide_hbond>  (49) 
0

>  <r_i_glide_metal>  (49) 
-0

>  <r_i_glide_rewards>  (49) 
0

>  <r_i_glide_evdw>  (49) 
-24.449

>  <r_i_glide_ecoul>  (49) 
-16.4966

>  <r_i_glide_erotb>  (49) 
0.05492

>  <r_i_glide_esite>  (49) 
-0.00890505

>  <r_i_glide_emodel>  (49) 
-47.3836

>  <r_i_glide_energy>  (49) 
-40.9456

>  <r_i_glide_einternal>  (49) 
7.3063

>  <r_i_glide_intrahb_reward>  (49) 
-0

>  <i_i_glide_confnum>  (49) 
1

>  <i_i_glide_posenum>  (49) 
19

>  <r_i_glide_eff_state_penalty>  (49) 
0

>  <ligand_id>  (49) 
11

>  <original_smiles>  (49) 
CC1=CC(O)C2CC(=O)C3(C)C(=CCC4C3(C)CCC3(C)CCC(OC5OCC(O)C(O)C5O)C(C)(C)C43C)C12

>  <smiles>  (49) 
[H]OC1([H])C([H])=C(C([H])([H])[H])C2([H])C3=C([H])C([H])([H])C4([H])C(C([H])([H])[H])(C([H])([H])C([H])([H])C5(C([H])([H])[H])C([H])([H])C([H])([H])C([H])(OC6([H])OC([H])([H])C([H])(O[H])C([H])(O[H])C6([H])O[H])C(C([H])([H])[H])(C([H])([H])[H])C45C([H])([H])[H])C3(C([H])([H])[H])C(=O)C([H])([H])C12[H]

$$$$
11:0:2
     RDKit          3D

 90 95  0  0  1  0  0  0  0  0999 V2000
   -0.7483   -9.4499    2.8240 C   0  0  0  0  0  0  0  0  0  0  0  0
    0.4259   -9.9897    3.6180 C   0  0  0  0  0  0  0  0  0  0  0  0
    1.0065  -11.1765    3.4473 C   0  0  0  0  0  0  0  0  0  0  0  0
    2.0685  -11.4552    4.4736 C   0  0  1  0  0  0  0  0  0  0  0  0
    3.2509  -11.9146    3.8554 O   0  0  0  0  0  0  0  0  0  0  0  0
    2.2097  -10.1164    5.2644 C   0  0  1  0  0  0  0  0  0  0  0  0
    3.5630   -9.3915    5.1163 C   0  0  0  0  0  0  0  0  0  0  0  0
    3.6057   -8.5474    3.8439 C   0  0  0  0  0  0  0  0  0  0  0  0
    4.4174   -8.8094    2.9555 O   0  0  0  0  0  0  0  0  0  0  0  0
    2.5892   -7.3720    3.7165 C   0  0  1  0  0  0  0  0  0  0  0  0
    2.1628   -7.2964    2.2211 C   0  0  0  0  0  0  0  0  0  0  0  0
    1.3200   -7.7711    4.4808 C   0  0  0  0  0  0  0  0  0  0  0  0
    0.4842   -6.8226    4.9242 C   0  0  0  0  0  0  0  0  0  0  0  0
    0.6547   -5.3407    4.7093 C   0  0  0  0  0  0  0  0  0  0  0  0
    2.0467   -4.8054    4.2451 C   0  0  2  0  0  0  0  0  0  0  0  0
    3.1700   -5.9557    4.2226 C   0  0  2  0  0  0  0  0  0  0  0  0
    4.3558   -5.6021    3.2634 C   0  0  0  0  0  0  0  0  0  0  0  0
    3.7567   -6.0630    5.6641 C   0  0  0  0  0  0  0  0  0  0  0  0
    4.1684   -4.7243    6.3252 C   0  0  0  0  0  0  0  0  0  0  0  0
    3.0259   -3.6703    6.3921 C   0  0  1  0  0  0  0  0  0  0  0  0
    2.0679   -4.2502    7.4788 C   0  0  0  0  0  0  0  0  0  0  0  0
    3.5679   -2.3372    6.9699 C   0  0  0  0  0  0  0  0  0  0  0  0
    2.4857   -1.2433    7.0616 C   0  0  0  0  0  0  0  0  0  0  0  0
    1.8162   -0.9125    5.7159 C   0  0  1  0  0  0  0  0  0  0  0  0
    2.6826   -0.0116    5.0161 O   0  0  0  0  0  0  0  0  0  0  0  0
    2.2164    1.2878    4.8159 C   0  0  2  0  0  0  0  0  0  0  0  0
    1.3837    1.3330    3.6975 O   0  0  0  0  0  0  0  0  0  0  0  0
    0.8271    2.6152    3.4169 C   0  0  0  0  0  0  0  0  0  0  0  0
    1.9505    3.6139    3.1060 C   0  0  1  0  0  0  0  0  0  0  0  0
    1.4308    4.9140    2.9000 O   0  0  0  0  0  0  0  0  0  0  0  0
    2.9814    3.6211    4.2463 C   0  0  1  0  0  0  0  0  0  0  0  0
    2.4174    4.2161    5.4070 O   0  0  0  0  0  0  0  0  0  0  0  0
    3.4501    2.1765    4.5461 C   0  0  1  0  0  0  0  0  0  0  0  0
    4.3053    2.2462    5.6706 O   0  0  0  0  0  0  0  0  0  0  0  0
    1.3453   -2.1865    4.9041 C   0  0  0  0  0  0  0  0  0  0  0  0
   -0.0827   -2.4788    5.4541 C   0  0  0  0  0  0  0  0  0  0  0  0
    1.0316   -1.7364    3.4498 C   0  0  0  0  0  0  0  0  0  0  0  0
    2.4507   -3.3948    4.9257 C   0  0  2  0  0  0  0  0  0  0  0  0
    3.6067   -2.8116    4.0313 C   0  0  0  0  0  0  0  0  0  0  0  0
    1.0055   -9.2410    4.7961 C   0  0  1  0  0  0  0  0  0  0  0  0
   -1.5967   -9.2797    3.4897 H   0  0  0  0  0  0  0  0  0  0  0  0
   -1.0560  -10.1649    2.0588 H   0  0  0  0  0  0  0  0  0  0  0  0
   -0.4965   -8.5091    2.3328 H   0  0  0  0  0  0  0  0  0  0  0  0
    0.7248  -11.9060    2.6993 H   0  0  0  0  0  0  0  0  0  0  0  0
    1.6910  -12.2378    5.1369 H   0  0  0  0  0  0  0  0  0  0  0  0
    3.0527  -12.7442    3.4418 H   0  0  0  0  0  0  0  0  0  0  0  0
    2.0924  -10.3387    6.3262 H   0  0  0  0  0  0  0  0  0  0  0  0
    3.7242   -8.7420    5.9720 H   0  0  0  0  0  0  0  0  0  0  0  0
    4.3894  -10.1003    5.1146 H   0  0  0  0  0  0  0  0  0  0  0  0
    1.8267   -8.2697    1.8654 H   0  0  0  0  0  0  0  0  0  0  0  0
    2.9656   -6.9987    1.5506 H   0  0  0  0  0  0  0  0  0  0  0  0
    1.3340   -6.6036    2.0682 H   0  0  0  0  0  0  0  0  0  0  0  0
   -0.4187   -7.1124    5.4439 H   0  0  0  0  0  0  0  0  0  0  0  0
   -0.1001   -5.0550    3.9814 H   0  0  0  0  0  0  0  0  0  0  0  0
    0.3482   -4.9249    5.6573 H   0  0  0  0  0  0  0  0  0  0  0  0
    1.8758   -4.5796    3.1936 H   0  0  0  0  0  0  0  0  0  0  0  0
    5.1831   -5.1075    3.7630 H   0  0  0  0  0  0  0  0  0  0  0  0
    4.0335   -4.9912    2.4212 H   0  0  0  0  0  0  0  0  0  0  0  0
    4.8488   -6.4559    2.8150 H   0  0  0  0  0  0  0  0  0  0  0  0
    3.0456   -6.5770    6.3101 H   0  0  0  0  0  0  0  0  0  0  0  0
    4.6427   -6.6980    5.6603 H   0  0  0  0  0  0  0  0  0  0  0  0
    4.5169   -4.9415    7.3356 H   0  0  0  0  0  0  0  0  0  0  0  0
    5.0624   -4.3293    5.8536 H   0  0  0  0  0  0  0  0  0  0  0  0
    1.2416   -3.6104    7.7557 H   0  0  0  0  0  0  0  0  0  0  0  0
    2.6093   -4.4084    8.4122 H   0  0  0  0  0  0  0  0  0  0  0  0
    1.6563   -5.2259    7.2328 H   0  0  0  0  0  0  0  0  0  0  0  0
    3.9872   -2.5042    7.9641 H   0  0  0  0  0  0  0  0  0  0  0  0
    4.4010   -1.9572    6.3782 H   0  0  0  0  0  0  0  0  0  0  0  0
    1.7157   -1.5348    7.7757 H   0  0  0  0  0  0  0  0  0  0  0  0
    2.9223   -0.3316    7.4781 H   0  0  0  0  0  0  0  0  0  0  0  0
    0.9331   -0.3327    5.9810 H   0  0  0  0  0  0  0  0  0  0  0  0
    1.6773    1.6572    5.6891 H   0  0  0  0  0  0  0  0  0  0  0  0
    0.1556    2.5339    2.5609 H   0  0  0  0  0  0  0  0  0  0  0  0
    0.2265    2.9525    4.2624 H   0  0  0  0  0  0  0  0  0  0  0  0
    2.4540    3.3172    2.1875 H   0  0  0  0  0  0  0  0  0  0  0  0
    0.8636    4.8611    2.1197 H   0  0  0  0  0  0  0  0  0  0  0  0
    3.8265    4.2390    3.9516 H   0  0  0  0  0  0  0  0  0  0  0  0
    2.1185    5.0766    5.1408 H   0  0  0  0  0  0  0  0  0  0  0  0
    3.9905    1.7653    3.6924 H   0  0  0  0  0  0  0  0  0  0  0  0
    3.7946    2.6119    6.3790 H   0  0  0  0  0  0  0  0  0  0  0  0
   -0.6486   -3.1310    4.8015 H   0  0  0  0  0  0  0  0  0  0  0  0
   -0.6930   -1.5746    5.4922 H   0  0  0  0  0  0  0  0  0  0  0  0
   -0.1115   -2.8777    6.4595 H   0  0  0  0  0  0  0  0  0  0  0  0
    0.7080   -2.5753    2.8362 H   0  0  0  0  0  0  0  0  0  0  0  0
    1.8756   -1.2627    2.9470 H   0  0  0  0  0  0  0  0  0  0  0  0
    0.2302   -0.9940    3.4292 H   0  0  0  0  0  0  0  0  0  0  0  0
    3.8046   -1.7578    4.1706 H   0  0  0  0  0  0  0  0  0  0  0  0
    3.4010   -2.9227    2.9670 H   0  0  0  0  0  0  0  0  0  0  0  0
    4.5885   -3.2181    4.2055 H   0  0  0  0  0  0  0  0  0  0  0  0
    0.2333   -9.2822    5.5675 H   0  0  0  0  0  0  0  0  0  0  0  0
  1  2  1  0
  1 41  1  0
  1 42  1  0
  1 43  1  0
  2 40  1  0
  2  3  2  0
  3  4  1  0
  3 44  1  0
  4  5  1  0
  4  6  1  0
  4 45  1  1
  5 46  1  0
  6 40  1  0
  6  7  1  0
  6 47  1  1
  7  8  1  0
  7 48  1  0
  7 49  1  0
  8  9  2  0
  8 10  1  0
 10 16  1  0
 10 11  1  6
 10 12  1  0
 11 50  1  0
 11 51  1  0
 11 52  1  0
 12 13  2  0
 12 40  1  0
 13 14  1  0
 13 53  1  0
 14 15  1  0
 14 54  1  0
 14 55  1  0
 15 38  1  0
 15 16  1  0
 15 56  1  6
 16 17  1  6
 16 18  1  0
 17 57  1  0
 17 58  1  0
 17 59  1  0
 18 19  1  0
 18 60  1  0
 18 61  1  0
 19 20  1  0
 19 62  1  0
 19 63  1  0
 20 38  1  0
 20 21  1  1
 20 22  1  0
 21 64  1  0
 21 65  1  0
 21 66  1  0
 22 23  1  0
 22 67  1  0
 22 68  1  0
 23 24  1  0
 23 69  1  0
 23 70  1  0
 24 25  1  0
 24 35  1  0
 24 71  1  1
 25 26  1  0
 26 33  1  0
 26 27  1  0
 26 72  1  1
 27 28  1  0
 28 29  1  0
 28 73  1  0
 28 74  1  0
 29 30  1  0
 29 31  1  0
 29 75  1  6
 30 76  1  0
 31 32  1  0
 31 33  1  0
 31 77  1  6
 32 78  1  0
 33 34  1  0
 33 79  1  6
 34 80  1  0
 35 36  1  0
 35 37  1  0
 35 38  1  0
 36 81  1  0
 36 82  1  0
 36 83  1  0
 37 84  1  0
 37 85  1  0
 37 86  1  0
 38 39  1  6
 39 87  1  0
 39 88  1  0
 39 89  1  0
 40 90  1  1
M  END
>  <i_m_ct_stereo_status>  (50) 
1

>  <s_m_source_file>  (50) 
/var/tmp/pbs.5076255.sched01/tmpd0mq1ayv/02wja6gfv.sdf

>  <i_m_source_file_index>  (50) 
18

>  <i_lp_mmshare_version>  (50) 
48012

>  <i_f3d_flags>  (50) 
0

>  <s_epik_input>  (50) 
W0NIM11DMT1bQ0hdW0NAQEhdKFtPSF0pW0NAQEhdKFtDSDJdQzI9TylbQ0BIXTFDKFtDQF0yM1tDSDNdKT1bQ0hdW0NIMl1bQ0BASF00W0NAQF0zKFtDSDNdKVtDSDJdW0NIMl1bQ0BdNShbQ0gzXSlbQ0BdNChbQ0gzXSlDKFtDSDNdKShbQ0gzXSlbQ0BASF0oW0NIMl1bQ0gyXTUpT1tDQEBIXTZPW0NIMl1bQ0BASF0oW09IXSlbQ0BASF0oW09IXSlbQ0BIXTZbT0hd

>  <s_epik_cmdline>  (50) 
J2VwaWtfcHl0aG9uJywgJy1waHQnLCAnMi4wJywgJy1waCcsICc3LjAnLCAnLXRuJywgJzgnLCAnLW1hJywgJzIwMCcsICctaW1hZScsICc8aW5maWxlLm1hZT4nLCAnLW9tYWUnLCAnPG91dGZpbGUubWFlPic=

>  <r_lp_tautomer_probability>  (50) 
1

>  <r_epik_Ionization_Penalty>  (50) 
1.54338e-06

>  <r_epik_Ionization_Penalty_Charging>  (50) 
0

>  <r_epik_Ionization_Penalty_Neutral>  (50) 
1.54338e-06

>  <r_epik_State_Penalty>  (50) 
-0

>  <r_epik_Charging_Adjusted_Penalty>  (50) 
0

>  <i_epik_Tot_Q>  (50) 
0

>  <i_epik_Tot_abs_Q>  (50) 
0

>  <s_epik_Chemistry_Notes>  (50) 
This compound contains an acetal/aminal-like group ( X-CH(R)-Y where X, Y are N, S, or O) that may be acid/base labile, releasing an aldehyde.

>  <s_lp_Force_Field>  (50) 
OPLS3e

>  <r_lp_Energy>  (50) 
111.415

>  <b_lp_Chiralities_Consistent>  (50) 
1

>  <s_lp_Variant>  (50) 
11:0-1

>  <s_i_glide_gridfile>  (50) 
pfpi4k_grid

>  <i_i_glide_lignum>  (50) 
18

>  <i_i_glide_rotatable_bonds>  (50) 
6

>  <r_i_docking_score>  (50) 
-2.85293

>  <r_i_glide_ligand_efficiency>  (50) 
-0.0713233

>  <r_i_glide_ligand_efficiency_sa>  (50) 
-0.243922

>  <r_i_glide_ligand_efficiency_ln>  (50) 
-0.608447

>  <r_i_glide_gscore>  (50) 
-2.85293

>  <r_i_glide_lipo>  (50) 
-0.219092

>  <r_i_glide_hbond>  (50) 
0

>  <r_i_glide_metal>  (50) 
-0

>  <r_i_glide_rewards>  (50) 
0

>  <r_i_glide_evdw>  (50) 
-30.5579

>  <r_i_glide_ecoul>  (50) 
-7.72831

>  <r_i_glide_erotb>  (50) 
0.05492

>  <r_i_glide_esite>  (50) 
-0.00162114

>  <r_i_glide_emodel>  (50) 
-45.6893

>  <r_i_glide_energy>  (50) 
-38.2862

>  <r_i_glide_einternal>  (50) 
2.58481

>  <r_i_glide_intrahb_reward>  (50) 
-0

>  <i_i_glide_confnum>  (50) 
1

>  <i_i_glide_posenum>  (50) 
15

>  <r_i_glide_eff_state_penalty>  (50) 
0

>  <ligand_id>  (50) 
11

>  <original_smiles>  (50) 
CC1=CC(O)C2CC(=O)C3(C)C(=CCC4C3(C)CCC3(C)CCC(OC5OCC(O)C(O)C5O)C(C)(C)C43C)C12

>  <smiles>  (50) 
[H]OC1([H])C([H])=C(C([H])([H])[H])C2([H])C3=C([H])C([H])([H])C4([H])C(C([H])([H])[H])(C([H])([H])C([H])([H])C5(C([H])([H])[H])C([H])([H])C([H])([H])C([H])(OC6([H])OC([H])([H])C([H])(O[H])C([H])(O[H])C6([H])O[H])C(C([H])([H])[H])(C([H])([H])[H])C45C([H])([H])[H])C3(C([H])([H])[H])C(=O)C([H])([H])C12[H]

$$$$
12:0:0
     RDKit          3D

 61 66  0  0  1  0  0  0  0  0999 V2000
    2.6337  -10.1471    2.5120 C   0  0  0  0  0  0  0  0  0  0  0  0
    1.8618   -9.6394    3.7369 C   0  0  2  0  0  0  0  0  0  0  0  0
    0.3768   -9.9873    3.6921 C   0  0  0  0  0  0  0  0  0  0  0  0
   -0.1993   -8.8241    2.9144 C   0  0  0  0  0  0  0  0  0  0  0  0
    0.6487   -7.6422    3.4041 C   0  0  1  0  0  0  0  0  0  0  0  0
    0.8686   -6.5906    2.3094 C   0  0  0  0  0  0  0  0  0  0  0  0
    1.7624   -5.4418    2.7995 C   0  0  0  0  0  0  0  0  0  0  0  0
    1.2254   -4.7610    4.0787 C   0  0  1  0  0  0  0  0  0  0  0  0
    0.9695   -5.8302    5.1746 C   0  0  1  0  0  0  0  0  0  0  0  0
    0.4028   -5.1960    6.4560 C   0  0  0  0  0  0  0  0  0  0  0  0
    1.3231   -4.0873    6.9946 C   0  0  0  0  0  0  0  0  0  0  0  0
    1.6861   -3.0145    5.9408 C   0  0  1  0  0  0  0  0  0  0  0  0
    2.1833   -3.6611    4.6219 C   0  0  2  0  0  0  0  0  0  0  0  0
    2.5590   -2.5487    3.6216 C   0  0  0  0  0  0  0  0  0  0  0  0
    1.4089   -1.5626    3.3798 C   0  0  0  0  0  0  0  0  0  0  0  0
    0.9624   -0.8175    4.6591 C   0  0  2  0  0  0  0  0  0  0  0  0
    2.0206    0.2104    5.1163 C   0  0  0  0  0  0  0  0  0  0  0  0
    0.6580   -1.8502    5.7924 C   0  0  1  0  0  0  0  0  0  0  0  0
   -0.8386   -2.1972    5.6560 C   0  0  0  0  0  0  0  0  0  0  0  0
   -1.4641   -0.9737    5.0456 C   0  0  1  0  0  0  0  0  0  0  0  0
   -1.1053    0.2957    5.6161 O   0  0  0  0  0  0  0  0  0  0  0  0
   -0.3921   -0.1458    4.4418 C   0  0  1  0  0  0  0  0  0  0  0  0
   -0.5774    0.7305    3.2123 C   0  0  0  0  0  0  0  0  0  0  0  0
    0.0615   -6.9683    4.6616 C   0  0  0  0  0  0  0  0  0  0  0  0
    1.9108   -8.2172    3.7476 O   0  0  0  0  0  0  0  0  0  0  0  0
    2.6214  -11.2358    2.4743 H   0  0  0  0  0  0  0  0  0  0  0  0
    3.6760   -9.8351    2.5382 H   0  0  0  0  0  0  0  0  0  0  0  0
    2.2086   -9.7757    1.5800 H   0  0  0  0  0  0  0  0  0  0  0  0
    2.3173  -10.0287    4.6479 H   0  0  0  0  0  0  0  0  0  0  0  0
    0.1750  -10.9570    3.2352 H   0  0  0  0  0  0  0  0  0  0  0  0
   -0.0373  -10.0025    4.7022 H   0  0  0  0  0  0  0  0  0  0  0  0
   -0.0260   -8.9953    1.8516 H   0  0  0  0  0  0  0  0  0  0  0  0
   -1.2739   -8.6936    3.0566 H   0  0  0  0  0  0  0  0  0  0  0  0
    1.3207   -7.0494    1.4305 H   0  0  0  0  0  0  0  0  0  0  0  0
   -0.0975   -6.2006    1.9947 H   0  0  0  0  0  0  0  0  0  0  0  0
    2.7690   -5.8228    2.9779 H   0  0  0  0  0  0  0  0  0  0  0  0
    1.8442   -4.7220    1.9904 H   0  0  0  0  0  0  0  0  0  0  0  0
    0.2777   -4.3000    3.8133 H   0  0  0  0  0  0  0  0  0  0  0  0
    1.9292   -6.2800    5.4437 H   0  0  0  0  0  0  0  0  0  0  0  0
   -0.5997   -4.8099    6.2808 H   0  0  0  0  0  0  0  0  0  0  0  0
    0.2944   -5.9617    7.2260 H   0  0  0  0  0  0  0  0  0  0  0  0
    0.8831   -3.6225    7.8771 H   0  0  0  0  0  0  0  0  0  0  0  0
    2.2477   -4.5566    7.3362 H   0  0  0  0  0  0  0  0  0  0  0  0
    2.5652   -2.5176    6.3536 H   0  0  0  0  0  0  0  0  0  0  0  0
    3.1142   -4.1782    4.8565 H   0  0  0  0  0  0  0  0  0  0  0  0
    3.4182   -2.0026    4.0100 H   0  0  0  0  0  0  0  0  0  0  0  0
    2.8988   -2.9615    2.6735 H   0  0  0  0  0  0  0  0  0  0  0  0
    1.7069   -0.8467    2.6127 H   0  0  0  0  0  0  0  0  0  0  0  0
    0.5629   -2.1097    2.9585 H   0  0  0  0  0  0  0  0  0  0  0  0
    1.6627    0.8005    5.9604 H   0  0  0  0  0  0  0  0  0  0  0  0
    2.2720    0.9075    4.3169 H   0  0  0  0  0  0  0  0  0  0  0  0
    2.9442   -0.2732    5.4300 H   0  0  0  0  0  0  0  0  0  0  0  0
    0.7131   -1.3001    6.7334 H   0  0  0  0  0  0  0  0  0  0  0  0
   -0.9803   -3.0160    4.9652 H   0  0  0  0  0  0  0  0  0  0  0  0
   -1.3070   -2.4537    6.6050 H   0  0  0  0  0  0  0  0  0  0  0  0
   -2.4440   -1.0341    4.5702 H   0  0  0  0  0  0  0  0  0  0  0  0
   -0.4921    0.1467    2.3001 H   0  0  0  0  0  0  0  0  0  0  0  0
    0.1682    1.5253    3.1872 H   0  0  0  0  0  0  0  0  0  0  0  0
   -1.5648    1.1884    3.2291 H   0  0  0  0  0  0  0  0  0  0  0  0
   -0.9284   -6.5699    4.4351 H   0  0  0  0  0  0  0  0  0  0  0  0
   -0.0736   -7.7094    5.4506 H   0  0  0  0  0  0  0  0  0  0  0  0
  1  2  1  0
  1 26  1  0
  1 27  1  0
  1 28  1  0
  2 25  1  0
  2  3  1  0
  2 29  1  1
  3  4  1  0
  3 30  1  0
  3 31  1  0
  4  5  1  0
  4 32  1  0
  4 33  1  0
  5 24  1  0
  5  6  1  0
  5 25  1  1
  6  7  1  0
  6 34  1  0
  6 35  1  0
  7  8  1  0
  7 36  1  0
  7 37  1  0
  8 13  1  0
  8  9  1  0
  8 38  1  6
  9 10  1  0
  9 24  1  0
  9 39  1  1
 10 11  1  0
 10 40  1  0
 10 41  1  0
 11 12  1  0
 11 42  1  0
 11 43  1  0
 12 18  1  0
 12 13  1  0
 12 44  1  1
 13 14  1  0
 13 45  1  1
 14 15  1  0
 14 46  1  0
 14 47  1  0
 15 16  1  0
 15 48  1  0
 15 49  1  0
 16 22  1  0
 16 17  1  1
 16 18  1  0
 17 50  1  0
 17 51  1  0
 17 52  1  0
 18 19  1  0
 18 53  1  1
 19 20  1  0
 19 54  1  0
 19 55  1  0
 20 22  1  0
 20 21  1  0
 20 56  1  6
 21 22  1  0
 22 23  1  6
 23 57  1  0
 23 58  1  0
 23 59  1  0
 24 60  1  0
 24 61  1  0
M  END
>  <i_m_ct_stereo_status>  (51) 
1

>  <s_m_source_file>  (51) 
/var/tmp/pbs.5076255.sched01/tmpd0mq1ayv/02wja6gfv.sdf

>  <i_m_source_file_index>  (51) 
19

>  <i_lp_mmshare_version>  (51) 
48012

>  <i_f3d_flags>  (51) 
0

>  <s_epik_input>  (51) 
W0NIM11bQ0BASF0oTzEpW0NIMl1bQ0gyXVtDQF0xMltDSDJdW0NIMl1bQ0BIXTNbQ0BIXShbQ0gyXTIpW0NIMl1bQ0gyXVtDQEhdNFtDQEBIXTNbQ0gyXVtDSDJdW0NAXTUoW0NIM10pW0NASF00W0NIMl1bQ0BASF02W0NAXTUoTzYpW0NIM10=

>  <s_epik_cmdline>  (51) 
J2VwaWtfcHl0aG9uJywgJy1waHQnLCAnMi4wJywgJy1waCcsICc3LjAnLCAnLXRuJywgJzgnLCAnLW1hJywgJzIwMCcsICctaW1hZScsICc8aW5maWxlLm1hZT4nLCAnLW9tYWUnLCAnPG91dGZpbGUubWFlPic=

>  <r_lp_tautomer_probability>  (51) 
1

>  <r_epik_Ionization_Penalty>  (51) 
1.89813e-10

>  <r_epik_Ionization_Penalty_Charging>  (51) 
0

>  <r_epik_Ionization_Penalty_Neutral>  (51) 
1.89813e-10

>  <r_epik_State_Penalty>  (51) 
-0

>  <r_epik_Charging_Adjusted_Penalty>  (51) 
0

>  <i_epik_Tot_Q>  (51) 
0

>  <i_epik_Tot_abs_Q>  (51) 
0

>  <s_lp_Force_Field>  (51) 
OPLS3e

>  <r_lp_Energy>  (51) 
38.8772

>  <b_lp_Chiralities_Consistent>  (51) 
1

>  <s_lp_Variant>  (51) 
12:0-1

>  <s_i_glide_gridfile>  (51) 
pfpi4k_grid

>  <i_i_glide_lignum>  (51) 
19

>  <i_i_glide_rotatable_bonds>  (51) 
0

>  <r_i_docking_score>  (51) 
-2.50387

>  <r_i_glide_ligand_efficiency>  (51) 
-0.100155

>  <r_i_glide_ligand_efficiency_sa>  (51) 
-0.292854

>  <r_i_glide_ligand_efficiency_ln>  (51) 
-0.593492

>  <r_i_glide_gscore>  (51) 
-2.50387

>  <r_i_glide_lipo>  (51) 
-0.000340288

>  <r_i_glide_hbond>  (51) 
0

>  <r_i_glide_metal>  (51) 
-0

>  <r_i_glide_rewards>  (51) 
-1.06002

>  <r_i_glide_evdw>  (51) 
-24.9565

>  <r_i_glide_ecoul>  (51) 
-1.30459

>  <r_i_glide_erotb>  (51) 
0

>  <r_i_glide_esite>  (51) 
0

>  <r_i_glide_emodel>  (51) 
-30.2682

>  <r_i_glide_energy>  (51) 
-26.2611

>  <r_i_glide_einternal>  (51) 
0

>  <r_i_glide_intrahb_reward>  (51) 
-0

>  <i_i_glide_confnum>  (51) 
2

>  <i_i_glide_posenum>  (51) 
13

>  <r_i_glide_eff_state_penalty>  (51) 
0

>  <ligand_id>  (51) 
12

>  <original_smiles>  (51) 
CC1CCC2(CCC3C(CCC4C3CCC3(C)C4CC4OC43C)C2)O1

>  <smiles>  (51) 
[H]C([H])([H])C1([H])OC2(C([H])([H])C1([H])[H])C([H])([H])C([H])([H])C1([H])C([H])(C([H])([H])C([H])([H])C3([H])C1([H])C([H])([H])C([H])([H])C1(C([H])([H])[H])C3([H])C([H])([H])C3([H])OC31C([H])([H])[H])C2([H])[H]

$$$$
12:0:1
     RDKit          3D

 61 66  0  0  1  0  0  0  0  0999 V2000
    4.5721   -8.8190    1.0421 C   0  0  0  0  0  0  0  0  0  0  0  0
    3.9471   -8.7049    2.4394 C   0  0  2  0  0  0  0  0  0  0  0  0
    2.6166   -9.4457    2.5672 C   0  0  0  0  0  0  0  0  0  0  0  0
    1.6286   -8.3997    2.0943 C   0  0  0  0  0  0  0  0  0  0  0  0
    2.2293   -7.0971    2.6421 C   0  0  1  0  0  0  0  0  0  0  0  0
    1.9552   -5.8980    1.7267 C   0  0  0  0  0  0  0  0  0  0  0  0
    2.6061   -4.6137    2.2586 C   0  0  0  0  0  0  0  0  0  0  0  0
    2.1698   -4.2737    3.7012 C   0  0  1  0  0  0  0  0  0  0  0  0
    2.4144   -5.4977    4.6247 C   0  0  1  0  0  0  0  0  0  0  0  0
    1.9661   -5.2108    6.0676 C   0  0  0  0  0  0  0  0  0  0  0  0
    2.6611   -3.9644    6.6399 C   0  0  0  0  0  0  0  0  0  0  0  0
    2.5253   -2.7130    5.7411 C   0  0  1  0  0  0  0  0  0  0  0  0
    2.9047   -3.0258    4.2709 C   0  0  2  0  0  0  0  0  0  0  0  0
    2.7826   -1.7389    3.4301 C   0  0  0  0  0  0  0  0  0  0  0  0
    1.3951   -1.0944    3.5395 C   0  0  0  0  0  0  0  0  0  0  0  0
    1.0333   -0.6663    4.9803 C   0  0  2  0  0  0  0  0  0  0  0  0
    1.8643    0.5517    5.4401 C   0  0  0  0  0  0  0  0  0  0  0  0
    1.2232   -1.8782    5.9494 C   0  0  1  0  0  0  0  0  0  0  0  0
   -0.1376   -2.6119    5.9846 C   0  0  0  0  0  0  0  0  0  0  0  0
   -1.1521   -1.5443    5.6857 C   0  0  1  0  0  0  0  0  0  0  0  0
   -1.0308   -0.3069    6.4101 O   0  0  0  0  0  0  0  0  0  0  0  0
   -0.4619   -0.3779    5.0865 C   0  0  1  0  0  0  0  0  0  0  0  0
   -1.0960    0.5600    4.0738 C   0  0  0  0  0  0  0  0  0  0  0  0
    1.7460   -6.7733    4.0708 C   0  0  0  0  0  0  0  0  0  0  0  0
    3.6374   -7.3369    2.6823 O   0  0  0  0  0  0  0  0  0  0  0  0
    4.8166   -9.8564    0.8085 H   0  0  0  0  0  0  0  0  0  0  0  0
    5.4856   -8.2322    0.9642 H   0  0  0  0  0  0  0  0  0  0  0  0
    3.8927   -8.4612    0.2729 H   0  0  0  0  0  0  0  0  0  0  0  0
    4.6549   -9.0562    3.1912 H   0  0  0  0  0  0  0  0  0  0  0  0
    2.5804  -10.3682    1.9864 H   0  0  0  0  0  0  0  0  0  0  0  0
    2.4252   -9.7006    3.6111 H   0  0  0  0  0  0  0  0  0  0  0  0
    1.6290   -8.3877    1.0038 H   0  0  0  0  0  0  0  0  0  0  0  0
    0.6030   -8.5891    2.4179 H   0  0  0  0  0  0  0  0  0  0  0  0
    2.3209   -6.0969    0.7196 H   0  0  0  0  0  0  0  0  0  0  0  0
    0.8785   -5.7581    1.6517 H   0  0  0  0  0  0  0  0  0  0  0  0
    3.6912   -4.7158    2.2123 H   0  0  0  0  0  0  0  0  0  0  0  0
    2.3403   -3.8073    1.5800 H   0  0  0  0  0  0  0  0  0  0  0  0
    1.1023   -4.0696    3.6647 H   0  0  0  0  0  0  0  0  0  0  0  0
    3.4895   -5.6890    4.6617 H   0  0  0  0  0  0  0  0  0  0  0  0
    0.8844   -5.1018    6.1171 H   0  0  0  0  0  0  0  0  0  0  0  0
    2.2068   -6.0651    6.7028 H   0  0  0  0  0  0  0  0  0  0  0  0
    2.2953   -3.7545    7.6452 H   0  0  0  0  0  0  0  0  0  0  0  0
    3.7229   -4.1938    6.7517 H   0  0  0  0  0  0  0  0  0  0  0  0
    3.3104   -2.0434    6.0935 H   0  0  0  0  0  0  0  0  0  0  0  0
    3.9639   -3.2865    4.2678 H   0  0  0  0  0  0  0  0  0  0  0  0
    3.5325   -1.0258    3.7697 H   0  0  0  0  0  0  0  0  0  0  0  0
    3.0258   -1.9196    2.3853 H   0  0  0  0  0  0  0  0  0  0  0  0
    1.3478   -0.2348    2.8695 H   0  0  0  0  0  0  0  0  0  0  0  0
    0.6468   -1.7997    3.1686 H   0  0  0  0  0  0  0  0  0  0  0  0
    1.5399    0.9092    6.4177 H   0  0  0  0  0  0  0  0  0  0  0  0
    1.7715    1.3848    4.7431 H   0  0  0  0  0  0  0  0  0  0  0  0
    2.9232    0.3116    5.5209 H   0  0  0  0  0  0  0  0  0  0  0  0
    1.3174   -1.4563    6.9517 H   0  0  0  0  0  0  0  0  0  0  0  0
   -0.2238   -3.3600    5.2067 H   0  0  0  0  0  0  0  0  0  0  0  0
   -0.3326   -3.0880    6.9457 H   0  0  0  0  0  0  0  0  0  0  0  0
   -2.1568   -1.8179    5.3685 H   0  0  0  0  0  0  0  0  0  0  0  0
   -1.0482    0.1430    3.0711 H   0  0  0  0  0  0  0  0  0  0  0  0
   -0.5957    1.5270    4.0769 H   0  0  0  0  0  0  0  0  0  0  0  0
   -2.1435    0.7140    4.3251 H   0  0  0  0  0  0  0  0  0  0  0  0
    0.6628   -6.6412    4.0680 H   0  0  0  0  0  0  0  0  0  0  0  0
    1.9562   -7.6129    4.7350 H   0  0  0  0  0  0  0  0  0  0  0  0
  1  2  1  0
  1 26  1  0
  1 27  1  0
  1 28  1  0
  2 25  1  0
  2  3  1  0
  2 29  1  1
  3  4  1  0
  3 30  1  0
  3 31  1  0
  4  5  1  0
  4 32  1  0
  4 33  1  0
  5 24  1  0
  5  6  1  0
  5 25  1  1
  6  7  1  0
  6 34  1  0
  6 35  1  0
  7  8  1  0
  7 36  1  0
  7 37  1  0
  8 13  1  0
  8  9  1  0
  8 38  1  6
  9 10  1  0
  9 24  1  0
  9 39  1  1
 10 11  1  0
 10 40  1  0
 10 41  1  0
 11 12  1  0
 11 42  1  0
 11 43  1  0
 12 18  1  0
 12 13  1  0
 12 44  1  1
 13 14  1  0
 13 45  1  1
 14 15  1  0
 14 46  1  0
 14 47  1  0
 15 16  1  0
 15 48  1  0
 15 49  1  0
 16 22  1  0
 16 17  1  1
 16 18  1  0
 17 50  1  0
 17 51  1  0
 17 52  1  0
 18 19  1  0
 18 53  1  1
 19 20  1  0
 19 54  1  0
 19 55  1  0
 20 22  1  0
 20 21  1  0
 20 56  1  6
 21 22  1  0
 22 23  1  6
 23 57  1  0
 23 58  1  0
 23 59  1  0
 24 60  1  0
 24 61  1  0
M  END
>  <i_m_ct_stereo_status>  (52) 
1

>  <s_m_source_file>  (52) 
/var/tmp/pbs.5076255.sched01/tmpd0mq1ayv/02wja6gfv.sdf

>  <i_m_source_file_index>  (52) 
19

>  <i_lp_mmshare_version>  (52) 
48012

>  <i_f3d_flags>  (52) 
0

>  <s_epik_input>  (52) 
W0NIM11bQ0BASF0oTzEpW0NIMl1bQ0gyXVtDQF0xMltDSDJdW0NIMl1bQ0BIXTNbQ0BIXShbQ0gyXTIpW0NIMl1bQ0gyXVtDQEhdNFtDQEBIXTNbQ0gyXVtDSDJdW0NAXTUoW0NIM10pW0NASF00W0NIMl1bQ0BASF02W0NAXTUoTzYpW0NIM10=

>  <s_epik_cmdline>  (52) 
J2VwaWtfcHl0aG9uJywgJy1waHQnLCAnMi4wJywgJy1waCcsICc3LjAnLCAnLXRuJywgJzgnLCAnLW1hJywgJzIwMCcsICctaW1hZScsICc8aW5maWxlLm1hZT4nLCAnLW9tYWUnLCAnPG91dGZpbGUubWFlPic=

>  <r_lp_tautomer_probability>  (52) 
1

>  <r_epik_Ionization_Penalty>  (52) 
1.89813e-10

>  <r_epik_Ionization_Penalty_Charging>  (52) 
0

>  <r_epik_Ionization_Penalty_Neutral>  (52) 
1.89813e-10

>  <r_epik_State_Penalty>  (52) 
-0

>  <r_epik_Charging_Adjusted_Penalty>  (52) 
0

>  <i_epik_Tot_Q>  (52) 
0

>  <i_epik_Tot_abs_Q>  (52) 
0

>  <s_lp_Force_Field>  (52) 
OPLS3e

>  <r_lp_Energy>  (52) 
38.8772

>  <b_lp_Chiralities_Consistent>  (52) 
1

>  <s_lp_Variant>  (52) 
12:0-1

>  <s_i_glide_gridfile>  (52) 
pfpi4k_grid

>  <i_i_glide_lignum>  (52) 
19

>  <i_i_glide_rotatable_bonds>  (52) 
0

>  <r_i_docking_score>  (52) 
-2.49987

>  <r_i_glide_ligand_efficiency>  (52) 
-0.0999949

>  <r_i_glide_ligand_efficiency_sa>  (52) 
-0.292387

>  <r_i_glide_ligand_efficiency_ln>  (52) 
-0.592544

>  <r_i_glide_gscore>  (52) 
-2.49987

>  <r_i_glide_lipo>  (52) 
-0.000284937

>  <r_i_glide_hbond>  (52) 
-0.0883349

>  <r_i_glide_metal>  (52) 
-0

>  <r_i_glide_rewards>  (52) 
-1.06002

>  <r_i_glide_evdw>  (52) 
-21.026

>  <r_i_glide_ecoul>  (52) 
-1.99956

>  <r_i_glide_erotb>  (52) 
0

>  <r_i_glide_esite>  (52) 
0

>  <r_i_glide_emodel>  (52) 
-27.0332

>  <r_i_glide_energy>  (52) 
-23.0256

>  <r_i_glide_einternal>  (52) 
0

>  <r_i_glide_intrahb_reward>  (52) 
-0

>  <i_i_glide_confnum>  (52) 
2

>  <i_i_glide_posenum>  (52) 
30

>  <r_i_glide_eff_state_penalty>  (52) 
0

>  <ligand_id>  (52) 
12

>  <original_smiles>  (52) 
CC1CCC2(CCC3C(CCC4C3CCC3(C)C4CC4OC43C)C2)O1

>  <smiles>  (52) 
[H]C([H])([H])C1([H])OC2(C([H])([H])C1([H])[H])C([H])([H])C([H])([H])C1([H])C([H])(C([H])([H])C([H])([H])C3([H])C1([H])C([H])([H])C([H])([H])C1(C([H])([H])[H])C3([H])C([H])([H])C3([H])OC31C([H])([H])[H])C2([H])[H]

$$$$
13:0:0
     RDKit          3D

 58 62  0  0  1  0  0  0  0  0999 V2000
    3.5236  -10.6722    6.3424 C   0  0  0  0  0  0  0  0  0  0  0  0
    3.3772  -10.4719    5.1484 C   0  0  0  0  0  0  0  0  0  0  0  0
    3.1757  -10.2653    3.6937 C   0  0  1  0  0  0  0  0  0  0  0  0
    3.2279  -11.5236    3.0471 O   0  0  0  0  0  0  0  0  0  0  0  0
    1.7933   -9.6360    3.4508 C   0  0  0  0  0  0  0  0  0  0  0  0
    1.9994   -8.1176    3.5411 C   0  0  0  0  0  0  0  0  0  0  0  0
    3.5253   -7.8651    3.4761 C   0  0  2  0  0  0  0  0  0  0  0  0
    3.8978   -6.6140    2.6382 C   0  0  1  0  0  0  0  0  0  0  0  0
    5.2595   -5.9807    3.0091 C   0  0  0  0  0  0  0  0  0  0  0  0
    5.5417   -4.7063    2.1894 C   0  0  0  0  0  0  0  0  0  0  0  0
    5.4789   -4.9716    0.6713 C   0  0  2  0  0  0  0  0  0  0  0  0
    5.6464   -3.6953   -0.1156 C   0  0  0  0  0  0  0  0  0  0  0  0
    6.7972   -2.9126   -0.4263 C   0  0  0  0  0  0  0  0  0  0  0  0
    8.2247   -3.1318   -0.0262 C   0  0  0  0  0  0  0  0  0  0  0  0
    6.4914   -1.8566   -1.1677 N   0  0  0  0  0  0  0  0  0  0  0  0
    5.1566   -1.9318   -1.3631 N   0  0  0  0  0  0  0  0  0  0  0  0
    4.5036   -0.8918   -2.1349 C   0  0  0  0  0  0  0  0  0  0  0  0
    4.6264   -3.0397   -0.7386 C   0  0  0  0  0  0  0  0  0  0  0  0
    3.1926   -3.4641   -0.7501 C   0  0  0  0  0  0  0  0  0  0  0  0
    2.9509   -4.6057    0.2617 C   0  0  0  0  0  0  0  0  0  0  0  0
    4.1258   -5.6327    0.2903 C   0  0  2  0  0  0  0  0  0  0  0  0
    3.8086   -6.8917    1.1264 C   0  0  1  0  0  0  0  0  0  0  0  0
    4.6716   -8.1104    0.7524 C   0  0  0  0  0  0  0  0  0  0  0  0
    4.1831   -9.3624    1.4984 C   0  0  0  0  0  0  0  0  0  0  0  0
    4.1631   -9.2244    3.0517 C   0  0  2  0  0  0  0  0  0  0  0  0
    5.6127   -9.3790    3.5893 C   0  0  0  0  0  0  0  0  0  0  0  0
    3.6201  -10.9062    7.3803 H   0  0  0  0  0  0  0  0  0  0  0  0
    3.6106  -11.4451    2.1800 H   0  0  0  0  0  0  0  0  0  0  0  0
    1.4269   -9.8853    2.4537 H   0  0  0  0  0  0  0  0  0  0  0  0
    1.0280   -9.9886    4.1460 H   0  0  0  0  0  0  0  0  0  0  0  0
    1.4553   -7.6217    2.7352 H   0  0  0  0  0  0  0  0  0  0  0  0
    1.6017   -7.7307    4.4810 H   0  0  0  0  0  0  0  0  0  0  0  0
    3.8258   -7.6605    4.5041 H   0  0  0  0  0  0  0  0  0  0  0  0
    3.1521   -5.8567    2.8718 H   0  0  0  0  0  0  0  0  0  0  0  0
    5.2725   -5.7352    4.0721 H   0  0  0  0  0  0  0  0  0  0  0  0
    6.0790   -6.6769    2.8478 H   0  0  0  0  0  0  0  0  0  0  0  0
    4.8211   -3.9335    2.4665 H   0  0  0  0  0  0  0  0  0  0  0  0
    6.5245   -4.3101    2.4518 H   0  0  0  0  0  0  0  0  0  0  0  0
    6.2789   -5.6619    0.4120 H   0  0  0  0  0  0  0  0  0  0  0  0
    8.3402   -4.0397    0.5677 H   0  0  0  0  0  0  0  0  0  0  0  0
    8.5868   -2.2957    0.5705 H   0  0  0  0  0  0  0  0  0  0  0  0
    8.8747   -3.2152   -0.8980 H   0  0  0  0  0  0  0  0  0  0  0  0
    3.4548   -1.1381   -2.3175 H   0  0  0  0  0  0  0  0  0  0  0  0
    5.0057   -0.7505   -3.0916 H   0  0  0  0  0  0  0  0  0  0  0  0
    4.5506    0.0415   -1.5784 H   0  0  0  0  0  0  0  0  0  0  0  0
    2.5410   -2.6174   -0.5302 H   0  0  0  0  0  0  0  0  0  0  0  0
    2.9339   -3.8152   -1.7497 H   0  0  0  0  0  0  0  0  0  0  0  0
    2.8576   -4.1530    1.2513 H   0  0  0  0  0  0  0  0  0  0  0  0
    1.9947   -5.0899    0.0577 H   0  0  0  0  0  0  0  0  0  0  0  0
    4.2260   -5.9742   -0.7326 H   0  0  0  0  0  0  0  0  0  0  0  0
    2.7837   -7.1730    0.8850 H   0  0  0  0  0  0  0  0  0  0  0  0
    4.6085   -8.2937   -0.3195 H   0  0  0  0  0  0  0  0  0  0  0  0
    5.7270   -7.9333    0.9539 H   0  0  0  0  0  0  0  0  0  0  0  0
    3.1879   -9.5911    1.1177 H   0  0  0  0  0  0  0  0  0  0  0  0
    4.8100  -10.2091    1.2214 H   0  0  0  0  0  0  0  0  0  0  0  0
    6.3387   -8.8232    2.9984 H   0  0  0  0  0  0  0  0  0  0  0  0
    5.9309  -10.4220    3.5692 H   0  0  0  0  0  0  0  0  0  0  0  0
    5.7089   -9.0305    4.6191 H   0  0  0  0  0  0  0  0  0  0  0  0
  1  2  3  0
  1 27  1  0
  3  2  1  1
  3 25  1  0
  3  4  1  0
  3  5  1  0
  4 28  1  0
  5  6  1  0
  5 29  1  0
  5 30  1  0
  6  7  1  0
  6 31  1  0
  6 32  1  0
  7 25  1  0
  7  8  1  0
  7 33  1  1
  8 22  1  0
  8  9  1  0
  8 34  1  1
  9 10  1  0
  9 35  1  0
  9 36  1  0
 10 11  1  0
 10 37  1  0
 10 38  1  0
 11 21  1  0
 11 12  1  0
 11 39  1  6
 12 18  2  0
 12 13  1  0
 13 14  1  0
 13 15  2  0
 14 40  1  0
 14 41  1  0
 14 42  1  0
 15 16  1  0
 16 17  1  0
 16 18  1  0
 17 43  1  0
 17 44  1  0
 17 45  1  0
 18 19  1  0
 19 20  1  0
 19 46  1  0
 19 47  1  0
 20 21  1  0
 20 48  1  0
 20 49  1  0
 21 22  1  0
 21 50  1  6
 22 23  1  0
 22 51  1  1
 23 24  1  0
 23 52  1  0
 23 53  1  0
 24 25  1  0
 24 54  1  0
 24 55  1  0
 25 26  1  1
 26 56  1  0
 26 57  1  0
 26 58  1  0
M  END
>  <i_m_ct_stereo_status>  (53) 
1

>  <s_m_source_file>  (53) 
/var/tmp/pbs.5076255.sched01/tmpd0mq1ayv/02wja6gfv.sdf

>  <i_m_source_file_index>  (53) 
20

>  <i_lp_mmshare_version>  (53) 
48012

>  <i_f3d_flags>  (53) 
0

>  <s_epik_input>  (53) 
W0NIXSNDW0NAQF0xKFtPSF0pW0NIMl1bQ0gyXVtDQEBIXShbQ0BAXTEyW0NIM10pW0NAQEhdM1tDQEhdKFtDSDJdW0NIMl0yKVtDQEBIXTRbQ0BIXShbQ0gyXVtDSDJdMyljNWMoW0NIMl1bQ0gyXTQpbihbQ0gzXSluYzVbQ0gzXQ==

>  <s_epik_cmdline>  (53) 
J2VwaWtfcHl0aG9uJywgJy1waHQnLCAnMi4wJywgJy1waCcsICc3LjAnLCAnLXRuJywgJzgnLCAnLW1hJywgJzIwMCcsICctaW1hZScsICc8aW5maWxlLm1hZT4nLCAnLW9tYWUnLCAnPG91dGZpbGUubWFlPic=

>  <r_lp_tautomer_probability>  (53) 
1

>  <r_epik_Ionization_Penalty>  (53) 
0.0573219

>  <r_epik_Ionization_Penalty_Charging>  (53) 
0

>  <r_epik_Ionization_Penalty_Neutral>  (53) 
0.0573219

>  <r_epik_State_Penalty>  (53) 
0.0495001

>  <r_epik_Charging_Adjusted_Penalty>  (53) 
0.0495001

>  <i_epik_Tot_Q>  (53) 
0

>  <i_epik_Tot_abs_Q>  (53) 
0

>  <s_lp_Force_Field>  (53) 
OPLS3e

>  <r_lp_Energy>  (53) 
40.38

>  <b_lp_Chiralities_Consistent>  (53) 
1

>  <s_lp_Variant>  (53) 
13:0-1

>  <s_i_glide_gridfile>  (53) 
pfpi4k_grid

>  <i_i_glide_lignum>  (53) 
20

>  <i_i_glide_rotatable_bonds>  (53) 
2

>  <r_i_docking_score>  (53) 
-3.65878

>  <r_i_glide_ligand_efficiency>  (53) 
-0.140722

>  <r_i_glide_ligand_efficiency_sa>  (53) 
-0.416889

>  <r_i_glide_ligand_efficiency_ln>  (53) 
-0.859252

>  <r_i_glide_gscore>  (53) 
-3.65878

>  <r_i_glide_lipo>  (53) 
-0.593723

>  <r_i_glide_hbond>  (53) 
-0.316012

>  <r_i_glide_metal>  (53) 
-0

>  <r_i_glide_rewards>  (53) 
-1.00559

>  <r_i_glide_evdw>  (53) 
-22.7346

>  <r_i_glide_ecoul>  (53) 
-4.85908

>  <r_i_glide_erotb>  (53) 
0.153589

>  <r_i_glide_esite>  (53) 
-0.0314435

>  <r_i_glide_emodel>  (53) 
-33.5673

>  <r_i_glide_energy>  (53) 
-27.5937

>  <r_i_glide_einternal>  (53) 
2.0935

>  <r_i_glide_intrahb_reward>  (53) 
-0

>  <i_i_glide_confnum>  (53) 
2

>  <i_i_glide_posenum>  (53) 
10

>  <r_i_glide_eff_state_penalty>  (53) 
0

>  <ligand_id>  (53) 
13

>  <original_smiles>  (53) 
C#CC1(O)CCC2C3CCC4c5c(C)nn(C)c5CCC4C3CCC21C

>  <smiles>  (53) 
[H]C#CC1(O[H])C([H])([H])C([H])([H])C2([H])C3([H])C([H])([H])C([H])([H])C4([H])c5c(C([H])([H])[H])nn(C([H])([H])[H])c5C([H])([H])C([H])([H])C4([H])C3([H])C([H])([H])C([H])([H])C12C([H])([H])[H]

$$$$
13:0:1
     RDKit          3D

 58 62  0  0  1  0  0  0  0  0999 V2000
   -1.7484   -9.4252    2.4881 C   0  0  0  0  0  0  0  0  0  0  0  0
   -0.6989   -9.1233    3.0301 C   0  0  0  0  0  0  0  0  0  0  0  0
    0.5501   -8.7512    3.7240 C   0  0  1  0  0  0  0  0  0  0  0  0
    0.3395   -8.8881    5.1152 O   0  0  0  0  0  0  0  0  0  0  0  0
    1.6728   -9.7021    3.2809 C   0  0  0  0  0  0  0  0  0  0  0  0
    2.2869   -9.0670    2.0234 C   0  0  0  0  0  0  0  0  0  0  0  0
    1.7725   -7.6121    1.9525 C   0  0  2  0  0  0  0  0  0  0  0  0
    2.8560   -6.6081    1.4743 C   0  0  1  0  0  0  0  0  0  0  0  0
    2.2890   -5.3254    0.8284 C   0  0  0  0  0  0  0  0  0  0  0  0
    3.4025   -4.3947    0.3112 C   0  0  0  0  0  0  0  0  0  0  0  0
    4.4075   -4.0248    1.4244 C   0  0  2  0  0  0  0  0  0  0  0  0
    5.5475   -3.2115    0.8716 C   0  0  0  0  0  0  0  0  0  0  0  0
    5.6507   -1.8377    0.4967 C   0  0  0  0  0  0  0  0  0  0  0  0
    4.5973   -0.7738    0.5241 C   0  0  0  0  0  0  0  0  0  0  0  0
    6.8679   -1.5275    0.0728 N   0  0  0  0  0  0  0  0  0  0  0  0
    7.5738   -2.6755    0.1607 N   0  0  0  0  0  0  0  0  0  0  0  0
    8.9616   -2.6702   -0.2471 C   0  0  0  0  0  0  0  0  0  0  0  0
    6.7995   -3.7041    0.6491 C   0  0  0  0  0  0  0  0  0  0  0  0
    7.2505   -5.1042    0.9152 C   0  0  0  0  0  0  0  0  0  0  0  0
    6.0427   -6.0158    1.2219 C   0  0  0  0  0  0  0  0  0  0  0  0
    4.9718   -5.3043    2.1078 C   0  0  2  0  0  0  0  0  0  0  0  0
    3.8603   -6.2653    2.5928 C   0  0  1  0  0  0  0  0  0  0  0  0
    3.1175   -5.7584    3.8439 C   0  0  0  0  0  0  0  0  0  0  0  0
    2.1609   -6.8403    4.3740 C   0  0  0  0  0  0  0  0  0  0  0  0
    1.1061   -7.3335    3.3373 C   0  0  2  0  0  0  0  0  0  0  0  0
   -0.0243   -6.2784    3.2315 C   0  0  0  0  0  0  0  0  0  0  0  0
   -2.6832   -9.7051    2.0746 H   0  0  0  0  0  0  0  0  0  0  0  0
   -0.2763   -9.5990    5.2508 H   0  0  0  0  0  0  0  0  0  0  0  0
    2.4397   -9.7707    4.0539 H   0  0  0  0  0  0  0  0  0  0  0  0
    1.3327  -10.7251    3.1013 H   0  0  0  0  0  0  0  0  0  0  0  0
    3.3750   -9.1286    2.0749 H   0  0  0  0  0  0  0  0  0  0  0  0
    1.9796   -9.6148    1.1310 H   0  0  0  0  0  0  0  0  0  0  0  0
    0.9845   -7.6269    1.1973 H   0  0  0  0  0  0  0  0  0  0  0  0
    3.4092   -7.1106    0.6838 H   0  0  0  0  0  0  0  0  0  0  0  0
    1.6318   -5.5884   -0.0021 H   0  0  0  0  0  0  0  0  0  0  0  0
    1.6937   -4.7652    1.5439 H   0  0  0  0  0  0  0  0  0  0  0  0
    3.9214   -4.8818   -0.5186 H   0  0  0  0  0  0  0  0  0  0  0  0
    2.9606   -3.4840   -0.1044 H   0  0  0  0  0  0  0  0  0  0  0  0
    3.8837   -3.4399    2.1765 H   0  0  0  0  0  0  0  0  0  0  0  0
    3.6506   -1.1584    0.9070 H   0  0  0  0  0  0  0  0  0  0  0  0
    4.4175   -0.3875   -0.4789 H   0  0  0  0  0  0  0  0  0  0  0  0
    4.8976    0.0651    1.1528 H   0  0  0  0  0  0  0  0  0  0  0  0
    9.4374   -3.6168    0.0016 H   0  0  0  0  0  0  0  0  0  0  0  0
    9.5012   -1.8626    0.2484 H   0  0  0  0  0  0  0  0  0  0  0  0
    9.0053   -2.5230   -1.3241 H   0  0  0  0  0  0  0  0  0  0  0  0
    7.8175   -5.4958    0.0711 H   0  0  0  0  0  0  0  0  0  0  0  0
    7.9155   -5.0973    1.7815 H   0  0  0  0  0  0  0  0  0  0  0  0
    5.5843   -6.2834    0.2673 H   0  0  0  0  0  0  0  0  0  0  0  0
    6.3795   -6.9572    1.6639 H   0  0  0  0  0  0  0  0  0  0  0  0
    5.5147   -4.9849    2.9976 H   0  0  0  0  0  0  0  0  0  0  0  0
    4.3567   -7.1864    2.8997 H   0  0  0  0  0  0  0  0  0  0  0  0
    3.8348   -5.5120    4.6270 H   0  0  0  0  0  0  0  0  0  0  0  0
    2.5767   -4.8346    3.6442 H   0  0  0  0  0  0  0  0  0  0  0  0
    2.7730   -7.6747    4.7161 H   0  0  0  0  0  0  0  0  0  0  0  0
    1.6529   -6.4677    5.2652 H   0  0  0  0  0  0  0  0  0  0  0  0
    0.3635   -5.2627    3.1882 H   0  0  0  0  0  0  0  0  0  0  0  0
   -0.6884   -6.3202    4.0968 H   0  0  0  0  0  0  0  0  0  0  0  0
   -0.6285   -6.4437    2.3397 H   0  0  0  0  0  0  0  0  0  0  0  0
  1  2  3  0
  1 27  1  0
  3  2  1  6
  3 25  1  0
  3  4  1  0
  3  5  1  0
  4 28  1  0
  5  6  1  0
  5 29  1  0
  5 30  1  0
  6  7  1  0
  6 31  1  0
  6 32  1  0
  7 25  1  0
  7  8  1  0
  7 33  1  6
  8 22  1  0
  8  9  1  0
  8 34  1  6
  9 10  1  0
  9 35  1  0
  9 36  1  0
 10 11  1  0
 10 37  1  0
 10 38  1  0
 11 21  1  0
 11 12  1  0
 11 39  1  1
 12 18  2  0
 12 13  1  0
 13 14  1  0
 13 15  2  0
 14 40  1  0
 14 41  1  0
 14 42  1  0
 15 16  1  0
 16 17  1  0
 16 18  1  0
 17 43  1  0
 17 44  1  0
 17 45  1  0
 18 19  1  0
 19 20  1  0
 19 46  1  0
 19 47  1  0
 20 21  1  0
 20 48  1  0
 20 49  1  0
 21 22  1  0
 21 50  1  1
 22 23  1  0
 22 51  1  1
 23 24  1  0
 23 52  1  0
 23 53  1  0
 24 25  1  0
 24 54  1  0
 24 55  1  0
 25 26  1  6
 26 56  1  0
 26 57  1  0
 26 58  1  0
M  END
>  <i_m_ct_stereo_status>  (54) 
1

>  <s_m_source_file>  (54) 
/var/tmp/pbs.5076255.sched01/tmpd0mq1ayv/02wja6gfv.sdf

>  <i_m_source_file_index>  (54) 
20

>  <i_lp_mmshare_version>  (54) 
48012

>  <i_f3d_flags>  (54) 
0

>  <s_epik_input>  (54) 
W0NIXSNDW0NAQF0xKFtPSF0pW0NIMl1bQ0gyXVtDQEBIXShbQ0BAXTEyW0NIM10pW0NAQEhdM1tDQEhdKFtDSDJdW0NIMl0yKVtDQEBIXTRbQ0BIXShbQ0gyXVtDSDJdMyljNWMoW0NIMl1bQ0gyXTQpbihbQ0gzXSluYzVbQ0gzXQ==

>  <s_epik_cmdline>  (54) 
J2VwaWtfcHl0aG9uJywgJy1waHQnLCAnMi4wJywgJy1waCcsICc3LjAnLCAnLXRuJywgJzgnLCAnLW1hJywgJzIwMCcsICctaW1hZScsICc8aW5maWxlLm1hZT4nLCAnLW9tYWUnLCAnPG91dGZpbGUubWFlPic=

>  <r_lp_tautomer_probability>  (54) 
1

>  <r_epik_Ionization_Penalty>  (54) 
0.0573219

>  <r_epik_Ionization_Penalty_Charging>  (54) 
0

>  <r_epik_Ionization_Penalty_Neutral>  (54) 
0.0573219

>  <r_epik_State_Penalty>  (54) 
0.0495001

>  <r_epik_Charging_Adjusted_Penalty>  (54) 
0.0495001

>  <i_epik_Tot_Q>  (54) 
0

>  <i_epik_Tot_abs_Q>  (54) 
0

>  <s_lp_Force_Field>  (54) 
OPLS3e

>  <r_lp_Energy>  (54) 
40.38

>  <b_lp_Chiralities_Consistent>  (54) 
1

>  <s_lp_Variant>  (54) 
13:0-1

>  <s_i_glide_gridfile>  (54) 
pfpi4k_grid

>  <i_i_glide_lignum>  (54) 
20

>  <i_i_glide_rotatable_bonds>  (54) 
2

>  <r_i_docking_score>  (54) 
-3.61558

>  <r_i_glide_ligand_efficiency>  (54) 
-0.139061

>  <r_i_glide_ligand_efficiency_sa>  (54) 
-0.411967

>  <r_i_glide_ligand_efficiency_ln>  (54) 
-0.849108

>  <r_i_glide_gscore>  (54) 
-3.61558

>  <r_i_glide_lipo>  (54) 
-0.86422

>  <r_i_glide_hbond>  (54) 
-0.0830591

>  <r_i_glide_metal>  (54) 
-0

>  <r_i_glide_rewards>  (54) 
-1.18507

>  <r_i_glide_evdw>  (54) 
-26.394

>  <r_i_glide_ecoul>  (54) 
-2.11416

>  <r_i_glide_erotb>  (54) 
0.153589

>  <r_i_glide_esite>  (54) 
0

>  <r_i_glide_emodel>  (54) 
-34.0566

>  <r_i_glide_energy>  (54) 
-28.5082

>  <r_i_glide_einternal>  (54) 
2.75726

>  <r_i_glide_intrahb_reward>  (54) 
-0

>  <i_i_glide_confnum>  (54) 
1

>  <i_i_glide_posenum>  (54) 
26

>  <r_i_glide_eff_state_penalty>  (54) 
0

>  <ligand_id>  (54) 
13

>  <original_smiles>  (54) 
C#CC1(O)CCC2C3CCC4c5c(C)nn(C)c5CCC4C3CCC21C

>  <smiles>  (54) 
[H]C#CC1(O[H])C([H])([H])C([H])([H])C2([H])C3([H])C([H])([H])C([H])([H])C4([H])c5c(C([H])([H])[H])nn(C([H])([H])[H])c5C([H])([H])C([H])([H])C4([H])C3([H])C([H])([H])C([H])([H])C12C([H])([H])[H]

$$$$
13:0:2
     RDKit          3D

 58 62  0  0  1  0  0  0  0  0999 V2000
    1.3215   -9.4335    6.5963 C   0  0  0  0  0  0  0  0  0  0  0  0
    1.5295   -9.3999    5.3942 C   0  0  0  0  0  0  0  0  0  0  0  0
    1.7937   -9.4268    3.9365 C   0  0  1  0  0  0  0  0  0  0  0  0
    2.1308  -10.7447    3.5603 O   0  0  0  0  0  0  0  0  0  0  0  0
    0.5182   -9.0171    3.1829 C   0  0  0  0  0  0  0  0  0  0  0  0
    0.5816   -7.4882    3.0593 C   0  0  0  0  0  0  0  0  0  0  0  0
    2.0296   -7.0657    3.4068 C   0  0  2  0  0  0  0  0  0  0  0  0
    2.5601   -5.9138    2.5131 C   0  0  1  0  0  0  0  0  0  0  0  0
    3.6862   -5.0724    3.1586 C   0  0  0  0  0  0  0  0  0  0  0  0
    4.1231   -3.9062    2.2533 C   0  0  0  0  0  0  0  0  0  0  0  0
    4.5629   -4.3918    0.8557 C   0  0  2  0  0  0  0  0  0  0  0  0
    4.8728   -3.2250   -0.0520 C   0  0  0  0  0  0  0  0  0  0  0  0
    6.0026   -2.3616   -0.1398 C   0  0  0  0  0  0  0  0  0  0  0  0
    7.2439   -2.3500    0.6995 C   0  0  0  0  0  0  0  0  0  0  0  0
    5.8755   -1.4712   -1.1158 N   0  0  0  0  0  0  0  0  0  0  0  0
    4.6730   -1.7277   -1.6709 N   0  0  0  0  0  0  0  0  0  0  0  0
    4.2237   -0.9002   -2.7759 C   0  0  0  0  0  0  0  0  0  0  0  0
    4.0536   -2.7885   -1.0490 C   0  0  0  0  0  0  0  0  0  0  0  0
    2.7396   -3.3914   -1.4248 C   0  0  0  0  0  0  0  0  0  0  0  0
    2.2814   -4.4026   -0.3525 C   0  0  0  0  0  0  0  0  0  0  0  0
    3.4553   -5.2646    0.1994 C   0  0  2  0  0  0  0  0  0  0  0  0
    2.9744   -6.4149    1.1152 C   0  0  1  0  0  0  0  0  0  0  0  0
    3.9916   -7.5653    1.2362 C   0  0  0  0  0  0  0  0  0  0  0  0
    3.3757   -8.7463    2.0064 C   0  0  0  0  0  0  0  0  0  0  0  0
    2.8608   -8.3853    3.4383 C   0  0  2  0  0  0  0  0  0  0  0  0
    4.0747   -8.2863    4.4013 C   0  0  0  0  0  0  0  0  0  0  0  0
    1.1598   -9.5243    7.6459 H   0  0  0  0  0  0  0  0  0  0  0  0
    1.8511  -11.3351    4.2478 H   0  0  0  0  0  0  0  0  0  0  0  0
    0.5102   -9.4525    2.1813 H   0  0  0  0  0  0  0  0  0  0  0  0
   -0.4006   -9.3603    3.6646 H   0  0  0  0  0  0  0  0  0  0  0  0
    0.2873   -7.1911    2.0516 H   0  0  0  0  0  0  0  0  0  0  0  0
   -0.1169   -7.0210    3.7545 H   0  0  0  0  0  0  0  0  0  0  0  0
    1.9784   -6.6835    4.4269 H   0  0  0  0  0  0  0  0  0  0  0  0
    1.7272   -5.2262    2.3812 H   0  0  0  0  0  0  0  0  0  0  0  0
    3.3468   -4.6790    4.1175 H   0  0  0  0  0  0  0  0  0  0  0  0
    4.5605   -5.6830    3.3741 H   0  0  0  0  0  0  0  0  0  0  0  0
    3.3003   -3.1933    2.1608 H   0  0  0  0  0  0  0  0  0  0  0  0
    4.9422   -3.3593    2.7260 H   0  0  0  0  0  0  0  0  0  0  0  0
    5.4525   -5.0081    0.9714 H   0  0  0  0  0  0  0  0  0  0  0  0
    7.2240   -3.1510    1.4405 H   0  0  0  0  0  0  0  0  0  0  0  0
    7.3386   -1.4021    1.2311 H   0  0  0  0  0  0  0  0  0  0  0  0
    8.1402   -2.4836    0.0917 H   0  0  0  0  0  0  0  0  0  0  0  0
    3.3069   -1.2976   -3.2164 H   0  0  0  0  0  0  0  0  0  0  0  0
    4.9906   -0.8531   -3.5483 H   0  0  0  0  0  0  0  0  0  0  0  0
    4.0367    0.1096   -2.4141 H   0  0  0  0  0  0  0  0  0  0  0  0
    1.9673   -2.6446   -1.5566 H   0  0  0  0  0  0  0  0  0  0  0  0
    2.8478   -3.8472   -2.4052 H   0  0  0  0  0  0  0  0  0  0  0  0
    1.8639   -3.8249    0.4742 H   0  0  0  0  0  0  0  0  0  0  0  0
    1.4668   -5.0154   -0.7389 H   0  0  0  0  0  0  0  0  0  0  0  0
    3.9031   -5.7252   -0.6798 H   0  0  0  0  0  0  0  0  0  0  0  0
    2.0922   -6.8421    0.6400 H   0  0  0  0  0  0  0  0  0  0  0  0
    4.2874   -7.9078    0.2434 H   0  0  0  0  0  0  0  0  0  0  0  0
    4.9121   -7.2329    1.7156 H   0  0  0  0  0  0  0  0  0  0  0  0
    2.5657   -9.1417    1.3949 H   0  0  0  0  0  0  0  0  0  0  0  0
    4.1057   -9.5546    2.0697 H   0  0  0  0  0  0  0  0  0  0  0  0
    4.9087   -7.7385    3.9670 H   0  0  0  0  0  0  0  0  0  0  0  0
    4.4550   -9.2764    4.6579 H   0  0  0  0  0  0  0  0  0  0  0  0
    3.8175   -7.7856    5.3359 H   0  0  0  0  0  0  0  0  0  0  0  0
  1  2  3  0
  1 27  1  0
  3  2  1  1
  3 25  1  0
  3  4  1  0
  3  5  1  0
  4 28  1  0
  5  6  1  0
  5 29  1  0
  5 30  1  0
  6  7  1  0
  6 31  1  0
  6 32  1  0
  7 25  1  0
  7  8  1  0
  7 33  1  1
  8 22  1  0
  8  9  1  0
  8 34  1  6
  9 10  1  0
  9 35  1  0
  9 36  1  0
 10 11  1  0
 10 37  1  0
 10 38  1  0
 11 21  1  0
 11 12  1  0
 11 39  1  1
 12 18  2  0
 12 13  1  0
 13 14  1  0
 13 15  2  0
 14 40  1  0
 14 41  1  0
 14 42  1  0
 15 16  1  0
 16 17  1  0
 16 18  1  0
 17 43  1  0
 17 44  1  0
 17 45  1  0
 18 19  1  0
 19 20  1  0
 19 46  1  0
 19 47  1  0
 20 21  1  0
 20 48  1  0
 20 49  1  0
 21 22  1  0
 21 50  1  6
 22 23  1  0
 22 51  1  6
 23 24  1  0
 23 52  1  0
 23 53  1  0
 24 25  1  0
 24 54  1  0
 24 55  1  0
 25 26  1  1
 26 56  1  0
 26 57  1  0
 26 58  1  0
M  END
>  <i_m_ct_stereo_status>  (55) 
1

>  <s_m_source_file>  (55) 
/var/tmp/pbs.5076255.sched01/tmpd0mq1ayv/02wja6gfv.sdf

>  <i_m_source_file_index>  (55) 
20

>  <i_lp_mmshare_version>  (55) 
48012

>  <i_f3d_flags>  (55) 
0

>  <s_epik_input>  (55) 
W0NIXSNDW0NAQF0xKFtPSF0pW0NIMl1bQ0gyXVtDQEBIXShbQ0BAXTEyW0NIM10pW0NAQEhdM1tDQEhdKFtDSDJdW0NIMl0yKVtDQEBIXTRbQ0BIXShbQ0gyXVtDSDJdMyljNWMoW0NIMl1bQ0gyXTQpbihbQ0gzXSluYzVbQ0gzXQ==

>  <s_epik_cmdline>  (55) 
J2VwaWtfcHl0aG9uJywgJy1waHQnLCAnMi4wJywgJy1waCcsICc3LjAnLCAnLXRuJywgJzgnLCAnLW1hJywgJzIwMCcsICctaW1hZScsICc8aW5maWxlLm1hZT4nLCAnLW9tYWUnLCAnPG91dGZpbGUubWFlPic=

>  <r_lp_tautomer_probability>  (55) 
1

>  <r_epik_Ionization_Penalty>  (55) 
0.0573219

>  <r_epik_Ionization_Penalty_Charging>  (55) 
0

>  <r_epik_Ionization_Penalty_Neutral>  (55) 
0.0573219

>  <r_epik_State_Penalty>  (55) 
0.0495001

>  <r_epik_Charging_Adjusted_Penalty>  (55) 
0.0495001

>  <i_epik_Tot_Q>  (55) 
0

>  <i_epik_Tot_abs_Q>  (55) 
0

>  <s_lp_Force_Field>  (55) 
OPLS3e

>  <r_lp_Energy>  (55) 
40.38

>  <b_lp_Chiralities_Consistent>  (55) 
1

>  <s_lp_Variant>  (55) 
13:0-1

>  <s_i_glide_gridfile>  (55) 
pfpi4k_grid

>  <i_i_glide_lignum>  (55) 
20

>  <i_i_glide_rotatable_bonds>  (55) 
2

>  <r_i_docking_score>  (55) 
-2.87061

>  <r_i_glide_ligand_efficiency>  (55) 
-0.110408

>  <r_i_glide_ligand_efficiency_sa>  (55) 
-0.327083

>  <r_i_glide_ligand_efficiency_ln>  (55) 
-0.674152

>  <r_i_glide_gscore>  (55) 
-2.87061

>  <r_i_glide_lipo>  (55) 
-0.386137

>  <r_i_glide_hbond>  (55) 
-0.07649

>  <r_i_glide_metal>  (55) 
-0

>  <r_i_glide_rewards>  (55) 
-1.00559

>  <r_i_glide_evdw>  (55) 
-23.2035

>  <r_i_glide_ecoul>  (55) 
-2.38939

>  <r_i_glide_erotb>  (55) 
0.153589

>  <r_i_glide_esite>  (55) 
-0.0373893

>  <r_i_glide_emodel>  (55) 
-29.6958

>  <r_i_glide_energy>  (55) 
-25.5929

>  <r_i_glide_einternal>  (55) 
2.72931

>  <r_i_glide_intrahb_reward>  (55) 
-0

>  <i_i_glide_confnum>  (55) 
2

>  <i_i_glide_posenum>  (55) 
6

>  <r_i_glide_eff_state_penalty>  (55) 
0

>  <ligand_id>  (55) 
13

>  <original_smiles>  (55) 
C#CC1(O)CCC2C3CCC4c5c(C)nn(C)c5CCC4C3CCC21C

>  <smiles>  (55) 
[H]C#CC1(O[H])C([H])([H])C([H])([H])C2([H])C3([H])C([H])([H])C([H])([H])C4([H])c5c(C([H])([H])[H])nn(C([H])([H])[H])c5C([H])([H])C([H])([H])C4([H])C3([H])C([H])([H])C([H])([H])C12C([H])([H])[H]

$$$$
15:0:0
     RDKit          3D

 48 52  0  0  1  0  0  0  0  0999 V2000
    3.5897   -0.6552   -4.2516 C   0  0  0  0  0  0  0  0  0  0  0  0
    3.5541   -0.6104   -2.8370 O   0  0  0  0  0  0  0  0  0  0  0  0
    4.0362   -1.6869   -2.1285 C   0  0  0  0  0  0  0  0  0  0  0  0
    4.5769   -2.8516   -2.7525 C   0  0  0  0  0  0  0  0  0  0  0  0
    5.0228   -3.9446   -1.9724 C   0  0  0  0  0  0  0  0  0  0  0  0
    5.0021   -3.8952   -0.5654 C   0  0  0  0  0  0  0  0  0  0  0  0
    4.5011   -2.7100   -0.0050 C   0  0  0  0  0  0  0  0  0  0  0  0
    3.9816   -1.6284   -0.7321 C   0  0  0  0  0  0  0  0  0  0  0  0
    3.4447   -0.6571    0.0807 O   0  0  0  0  0  0  0  0  0  0  0  0
    3.2295   -1.3576    1.2836 C   0  0  2  0  0  0  0  0  0  0  0  0
    2.8684   -0.7793    2.6442 C   0  0  0  0  0  0  0  0  0  0  0  0
    3.6264   -1.7533    3.5838 C   0  0  2  0  0  0  0  0  0  0  0  0
    4.8723   -1.0916    4.0820 N   0  0  2  0  0  0  0  0  0  0  0  0
    4.6722   -0.1678    5.2229 C   0  0  0  0  0  0  0  0  0  0  0  0
    5.6814   -0.4901    2.9929 C   0  0  0  0  0  0  0  0  0  0  0  0
    5.7654   -1.3973    1.7487 C   0  0  0  0  0  0  0  0  0  0  0  0
    4.4727   -2.2255    1.4351 C   0  0  2  0  0  0  0  0  0  0  0  0
    4.0220   -2.9978    2.7060 C   0  0  1  0  0  0  0  0  0  0  0  0
    5.1029   -3.6410    3.3660 O   0  0  0  0  0  0  0  0  0  0  0  0
    2.8772   -4.0475    2.5318 C   0  0  0  0  0  0  0  0  0  0  0  0
    2.9465   -5.0196    1.3297 C   0  0  0  0  0  0  0  0  0  0  0  0
    4.2931   -5.7185    1.1346 C   0  0  0  0  0  0  0  0  0  0  0  0
    4.4586   -6.8641    1.5489 O   0  0  0  0  0  0  0  0  0  0  0  0
    5.4352   -4.9811    0.4198 C   0  0  0  0  0  0  0  0  0  0  0  0
    3.1622    0.2701   -4.6343 H   0  0  0  0  0  0  0  0  0  0  0  0
    2.9966   -1.4804   -4.6459 H   0  0  0  0  0  0  0  0  0  0  0  0
    4.6122   -0.7261   -4.6277 H   0  0  0  0  0  0  0  0  0  0  0  0
    4.6406   -2.9514   -3.8265 H   0  0  0  0  0  0  0  0  0  0  0  0
    5.3901   -4.8282   -2.4749 H   0  0  0  0  0  0  0  0  0  0  0  0
    2.3596   -1.9698    1.0292 H   0  0  0  0  0  0  0  0  0  0  0  0
    3.1130    0.2794    2.7568 H   0  0  0  0  0  0  0  0  0  0  0  0
    1.7946   -0.8555    2.8020 H   0  0  0  0  0  0  0  0  0  0  0  0
    3.0174   -2.0557    4.4322 H   0  0  0  0  0  0  0  0  0  0  0  0
    4.0874    0.7012    4.9441 H   0  0  0  0  0  0  0  0  0  0  0  0
    5.6259    0.1926    5.5923 H   0  0  0  0  0  0  0  0  0  0  0  0
    4.1742   -0.6591    6.0509 H   0  0  0  0  0  0  0  0  0  0  0  0
    5.2647    0.4747    2.7328 H   0  0  0  0  0  0  0  0  0  0  0  0
    6.6767   -0.2566    3.3528 H   0  0  0  0  0  0  0  0  0  0  0  0
    6.0169   -0.7471    0.9111 H   0  0  0  0  0  0  0  0  0  0  0  0
    6.6063   -2.0819    1.8499 H   0  0  0  0  0  0  0  0  0  0  0  0
    4.7547   -4.1724    4.0679 H   0  0  0  0  0  0  0  0  0  0  0  0
    2.8031   -4.6396    3.4431 H   0  0  0  0  0  0  0  0  0  0  0  0
    1.9134   -3.5390    2.4666 H   0  0  0  0  0  0  0  0  0  0  0  0
    2.1958   -5.7983    1.4580 H   0  0  0  0  0  0  0  0  0  0  0  0
    2.6741   -4.5143    0.4051 H   0  0  0  0  0  0  0  0  0  0  0  0
    5.9058   -5.7377   -0.1986 H   0  0  0  0  0  0  0  0  0  0  0  0
    6.2036   -4.6420    1.1186 H   0  0  0  0  0  0  0  0  0  0  0  0
    5.4314   -1.8597    4.4245 H   0  0  0  0  0  0  0  0  0  0  0  0
  1  2  1  0
  1 25  1  0
  1 26  1  0
  1 27  1  0
  2  3  1  0
  3  8  2  0
  3  4  1  0
  4  5  2  0
  4 28  1  0
  5  6  1  0
  5 29  1  0
  6 24  1  0
  6  7  2  0
  7 17  1  0
  7  8  1  0
  8  9  1  0
  9 10  1  0
 10 17  1  0
 10 11  1  0
 10 30  1  6
 11 12  1  0
 11 31  1  0
 11 32  1  0
 12 18  1  0
 12 13  1  0
 12 33  1  1
 13 14  1  0
 13 15  1  0
 13 48  1  1
 14 34  1  0
 14 35  1  0
 14 36  1  0
 15 16  1  0
 15 37  1  0
 15 38  1  0
 17 16  1  1
 16 39  1  0
 16 40  1  0
 17 18  1  0
 18 19  1  1
 18 20  1  0
 19 41  1  0
 20 21  1  0
 20 42  1  0
 20 43  1  0
 21 22  1  0
 21 44  1  0
 21 45  1  0
 22 23  2  0
 22 24  1  0
 24 46  1  0
 24 47  1  0
M  CHG  1  13   1
M  END
>  <i_m_ct_stereo_status>  (56) 
1

>  <s_m_source_file>  (56) 
/var/tmp/pbs.5076255.sched01/tmpd0mq1ayv/02wja6gfv.sdf

>  <i_m_source_file_index>  (56) 
23

>  <i_lp_mmshare_version>  (56) 
48012

>  <i_f3d_flags>  (56) 
0

>  <s_epik_input>  (56) 
W0NAQF0xMjNjNGM1W2NIXVtjSF1jKE9bQ0gzXSljNE9bQ0BASF0xW0NIMl1bQ0BIXShOKFtDSDNdKVtDSDJdW0NIMl0yKVtDQEBdMyhbT0hdKVtDSDJdW0NIMl1DKD1PKVtDSDJdNQ==

>  <s_epik_cmdline>  (56) 
J2VwaWtfcHl0aG9uJywgJy1waHQnLCAnMi4wJywgJy1waCcsICc3LjAnLCAnLXRuJywgJzgnLCAnLW1hJywgJzIwMCcsICctaW1hZScsICc8aW5maWxlLm1hZT4nLCAnLW9tYWUnLCAnPG91dGZpbGUubWFlPic=

>  <r_lp_tautomer_probability>  (56) 
1

>  <r_epik_Ionization_Penalty>  (56) 
0.0381212

>  <r_epik_Ionization_Penalty_Charging>  (56) 
0.038121

>  <r_epik_Ionization_Penalty_Neutral>  (56) 
1.56551e-07

>  <r_epik_State_Penalty>  (56) 
0.0319495

>  <r_epik_Charging_Adjusted_Penalty>  (56) 
0.0700705

>  <i_epik_Tot_Q>  (56) 
1

>  <i_epik_Tot_abs_Q>  (56) 
1

>  <s_lp_Force_Field>  (56) 
OPLS3e

>  <r_lp_Energy>  (56) 
84.3901

>  <b_lp_Chiralities_Consistent>  (56) 
1

>  <s_lp_Variant>  (56) 
15:0-1

>  <s_i_glide_gridfile>  (56) 
pfpi4k_grid

>  <i_i_glide_lignum>  (56) 
23

>  <i_i_glide_rotatable_bonds>  (56) 
2

>  <r_i_docking_score>  (56) 
-3.22152

>  <r_i_glide_ligand_efficiency>  (56) 
-0.13423

>  <r_i_glide_ligand_efficiency_sa>  (56) 
-0.387187

>  <r_i_glide_ligand_efficiency_ln>  (56) 
-0.771059

>  <r_i_glide_gscore>  (56) 
-3.22152

>  <r_i_glide_lipo>  (56) 
-0.760266

>  <r_i_glide_hbond>  (56) 
0

>  <r_i_glide_metal>  (56) 
-0

>  <r_i_glide_rewards>  (56) 
-1.23138

>  <r_i_glide_evdw>  (56) 
-23.2265

>  <r_i_glide_ecoul>  (56) 
-0.45703

>  <r_i_glide_erotb>  (56) 
0

>  <r_i_glide_esite>  (56) 
0

>  <r_i_glide_emodel>  (56) 
-27.6345

>  <r_i_glide_energy>  (56) 
-23.6835

>  <r_i_glide_einternal>  (56) 
0.010742

>  <r_i_glide_intrahb_reward>  (56) 
-0

>  <i_i_glide_confnum>  (56) 
2

>  <i_i_glide_posenum>  (56) 
32

>  <r_i_glide_eff_state_penalty>  (56) 
0

>  <ligand_id>  (56) 
15

>  <original_smiles>  (56) 
COc1ccc2c3c1OC1CC4N(C)CCC31C4(O)CCC(=O)C2

>  <smiles>  (56) 
[H]OC12C([H])([H])C([H])([H])C(=O)C([H])([H])c3c([H])c([H])c(OC([H])([H])[H])c4c3C13C([H])([H])C([H])([H])[N+]([H])(C([H])([H])[H])C2([H])C([H])([H])C3([H])O4

$$$$
15:0:1
     RDKit          3D

 48 52  0  0  1  0  0  0  0  0999 V2000
    2.1111   -2.6545   -3.7202 C   0  0  0  0  0  0  0  0  0  0  0  0
    2.0857   -3.1756   -2.4026 O   0  0  0  0  0  0  0  0  0  0  0  0
    3.2412   -3.1094   -1.6616 C   0  0  0  0  0  0  0  0  0  0  0  0
    4.4027   -2.3761   -2.0471 C   0  0  0  0  0  0  0  0  0  0  0  0
    5.5802   -2.3918   -1.2606 C   0  0  0  0  0  0  0  0  0  0  0  0
    5.6218   -3.1009   -0.0413 C   0  0  0  0  0  0  0  0  0  0  0  0
    4.4336   -3.7732    0.3203 C   0  0  0  0  0  0  0  0  0  0  0  0
    3.2692   -3.8355   -0.4549 C   0  0  0  0  0  0  0  0  0  0  0  0
    2.2945   -4.6637    0.0714 O   0  0  0  0  0  0  0  0  0  0  0  0
    3.0811   -5.4684    0.9419 C   0  0  2  0  0  0  0  0  0  0  0  0
    2.6054   -6.4473    2.0172 C   0  0  0  0  0  0  0  0  0  0  0  0
    3.7003   -6.2636    3.1096 C   0  0  2  0  0  0  0  0  0  0  0  0
    3.1596   -5.4114    4.2185 N   0  0  2  0  0  0  0  0  0  0  0  0
    2.2973   -6.1258    5.1950 C   0  0  0  0  0  0  0  0  0  0  0  0
    2.5378   -4.1498    3.7187 C   0  0  0  0  0  0  0  0  0  0  0  0
    3.3548   -3.4898    2.5841 C   0  0  0  0  0  0  0  0  0  0  0  0
    4.0596   -4.4905    1.6056 C   0  0  2  0  0  0  0  0  0  0  0  0
    4.9022   -5.5143    2.4179 C   0  0  1  0  0  0  0  0  0  0  0  0
    5.7201   -4.9278    3.4239 O   0  0  0  0  0  0  0  0  0  0  0  0
    5.8505   -6.4581    1.6144 C   0  0  0  0  0  0  0  0  0  0  0  0
    6.7410   -5.8361    0.5178 C   0  0  0  0  0  0  0  0  0  0  0  0
    7.5159   -4.5806    0.9147 C   0  0  0  0  0  0  0  0  0  0  0  0
    8.7074   -4.6556    1.2051 O   0  0  0  0  0  0  0  0  0  0  0  0
    6.8004   -3.2218    0.9179 C   0  0  0  0  0  0  0  0  0  0  0  0
    1.1278   -2.7781   -4.1684 H   0  0  0  0  0  0  0  0  0  0  0  0
    2.8291   -3.1921   -4.3396 H   0  0  0  0  0  0  0  0  0  0  0  0
    2.3353   -1.5853   -3.7393 H   0  0  0  0  0  0  0  0  0  0  0  0
    4.4119   -1.7972   -2.9596 H   0  0  0  0  0  0  0  0  0  0  0  0
    6.4474   -1.8451   -1.6002 H   0  0  0  0  0  0  0  0  0  0  0  0
    3.6261   -6.1210    0.2499 H   0  0  0  0  0  0  0  0  0  0  0  0
    1.5803   -6.2622    2.3488 H   0  0  0  0  0  0  0  0  0  0  0  0
    2.6245   -7.4673    1.6300 H   0  0  0  0  0  0  0  0  0  0  0  0
    4.0264   -7.2173    3.5207 H   0  0  0  0  0  0  0  0  0  0  0  0
    1.3671   -6.4795    4.7448 H   0  0  0  0  0  0  0  0  0  0  0  0
    2.0434   -5.4493    6.0160 H   0  0  0  0  0  0  0  0  0  0  0  0
    2.8317   -6.9752    5.6266 H   0  0  0  0  0  0  0  0  0  0  0  0
    1.5209   -4.3384    3.3772 H   0  0  0  0  0  0  0  0  0  0  0  0
    2.4406   -3.4488    4.5436 H   0  0  0  0  0  0  0  0  0  0  0  0
    2.6633   -2.8450    2.0319 H   0  0  0  0  0  0  0  0  0  0  0  0
    4.1069   -2.8177    3.0049 H   0  0  0  0  0  0  0  0  0  0  0  0
    5.2481   -4.2395    3.8746 H   0  0  0  0  0  0  0  0  0  0  0  0
    6.4964   -6.9782    2.3204 H   0  0  0  0  0  0  0  0  0  0  0  0
    5.2760   -7.2542    1.1400 H   0  0  0  0  0  0  0  0  0  0  0  0
    7.4710   -6.5754    0.1858 H   0  0  0  0  0  0  0  0  0  0  0  0
    6.1314   -5.6061   -0.3495 H   0  0  0  0  0  0  0  0  0  0  0  0
    7.5435   -2.5218    0.5452 H   0  0  0  0  0  0  0  0  0  0  0  0
    6.5611   -2.8883    1.9265 H   0  0  0  0  0  0  0  0  0  0  0  0
    3.9693   -5.1509    4.7594 H   0  0  0  0  0  0  0  0  0  0  0  0
  1  2  1  0
  1 25  1  0
  1 26  1  0
  1 27  1  0
  2  3  1  0
  3  8  2  0
  3  4  1  0
  4  5  2  0
  4 28  1  0
  5  6  1  0
  5 29  1  0
  6 24  1  0
  6  7  2  0
  7 17  1  0
  7  8  1  0
  8  9  1  0
  9 10  1  0
 10 17  1  0
 10 11  1  0
 10 30  1  6
 11 12  1  0
 11 31  1  0
 11 32  1  0
 12 18  1  0
 12 13  1  0
 12 33  1  1
 13 14  1  0
 13 15  1  0
 13 48  1  1
 14 34  1  0
 14 35  1  0
 14 36  1  0
 15 16  1  0
 15 37  1  0
 15 38  1  0
 17 16  1  1
 16 39  1  0
 16 40  1  0
 17 18  1  0
 18 19  1  1
 18 20  1  0
 19 41  1  0
 20 21  1  0
 20 42  1  0
 20 43  1  0
 21 22  1  0
 21 44  1  0
 21 45  1  0
 22 23  2  0
 22 24  1  0
 24 46  1  0
 24 47  1  0
M  CHG  1  13   1
M  END
>  <i_m_ct_stereo_status>  (57) 
1

>  <s_m_source_file>  (57) 
/var/tmp/pbs.5076255.sched01/tmpd0mq1ayv/02wja6gfv.sdf

>  <i_m_source_file_index>  (57) 
23

>  <i_lp_mmshare_version>  (57) 
48012

>  <i_f3d_flags>  (57) 
0

>  <s_epik_input>  (57) 
W0NAQF0xMjNjNGM1W2NIXVtjSF1jKE9bQ0gzXSljNE9bQ0BASF0xW0NIMl1bQ0BIXShOKFtDSDNdKVtDSDJdW0NIMl0yKVtDQEBdMyhbT0hdKVtDSDJdW0NIMl1DKD1PKVtDSDJdNQ==

>  <s_epik_cmdline>  (57) 
J2VwaWtfcHl0aG9uJywgJy1waHQnLCAnMi4wJywgJy1waCcsICc3LjAnLCAnLXRuJywgJzgnLCAnLW1hJywgJzIwMCcsICctaW1hZScsICc8aW5maWxlLm1hZT4nLCAnLW9tYWUnLCAnPG91dGZpbGUubWFlPic=

>  <r_lp_tautomer_probability>  (57) 
1

>  <r_epik_Ionization_Penalty>  (57) 
0.0381212

>  <r_epik_Ionization_Penalty_Charging>  (57) 
0.038121

>  <r_epik_Ionization_Penalty_Neutral>  (57) 
1.56551e-07

>  <r_epik_State_Penalty>  (57) 
0.0319495

>  <r_epik_Charging_Adjusted_Penalty>  (57) 
0.0700705

>  <i_epik_Tot_Q>  (57) 
1

>  <i_epik_Tot_abs_Q>  (57) 
1

>  <s_lp_Force_Field>  (57) 
OPLS3e

>  <r_lp_Energy>  (57) 
84.3901

>  <b_lp_Chiralities_Consistent>  (57) 
1

>  <s_lp_Variant>  (57) 
15:0-1

>  <s_i_glide_gridfile>  (57) 
pfpi4k_grid

>  <i_i_glide_lignum>  (57) 
23

>  <i_i_glide_rotatable_bonds>  (57) 
2

>  <r_i_docking_score>  (57) 
-3.02891

>  <r_i_glide_ligand_efficiency>  (57) 
-0.126204

>  <r_i_glide_ligand_efficiency_sa>  (57) 
-0.364036

>  <r_i_glide_ligand_efficiency_ln>  (57) 
-0.724956

>  <r_i_glide_gscore>  (57) 
-3.02891

>  <r_i_glide_lipo>  (57) 
-0.600541

>  <r_i_glide_hbond>  (57) 
-0.000600633

>  <r_i_glide_metal>  (57) 
-0

>  <r_i_glide_rewards>  (57) 
-1.3397

>  <r_i_glide_evdw>  (57) 
-22.3931

>  <r_i_glide_ecoul>  (57) 
0.210593

>  <r_i_glide_erotb>  (57) 
0

>  <r_i_glide_esite>  (57) 
0

>  <r_i_glide_emodel>  (57) 
-25.8115

>  <r_i_glide_energy>  (57) 
-22.1825

>  <r_i_glide_einternal>  (57) 
0.302486

>  <r_i_glide_intrahb_reward>  (57) 
-0

>  <i_i_glide_confnum>  (57) 
2

>  <i_i_glide_posenum>  (57) 
3

>  <r_i_glide_eff_state_penalty>  (57) 
0

>  <ligand_id>  (57) 
15

>  <original_smiles>  (57) 
COc1ccc2c3c1OC1CC4N(C)CCC31C4(O)CCC(=O)C2

>  <smiles>  (57) 
[H]OC12C([H])([H])C([H])([H])C(=O)C([H])([H])c3c([H])c([H])c(OC([H])([H])[H])c4c3C13C([H])([H])C([H])([H])[N+]([H])(C([H])([H])[H])C2([H])C([H])([H])C3([H])O4

$$$$
15:0:2
     RDKit          3D

 48 52  0  0  1  0  0  0  0  0999 V2000
    2.0935   -2.6970   -2.9816 C   0  0  0  0  0  0  0  0  0  0  0  0
    2.1062   -3.4598   -1.7831 O   0  0  0  0  0  0  0  0  0  0  0  0
    3.2604   -3.4482   -1.0393 C   0  0  0  0  0  0  0  0  0  0  0  0
    4.3448   -2.5426   -1.2483 C   0  0  0  0  0  0  0  0  0  0  0  0
    5.5218   -2.6112   -0.4675 C   0  0  0  0  0  0  0  0  0  0  0  0
    5.6437   -3.5664    0.5597 C   0  0  0  0  0  0  0  0  0  0  0  0
    4.5251   -4.4066    0.7666 C   0  0  0  0  0  0  0  0  0  0  0  0
    3.3638   -4.4067   -0.0124 C   0  0  0  0  0  0  0  0  0  0  0  0
    2.4747   -5.4119    0.3151 O   0  0  0  0  0  0  0  0  0  0  0  0
    3.3411   -6.3125    0.9987 C   0  0  2  0  0  0  0  0  0  0  0  0
    2.9695   -7.5390    1.8326 C   0  0  0  0  0  0  0  0  0  0  0  0
    4.0474   -7.4888    2.9547 C   0  0  2  0  0  0  0  0  0  0  0  0
    3.4440   -6.9392    4.2120 N   0  0  2  0  0  0  0  0  0  0  0  0
    2.6680   -7.9249    5.0101 C   0  0  0  0  0  0  0  0  0  0  0  0
    2.6987   -5.6705    3.9843 C   0  0  0  0  0  0  0  0  0  0  0  0
    3.4399   -4.7098    3.0259 C   0  0  0  0  0  0  0  0  0  0  0  0
    4.2259   -5.4104    1.8676 C   0  0  2  0  0  0  0  0  0  0  0  0
    5.1663   -6.4977    2.4547 C   0  0  1  0  0  0  0  0  0  0  0  0
    5.8881   -6.0494    3.5954 O   0  0  0  0  0  0  0  0  0  0  0  0
    6.2047   -7.1519    1.4887 C   0  0  0  0  0  0  0  0  0  0  0  0
    7.0197   -6.2297    0.5507 C   0  0  0  0  0  0  0  0  0  0  0  0
    7.6751   -5.0226    1.2141 C   0  0  0  0  0  0  0  0  0  0  0  0
    8.8661   -5.0536    1.5126 O   0  0  0  0  0  0  0  0  0  0  0  0
    6.8359   -3.7660    1.4748 C   0  0  0  0  0  0  0  0  0  0  0  0
    1.1282   -2.8297   -3.4627 H   0  0  0  0  0  0  0  0  0  0  0  0
    2.8547   -3.0413   -3.6869 H   0  0  0  0  0  0  0  0  0  0  0  0
    2.2231   -1.6284   -2.7874 H   0  0  0  0  0  0  0  0  0  0  0  0
    4.2893   -1.7816   -2.0107 H   0  0  0  0  0  0  0  0  0  0  0  0
    6.3262   -1.9118   -0.6511 H   0  0  0  0  0  0  0  0  0  0  0  0
    3.9425   -6.7446    0.1906 H   0  0  0  0  0  0  0  0  0  0  0  0
    1.9359   -7.5268    2.1822 H   0  0  0  0  0  0  0  0  0  0  0  0
    3.0863   -8.4462    1.2408 H   0  0  0  0  0  0  0  0  0  0  0  0
    4.4649   -8.4749    3.1616 H   0  0  0  0  0  0  0  0  0  0  0  0
    1.7739   -8.2599    4.4799 H   0  0  0  0  0  0  0  0  0  0  0  0
    2.3484   -7.4704    5.9513 H   0  0  0  0  0  0  0  0  0  0  0  0
    3.2765   -8.7973    5.2556 H   0  0  0  0  0  0  0  0  0  0  0  0
    1.7020   -5.8858    3.6011 H   0  0  0  0  0  0  0  0  0  0  0  0
    2.5433   -5.1749    4.9416 H   0  0  0  0  0  0  0  0  0  0  0  0
    2.6894   -4.0291    2.6196 H   0  0  0  0  0  0  0  0  0  0  0  0
    4.1313   -4.0847    3.5946 H   0  0  0  0  0  0  0  0  0  0  0  0
    6.4866   -6.7348    3.8595 H   0  0  0  0  0  0  0  0  0  0  0  0
    6.9084   -7.7518    2.0667 H   0  0  0  0  0  0  0  0  0  0  0  0
    5.6999   -7.8845    0.8600 H   0  0  0  0  0  0  0  0  0  0  0  0
    7.8204   -6.8033    0.0787 H   0  0  0  0  0  0  0  0  0  0  0  0
    6.3952   -5.8672   -0.2629 H   0  0  0  0  0  0  0  0  0  0  0  0
    7.5043   -2.9286    1.2803 H   0  0  0  0  0  0  0  0  0  0  0  0
    6.5384   -3.6884    2.5115 H   0  0  0  0  0  0  0  0  0  0  0  0
    4.2483   -6.6728    4.7698 H   0  0  0  0  0  0  0  0  0  0  0  0
  1  2  1  0
  1 25  1  0
  1 26  1  0
  1 27  1  0
  2  3  1  0
  3  8  2  0
  3  4  1  0
  4  5  2  0
  4 28  1  0
  5  6  1  0
  5 29  1  0
  6 24  1  0
  6  7  2  0
  7 17  1  0
  7  8  1  0
  8  9  1  0
  9 10  1  0
 10 17  1  0
 10 11  1  0
 10 30  1  6
 11 12  1  0
 11 31  1  0
 11 32  1  0
 12 18  1  0
 12 13  1  0
 12 33  1  1
 13 14  1  0
 13 15  1  0
 13 48  1  1
 14 34  1  0
 14 35  1  0
 14 36  1  0
 15 16  1  0
 15 37  1  0
 15 38  1  0
 17 16  1  1
 16 39  1  0
 16 40  1  0
 17 18  1  0
 18 19  1  1
 18 20  1  0
 19 41  1  0
 20 21  1  0
 20 42  1  0
 20 43  1  0
 21 22  1  0
 21 44  1  0
 21 45  1  0
 22 23  2  0
 22 24  1  0
 24 46  1  0
 24 47  1  0
M  CHG  1  13   1
M  END
>  <i_m_ct_stereo_status>  (58) 
1

>  <s_m_source_file>  (58) 
/var/tmp/pbs.5076255.sched01/tmpd0mq1ayv/02wja6gfv.sdf

>  <i_m_source_file_index>  (58) 
23

>  <i_lp_mmshare_version>  (58) 
48012

>  <i_f3d_flags>  (58) 
0

>  <s_epik_input>  (58) 
W0NAQF0xMjNjNGM1W2NIXVtjSF1jKE9bQ0gzXSljNE9bQ0BASF0xW0NIMl1bQ0BIXShOKFtDSDNdKVtDSDJdW0NIMl0yKVtDQEBdMyhbT0hdKVtDSDJdW0NIMl1DKD1PKVtDSDJdNQ==

>  <s_epik_cmdline>  (58) 
J2VwaWtfcHl0aG9uJywgJy1waHQnLCAnMi4wJywgJy1waCcsICc3LjAnLCAnLXRuJywgJzgnLCAnLW1hJywgJzIwMCcsICctaW1hZScsICc8aW5maWxlLm1hZT4nLCAnLW9tYWUnLCAnPG91dGZpbGUubWFlPic=

>  <r_lp_tautomer_probability>  (58) 
1

>  <r_epik_Ionization_Penalty>  (58) 
0.0381212

>  <r_epik_Ionization_Penalty_Charging>  (58) 
0.038121

>  <r_epik_Ionization_Penalty_Neutral>  (58) 
1.56551e-07

>  <r_epik_State_Penalty>  (58) 
0.0319495

>  <r_epik_Charging_Adjusted_Penalty>  (58) 
0.0700705

>  <i_epik_Tot_Q>  (58) 
1

>  <i_epik_Tot_abs_Q>  (58) 
1

>  <s_lp_Force_Field>  (58) 
OPLS3e

>  <r_lp_Energy>  (58) 
84.3901

>  <b_lp_Chiralities_Consistent>  (58) 
1

>  <s_lp_Variant>  (58) 
15:0-1

>  <s_i_glide_gridfile>  (58) 
pfpi4k_grid

>  <i_i_glide_lignum>  (58) 
23

>  <i_i_glide_rotatable_bonds>  (58) 
2

>  <r_i_docking_score>  (58) 
-2.80061

>  <r_i_glide_ligand_efficiency>  (58) 
-0.116692

>  <r_i_glide_ligand_efficiency_sa>  (58) 
-0.336598

>  <r_i_glide_ligand_efficiency_ln>  (58) 
-0.670315

>  <r_i_glide_gscore>  (58) 
-2.80061

>  <r_i_glide_lipo>  (58) 
-0.473024

>  <r_i_glide_hbond>  (58) 
0

>  <r_i_glide_metal>  (58) 
-0

>  <r_i_glide_rewards>  (58) 
-1.31952

>  <r_i_glide_evdw>  (58) 
-19.5881

>  <r_i_glide_ecoul>  (58) 
-0.19106

>  <r_i_glide_erotb>  (58) 
0

>  <r_i_glide_esite>  (58) 
0

>  <r_i_glide_emodel>  (58) 
-23.0311

>  <r_i_glide_energy>  (58) 
-19.7791

>  <r_i_glide_einternal>  (58) 
0.349025

>  <r_i_glide_intrahb_reward>  (58) 
-0

>  <i_i_glide_confnum>  (58) 
2

>  <i_i_glide_posenum>  (58) 
31

>  <r_i_glide_eff_state_penalty>  (58) 
0

>  <ligand_id>  (58) 
15

>  <original_smiles>  (58) 
COc1ccc2c3c1OC1CC4N(C)CCC31C4(O)CCC(=O)C2

>  <smiles>  (58) 
[H]OC12C([H])([H])C([H])([H])C(=O)C([H])([H])c3c([H])c([H])c(OC([H])([H])[H])c4c3C13C([H])([H])C([H])([H])[N+]([H])(C([H])([H])[H])C2([H])C([H])([H])C3([H])O4

$$$$
15:1:0
     RDKit          3D

 47 51  0  0  1  0  0  0  0  0999 V2000
    2.3364   -7.4811    2.0906 C   0  0  0  0  0  0  0  0  0  0  0  0
    2.5027   -6.3648    1.2345 O   0  0  0  0  0  0  0  0  0  0  0  0
    3.7876   -5.9657    0.9555 C   0  0  0  0  0  0  0  0  0  0  0  0
    4.9662   -6.6540    1.3925 C   0  0  0  0  0  0  0  0  0  0  0  0
    6.2600   -6.1586    1.1166 C   0  0  0  0  0  0  0  0  0  0  0  0
    6.4181   -4.9850    0.3484 C   0  0  0  0  0  0  0  0  0  0  0  0
    5.2290   -4.3796   -0.1128 C   0  0  0  0  0  0  0  0  0  0  0  0
    3.9332   -4.7867    0.2015 C   0  0  0  0  0  0  0  0  0  0  0  0
    2.9529   -3.9342   -0.2600 O   0  0  0  0  0  0  0  0  0  0  0  0
    3.7114   -2.7533   -0.4762 C   0  0  2  0  0  0  0  0  0  0  0  0
    3.3201   -1.4862   -1.2151 C   0  0  0  0  0  0  0  0  0  0  0  0
    4.6436   -1.0624   -1.8784 C   0  0  2  0  0  0  0  0  0  0  0  0
    4.6082   -1.3780   -3.3141 N   0  0  0  0  0  0  0  0  0  0  0  0
    3.8581   -0.4347   -4.1334 C   0  0  0  0  0  0  0  0  0  0  0  0
    4.2530   -2.7712   -3.5568 C   0  0  0  0  0  0  0  0  0  0  0  0
    4.8751   -3.7718   -2.5531 C   0  0  0  0  0  0  0  0  0  0  0  0
    5.0187   -3.2415   -1.0899 C   0  0  2  0  0  0  0  0  0  0  0  0
    5.7542   -1.8921   -1.1301 C   0  0  1  0  0  0  0  0  0  0  0  0
    6.9142   -2.0018   -1.9021 O   0  0  0  0  0  0  0  0  0  0  0  0
    6.2084   -1.2578    0.2137 C   0  0  0  0  0  0  0  0  0  0  0  0
    6.9323   -2.1672    1.2059 C   0  0  0  0  0  0  0  0  0  0  0  0
    8.0759   -3.0528    0.6322 C   0  0  0  0  0  0  0  0  0  0  0  0
    9.2632   -2.7459    0.7406 O   0  0  0  0  0  0  0  0  0  0  0  0
    7.7314   -4.3492   -0.0718 C   0  0  0  0  0  0  0  0  0  0  0  0
    1.2711   -7.6644    2.2092 H   0  0  0  0  0  0  0  0  0  0  0  0
    2.7549   -7.2825    3.0793 H   0  0  0  0  0  0  0  0  0  0  0  0
    2.7845   -8.3881    1.6798 H   0  0  0  0  0  0  0  0  0  0  0  0
    4.8966   -7.5705    1.9561 H   0  0  0  0  0  0  0  0  0  0  0  0
    7.1380   -6.6997    1.4640 H   0  0  0  0  0  0  0  0  0  0  0  0
    3.8889   -2.3952    0.5430 H   0  0  0  0  0  0  0  0  0  0  0  0
    2.5354   -1.6562   -1.9412 H   0  0  0  0  0  0  0  0  0  0  0  0
    2.9976   -0.7272   -0.5086 H   0  0  0  0  0  0  0  0  0  0  0  0
    4.7996    0.0099   -1.7565 H   0  0  0  0  0  0  0  0  0  0  0  0
    3.9834   -0.6639   -5.1929 H   0  0  0  0  0  0  0  0  0  0  0  0
    4.2039    0.5953   -3.9912 H   0  0  0  0  0  0  0  0  0  0  0  0
    2.7815   -0.4619   -3.9216 H   0  0  0  0  0  0  0  0  0  0  0  0
    3.1646   -2.8721   -3.5519 H   0  0  0  0  0  0  0  0  0  0  0  0
    4.5549   -3.0514   -4.5609 H   0  0  0  0  0  0  0  0  0  0  0  0
    4.2526   -4.6477   -2.5514 H   0  0  0  0  0  0  0  0  0  0  0  0
    5.8427   -4.0938   -2.9346 H   0  0  0  0  0  0  0  0  0  0  0  0
    7.3199   -2.8372   -1.7583 H   0  0  0  0  0  0  0  0  0  0  0  0
    6.8766   -0.4114    0.0538 H   0  0  0  0  0  0  0  0  0  0  0  0
    5.3670   -0.7998    0.7365 H   0  0  0  0  0  0  0  0  0  0  0  0
    7.2626   -1.4439    1.9472 H   0  0  0  0  0  0  0  0  0  0  0  0
    6.2168   -2.8061    1.7212 H   0  0  0  0  0  0  0  0  0  0  0  0
    8.5134   -5.0405    0.2402 H   0  0  0  0  0  0  0  0  0  0  0  0
    7.8691   -4.2206   -1.1388 H   0  0  0  0  0  0  0  0  0  0  0  0
  1  2  1  0
  1 25  1  0
  1 26  1  0
  1 27  1  0
  2  3  1  0
  3  8  2  0
  3  4  1  0
  4  5  2  0
  4 28  1  0
  5  6  1  0
  5 29  1  0
  6 24  1  0
  6  7  2  0
  7 17  1  0
  7  8  1  0
  8  9  1  0
  9 10  1  0
 10 17  1  0
 10 11  1  0
 10 30  1  1
 11 12  1  0
 11 31  1  0
 11 32  1  0
 12 18  1  0
 12 13  1  0
 12 33  1  6
 13 14  1  0
 13 15  1  0
 14 34  1  0
 14 35  1  0
 14 36  1  0
 15 16  1  0
 15 37  1  0
 15 38  1  0
 17 16  1  6
 16 39  1  0
 16 40  1  0
 17 18  1  0
 18 19  1  6
 18 20  1  0
 19 41  1  0
 20 21  1  0
 20 42  1  0
 20 43  1  0
 21 22  1  0
 21 44  1  0
 21 45  1  0
 22 23  2  0
 22 24  1  0
 24 46  1  0
 24 47  1  0
M  END
>  <i_m_ct_stereo_status>  (59) 
1

>  <s_m_source_file>  (59) 
/var/tmp/pbs.5076255.sched01/tmpd0mq1ayv/02wja6gfv.sdf

>  <i_m_source_file_index>  (59) 
24

>  <i_lp_mmshare_version>  (59) 
48012

>  <i_f3d_flags>  (59) 
0

>  <s_epik_input>  (59) 
W0NAQF0xMjNjNGM1W2NIXVtjSF1jKE9bQ0gzXSljNE9bQ0BASF0xW0NIMl1bQ0BIXShOKFtDSDNdKVtDSDJdW0NIMl0yKVtDQEBdMyhbT0hdKVtDSDJdW0NIMl1DKD1PKVtDSDJdNQ==

>  <s_epik_cmdline>  (59) 
J2VwaWtfcHl0aG9uJywgJy1waHQnLCAnMi4wJywgJy1waCcsICc3LjAnLCAnLXRuJywgJzgnLCAnLW1hJywgJzIwMCcsICctaW1hZScsICc8aW5maWxlLm1hZT4nLCAnLW9tYWUnLCAnPG91dGZpbGUubWFlPic=

>  <r_lp_tautomer_probability>  (59) 
1

>  <r_epik_Ionization_Penalty>  (59) 
1.64448

>  <r_epik_Ionization_Penalty_Charging>  (59) 
0

>  <r_epik_Ionization_Penalty_Neutral>  (59) 
1.64448

>  <r_epik_State_Penalty>  (59) 
1.74606

>  <r_epik_Charging_Adjusted_Penalty>  (59) 
1.74606

>  <i_epik_Tot_Q>  (59) 
0

>  <i_epik_Tot_abs_Q>  (59) 
0

>  <s_lp_Force_Field>  (59) 
OPLS3e

>  <r_lp_Energy>  (59) 
76.4732

>  <b_lp_Chiralities_Consistent>  (59) 
1

>  <s_lp_Variant>  (59) 
15:0-2

>  <s_i_glide_gridfile>  (59) 
pfpi4k_grid

>  <i_i_glide_lignum>  (59) 
24

>  <i_i_glide_rotatable_bonds>  (59) 
2

>  <r_i_docking_score>  (59) 
-4.10344

>  <r_i_glide_ligand_efficiency>  (59) 
-0.170977

>  <r_i_glide_ligand_efficiency_sa>  (59) 
-0.493182

>  <r_i_glide_ligand_efficiency_ln>  (59) 
-0.982142

>  <r_i_glide_gscore>  (59) 
-4.10344

>  <r_i_glide_lipo>  (59) 
-1.04816

>  <r_i_glide_hbond>  (59) 
-0.16

>  <r_i_glide_metal>  (59) 
-0

>  <r_i_glide_rewards>  (59) 
-1.41517

>  <r_i_glide_evdw>  (59) 
-10.4468

>  <r_i_glide_ecoul>  (59) 
-6.3851

>  <r_i_glide_erotb>  (59) 
0

>  <r_i_glide_esite>  (59) 
0

>  <r_i_glide_emodel>  (59) 
-20.496

>  <r_i_glide_energy>  (59) 
-16.8319

>  <r_i_glide_einternal>  (59) 
0.698375

>  <r_i_glide_intrahb_reward>  (59) 
-0

>  <i_i_glide_confnum>  (59) 
1

>  <i_i_glide_posenum>  (59) 
31

>  <r_i_glide_eff_state_penalty>  (59) 
0

>  <ligand_id>  (59) 
15

>  <original_smiles>  (59) 
COc1ccc2c3c1OC1CC4N(C)CCC31C4(O)CCC(=O)C2

>  <smiles>  (59) 
[H]OC12C([H])([H])C([H])([H])C(=O)C([H])([H])c3c([H])c([H])c(OC([H])([H])[H])c4c3C13C([H])([H])C([H])([H])N(C([H])([H])[H])C2([H])C([H])([H])C3([H])O4

$$$$
15:1:1
     RDKit          3D

 47 51  0  0  1  0  0  0  0  0999 V2000
    3.9868   -7.1784    2.5226 C   0  0  0  0  0  0  0  0  0  0  0  0
    5.0288   -7.5770    1.6542 O   0  0  0  0  0  0  0  0  0  0  0  0
    5.7815   -6.5398    1.1665 C   0  0  0  0  0  0  0  0  0  0  0  0
    7.1811   -6.5950    1.3740 C   0  0  0  0  0  0  0  0  0  0  0  0
    8.0388   -5.5489    0.9409 C   0  0  0  0  0  0  0  0  0  0  0  0
    7.5036   -4.4506    0.2268 C   0  0  0  0  0  0  0  0  0  0  0  0
    6.1137   -4.4829   -0.0104 C   0  0  0  0  0  0  0  0  0  0  0  0
    5.2133   -5.4581    0.4544 C   0  0  0  0  0  0  0  0  0  0  0  0
    3.8918   -5.1939    0.1263 O   0  0  0  0  0  0  0  0  0  0  0  0
    3.9679   -3.8030   -0.1146 C   0  0  2  0  0  0  0  0  0  0  0  0
    2.8958   -2.9125   -0.7261 C   0  0  0  0  0  0  0  0  0  0  0  0
    3.7700   -1.9130   -1.5342 C   0  0  2  0  0  0  0  0  0  0  0  0
    3.7653   -2.1971   -2.9810 N   0  0  0  0  0  0  0  0  0  0  0  0
    2.5322   -1.7929   -3.6303 C   0  0  0  0  0  0  0  0  0  0  0  0
    4.0405   -3.6053   -3.2387 C   0  0  0  0  0  0  0  0  0  0  0  0
    5.1720   -4.1900   -2.3590 C   0  0  0  0  0  0  0  0  0  0  0  0
    5.2540   -3.6143   -0.8994 C   0  0  2  0  0  0  0  0  0  0  0  0
    5.2292   -2.0816   -0.9671 C   0  0  1  0  0  0  0  0  0  0  0  0
    6.1675   -1.6343   -1.9148 O   0  0  0  0  0  0  0  0  0  0  0  0
    5.5143   -1.2746    0.3305 C   0  0  0  0  0  0  0  0  0  0  0  0
    6.7260   -1.7363    1.1675 C   0  0  0  0  0  0  0  0  0  0  0  0
    8.0195   -1.9491    0.3910 C   0  0  0  0  0  0  0  0  0  0  0  0
    8.8950   -1.0952    0.4661 O   0  0  0  0  0  0  0  0  0  0  0  0
    8.2727   -3.2696   -0.3580 C   0  0  0  0  0  0  0  0  0  0  0  0
    3.3535   -8.0339    2.7544 H   0  0  0  0  0  0  0  0  0  0  0  0
    3.3283   -6.3945    2.1533 H   0  0  0  0  0  0  0  0  0  0  0  0
    4.4359   -6.8204    3.4485 H   0  0  0  0  0  0  0  0  0  0  0  0
    7.5953   -7.4437    1.8858 H   0  0  0  0  0  0  0  0  0  0  0  0
    9.1051   -5.6222    1.1495 H   0  0  0  0  0  0  0  0  0  0  0  0
    4.0941   -3.3953    0.8964 H   0  0  0  0  0  0  0  0  0  0  0  0
    2.1675   -3.4757   -1.3074 H   0  0  0  0  0  0  0  0  0  0  0  0
    2.3444   -2.4148    0.0770 H   0  0  0  0  0  0  0  0  0  0  0  0
    3.4172   -0.8978   -1.3700 H   0  0  0  0  0  0  0  0  0  0  0  0
    2.5904   -1.9577   -4.7121 H   0  0  0  0  0  0  0  0  0  0  0  0
    2.3508   -0.7306   -3.4708 H   0  0  0  0  0  0  0  0  0  0  0  0
    1.6656   -2.3456   -3.2601 H   0  0  0  0  0  0  0  0  0  0  0  0
    3.1194   -4.1687   -3.1005 H   0  0  0  0  0  0  0  0  0  0  0  0
    4.2745   -3.7560   -4.2843 H   0  0  0  0  0  0  0  0  0  0  0  0
    5.0087   -5.2665   -2.3254 H   0  0  0  0  0  0  0  0  0  0  0  0
    6.1135   -4.0234   -2.8812 H   0  0  0  0  0  0  0  0  0  0  0  0
    5.9623   -2.1066   -2.7283 H   0  0  0  0  0  0  0  0  0  0  0  0
    5.6760   -0.2304    0.0651 H   0  0  0  0  0  0  0  0  0  0  0  0
    4.6436   -1.2702    0.9786 H   0  0  0  0  0  0  0  0  0  0  0  0
    6.9213   -0.9862    1.9433 H   0  0  0  0  0  0  0  0  0  0  0  0
    6.4834   -2.6369    1.7234 H   0  0  0  0  0  0  0  0  0  0  0  0
    9.3063   -3.4692   -0.1776 H   0  0  0  0  0  0  0  0  0  0  0  0
    8.1721   -3.1433   -1.4351 H   0  0  0  0  0  0  0  0  0  0  0  0
  1  2  1  0
  1 25  1  0
  1 26  1  0
  1 27  1  0
  2  3  1  0
  3  8  2  0
  3  4  1  0
  4  5  2  0
  4 28  1  0
  5  6  1  0
  5 29  1  0
  6 24  1  0
  6  7  2  0
  7 17  1  0
  7  8  1  0
  8  9  1  0
  9 10  1  0
 10 17  1  0
 10 11  1  0
 10 30  1  1
 11 12  1  0
 11 31  1  0
 11 32  1  0
 12 18  1  0
 12 13  1  0
 12 33  1  6
 13 14  1  0
 13 15  1  0
 14 34  1  0
 14 35  1  0
 14 36  1  0
 15 16  1  0
 15 37  1  0
 15 38  1  0
 17 16  1  6
 16 39  1  0
 16 40  1  0
 17 18  1  0
 18 19  1  6
 18 20  1  0
 19 41  1  0
 20 21  1  0
 20 42  1  0
 20 43  1  0
 21 22  1  0
 21 44  1  0
 21 45  1  0
 22 23  2  0
 22 24  1  0
 24 46  1  0
 24 47  1  0
M  END
>  <i_m_ct_stereo_status>  (60) 
1

>  <s_m_source_file>  (60) 
/var/tmp/pbs.5076255.sched01/tmpd0mq1ayv/02wja6gfv.sdf

>  <i_m_source_file_index>  (60) 
24

>  <i_lp_mmshare_version>  (60) 
48012

>  <i_f3d_flags>  (60) 
0

>  <s_epik_input>  (60) 
W0NAQF0xMjNjNGM1W2NIXVtjSF1jKE9bQ0gzXSljNE9bQ0BASF0xW0NIMl1bQ0BIXShOKFtDSDNdKVtDSDJdW0NIMl0yKVtDQEBdMyhbT0hdKVtDSDJdW0NIMl1DKD1PKVtDSDJdNQ==

>  <s_epik_cmdline>  (60) 
J2VwaWtfcHl0aG9uJywgJy1waHQnLCAnMi4wJywgJy1waCcsICc3LjAnLCAnLXRuJywgJzgnLCAnLW1hJywgJzIwMCcsICctaW1hZScsICc8aW5maWxlLm1hZT4nLCAnLW9tYWUnLCAnPG91dGZpbGUubWFlPic=

>  <r_lp_tautomer_probability>  (60) 
1

>  <r_epik_Ionization_Penalty>  (60) 
1.64448

>  <r_epik_Ionization_Penalty_Charging>  (60) 
0

>  <r_epik_Ionization_Penalty_Neutral>  (60) 
1.64448

>  <r_epik_State_Penalty>  (60) 
1.74606

>  <r_epik_Charging_Adjusted_Penalty>  (60) 
1.74606

>  <i_epik_Tot_Q>  (60) 
0

>  <i_epik_Tot_abs_Q>  (60) 
0

>  <s_lp_Force_Field>  (60) 
OPLS3e

>  <r_lp_Energy>  (60) 
76.4732

>  <b_lp_Chiralities_Consistent>  (60) 
1

>  <s_lp_Variant>  (60) 
15:0-2

>  <s_i_glide_gridfile>  (60) 
pfpi4k_grid

>  <i_i_glide_lignum>  (60) 
24

>  <i_i_glide_rotatable_bonds>  (60) 
2

>  <r_i_docking_score>  (60) 
-3.90275

>  <r_i_glide_ligand_efficiency>  (60) 
-0.162615

>  <r_i_glide_ligand_efficiency_sa>  (60) 
-0.469062

>  <r_i_glide_ligand_efficiency_ln>  (60) 
-0.934108

>  <r_i_glide_gscore>  (60) 
-3.90275

>  <r_i_glide_lipo>  (60) 
-1.05355

>  <r_i_glide_hbond>  (60) 
-0.113773

>  <r_i_glide_metal>  (60) 
-0

>  <r_i_glide_rewards>  (60) 
-1.2554

>  <r_i_glide_evdw>  (60) 
-16.0887

>  <r_i_glide_ecoul>  (60) 
-4.50403

>  <r_i_glide_erotb>  (60) 
0

>  <r_i_glide_esite>  (60) 
0

>  <r_i_glide_emodel>  (60) 
-21.5717

>  <r_i_glide_energy>  (60) 
-20.5927

>  <r_i_glide_einternal>  (60) 
6.31412

>  <r_i_glide_intrahb_reward>  (60) 
-0

>  <i_i_glide_confnum>  (60) 
2

>  <i_i_glide_posenum>  (60) 
32

>  <r_i_glide_eff_state_penalty>  (60) 
0

>  <ligand_id>  (60) 
15

>  <original_smiles>  (60) 
COc1ccc2c3c1OC1CC4N(C)CCC31C4(O)CCC(=O)C2

>  <smiles>  (60) 
[H]OC12C([H])([H])C([H])([H])C(=O)C([H])([H])c3c([H])c([H])c(OC([H])([H])[H])c4c3C13C([H])([H])C([H])([H])N(C([H])([H])[H])C2([H])C([H])([H])C3([H])O4

$$$$
15:1:2
     RDKit          3D

 47 51  0  0  1  0  0  0  0  0999 V2000
    2.6774    0.4508   -4.9083 C   0  0  0  0  0  0  0  0  0  0  0  0
    3.7278   -0.0674   -4.1090 O   0  0  0  0  0  0  0  0  0  0  0  0
    3.4776   -1.2016   -3.3723 C   0  0  0  0  0  0  0  0  0  0  0  0
    2.3927   -2.0843   -3.5607 C   0  0  0  0  0  0  0  0  0  0  0  0
    2.1096   -3.1155   -2.6360 C   0  0  0  0  0  0  0  0  0  0  0  0
    3.0115   -3.4291   -1.6034 C   0  0  0  0  0  0  0  0  0  0  0  0
    4.1406   -2.6167   -1.5450 C   0  0  0  0  0  0  0  0  0  0  0  0
    4.3771   -1.4841   -2.3159 C   0  0  0  0  0  0  0  0  0  0  0  0
    5.4790   -0.7667   -1.9253 O   0  0  0  0  0  0  0  0  0  0  0  0
    5.6957   -1.2989   -0.6264 C   0  0  2  0  0  0  0  0  0  0  0  0
    6.9171   -1.1982    0.2742 C   0  0  0  0  0  0  0  0  0  0  0  0
    6.9153   -2.5698    0.9906 C   0  0  2  0  0  0  0  0  0  0  0  0
    7.9992   -3.4223    0.4362 N   0  0  0  0  0  0  0  0  0  0  0  0
    9.3710   -3.0997    0.8364 C   0  0  0  0  0  0  0  0  0  0  0  0
    7.9215   -3.4808   -1.0314 C   0  0  0  0  0  0  0  0  0  0  0  0
    6.4672   -3.5493   -1.5788 C   0  0  0  0  0  0  0  0  0  0  0  0
    5.4035   -2.7801   -0.7467 C   0  0  2  0  0  0  0  0  0  0  0  0
    5.5150   -3.2043    0.7292 C   0  0  1  0  0  0  0  0  0  0  0  0
    5.6096   -4.6127    0.9347 O   0  0  0  0  0  0  0  0  0  0  0  0
    4.4416   -2.6764    1.7316 C   0  0  0  0  0  0  0  0  0  0  0  0
    2.9699   -2.8377    1.3225 C   0  0  0  0  0  0  0  0  0  0  0  0
    2.6121   -4.2350    0.8221 C   0  0  0  0  0  0  0  0  0  0  0  0
    2.0599   -5.0524    1.5508 O   0  0  0  0  0  0  0  0  0  0  0  0
    2.9189   -4.5920   -0.6265 C   0  0  0  0  0  0  0  0  0  0  0  0
    3.0454    1.3453   -5.4091 H   0  0  0  0  0  0  0  0  0  0  0  0
    1.8077    0.7469   -4.3264 H   0  0  0  0  0  0  0  0  0  0  0  0
    2.3604   -0.2533   -5.6734 H   0  0  0  0  0  0  0  0  0  0  0  0
    1.6809   -1.9144   -4.3491 H   0  0  0  0  0  0  0  0  0  0  0  0
    1.2062   -3.6861   -2.7245 H   0  0  0  0  0  0  0  0  0  0  0  0
    4.9031   -0.8244   -0.0392 H   0  0  0  0  0  0  0  0  0  0  0  0
    7.8667   -1.0758   -0.2328 H   0  0  0  0  0  0  0  0  0  0  0  0
    6.7630   -0.3668    0.9539 H   0  0  0  0  0  0  0  0  0  0  0  0
    6.9546   -2.4581    2.0684 H   0  0  0  0  0  0  0  0  0  0  0  0
   10.0235   -3.8215    0.3873 H   0  0  0  0  0  0  0  0  0  0  0  0
    9.5816   -3.2885    1.8828 H   0  0  0  0  0  0  0  0  0  0  0  0
    9.6968   -2.1044    0.5125 H   0  0  0  0  0  0  0  0  0  0  0  0
    8.4194   -2.6152   -1.4734 H   0  0  0  0  0  0  0  0  0  0  0  0
    8.5689   -4.2814   -1.3843 H   0  0  0  0  0  0  0  0  0  0  0  0
    6.4780   -3.2509   -2.6258 H   0  0  0  0  0  0  0  0  0  0  0  0
    6.0537   -4.5688   -1.5320 H   0  0  0  0  0  0  0  0  0  0  0  0
    5.8204   -4.7524    1.8450 H   0  0  0  0  0  0  0  0  0  0  0  0
    4.5783   -3.1769    2.6874 H   0  0  0  0  0  0  0  0  0  0  0  0
    4.6043   -1.6181    1.9514 H   0  0  0  0  0  0  0  0  0  0  0  0
    2.3216   -2.6084    2.1591 H   0  0  0  0  0  0  0  0  0  0  0  0
    2.7134   -2.1166    0.5541 H   0  0  0  0  0  0  0  0  0  0  0  0
    2.0244   -5.1189   -0.9186 H   0  0  0  0  0  0  0  0  0  0  0  0
    3.7607   -5.2852   -0.7131 H   0  0  0  0  0  0  0  0  0  0  0  0
  1  2  1  0
  1 25  1  0
  1 26  1  0
  1 27  1  0
  2  3  1  0
  3  8  2  0
  3  4  1  0
  4  5  2  0
  4 28  1  0
  5  6  1  0
  5 29  1  0
  6 24  1  0
  6  7  2  0
  7 17  1  0
  7  8  1  0
  8  9  1  0
  9 10  1  0
 10 17  1  0
 10 11  1  0
 10 30  1  1
 11 12  1  0
 11 31  1  0
 11 32  1  0
 12 18  1  0
 12 13  1  0
 12 33  1  1
 13 14  1  0
 13 15  1  0
 14 34  1  0
 14 35  1  0
 14 36  1  0
 15 16  1  0
 15 37  1  0
 15 38  1  0
 17 16  1  6
 16 39  1  0
 16 40  1  0
 17 18  1  0
 18 19  1  6
 18 20  1  0
 19 41  1  0
 20 21  1  0
 20 42  1  0
 20 43  1  0
 21 22  1  0
 21 44  1  0
 21 45  1  0
 22 23  2  0
 22 24  1  0
 24 46  1  0
 24 47  1  0
M  END
>  <i_m_ct_stereo_status>  (61) 
1

>  <s_m_source_file>  (61) 
/var/tmp/pbs.5076255.sched01/tmpd0mq1ayv/02wja6gfv.sdf

>  <i_m_source_file_index>  (61) 
24

>  <i_lp_mmshare_version>  (61) 
48012

>  <i_f3d_flags>  (61) 
0

>  <s_epik_input>  (61) 
W0NAQF0xMjNjNGM1W2NIXVtjSF1jKE9bQ0gzXSljNE9bQ0BASF0xW0NIMl1bQ0BIXShOKFtDSDNdKVtDSDJdW0NIMl0yKVtDQEBdMyhbT0hdKVtDSDJdW0NIMl1DKD1PKVtDSDJdNQ==

>  <s_epik_cmdline>  (61) 
J2VwaWtfcHl0aG9uJywgJy1waHQnLCAnMi4wJywgJy1waCcsICc3LjAnLCAnLXRuJywgJzgnLCAnLW1hJywgJzIwMCcsICctaW1hZScsICc8aW5maWxlLm1hZT4nLCAnLW9tYWUnLCAnPG91dGZpbGUubWFlPic=

>  <r_lp_tautomer_probability>  (61) 
1

>  <r_epik_Ionization_Penalty>  (61) 
1.64448

>  <r_epik_Ionization_Penalty_Charging>  (61) 
0

>  <r_epik_Ionization_Penalty_Neutral>  (61) 
1.64448

>  <r_epik_State_Penalty>  (61) 
1.74606

>  <r_epik_Charging_Adjusted_Penalty>  (61) 
1.74606

>  <i_epik_Tot_Q>  (61) 
0

>  <i_epik_Tot_abs_Q>  (61) 
0

>  <s_lp_Force_Field>  (61) 
OPLS3e

>  <r_lp_Energy>  (61) 
76.4732

>  <b_lp_Chiralities_Consistent>  (61) 
1

>  <s_lp_Variant>  (61) 
15:0-2

>  <s_i_glide_gridfile>  (61) 
pfpi4k_grid

>  <i_i_glide_lignum>  (61) 
24

>  <i_i_glide_rotatable_bonds>  (61) 
2

>  <r_i_docking_score>  (61) 
-3.20099

>  <r_i_glide_ligand_efficiency>  (61) 
-0.133375

>  <r_i_glide_ligand_efficiency_sa>  (61) 
-0.384719

>  <r_i_glide_ligand_efficiency_ln>  (61) 
-0.766144

>  <r_i_glide_gscore>  (61) 
-3.20099

>  <r_i_glide_lipo>  (61) 
-0.964218

>  <r_i_glide_hbond>  (61) 
-0.0305442

>  <r_i_glide_metal>  (61) 
-0

>  <r_i_glide_rewards>  (61) 
-1.16325

>  <r_i_glide_evdw>  (61) 
-12.6297

>  <r_i_glide_ecoul>  (61) 
-2.56525

>  <r_i_glide_erotb>  (61) 
0

>  <r_i_glide_esite>  (61) 
-0.0267089

>  <r_i_glide_emodel>  (61) 
-17.9803

>  <r_i_glide_energy>  (61) 
-15.1949

>  <r_i_glide_einternal>  (61) 
0.351691

>  <r_i_glide_intrahb_reward>  (61) 
-0

>  <i_i_glide_confnum>  (61) 
2

>  <i_i_glide_posenum>  (61) 
2

>  <r_i_glide_eff_state_penalty>  (61) 
0

>  <ligand_id>  (61) 
15

>  <original_smiles>  (61) 
COc1ccc2c3c1OC1CC4N(C)CCC31C4(O)CCC(=O)C2

>  <smiles>  (61) 
[H]OC12C([H])([H])C([H])([H])C(=O)C([H])([H])c3c([H])c([H])c(OC([H])([H])[H])c4c3C13C([H])([H])C([H])([H])N(C([H])([H])[H])C2([H])C([H])([H])C3([H])O4

$$$$
16:0:0
     RDKit          3D

102108  0  0  1  0  0  0  0  0999 V2000
    2.9441    5.0460    7.9855 C   0  0  0  0  0  0  0  0  0  0  0  0
    1.9188    4.3920    7.0399 C   0  0  0  0  0  0  0  0  0  0  0  0
    0.7935    3.7537    7.8913 C   0  0  0  0  0  0  0  0  0  0  0  0
    1.3615    5.4705    6.0923 C   0  0  0  0  0  0  0  0  0  0  0  0
    0.4240    4.8792    5.0298 C   0  0  0  0  0  0  0  0  0  0  0  0
    1.0155    3.6842    4.2318 C   0  0  2  0  0  0  0  0  0  0  0  0
    2.0639    4.2206    3.2264 C   0  0  0  0  0  0  0  0  0  0  0  0
   -0.1718    3.0374    3.4822 C   0  0  0  0  0  0  0  0  0  0  0  0
    0.1867    1.6721    2.8929 C   0  0  0  0  0  0  0  0  0  0  0  0
    0.5955    0.6359    3.9872 C   0  0  2  0  0  0  0  0  0  0  0  0
   -0.7644    0.1956    4.6098 C   0  0  0  0  0  0  0  0  0  0  0  0
    1.4771    1.3133    5.0742 C   0  0  0  0  0  0  0  0  0  0  0  0
    1.6916    2.6462    5.1592 C   0  0  0  0  0  0  0  0  0  0  0  0
    2.6239    3.3248    6.1826 C   0  0  0  0  0  0  0  0  0  0  0  0
    2.0728    0.2877    6.0526 C   0  0  0  0  0  0  0  0  0  0  0  0
    2.7856   -0.8926    5.3718 C   0  0  0  0  0  0  0  0  0  0  0  0
    1.9229   -1.6843    4.3452 C   0  0  1  0  0  0  0  0  0  0  0  0
    0.7639   -2.3908    5.1146 C   0  0  0  0  0  0  0  0  0  0  0  0
    1.3865   -0.5888    3.3372 C   0  0  2  0  0  0  0  0  0  0  0  0
    2.5538   -0.0498    2.4535 C   0  0  0  0  0  0  0  0  0  0  0  0
    3.5690   -1.0577    2.0016 C   0  0  0  0  0  0  0  0  0  0  0  0
    3.6536   -2.3157    2.4732 C   0  0  0  0  0  0  0  0  0  0  0  0
    4.5148   -3.3726    1.7732 C   0  0  2  0  0  0  0  0  0  0  0  0
    5.6938   -2.8471    0.8750 C   0  0  0  0  0  0  0  0  0  0  0  0
    6.5826   -4.0146    0.3628 C   0  0  0  0  0  0  0  0  0  0  0  0
    7.5823   -3.4546   -0.6829 C   0  0  0  0  0  0  0  0  0  0  0  0
    7.4303   -4.6393    1.5124 C   0  0  0  0  0  0  0  0  0  0  0  0
    5.6738   -5.1217   -0.2195 C   0  0  0  0  0  0  0  0  0  0  0  0
    4.5167   -5.5996    0.6470 C   0  0  0  0  0  0  0  0  0  0  0  0
    3.5954   -4.4626    1.1138 C   0  0  2  0  0  0  0  0  0  0  0  0
    2.7523   -4.0206   -0.1355 C   0  0  0  0  0  0  0  0  0  0  0  0
    1.8512   -4.7021   -0.5895 O   0  0  0  0  0  0  0  0  0  0  0  0
    3.1355   -2.8565   -0.6987 N   0  0  0  0  0  0  0  0  0  0  0  0
    3.0385   -2.6016   -2.0627 N   0  0  0  0  0  0  0  0  0  0  0  0
    3.2008   -1.1951   -2.3823 C   0  0  0  0  0  0  0  0  0  0  0  0
    3.7975   -1.1670   -3.7909 C   0  0  0  0  0  0  0  0  0  0  0  0
    4.2347   -2.4996   -4.0133 O   0  0  0  0  0  0  0  0  0  0  0  0
    4.1660   -3.1396   -2.7899 C   0  0  0  0  0  0  0  0  0  0  0  0
    2.6160   -5.0241    2.1762 C   0  0  0  0  0  0  0  0  0  0  0  0
    1.8657   -3.9252    2.9704 C   0  0  0  0  0  0  0  0  0  0  0  0
    2.7768   -2.8400    3.6193 C   0  0  2  0  0  0  0  0  0  0  0  0
    3.6698   -3.5564    4.6779 C   0  0  0  0  0  0  0  0  0  0  0  0
    2.4853    5.8310    8.5872 H   0  0  0  0  0  0  0  0  0  0  0  0
    3.7629    5.4962    7.4236 H   0  0  0  0  0  0  0  0  0  0  0  0
    3.3772    4.3144    8.6686 H   0  0  0  0  0  0  0  0  0  0  0  0
    0.0682    3.2222    7.2728 H   0  0  0  0  0  0  0  0  0  0  0  0
    0.2486    4.5103    8.4607 H   0  0  0  0  0  0  0  0  0  0  0  0
    1.2017    3.0269    8.5978 H   0  0  0  0  0  0  0  0  0  0  0  0
    0.8366    6.2392    6.6595 H   0  0  0  0  0  0  0  0  0  0  0  0
    2.1864    5.9798    5.5934 H   0  0  0  0  0  0  0  0  0  0  0  0
   -0.4931    4.5709    5.5313 H   0  0  0  0  0  0  0  0  0  0  0  0
    0.1254    5.6670    4.3356 H   0  0  0  0  0  0  0  0  0  0  0  0
    1.5959    4.8778    2.4909 H   0  0  0  0  0  0  0  0  0  0  0  0
    2.5577    3.4146    2.6808 H   0  0  0  0  0  0  0  0  0  0  0  0
    2.8514    4.8035    3.7071 H   0  0  0  0  0  0  0  0  0  0  0  0
   -1.0356    2.9542    4.1401 H   0  0  0  0  0  0  0  0  0  0  0  0
   -0.5204    3.6987    2.6931 H   0  0  0  0  0  0  0  0  0  0  0  0
   -0.6481    1.2897    2.3022 H   0  0  0  0  0  0  0  0  0  0  0  0
    0.9695    1.8728    2.1705 H   0  0  0  0  0  0  0  0  0  0  0  0
   -1.2019   -0.6398    4.0641 H   0  0  0  0  0  0  0  0  0  0  0  0
   -1.5246    0.9738    4.5946 H   0  0  0  0  0  0  0  0  0  0  0  0
   -0.6956   -0.0726    5.6592 H   0  0  0  0  0  0  0  0  0  0  0  0
    3.4286    3.7926    5.6212 H   0  0  0  0  0  0  0  0  0  0  0  0
    3.1332    2.6418    6.8469 H   0  0  0  0  0  0  0  0  0  0  0  0
    2.7869    0.7101    6.7451 H   0  0  0  0  0  0  0  0  0  0  0  0
    1.2727   -0.0601    6.6979 H   0  0  0  0  0  0  0  0  0  0  0  0
    3.6822   -0.5111    4.8820 H   0  0  0  0  0  0  0  0  0  0  0  0
    3.1424   -1.5454    6.1701 H   0  0  0  0  0  0  0  0  0  0  0  0
   -0.0697   -2.6348    4.4534 H   0  0  0  0  0  0  0  0  0  0  0  0
    0.3708   -1.8206    5.9454 H   0  0  0  0  0  0  0  0  0  0  0  0
    1.0766   -3.3210    5.5850 H   0  0  0  0  0  0  0  0  0  0  0  0
    0.6960   -1.0878    2.6543 H   0  0  0  0  0  0  0  0  0  0  0  0
    2.1525    0.3269    1.5115 H   0  0  0  0  0  0  0  0  0  0  0  0
    3.0984    0.7643    2.9346 H   0  0  0  0  0  0  0  0  0  0  0  0
    4.1867   -0.7332    1.1844 H   0  0  0  0  0  0  0  0  0  0  0  0
    5.0290   -3.8809    2.5756 H   0  0  0  0  0  0  0  0  0  0  0  0
    5.3398   -2.3198   -0.0060 H   0  0  0  0  0  0  0  0  0  0  0  0
    6.3142   -2.1271    1.4438 H   0  0  0  0  0  0  0  0  0  0  0  0
    8.2696   -4.2260   -1.0323 H   0  0  0  0  0  0  0  0  0  0  0  0
    8.1955   -2.6591   -0.2575 H   0  0  0  0  0  0  0  0  0  0  0  0
    7.0875   -3.0500   -1.5601 H   0  0  0  0  0  0  0  0  0  0  0  0
    8.1437   -5.3951    1.1304 H   0  0  0  0  0  0  0  0  0  0  0  0
    6.8047   -5.1313    2.2726 H   0  0  0  0  0  0  0  0  0  0  0  0
    8.0064   -3.8734    1.9939 H   0  0  0  0  0  0  0  0  0  0  0  0
    5.3001   -4.8346   -1.2121 H   0  0  0  0  0  0  0  0  0  0  0  0
    6.2482   -6.0397   -0.3107 H   0  0  0  0  0  0  0  0  0  0  0  0
    3.9512   -6.3454    0.0860 H   0  0  0  0  0  0  0  0  0  0  0  0
    4.9168   -6.1331    1.5064 H   0  0  0  0  0  0  0  0  0  0  0  0
    3.7442   -2.2630   -0.1372 H   0  0  0  0  0  0  0  0  0  0  0  0
    2.2443   -0.6662   -2.3612 H   0  0  0  0  0  0  0  0  0  0  0  0
    3.8974   -0.7402   -1.6713 H   0  0  0  0  0  0  0  0  0  0  0  0
    3.0375   -0.9325   -4.5293 H   0  0  0  0  0  0  0  0  0  0  0  0
    4.6056   -0.4466   -3.8735 H   0  0  0  0  0  0  0  0  0  0  0  0
    5.0440   -2.8539   -2.2142 H   0  0  0  0  0  0  0  0  0  0  0  0
    4.0358   -4.2169   -2.8712 H   0  0  0  0  0  0  0  0  0  0  0  0
    1.8869   -5.6786    1.7046 H   0  0  0  0  0  0  0  0  0  0  0  0
    3.1511   -5.6970    2.8448 H   0  0  0  0  0  0  0  0  0  0  0  0
    1.1951   -3.3906    2.3089 H   0  0  0  0  0  0  0  0  0  0  0  0
    1.2325   -4.4477    3.6884 H   0  0  0  0  0  0  0  0  0  0  0  0
    3.1281   -3.8154    5.5845 H   0  0  0  0  0  0  0  0  0  0  0  0
    4.5153   -2.9274    4.9556 H   0  0  0  0  0  0  0  0  0  0  0  0
    4.0922   -4.4990    4.3384 H   0  0  0  0  0  0  0  0  0  0  0  0
  1  2  1  0
  1 43  1  0
  1 44  1  0
  1 45  1  0
  2 14  1  0
  2  3  1  0
  2  4  1  0
  3 46  1  0
  3 47  1  0
  3 48  1  0
  4  5  1  0
  4 49  1  0
  4 50  1  0
  5  6  1  0
  5 51  1  0
  5 52  1  0
  6 13  1  0
  6  7  1  6
  6  8  1  0
  7 53  1  0
  7 54  1  0
  7 55  1  0
  8  9  1  0
  8 56  1  0
  8 57  1  0
  9 10  1  0
  9 58  1  0
  9 59  1  0
 10 19  1  0
 10 11  1  1
 10 12  1  0
 11 60  1  0
 11 61  1  0
 11 62  1  0
 12 13  2  0
 12 15  1  0
 13 14  1  0
 14 63  1  0
 14 64  1  0
 15 16  1  0
 15 65  1  0
 15 66  1  0
 16 17  1  0
 16 67  1  0
 16 68  1  0
 17 41  1  0
 17 18  1  1
 17 19  1  0
 18 69  1  0
 18 70  1  0
 18 71  1  0
 19 20  1  0
 19 72  1  6
 20 21  1  0
 20 73  1  0
 20 74  1  0
 21 22  2  0
 21 75  1  0
 22 41  1  0
 22 23  1  0
 23 30  1  0
 23 24  1  0
 23 76  1  1
 24 25  1  0
 24 77  1  0
 24 78  1  0
 25 26  1  0
 25 27  1  0
 25 28  1  0
 26 79  1  0
 26 80  1  0
 26 81  1  0
 27 82  1  0
 27 83  1  0
 27 84  1  0
 28 29  1  0
 28 85  1  0
 28 86  1  0
 29 30  1  0
 29 87  1  0
 29 88  1  0
 30 31  1  6
 30 39  1  0
 31 32  2  0
 31 33  1  0
 33 34  1  0
 33 89  1  0
 34 38  1  0
 34 35  1  0
 35 36  1  0
 35 90  1  0
 35 91  1  0
 36 37  1  0
 36 92  1  0
 36 93  1  0
 37 38  1  0
 38 94  1  0
 38 95  1  0
 39 40  1  0
 39 96  1  0
 39 97  1  0
 40 41  1  0
 40 98  1  0
 40 99  1  0
 41 42  1  1
 42100  1  0
 42101  1  0
 42102  1  0
M  END
>  <i_m_ct_stereo_status>  (62) 
1

>  <s_m_source_file>  (62) 
/var/tmp/pbs.5076255.sched01/tmpd0mq1ayv/02wja6gfv.sdf

>  <i_m_source_file_index>  (62) 
25

>  <i_lp_mmshare_version>  (62) 
48012

>  <i_f3d_flags>  (62) 
0

>  <s_epik_input>  (62) 
W0NIMl0xW0NIMl1DKFtDSDNdKShbQ0gzXSlbQ0gyXUMoW0NAXTEyW0NIM10pPUMzW0NAQF0oW0NIM10pKFtDSDJdW0NIMl0yKVtDQEBIXTRbQ0BdKFtDSDNdKShbQ0gyXVtDSDJdMylbQ0BdNShbQ0gzXSlDKD1bQ0hdW0NIMl00KVtDQEhdNltDQF0oW0NIMl1bQ0gyXTUpKFtDSDJdW0NIMl1DKFtDSDJdNikoW0NIM10pW0NIM10pQyg9TylbTkhdTjdbQ0gyXVtDSDJdT1tDSDJdNw==

>  <s_epik_cmdline>  (62) 
J2VwaWtfcHl0aG9uJywgJy1waHQnLCAnMi4wJywgJy1waCcsICc3LjAnLCAnLXRuJywgJzgnLCAnLW1hJywgJzIwMCcsICctaW1hZScsICc8aW5maWxlLm1hZT4nLCAnLW9tYWUnLCAnPG91dGZpbGUubWFlPic=

>  <r_lp_tautomer_probability>  (62) 
1

>  <r_epik_Ionization_Penalty>  (62) 
1.3623e-05

>  <r_epik_Ionization_Penalty_Charging>  (62) 
0

>  <r_epik_Ionization_Penalty_Neutral>  (62) 
1.3623e-05

>  <r_epik_State_Penalty>  (62) 
-0

>  <r_epik_Charging_Adjusted_Penalty>  (62) 
0

>  <i_epik_Tot_Q>  (62) 
0

>  <i_epik_Tot_abs_Q>  (62) 
0

>  <s_epik_Chemistry_Notes>  (62) 
This compound contains an acetal/aminal-like group ( X-CH(R)-Y where X, Y are N, S, or O) that may be acid/base labile, releasing an aldehyde.

>  <s_lp_Force_Field>  (62) 
OPLS3e

>  <r_lp_Energy>  (62) 
95.9268

>  <b_lp_Chiralities_Consistent>  (62) 
1

>  <s_lp_Variant>  (62) 
16:0-1

>  <s_i_glide_gridfile>  (62) 
pfpi4k_grid

>  <i_i_glide_lignum>  (62) 
25

>  <i_i_glide_rotatable_bonds>  (62) 
3

>  <r_i_docking_score>  (62) 
-3.08593

>  <r_i_glide_ligand_efficiency>  (62) 
-0.0734746

>  <r_i_glide_ligand_efficiency_sa>  (62) 
-0.2554

>  <r_i_glide_ligand_efficiency_ln>  (62) 
-0.651361

>  <r_i_glide_gscore>  (62) 
-3.08593

>  <r_i_glide_lipo>  (62) 
-0.755937

>  <r_i_glide_hbond>  (62) 
-0.255689

>  <r_i_glide_metal>  (62) 
-0

>  <r_i_glide_rewards>  (62) 
0

>  <r_i_glide_evdw>  (62) 
-34.2242

>  <r_i_glide_ecoul>  (62) 
-2.57769

>  <r_i_glide_erotb>  (62) 
0.0917326

>  <r_i_glide_esite>  (62) 
-0.0681764

>  <r_i_glide_emodel>  (62) 
-37.202

>  <r_i_glide_energy>  (62) 
-36.8019

>  <r_i_glide_einternal>  (62) 
11.3546

>  <r_i_glide_intrahb_reward>  (62) 
-0

>  <i_i_glide_confnum>  (62) 
4

>  <i_i_glide_posenum>  (62) 
23

>  <r_i_glide_eff_state_penalty>  (62) 
0

>  <ligand_id>  (62) 
16

>  <original_smiles>  (62) 
CC1(C)CCC2(C)CCC3(C)C(=C2C1)CCC1(C)C3CC=C2C3CC(C)(C)CCC3(C(=O)NN3CCOC3)CCC21C

>  <smiles>  (62) 
[H]C1=C2C3([H])C([H])([H])C(C([H])([H])[H])(C([H])([H])[H])C([H])([H])C([H])([H])C3(C(=O)N([H])N3C([H])([H])OC([H])([H])C3([H])[H])C([H])([H])C([H])([H])C2(C([H])([H])[H])C2(C([H])([H])[H])C([H])([H])C([H])([H])C3=C4C([H])([H])C(C([H])([H])[H])(C([H])([H])[H])C([H])([H])C([H])([H])C4(C([H])([H])[H])C([H])([H])C([H])([H])C3(C([H])([H])[H])C2([H])C1([H])[H]

$$$$
16:0:1
     RDKit          3D

102108  0  0  1  0  0  0  0  0999 V2000
    2.2471    5.9057    4.1152 C   0  0  0  0  0  0  0  0  0  0  0  0
    1.3077    4.8479    4.7277 C   0  0  0  0  0  0  0  0  0  0  0  0
    1.3681    4.9921    6.2693 C   0  0  0  0  0  0  0  0  0  0  0  0
   -0.1172    5.0803    4.2030 C   0  0  0  0  0  0  0  0  0  0  0  0
   -1.0947    3.9916    4.6708 C   0  0  0  0  0  0  0  0  0  0  0  0
   -0.6256    2.5318    4.4083 C   0  0  2  0  0  0  0  0  0  0  0  0
   -0.8035    2.2041    2.9132 C   0  0  0  0  0  0  0  0  0  0  0  0
   -1.5619    1.6245    5.2158 C   0  0  0  0  0  0  0  0  0  0  0  0
   -1.0402    0.1922    5.3192 C   0  0  0  0  0  0  0  0  0  0  0  0
    0.3526    0.1057    6.0138 C   0  0  2  0  0  0  0  0  0  0  0  0
    0.0250    0.2513    7.5291 C   0  0  0  0  0  0  0  0  0  0  0  0
    1.2711    1.2614    5.5624 C   0  0  0  0  0  0  0  0  0  0  0  0
    0.8445    2.3233    4.8097 C   0  0  0  0  0  0  0  0  0  0  0  0
    1.7533    3.4430    4.2969 C   0  0  0  0  0  0  0  0  0  0  0  0
    2.7107    1.0908    6.0428 C   0  0  0  0  0  0  0  0  0  0  0  0
    3.3268   -0.2882    5.7489 C   0  0  0  0  0  0  0  0  0  0  0  0
    2.5005   -1.5057    6.2667 C   0  0  1  0  0  0  0  0  0  0  0  0
    2.5241   -1.4723    7.8237 C   0  0  0  0  0  0  0  0  0  0  0  0
    1.0466   -1.2956    5.6847 C   0  0  2  0  0  0  0  0  0  0  0  0
    1.0581   -1.5315    4.1447 C   0  0  0  0  0  0  0  0  0  0  0  0
    1.9134   -2.6673    3.6427 C   0  0  0  0  0  0  0  0  0  0  0  0
    2.8078   -3.3285    4.3922 C   0  0  0  0  0  0  0  0  0  0  0  0
    3.4671   -4.6379    3.9196 C   0  0  2  0  0  0  0  0  0  0  0  0
    3.3942   -4.9322    2.4055 C   0  0  0  0  0  0  0  0  0  0  0  0
    4.2859   -6.1332    1.9854 C   0  0  0  0  0  0  0  0  0  0  0  0
    4.0640   -6.4344    0.4955 C   0  0  0  0  0  0  0  0  0  0  0  0
    5.7943   -5.8337    2.1585 C   0  0  0  0  0  0  0  0  0  0  0  0
    3.9099   -7.3703    2.8206 C   0  0  0  0  0  0  0  0  0  0  0  0
    3.8767   -7.0724    4.3515 C   0  0  0  0  0  0  0  0  0  0  0  0
    2.9836   -5.8510    4.7681 C   0  0  2  0  0  0  0  0  0  0  0  0
    1.4700   -6.1533    4.5642 C   0  0  0  0  0  0  0  0  0  0  0  0
    0.6101   -5.2521    4.6733 O   0  0  0  0  0  0  0  0  0  0  0  0
    1.1059   -7.4022    4.2497 N   0  0  0  0  0  0  0  0  0  0  0  0
   -0.0991   -7.6094    3.5676 N   0  0  0  0  0  0  0  0  0  0  0  0
   -0.0328   -8.5947    2.5246 C   0  0  0  0  0  0  0  0  0  0  0  0
   -1.4442   -9.1726    2.4556 C   0  0  0  0  0  0  0  0  0  0  0  0
   -2.1070   -8.6471    3.6015 O   0  0  0  0  0  0  0  0  0  0  0  0
   -1.1031   -8.1684    4.4343 C   0  0  0  0  0  0  0  0  0  0  0  0
    3.2155   -5.5031    6.2653 C   0  0  0  0  0  0  0  0  0  0  0  0
    2.6740   -4.1105    6.7142 C   0  0  0  0  0  0  0  0  0  0  0  0
    3.1545   -2.9158    5.8271 C   0  0  2  0  0  0  0  0  0  0  0  0
    4.7040   -2.8087    5.9860 C   0  0  0  0  0  0  0  0  0  0  0  0
    1.9373    6.9192    4.3745 H   0  0  0  0  0  0  0  0  0  0  0  0
    2.2463    5.8358    3.0262 H   0  0  0  0  0  0  0  0  0  0  0  0
    3.2760    5.7717    4.4516 H   0  0  0  0  0  0  0  0  0  0  0  0
    0.7674    4.2313    6.7660 H   0  0  0  0  0  0  0  0  0  0  0  0
    0.9973    5.9640    6.5991 H   0  0  0  0  0  0  0  0  0  0  0  0
    2.3875    4.8746    6.6379 H   0  0  0  0  0  0  0  0  0  0  0  0
   -0.4631    6.0650    4.5150 H   0  0  0  0  0  0  0  0  0  0  0  0
   -0.0956    5.1017    3.1124 H   0  0  0  0  0  0  0  0  0  0  0  0
   -1.2583    4.1394    5.7378 H   0  0  0  0  0  0  0  0  0  0  0  0
   -2.0648    4.1520    4.2049 H   0  0  0  0  0  0  0  0  0  0  0  0
   -1.8448    2.2489    2.5952 H   0  0  0  0  0  0  0  0  0  0  0  0
   -0.4074    1.2248    2.6487 H   0  0  0  0  0  0  0  0  0  0  0  0
   -0.2643    2.9236    2.3145 H   0  0  0  0  0  0  0  0  0  0  0  0
   -1.7395    2.0459    6.2053 H   0  0  0  0  0  0  0  0  0  0  0  0
   -2.5159    1.6206    4.7111 H   0  0  0  0  0  0  0  0  0  0  0  0
   -1.7655   -0.4284    5.8403 H   0  0  0  0  0  0  0  0  0  0  0  0
   -1.0365   -0.1697    4.2993 H   0  0  0  0  0  0  0  0  0  0  0  0
   -0.1856   -0.7121    7.9840 H   0  0  0  0  0  0  0  0  0  0  0  0
   -0.8384    0.8788    7.7287 H   0  0  0  0  0  0  0  0  0  0  0  0
    0.8175    0.7252    8.0969 H   0  0  0  0  0  0  0  0  0  0  0  0
    1.7398    3.3957    3.2117 H   0  0  0  0  0  0  0  0  0  0  0  0
    2.7970    3.3349    4.5434 H   0  0  0  0  0  0  0  0  0  0  0  0
    3.3976    1.8231    5.6482 H   0  0  0  0  0  0  0  0  0  0  0  0
    2.7169    1.2922    7.1087 H   0  0  0  0  0  0  0  0  0  0  0  0
    3.4508   -0.3650    4.6669 H   0  0  0  0  0  0  0  0  0  0  0  0
    4.3349   -0.2793    6.1654 H   0  0  0  0  0  0  0  0  0  0  0  0
    1.6959   -2.0385    8.2488 H   0  0  0  0  0  0  0  0  0  0  0  0
    2.4925   -0.4782    8.2487 H   0  0  0  0  0  0  0  0  0  0  0  0
    3.4377   -1.8858    8.2444 H   0  0  0  0  0  0  0  0  0  0  0  0
    0.4219   -2.0809    6.1096 H   0  0  0  0  0  0  0  0  0  0  0  0
    0.0635   -1.8301    3.8184 H   0  0  0  0  0  0  0  0  0  0  0  0
    1.3349   -0.6375    3.5874 H   0  0  0  0  0  0  0  0  0  0  0  0
    1.6739   -2.9761    2.6391 H   0  0  0  0  0  0  0  0  0  0  0  0
    4.5123   -4.5133    4.1158 H   0  0  0  0  0  0  0  0  0  0  0  0
    2.3598   -5.1302    2.1212 H   0  0  0  0  0  0  0  0  0  0  0  0
    3.6982   -4.0574    1.8355 H   0  0  0  0  0  0  0  0  0  0  0  0
    4.6161   -7.3196    0.1732 H   0  0  0  0  0  0  0  0  0  0  0  0
    4.3590   -5.6005   -0.1409 H   0  0  0  0  0  0  0  0  0  0  0  0
    3.0068   -6.6158    0.3120 H   0  0  0  0  0  0  0  0  0  0  0  0
    6.4044   -6.6546    1.7751 H   0  0  0  0  0  0  0  0  0  0  0  0
    6.0710   -5.7097    3.2044 H   0  0  0  0  0  0  0  0  0  0  0  0
    6.0764   -4.9213    1.6339 H   0  0  0  0  0  0  0  0  0  0  0  0
    2.9586   -7.7179    2.4242 H   0  0  0  0  0  0  0  0  0  0  0  0
    4.5879   -8.2053    2.6148 H   0  0  0  0  0  0  0  0  0  0  0  0
    3.5589   -7.9723    4.8736 H   0  0  0  0  0  0  0  0  0  0  0  0
    4.8883   -6.9128    4.7032 H   0  0  0  0  0  0  0  0  0  0  0  0
    1.8748   -8.0611    4.1208 H   0  0  0  0  0  0  0  0  0  0  0  0
    0.2672   -8.1509    1.5724 H   0  0  0  0  0  0  0  0  0  0  0  0
    0.6909   -9.3773    2.7851 H   0  0  0  0  0  0  0  0  0  0  0  0
   -1.9791   -8.8634    1.5657 H   0  0  0  0  0  0  0  0  0  0  0  0
   -1.4039  -10.2540    2.4823 H   0  0  0  0  0  0  0  0  0  0  0  0
   -0.5911   -8.9830    4.9660 H   0  0  0  0  0  0  0  0  0  0  0  0
   -1.4003   -7.3324    5.0712 H   0  0  0  0  0  0  0  0  0  0  0  0
    2.7166   -6.2566    6.8727 H   0  0  0  0  0  0  0  0  0  0  0  0
    4.2660   -5.6126    6.5078 H   0  0  0  0  0  0  0  0  0  0  0  0
    1.5847   -4.1097    6.7316 H   0  0  0  0  0  0  0  0  0  0  0  0
    2.9560   -3.9903    7.7584 H   0  0  0  0  0  0  0  0  0  0  0  0
    5.0095   -2.3830    6.9371 H   0  0  0  0  0  0  0  0  0  0  0  0
    5.1406   -2.1982    5.1969 H   0  0  0  0  0  0  0  0  0  0  0  0
    5.2191   -3.7630    5.9401 H   0  0  0  0  0  0  0  0  0  0  0  0
  1  2  1  0
  1 43  1  0
  1 44  1  0
  1 45  1  0
  2 14  1  0
  2  3  1  0
  2  4  1  0
  3 46  1  0
  3 47  1  0
  3 48  1  0
  4  5  1  0
  4 49  1  0
  4 50  1  0
  5  6  1  0
  5 51  1  0
  5 52  1  0
  6 13  1  0
  6  7  1  6
  6  8  1  0
  7 53  1  0
  7 54  1  0
  7 55  1  0
  8  9  1  0
  8 56  1  0
  8 57  1  0
  9 10  1  0
  9 58  1  0
  9 59  1  0
 10 19  1  0
 10 11  1  1
 10 12  1  0
 11 60  1  0
 11 61  1  0
 11 62  1  0
 12 13  2  0
 12 15  1  0
 13 14  1  0
 14 63  1  0
 14 64  1  0
 15 16  1  0
 15 65  1  0
 15 66  1  0
 16 17  1  0
 16 67  1  0
 16 68  1  0
 17 41  1  0
 17 18  1  1
 17 19  1  0
 18 69  1  0
 18 70  1  0
 18 71  1  0
 19 20  1  0
 19 72  1  1
 20 21  1  0
 20 73  1  0
 20 74  1  0
 21 22  2  0
 21 75  1  0
 22 41  1  0
 22 23  1  0
 23 30  1  0
 23 24  1  0
 23 76  1  1
 24 25  1  0
 24 77  1  0
 24 78  1  0
 25 26  1  0
 25 27  1  0
 25 28  1  0
 26 79  1  0
 26 80  1  0
 26 81  1  0
 27 82  1  0
 27 83  1  0
 27 84  1  0
 28 29  1  0
 28 85  1  0
 28 86  1  0
 29 30  1  0
 29 87  1  0
 29 88  1  0
 30 31  1  1
 30 39  1  0
 31 32  2  0
 31 33  1  0
 33 34  1  0
 33 89  1  0
 34 38  1  0
 34 35  1  0
 35 36  1  0
 35 90  1  0
 35 91  1  0
 36 37  1  0
 36 92  1  0
 36 93  1  0
 37 38  1  0
 38 94  1  0
 38 95  1  0
 39 40  1  0
 39 96  1  0
 39 97  1  0
 40 41  1  0
 40 98  1  0
 40 99  1  0
 41 42  1  6
 42100  1  0
 42101  1  0
 42102  1  0
M  END
>  <i_m_ct_stereo_status>  (63) 
1

>  <s_m_source_file>  (63) 
/var/tmp/pbs.5076255.sched01/tmpd0mq1ayv/02wja6gfv.sdf

>  <i_m_source_file_index>  (63) 
25

>  <i_lp_mmshare_version>  (63) 
48012

>  <i_f3d_flags>  (63) 
0

>  <s_epik_input>  (63) 
W0NIMl0xW0NIMl1DKFtDSDNdKShbQ0gzXSlbQ0gyXUMoW0NAXTEyW0NIM10pPUMzW0NAQF0oW0NIM10pKFtDSDJdW0NIMl0yKVtDQEBIXTRbQ0BdKFtDSDNdKShbQ0gyXVtDSDJdMylbQ0BdNShbQ0gzXSlDKD1bQ0hdW0NIMl00KVtDQEhdNltDQF0oW0NIMl1bQ0gyXTUpKFtDSDJdW0NIMl1DKFtDSDJdNikoW0NIM10pW0NIM10pQyg9TylbTkhdTjdbQ0gyXVtDSDJdT1tDSDJdNw==

>  <s_epik_cmdline>  (63) 
J2VwaWtfcHl0aG9uJywgJy1waHQnLCAnMi4wJywgJy1waCcsICc3LjAnLCAnLXRuJywgJzgnLCAnLW1hJywgJzIwMCcsICctaW1hZScsICc8aW5maWxlLm1hZT4nLCAnLW9tYWUnLCAnPG91dGZpbGUubWFlPic=

>  <r_lp_tautomer_probability>  (63) 
1

>  <r_epik_Ionization_Penalty>  (63) 
1.3623e-05

>  <r_epik_Ionization_Penalty_Charging>  (63) 
0

>  <r_epik_Ionization_Penalty_Neutral>  (63) 
1.3623e-05

>  <r_epik_State_Penalty>  (63) 
-0

>  <r_epik_Charging_Adjusted_Penalty>  (63) 
0

>  <i_epik_Tot_Q>  (63) 
0

>  <i_epik_Tot_abs_Q>  (63) 
0

>  <s_epik_Chemistry_Notes>  (63) 
This compound contains an acetal/aminal-like group ( X-CH(R)-Y where X, Y are N, S, or O) that may be acid/base labile, releasing an aldehyde.

>  <s_lp_Force_Field>  (63) 
OPLS3e

>  <r_lp_Energy>  (63) 
95.9268

>  <b_lp_Chiralities_Consistent>  (63) 
1

>  <s_lp_Variant>  (63) 
16:0-1

>  <s_i_glide_gridfile>  (63) 
pfpi4k_grid

>  <i_i_glide_lignum>  (63) 
25

>  <i_i_glide_rotatable_bonds>  (63) 
3

>  <r_i_docking_score>  (63) 
-2.38033

>  <r_i_glide_ligand_efficiency>  (63) 
-0.0566746

>  <r_i_glide_ligand_efficiency_sa>  (63) 
-0.197002

>  <r_i_glide_ligand_efficiency_ln>  (63) 
-0.502427

>  <r_i_glide_gscore>  (63) 
-2.38033

>  <r_i_glide_lipo>  (63) 
-0.431578

>  <r_i_glide_hbond>  (63) 
0

>  <r_i_glide_metal>  (63) 
-0

>  <r_i_glide_rewards>  (63) 
0

>  <r_i_glide_evdw>  (63) 
-35.252

>  <r_i_glide_ecoul>  (63) 
-1.22628

>  <r_i_glide_erotb>  (63) 
0.0917326

>  <r_i_glide_esite>  (63) 
-0.0939475

>  <r_i_glide_emodel>  (63) 
-38.2114

>  <r_i_glide_energy>  (63) 
-36.4783

>  <r_i_glide_einternal>  (63) 
6.11164

>  <r_i_glide_intrahb_reward>  (63) 
-0

>  <i_i_glide_confnum>  (63) 
4

>  <i_i_glide_posenum>  (63) 
7

>  <r_i_glide_eff_state_penalty>  (63) 
0

>  <ligand_id>  (63) 
16

>  <original_smiles>  (63) 
CC1(C)CCC2(C)CCC3(C)C(=C2C1)CCC1(C)C3CC=C2C3CC(C)(C)CCC3(C(=O)NN3CCOC3)CCC21C

>  <smiles>  (63) 
[H]C1=C2C3([H])C([H])([H])C(C([H])([H])[H])(C([H])([H])[H])C([H])([H])C([H])([H])C3(C(=O)N([H])N3C([H])([H])OC([H])([H])C3([H])[H])C([H])([H])C([H])([H])C2(C([H])([H])[H])C2(C([H])([H])[H])C([H])([H])C([H])([H])C3=C4C([H])([H])C(C([H])([H])[H])(C([H])([H])[H])C([H])([H])C([H])([H])C4(C([H])([H])[H])C([H])([H])C([H])([H])C3(C([H])([H])[H])C2([H])C1([H])[H]

$$$$
16:0:2
     RDKit          3D

102108  0  0  1  0  0  0  0  0999 V2000
   -1.1749   -8.7454    2.5053 C   0  0  0  0  0  0  0  0  0  0  0  0
    0.1747   -8.4165    3.1729 C   0  0  0  0  0  0  0  0  0  0  0  0
    0.1706   -9.0349    4.5974 C   0  0  0  0  0  0  0  0  0  0  0  0
    1.3171   -8.9979    2.3270 C   0  0  0  0  0  0  0  0  0  0  0  0
    2.7028   -8.6101    2.8577 C   0  0  0  0  0  0  0  0  0  0  0  0
    2.9007   -7.0872    3.1023 C   0  0  2  0  0  0  0  0  0  0  0  0
    3.0783   -6.3761    1.7368 C   0  0  0  0  0  0  0  0  0  0  0  0
    4.2057   -6.9490    3.9167 C   0  0  0  0  0  0  0  0  0  0  0  0
    4.3603   -5.5517    4.5277 C   0  0  0  0  0  0  0  0  0  0  0  0
    3.1903   -5.1670    5.4903 C   0  0  2  0  0  0  0  0  0  0  0  0
    3.5275   -5.9318    6.8094 C   0  0  0  0  0  0  0  0  0  0  0  0
    1.8357   -5.6498    4.9364 C   0  0  0  0  0  0  0  0  0  0  0  0
    1.7045   -6.4674    3.8486 C   0  0  0  0  0  0  0  0  0  0  0  0
    0.3617   -6.8985    3.2485 C   0  0  0  0  0  0  0  0  0  0  0  0
    0.6478   -5.0992    5.7327 C   0  0  0  0  0  0  0  0  0  0  0  0
    0.6757   -3.5768    5.9629 C   0  0  0  0  0  0  0  0  0  0  0  0
    1.9825   -3.0321    6.6188 C   0  0  1  0  0  0  0  0  0  0  0  0
    2.0544   -3.5782    8.0783 C   0  0  0  0  0  0  0  0  0  0  0  0
    3.1573   -3.5862    5.7152 C   0  0  2  0  0  0  0  0  0  0  0  0
    3.1441   -2.8597    4.3366 C   0  0  0  0  0  0  0  0  0  0  0  0
    2.8259   -1.3826    4.3525 C   0  0  0  0  0  0  0  0  0  0  0  0
    2.3620   -0.7205    5.4203 C   0  0  0  0  0  0  0  0  0  0  0  0
    2.3092    0.8235    5.4655 C   0  0  2  0  0  0  0  0  0  0  0  0
    2.3992    1.5657    4.1030 C   0  0  0  0  0  0  0  0  0  0  0  0
    2.1433    3.0838    4.2448 C   0  0  0  0  0  0  0  0  0  0  0  0
    2.3793    3.7743    2.8919 C   0  0  0  0  0  0  0  0  0  0  0  0
    0.6610    3.3618    4.6446 C   0  0  0  0  0  0  0  0  0  0  0  0
    3.1096    3.6693    5.2923 C   0  0  0  0  0  0  0  0  0  0  0  0
    3.0744    2.9109    6.6362 C   0  0  0  0  0  0  0  0  0  0  0  0
    3.3443    1.3819    6.4911 C   0  0  2  0  0  0  0  0  0  0  0  0
    4.8209    1.1299    6.1010 C   0  0  0  0  0  0  0  0  0  0  0  0
    5.1361    0.4575    5.1151 O   0  0  0  0  0  0  0  0  0  0  0  0
    5.7289    1.6476    6.9268 N   0  0  0  0  0  0  0  0  0  0  0  0
    7.0998    1.2828    6.7855 N   0  0  0  0  0  0  0  0  0  0  0  0
    8.0182    2.3006    7.1738 C   0  0  0  0  0  0  0  0  0  0  0  0
    9.2606    1.5506    7.6480 C   0  0  0  0  0  0  0  0  0  0  0  0
    8.8285    0.1965    7.7823 O   0  0  0  0  0  0  0  0  0  0  0  0
    7.4497    0.1891    7.6980 C   0  0  0  0  0  0  0  0  0  0  0  0
    3.0818    0.6719    7.8576 C   0  0  0  0  0  0  0  0  0  0  0  0
    3.0201   -0.8812    7.7694 C   0  0  0  0  0  0  0  0  0  0  0  0
    1.9851   -1.4196    6.7250 C   0  0  2  0  0  0  0  0  0  0  0  0
    0.5608   -0.9581    7.1755 C   0  0  0  0  0  0  0  0  0  0  0  0
   -1.3202   -9.8214    2.4038 H   0  0  0  0  0  0  0  0  0  0  0  0
   -1.2176   -8.3203    1.4968 H   0  0  0  0  0  0  0  0  0  0  0  0
   -2.0175   -8.3478    3.0664 H   0  0  0  0  0  0  0  0  0  0  0  0
    1.0799   -8.7873    5.1524 H   0  0  0  0  0  0  0  0  0  0  0  0
    0.1032  -10.1243    4.5578 H   0  0  0  0  0  0  0  0  0  0  0  0
   -0.6716   -8.6705    5.1858 H   0  0  0  0  0  0  0  0  0  0  0  0
    1.2328  -10.0828    2.2630 H   0  0  0  0  0  0  0  0  0  0  0  0
    1.2249   -8.6362    1.2993 H   0  0  0  0  0  0  0  0  0  0  0  0
    2.8576   -9.1610    3.7881 H   0  0  0  0  0  0  0  0  0  0  0  0
    3.4644   -8.9848    2.1748 H   0  0  0  0  0  0  0  0  0  0  0  0
    3.9816   -6.7076    1.2272 H   0  0  0  0  0  0  0  0  0  0  0  0
    3.1445   -5.2932    1.8575 H   0  0  0  0  0  0  0  0  0  0  0  0
    2.2463   -6.5672    1.0607 H   0  0  0  0  0  0  0  0  0  0  0  0
    4.2342   -7.7026    4.7018 H   0  0  0  0  0  0  0  0  0  0  0  0
    5.0655   -7.1704    3.2850 H   0  0  0  0  0  0  0  0  0  0  0  0
    5.3155   -5.4821    5.0478 H   0  0  0  0  0  0  0  0  0  0  0  0
    4.4499   -4.8913    3.6752 H   0  0  0  0  0  0  0  0  0  0  0  0
    4.1828   -5.3512    7.4557 H   0  0  0  0  0  0  0  0  0  0  0  0
    4.0429   -6.8745    6.6438 H   0  0  0  0  0  0  0  0  0  0  0  0
    2.6485   -6.2199    7.3799 H   0  0  0  0  0  0  0  0  0  0  0  0
    0.3212   -6.4919    2.2358 H   0  0  0  0  0  0  0  0  0  0  0  0
   -0.5119   -6.4775    3.7294 H   0  0  0  0  0  0  0  0  0  0  0  0
   -0.3191   -5.3235    5.3073 H   0  0  0  0  0  0  0  0  0  0  0  0
    0.6203   -5.6277    6.6874 H   0  0  0  0  0  0  0  0  0  0  0  0
    0.5270   -3.0953    4.9911 H   0  0  0  0  0  0  0  0  0  0  0  0
   -0.1989   -3.3282    6.5528 H   0  0  0  0  0  0  0  0  0  0  0  0
    3.0763   -3.5650    8.4609 H   0  0  0  0  0  0  0  0  0  0  0  0
    1.6774   -4.5873    8.1967 H   0  0  0  0  0  0  0  0  0  0  0  0
    1.4500   -3.0087    8.7787 H   0  0  0  0  0  0  0  0  0  0  0  0
    4.0888   -3.3034    6.2008 H   0  0  0  0  0  0  0  0  0  0  0  0
    4.1499   -2.8772    3.9115 H   0  0  0  0  0  0  0  0  0  0  0  0
    2.4750   -3.3355    3.6177 H   0  0  0  0  0  0  0  0  0  0  0  0
    3.1096   -0.8648    3.4547 H   0  0  0  0  0  0  0  0  0  0  0  0
    1.3284    1.0594    5.8324 H   0  0  0  0  0  0  0  0  0  0  0  0
    3.3888    1.4383    3.6553 H   0  0  0  0  0  0  0  0  0  0  0  0
    1.7031    1.1344    3.3879 H   0  0  0  0  0  0  0  0  0  0  0  0
    2.2020    4.8481    2.9419 H   0  0  0  0  0  0  0  0  0  0  0  0
    1.7298    3.3610    2.1204 H   0  0  0  0  0  0  0  0  0  0  0  0
    3.4096    3.6303    2.5530 H   0  0  0  0  0  0  0  0  0  0  0  0
    0.4386    4.4283    4.6355 H   0  0  0  0  0  0  0  0  0  0  0  0
    0.4237    3.0032    5.6502 H   0  0  0  0  0  0  0  0  0  0  0  0
   -0.0252    2.8664    3.9573 H   0  0  0  0  0  0  0  0  0  0  0  0
    4.1260    3.6433    4.8889 H   0  0  0  0  0  0  0  0  0  0  0  0
    2.8915    4.7263    5.4568 H   0  0  0  0  0  0  0  0  0  0  0  0
    3.8038    3.3763    7.3067 H   0  0  0  0  0  0  0  0  0  0  0  0
    2.1179    3.0751    7.1188 H   0  0  0  0  0  0  0  0  0  0  0  0
    5.4428    2.2232    7.6909 H   0  0  0  0  0  0  0  0  0  0  0  0
    8.2081    2.9653    6.3226 H   0  0  0  0  0  0  0  0  0  0  0  0
    7.5914    2.8897    7.9945 H   0  0  0  0  0  0  0  0  0  0  0  0
   10.0562    1.6042    6.9058 H   0  0  0  0  0  0  0  0  0  0  0  0
    9.6249    1.9361    8.5956 H   0  0  0  0  0  0  0  0  0  0  0  0
    7.0047    0.4517    8.6581 H   0  0  0  0  0  0  0  0  0  0  0  0
    7.0209   -0.7161    7.2634 H   0  0  0  0  0  0  0  0  0  0  0  0
    3.8804    0.9154    8.5680 H   0  0  0  0  0  0  0  0  0  0  0  0
    2.2004    1.0757    8.3322 H   0  0  0  0  0  0  0  0  0  0  0  0
    4.0098   -1.2698    7.5246 H   0  0  0  0  0  0  0  0  0  0  0  0
    2.8095   -1.2351    8.7755 H   0  0  0  0  0  0  0  0  0  0  0  0
    0.1712   -1.5255    8.0128 H   0  0  0  0  0  0  0  0  0  0  0  0
   -0.1497   -1.0415    6.3531 H   0  0  0  0  0  0  0  0  0  0  0  0
    0.5125    0.0778    7.5011 H   0  0  0  0  0  0  0  0  0  0  0  0
  1  2  1  0
  1 43  1  0
  1 44  1  0
  1 45  1  0
  2 14  1  0
  2  3  1  0
  2  4  1  0
  3 46  1  0
  3 47  1  0
  3 48  1  0
  4  5  1  0
  4 49  1  0
  4 50  1  0
  5  6  1  0
  5 51  1  0
  5 52  1  0
  6 13  1  0
  6  7  1  6
  6  8  1  0
  7 53  1  0
  7 54  1  0
  7 55  1  0
  8  9  1  0
  8 56  1  0
  8 57  1  0
  9 10  1  0
  9 58  1  0
  9 59  1  0
 10 19  1  0
 10 11  1  1
 10 12  1  0
 11 60  1  0
 11 61  1  0
 11 62  1  0
 12 13  2  0
 12 15  1  0
 13 14  1  0
 14 63  1  0
 14 64  1  0
 15 16  1  0
 15 65  1  0
 15 66  1  0
 16 17  1  0
 16 67  1  0
 16 68  1  0
 17 41  1  0
 17 18  1  1
 17 19  1  0
 18 69  1  0
 18 70  1  0
 18 71  1  0
 19 20  1  0
 19 72  1  1
 20 21  1  0
 20 73  1  0
 20 74  1  0
 21 22  2  0
 21 75  1  0
 22 41  1  0
 22 23  1  0
 23 30  1  0
 23 24  1  0
 23 76  1  1
 24 25  1  0
 24 77  1  0
 24 78  1  0
 25 26  1  0
 25 27  1  0
 25 28  1  0
 26 79  1  0
 26 80  1  0
 26 81  1  0
 27 82  1  0
 27 83  1  0
 27 84  1  0
 28 29  1  0
 28 85  1  0
 28 86  1  0
 29 30  1  0
 29 87  1  0
 29 88  1  0
 30 31  1  6
 30 39  1  0
 31 32  2  0
 31 33  1  0
 33 34  1  0
 33 89  1  0
 34 38  1  0
 34 35  1  0
 35 36  1  0
 35 90  1  0
 35 91  1  0
 36 37  1  0
 36 92  1  0
 36 93  1  0
 37 38  1  0
 38 94  1  0
 38 95  1  0
 39 40  1  0
 39 96  1  0
 39 97  1  0
 40 41  1  0
 40 98  1  0
 40 99  1  0
 41 42  1  1
 42100  1  0
 42101  1  0
 42102  1  0
M  END
>  <i_m_ct_stereo_status>  (64) 
1

>  <s_m_source_file>  (64) 
/var/tmp/pbs.5076255.sched01/tmpd0mq1ayv/02wja6gfv.sdf

>  <i_m_source_file_index>  (64) 
25

>  <i_lp_mmshare_version>  (64) 
48012

>  <i_f3d_flags>  (64) 
0

>  <s_epik_input>  (64) 
W0NIMl0xW0NIMl1DKFtDSDNdKShbQ0gzXSlbQ0gyXUMoW0NAXTEyW0NIM10pPUMzW0NAQF0oW0NIM10pKFtDSDJdW0NIMl0yKVtDQEBIXTRbQ0BdKFtDSDNdKShbQ0gyXVtDSDJdMylbQ0BdNShbQ0gzXSlDKD1bQ0hdW0NIMl00KVtDQEhdNltDQF0oW0NIMl1bQ0gyXTUpKFtDSDJdW0NIMl1DKFtDSDJdNikoW0NIM10pW0NIM10pQyg9TylbTkhdTjdbQ0gyXVtDSDJdT1tDSDJdNw==

>  <s_epik_cmdline>  (64) 
J2VwaWtfcHl0aG9uJywgJy1waHQnLCAnMi4wJywgJy1waCcsICc3LjAnLCAnLXRuJywgJzgnLCAnLW1hJywgJzIwMCcsICctaW1hZScsICc8aW5maWxlLm1hZT4nLCAnLW9tYWUnLCAnPG91dGZpbGUubWFlPic=

>  <r_lp_tautomer_probability>  (64) 
1

>  <r_epik_Ionization_Penalty>  (64) 
1.3623e-05

>  <r_epik_Ionization_Penalty_Charging>  (64) 
0

>  <r_epik_Ionization_Penalty_Neutral>  (64) 
1.3623e-05

>  <r_epik_State_Penalty>  (64) 
-0

>  <r_epik_Charging_Adjusted_Penalty>  (64) 
0

>  <i_epik_Tot_Q>  (64) 
0

>  <i_epik_Tot_abs_Q>  (64) 
0

>  <s_epik_Chemistry_Notes>  (64) 
This compound contains an acetal/aminal-like group ( X-CH(R)-Y where X, Y are N, S, or O) that may be acid/base labile, releasing an aldehyde.

>  <s_lp_Force_Field>  (64) 
OPLS3e

>  <r_lp_Energy>  (64) 
95.9268

>  <b_lp_Chiralities_Consistent>  (64) 
1

>  <s_lp_Variant>  (64) 
16:0-1

>  <s_i_glide_gridfile>  (64) 
pfpi4k_grid

>  <i_i_glide_lignum>  (64) 
25

>  <i_i_glide_rotatable_bonds>  (64) 
3

>  <r_i_docking_score>  (64) 
-1.87641

>  <r_i_glide_ligand_efficiency>  (64) 
-0.0446763

>  <r_i_glide_ligand_efficiency_sa>  (64) 
-0.155296

>  <r_i_glide_ligand_efficiency_ln>  (64) 
-0.396061

>  <r_i_glide_gscore>  (64) 
-1.87641

>  <r_i_glide_lipo>  (64) 
-0.187821

>  <r_i_glide_hbond>  (64) 
0

>  <r_i_glide_metal>  (64) 
-0

>  <r_i_glide_rewards>  (64) 
-0.0962994

>  <r_i_glide_evdw>  (64) 
-32.6565

>  <r_i_glide_ecoul>  (64) 
-0.341308

>  <r_i_glide_erotb>  (64) 
0.0917326

>  <r_i_glide_esite>  (64) 
0

>  <r_i_glide_emodel>  (64) 
-36.7694

>  <r_i_glide_energy>  (64) 
-32.9978

>  <r_i_glide_einternal>  (64) 
0.733659

>  <r_i_glide_intrahb_reward>  (64) 
-0

>  <i_i_glide_confnum>  (64) 
4

>  <i_i_glide_posenum>  (64) 
3

>  <r_i_glide_eff_state_penalty>  (64) 
0

>  <ligand_id>  (64) 
16

>  <original_smiles>  (64) 
CC1(C)CCC2(C)CCC3(C)C(=C2C1)CCC1(C)C3CC=C2C3CC(C)(C)CCC3(C(=O)NN3CCOC3)CCC21C

>  <smiles>  (64) 
[H]C1=C2C3([H])C([H])([H])C(C([H])([H])[H])(C([H])([H])[H])C([H])([H])C([H])([H])C3(C(=O)N([H])N3C([H])([H])OC([H])([H])C3([H])[H])C([H])([H])C([H])([H])C2(C([H])([H])[H])C2(C([H])([H])[H])C([H])([H])C([H])([H])C3=C4C([H])([H])C(C([H])([H])[H])(C([H])([H])[H])C([H])([H])C([H])([H])C4(C([H])([H])[H])C([H])([H])C([H])([H])C3(C([H])([H])[H])C2([H])C1([H])[H]

$$$$
17:0:0
     RDKit          3D

 44 49  0  0  1  0  0  0  0  0999 V2000
    0.5386   -6.8039    2.4000 C   0  0  0  0  0  0  0  0  0  0  0  0
    1.0226   -5.8776    1.4387 O   0  0  0  0  0  0  0  0  0  0  0  0
    2.3807   -5.6444    1.3823 C   0  0  0  0  0  0  0  0  0  0  0  0
    3.3406   -6.1280    2.3147 C   0  0  0  0  0  0  0  0  0  0  0  0
    4.6846   -5.6537    2.2960 C   0  0  0  0  0  0  0  0  0  0  0  0
    5.1564   -4.8434    1.2325 C   0  0  0  0  0  0  0  0  0  0  0  0
    4.1816   -4.6207    0.2322 C   0  0  0  0  0  0  0  0  0  0  0  0
    2.8173   -4.7926    0.3485 C   0  0  0  0  0  0  0  0  0  0  0  0
    2.0728   -3.9288   -0.4075 O   0  0  0  0  0  0  0  0  0  0  0  0
    2.9448   -3.0921   -1.1946 C   0  0  1  0  0  0  0  0  0  0  0  0
    3.4980   -1.6803   -0.7767 C   0  0  1  0  0  0  0  0  0  0  0  0
    3.0140   -0.8503    0.4438 C   0  0  0  0  0  0  0  0  0  0  0  0
    4.1664   -0.1042    1.1933 C   0  0  0  0  0  0  0  0  0  0  0  0
    5.3463   -0.9487    1.5585 N   0  0  1  0  0  0  0  0  0  0  0  0
    5.6197   -0.8468    3.0012 C   0  0  0  0  0  0  0  0  0  0  0  0
    5.1581   -2.3263    1.0485 C   0  0  2  0  0  0  0  0  0  0  0  0
    6.0391   -3.5626    1.3920 C   0  0  0  0  0  0  0  0  0  0  0  0
    4.8335   -2.3263   -0.4436 C   0  0  2  0  0  0  0  0  0  0  0  0
    5.5492   -1.4008   -1.4421 C   0  0  0  0  0  0  0  0  0  0  0  0
    4.1925   -0.9345   -1.9311 C   0  0  0  0  0  0  0  0  0  0  0  0
    4.3369   -3.6709   -0.9021 C   0  0  1  0  0  0  0  0  0  0  0  0
    5.0088   -4.2555   -1.9929 O   0  0  0  0  0  0  0  0  0  0  0  0
   -0.5461   -6.8615    2.3161 H   0  0  0  0  0  0  0  0  0  0  0  0
    0.7693   -6.4890    3.4184 H   0  0  0  0  0  0  0  0  0  0  0  0
    0.9385   -7.7994    2.2152 H   0  0  0  0  0  0  0  0  0  0  0  0
    3.0287   -6.7388    3.1459 H   0  0  0  0  0  0  0  0  0  0  0  0
    5.3019   -5.8037    3.1729 H   0  0  0  0  0  0  0  0  0  0  0  0
    2.6659   -3.1210   -2.2464 H   0  0  0  0  0  0  0  0  0  0  0  0
    2.3060   -0.0677    0.1665 H   0  0  0  0  0  0  0  0  0  0  0  0
    2.4463   -1.4896    1.1350 H   0  0  0  0  0  0  0  0  0  0  0  0
    4.5029    0.7289    0.5838 H   0  0  0  0  0  0  0  0  0  0  0  0
    3.7312    0.3637    2.0746 H   0  0  0  0  0  0  0  0  0  0  0  0
    4.8618   -1.3272    3.6224 H   0  0  0  0  0  0  0  0  0  0  0  0
    5.7421    0.1806    3.3468 H   0  0  0  0  0  0  0  0  0  0  0  0
    6.5611   -1.3216    3.1575 H   0  0  0  0  0  0  0  0  0  0  0  0
    4.2711   -2.5881    1.6292 H   0  0  0  0  0  0  0  0  0  0  0  0
    6.3573   -3.5324    2.4310 H   0  0  0  0  0  0  0  0  0  0  0  0
    6.9325   -3.6384    0.7678 H   0  0  0  0  0  0  0  0  0  0  0  0
    6.1140   -0.6017   -0.9667 H   0  0  0  0  0  0  0  0  0  0  0  0
    6.1099   -1.9104   -2.2237 H   0  0  0  0  0  0  0  0  0  0  0  0
    3.9012   -1.3242   -2.9019 H   0  0  0  0  0  0  0  0  0  0  0  0
    4.1336    0.1514   -1.9229 H   0  0  0  0  0  0  0  0  0  0  0  0
    4.4356   -4.9324   -2.3089 H   0  0  0  0  0  0  0  0  0  0  0  0
    6.1436   -0.5369    1.1008 H   0  0  0  0  0  0  0  0  0  0  0  0
  1  2  1  0
  1 23  1  0
  1 24  1  0
  1 25  1  0
  2  3  1  0
  3  8  2  0
  3  4  1  0
  4  5  2  0
  4 26  1  0
  5  6  1  0
  5 27  1  0
  6 17  1  0
  6  7  2  0
  7 21  1  0
  7  8  1  0
  8  9  1  0
  9 10  1  0
 10 21  1  0
 10 11  1  0
 10 28  1  6
 11 18  1  0
 11 20  1  6
 11 12  1  0
 12 13  1  0
 12 29  1  0
 12 30  1  0
 13 14  1  0
 13 31  1  0
 13 32  1  0
 14 15  1  0
 14 16  1  0
 14 44  1  6
 15 33  1  0
 15 34  1  0
 15 35  1  0
 16 17  1  0
 16 18  1  0
 16 36  1  1
 17 37  1  0
 17 38  1  0
 18 19  1  6
 18 21  1  0
 19 20  1  0
 19 39  1  0
 19 40  1  0
 20 41  1  0
 20 42  1  0
 21 22  1  6
 22 43  1  0
M  CHG  1  14   1
M  END
>  <i_m_ct_stereo_status>  (65) 
1

>  <s_m_source_file>  (65) 
/var/tmp/pbs.5076255.sched01/tmpd0mq1ayv/02wja6gfv.sdf

>  <i_m_source_file_index>  (65) 
26

>  <i_lp_mmshare_version>  (65) 
48012

>  <i_f3d_flags>  (65) 
0

>  <s_epik_input>  (65) 
W09IXVtDQEBdMTJbQ0BIXTNPYyhjKE9bQ0gzXSlbY0hdW2NIXTQpYzFjNFtDSDJdW0NAQEhdKE4oW0NIM10pW0NIMl1bQ0gyXTUpW0NAQF0yKFtDQEBdMzU2KVtDSDJdW0NIMl02

>  <s_epik_cmdline>  (65) 
J2VwaWtfcHl0aG9uJywgJy1waHQnLCAnMi4wJywgJy1waCcsICc3LjAnLCAnLXRuJywgJzgnLCAnLW1hJywgJzIwMCcsICctaW1hZScsICc8aW5maWxlLm1hZT4nLCAnLW9tYWUnLCAnPG91dGZpbGUubWFlPic=

>  <r_lp_tautomer_probability>  (65) 
1

>  <r_epik_Ionization_Penalty>  (65) 
0.0125842

>  <r_epik_Ionization_Penalty_Charging>  (65) 
0.0125822

>  <r_epik_Ionization_Penalty_Neutral>  (65) 
1.99024e-06

>  <r_epik_State_Penalty>  (65) 
0.00974742

>  <r_epik_Charging_Adjusted_Penalty>  (65) 
0.0223296

>  <i_epik_Tot_Q>  (65) 
1

>  <i_epik_Tot_abs_Q>  (65) 
1

>  <s_lp_Force_Field>  (65) 
OPLS3e

>  <r_lp_Energy>  (65) 
114.22

>  <b_lp_Chiralities_Consistent>  (65) 
1

>  <s_lp_Variant>  (65) 
17:0-1

>  <s_i_glide_gridfile>  (65) 
pfpi4k_grid

>  <i_i_glide_lignum>  (65) 
26

>  <i_i_glide_rotatable_bonds>  (65) 
2

>  <r_i_docking_score>  (65) 
-3.66828

>  <r_i_glide_ligand_efficiency>  (65) 
-0.16674

>  <r_i_glide_ligand_efficiency_sa>  (65) 
-0.467212

>  <r_i_glide_ligand_efficiency_ln>  (65) 
-0.896661

>  <r_i_glide_gscore>  (65) 
-3.66828

>  <r_i_glide_lipo>  (65) 
-0.370437

>  <r_i_glide_hbond>  (65) 
-0.152792

>  <r_i_glide_metal>  (65) 
-0

>  <r_i_glide_rewards>  (65) 
-1.3611

>  <r_i_glide_evdw>  (65) 
-12.7501

>  <r_i_glide_ecoul>  (65) 
-7.64298

>  <r_i_glide_erotb>  (65) 
0

>  <r_i_glide_esite>  (65) 
0

>  <r_i_glide_emodel>  (65) 
-24.776

>  <r_i_glide_energy>  (65) 
-20.3931

>  <r_i_glide_einternal>  (65) 
1.90917

>  <r_i_glide_intrahb_reward>  (65) 
-0

>  <i_i_glide_confnum>  (65) 
2

>  <i_i_glide_posenum>  (65) 
20

>  <r_i_glide_eff_state_penalty>  (65) 
0

>  <ligand_id>  (65) 
17

>  <original_smiles>  (65) 
COc1ccc2c3c1OC1C45CCN(C)C(C2)C4(CC5)C31O

>  <smiles>  (65) 
[H]OC12c3c4c(OC([H])([H])[H])c([H])c([H])c3C([H])([H])C3([H])C15C([H])([H])C([H])([H])C5(C([H])([H])C([H])([H])[N+]3([H])C([H])([H])[H])C2([H])O4

$$$$
17:0:1
     RDKit          3D

 44 49  0  0  1  0  0  0  0  0999 V2000
    0.0654   -7.2777    1.5897 C   0  0  0  0  0  0  0  0  0  0  0  0
    0.7572   -6.2629    0.8810 O   0  0  0  0  0  0  0  0  0  0  0  0
    2.0958   -6.0744    1.1541 C   0  0  0  0  0  0  0  0  0  0  0  0
    2.8381   -6.7587    2.1555 C   0  0  0  0  0  0  0  0  0  0  0  0
    4.1526   -6.3393    2.5044 C   0  0  0  0  0  0  0  0  0  0  0  0
    4.8234   -5.3560    1.7367 C   0  0  0  0  0  0  0  0  0  0  0  0
    4.0995   -4.9275    0.6029 C   0  0  0  0  0  0  0  0  0  0  0  0
    2.7430   -5.0729    0.4123 C   0  0  0  0  0  0  0  0  0  0  0  0
    2.1731   -4.0644   -0.3202 O   0  0  0  0  0  0  0  0  0  0  0  0
    3.1895   -3.1284   -0.7365 C   0  0  1  0  0  0  0  0  0  0  0  0
    3.6320   -1.8398    0.0500 C   0  0  1  0  0  0  0  0  0  0  0  0
    2.8698   -1.2154    1.2428 C   0  0  0  0  0  0  0  0  0  0  0  0
    3.8428   -0.6715    2.3676 C   0  0  0  0  0  0  0  0  0  0  0  0
    4.9430   -1.6126    2.8229 N   0  0  1  0  0  0  0  0  0  0  0  0
    4.9291   -1.8159    4.2972 C   0  0  0  0  0  0  0  0  0  0  0  0
    4.8748   -2.8701    2.0343 C   0  0  2  0  0  0  0  0  0  0  0  0
    5.6677   -4.1826    2.3221 C   0  0  0  0  0  0  0  0  0  0  0  0
    4.8760   -2.5765    0.5310 C   0  0  2  0  0  0  0  0  0  0  0  0
    5.7749   -1.4963   -0.1058 C   0  0  0  0  0  0  0  0  0  0  0  0
    4.5357   -0.9023   -0.7604 C   0  0  0  0  0  0  0  0  0  0  0  0
    4.4961   -3.7951   -0.2801 C   0  0  1  0  0  0  0  0  0  0  0  0
    5.3856   -4.1871   -1.2947 O   0  0  0  0  0  0  0  0  0  0  0  0
   -0.9753   -7.3022    1.2645 H   0  0  0  0  0  0  0  0  0  0  0  0
    0.0654   -7.0860    2.6629 H   0  0  0  0  0  0  0  0  0  0  0  0
    0.4978   -8.2569    1.3905 H   0  0  0  0  0  0  0  0  0  0  0  0
    2.3628   -7.5046    2.7695 H   0  0  0  0  0  0  0  0  0  0  0  0
    4.5726   -6.6737    3.4451 H   0  0  0  0  0  0  0  0  0  0  0  0
    3.1371   -2.9546   -1.8131 H   0  0  0  0  0  0  0  0  0  0  0  0
    2.2383   -0.3942    0.8971 H   0  0  0  0  0  0  0  0  0  0  0  0
    2.1798   -1.9491    1.6714 H   0  0  0  0  0  0  0  0  0  0  0  0
    4.3120    0.2497    2.0148 H   0  0  0  0  0  0  0  0  0  0  0  0
    3.2341   -0.3614    3.2162 H   0  0  0  0  0  0  0  0  0  0  0  0
    4.0295   -2.3415    4.6210 H   0  0  0  0  0  0  0  0  0  0  0  0
    4.9612   -0.8613    4.8274 H   0  0  0  0  0  0  0  0  0  0  0  0
    5.7952   -2.3897    4.6270 H   0  0  0  0  0  0  0  0  0  0  0  0
    3.8806   -3.1863    2.3484 H   0  0  0  0  0  0  0  0  0  0  0  0
    5.7748   -4.3387    3.3940 H   0  0  0  0  0  0  0  0  0  0  0  0
    6.6687   -4.1661    1.8856 H   0  0  0  0  0  0  0  0  0  0  0  0
    6.2515   -0.8097    0.5950 H   0  0  0  0  0  0  0  0  0  0  0  0
    6.4960   -1.8830   -0.8282 H   0  0  0  0  0  0  0  0  0  0  0  0
    4.4753   -1.0873   -1.8315 H   0  0  0  0  0  0  0  0  0  0  0  0
    4.3731    0.1449   -0.5256 H   0  0  0  0  0  0  0  0  0  0  0  0
    4.9078   -4.8087   -1.8271 H   0  0  0  0  0  0  0  0  0  0  0  0
    5.8122   -1.1475    2.6091 H   0  0  0  0  0  0  0  0  0  0  0  0
  1  2  1  0
  1 23  1  0
  1 24  1  0
  1 25  1  0
  2  3  1  0
  3  8  2  0
  3  4  1  0
  4  5  2  0
  4 26  1  0
  5  6  1  0
  5 27  1  0
  6 17  1  0
  6  7  2  0
  7 21  1  0
  7  8  1  0
  8  9  1  0
  9 10  1  0
 10 21  1  0
 10 11  1  0
 10 28  1  6
 11 18  1  0
 11 20  1  6
 11 12  1  0
 12 13  1  0
 12 29  1  0
 12 30  1  0
 13 14  1  0
 13 31  1  0
 13 32  1  0
 14 15  1  0
 14 16  1  0
 14 44  1  1
 15 33  1  0
 15 34  1  0
 15 35  1  0
 16 17  1  0
 16 18  1  0
 16 36  1  1
 17 37  1  0
 17 38  1  0
 18 19  1  6
 18 21  1  0
 19 20  1  0
 19 39  1  0
 19 40  1  0
 20 41  1  0
 20 42  1  0
 21 22  1  6
 22 43  1  0
M  CHG  1  14   1
M  END
>  <i_m_ct_stereo_status>  (66) 
1

>  <s_m_source_file>  (66) 
/var/tmp/pbs.5076255.sched01/tmpd0mq1ayv/02wja6gfv.sdf

>  <i_m_source_file_index>  (66) 
26

>  <i_lp_mmshare_version>  (66) 
48012

>  <i_f3d_flags>  (66) 
0

>  <s_epik_input>  (66) 
W09IXVtDQEBdMTJbQ0BIXTNPYyhjKE9bQ0gzXSlbY0hdW2NIXTQpYzFjNFtDSDJdW0NAQEhdKE4oW0NIM10pW0NIMl1bQ0gyXTUpW0NAQF0yKFtDQEBdMzU2KVtDSDJdW0NIMl02

>  <s_epik_cmdline>  (66) 
J2VwaWtfcHl0aG9uJywgJy1waHQnLCAnMi4wJywgJy1waCcsICc3LjAnLCAnLXRuJywgJzgnLCAnLW1hJywgJzIwMCcsICctaW1hZScsICc8aW5maWxlLm1hZT4nLCAnLW9tYWUnLCAnPG91dGZpbGUubWFlPic=

>  <r_lp_tautomer_probability>  (66) 
1

>  <r_epik_Ionization_Penalty>  (66) 
0.0125842

>  <r_epik_Ionization_Penalty_Charging>  (66) 
0.0125822

>  <r_epik_Ionization_Penalty_Neutral>  (66) 
1.99024e-06

>  <r_epik_State_Penalty>  (66) 
0.00974742

>  <r_epik_Charging_Adjusted_Penalty>  (66) 
0.0223296

>  <i_epik_Tot_Q>  (66) 
1

>  <i_epik_Tot_abs_Q>  (66) 
1

>  <s_lp_Force_Field>  (66) 
OPLS3e

>  <r_lp_Energy>  (66) 
114.22

>  <b_lp_Chiralities_Consistent>  (66) 
1

>  <s_lp_Variant>  (66) 
17:0-1

>  <s_i_glide_gridfile>  (66) 
pfpi4k_grid

>  <i_i_glide_lignum>  (66) 
26

>  <i_i_glide_rotatable_bonds>  (66) 
2

>  <r_i_docking_score>  (66) 
-3.5602

>  <r_i_glide_ligand_efficiency>  (66) 
-0.161827

>  <r_i_glide_ligand_efficiency_sa>  (66) 
-0.453447

>  <r_i_glide_ligand_efficiency_ln>  (66) 
-0.870244

>  <r_i_glide_gscore>  (66) 
-3.5602

>  <r_i_glide_lipo>  (66) 
-0.234725

>  <r_i_glide_hbond>  (66) 
-0.16

>  <r_i_glide_metal>  (66) 
-0

>  <r_i_glide_rewards>  (66) 
-1.3611

>  <r_i_glide_evdw>  (66) 
-18.1052

>  <r_i_glide_ecoul>  (66) 
-5.99415

>  <r_i_glide_erotb>  (66) 
0

>  <r_i_glide_esite>  (66) 
0

>  <r_i_glide_emodel>  (66) 
-28.5435

>  <r_i_glide_energy>  (66) 
-24.0993

>  <r_i_glide_einternal>  (66) 
1.79667

>  <r_i_glide_intrahb_reward>  (66) 
-0

>  <i_i_glide_confnum>  (66) 
1

>  <i_i_glide_posenum>  (66) 
18

>  <r_i_glide_eff_state_penalty>  (66) 
0

>  <ligand_id>  (66) 
17

>  <original_smiles>  (66) 
COc1ccc2c3c1OC1C45CCN(C)C(C2)C4(CC5)C31O

>  <smiles>  (66) 
[H]OC12c3c4c(OC([H])([H])[H])c([H])c([H])c3C([H])([H])C3([H])C15C([H])([H])C([H])([H])C5(C([H])([H])C([H])([H])[N+]3([H])C([H])([H])[H])C2([H])O4

$$$$
17:0:2
     RDKit          3D

 44 49  0  0  1  0  0  0  0  0999 V2000
    0.1726   -7.4264    1.6287 C   0  0  0  0  0  0  0  0  0  0  0  0
    0.8508   -6.4028    0.9206 O   0  0  0  0  0  0  0  0  0  0  0  0
    2.1858   -6.1912    1.1922 C   0  0  0  0  0  0  0  0  0  0  0  0
    2.9493   -6.8982    2.1634 C   0  0  0  0  0  0  0  0  0  0  0  0
    4.2531   -6.4561    2.5242 C   0  0  0  0  0  0  0  0  0  0  0  0
    4.8947   -5.4247    1.7988 C   0  0  0  0  0  0  0  0  0  0  0  0
    4.1578   -4.9712    0.6816 C   0  0  0  0  0  0  0  0  0  0  0  0
    2.8074   -5.1497    0.4850 C   0  0  0  0  0  0  0  0  0  0  0  0
    2.2072   -4.1224   -0.1951 O   0  0  0  0  0  0  0  0  0  0  0  0
    3.1931   -3.1507   -0.5827 C   0  0  1  0  0  0  0  0  0  0  0  0
    3.6010   -1.8811    0.2527 C   0  0  1  0  0  0  0  0  0  0  0  0
    2.8246   -1.3271    1.4727 C   0  0  0  0  0  0  0  0  0  0  0  0
    3.7865   -0.8013    2.6175 C   0  0  0  0  0  0  0  0  0  0  0  0
    4.9121   -1.7282    3.0330 N   0  0  1  0  0  0  0  0  0  0  0  0
    4.9110   -1.9920    4.4962 C   0  0  0  0  0  0  0  0  0  0  0  0
    4.8798   -2.9522    2.1928 C   0  0  2  0  0  0  0  0  0  0  0  0
    5.7076   -4.2531    2.4273 C   0  0  0  0  0  0  0  0  0  0  0  0
    4.8689   -2.5992    0.7014 C   0  0  2  0  0  0  0  0  0  0  0  0
    5.7334   -1.4680    0.1072 C   0  0  0  0  0  0  0  0  0  0  0  0
    4.4728   -0.8765   -0.5210 C   0  0  0  0  0  0  0  0  0  0  0  0
    4.5194   -3.7951   -0.1553 C   0  0  1  0  0  0  0  0  0  0  0  0
    5.4159   -4.1302   -1.1812 O   0  0  0  0  0  0  0  0  0  0  0  0
   -0.8642   -7.4735    1.2920 H   0  0  0  0  0  0  0  0  0  0  0  0
    0.1625   -7.2257    2.6995 H   0  0  0  0  0  0  0  0  0  0  0  0
    0.6254   -8.3993    1.4492 H   0  0  0  0  0  0  0  0  0  0  0  0
    2.4966   -7.6810    2.7484 H   0  0  0  0  0  0  0  0  0  0  0  0
    4.6852   -6.8188    3.4488 H   0  0  0  0  0  0  0  0  0  0  0  0
    3.1200   -2.9386   -1.6506 H   0  0  0  0  0  0  0  0  0  0  0  0
    2.1684   -0.5112    1.1645 H   0  0  0  0  0  0  0  0  0  0  0  0
    2.1580   -2.0976    1.8731 H   0  0  0  0  0  0  0  0  0  0  0  0
    4.2298    0.1455    2.3009 H   0  0  0  0  0  0  0  0  0  0  0  0
    3.1712   -0.5419    3.4798 H   0  0  0  0  0  0  0  0  0  0  0  0
    4.0274   -2.5557    4.8012 H   0  0  0  0  0  0  0  0  0  0  0  0
    4.9180   -1.0592    5.0656 H   0  0  0  0  0  0  0  0  0  0  0  0
    5.7945   -2.5536    4.8007 H   0  0  0  0  0  0  0  0  0  0  0  0
    3.8957   -3.3085    2.4976 H   0  0  0  0  0  0  0  0  0  0  0  0
    5.8187   -4.4554    3.4923 H   0  0  0  0  0  0  0  0  0  0  0  0
    6.7060   -4.1988    1.9888 H   0  0  0  0  0  0  0  0  0  0  0  0
    6.1941   -0.7989    0.8349 H   0  0  0  0  0  0  0  0  0  0  0  0
    6.4645   -1.8070   -0.6288 H   0  0  0  0  0  0  0  0  0  0  0  0
    4.4112   -1.0288   -1.6006 H   0  0  0  0  0  0  0  0  0  0  0  0
    4.2812    0.1595   -0.2556 H   0  0  0  0  0  0  0  0  0  0  0  0
    5.4292   -3.3966   -1.7744 H   0  0  0  0  0  0  0  0  0  0  0  0
    5.7692   -1.2310    2.8365 H   0  0  0  0  0  0  0  0  0  0  0  0
  1  2  1  0
  1 23  1  0
  1 24  1  0
  1 25  1  0
  2  3  1  0
  3  8  2  0
  3  4  1  0
  4  5  2  0
  4 26  1  0
  5  6  1  0
  5 27  1  0
  6 17  1  0
  6  7  2  0
  7 21  1  0
  7  8  1  0
  8  9  1  0
  9 10  1  0
 10 21  1  0
 10 11  1  0
 10 28  1  6
 11 18  1  0
 11 20  1  6
 11 12  1  0
 12 13  1  0
 12 29  1  0
 12 30  1  0
 13 14  1  0
 13 31  1  0
 13 32  1  0
 14 15  1  0
 14 16  1  0
 14 44  1  6
 15 33  1  0
 15 34  1  0
 15 35  1  0
 16 17  1  0
 16 18  1  0
 16 36  1  1
 17 37  1  0
 17 38  1  0
 18 19  1  6
 18 21  1  0
 19 20  1  0
 19 39  1  0
 19 40  1  0
 20 41  1  0
 20 42  1  0
 21 22  1  6
 22 43  1  0
M  CHG  1  14   1
M  END
>  <i_m_ct_stereo_status>  (67) 
1

>  <s_m_source_file>  (67) 
/var/tmp/pbs.5076255.sched01/tmpd0mq1ayv/02wja6gfv.sdf

>  <i_m_source_file_index>  (67) 
26

>  <i_lp_mmshare_version>  (67) 
48012

>  <i_f3d_flags>  (67) 
0

>  <s_epik_input>  (67) 
W09IXVtDQEBdMTJbQ0BIXTNPYyhjKE9bQ0gzXSlbY0hdW2NIXTQpYzFjNFtDSDJdW0NAQEhdKE4oW0NIM10pW0NIMl1bQ0gyXTUpW0NAQF0yKFtDQEBdMzU2KVtDSDJdW0NIMl02

>  <s_epik_cmdline>  (67) 
J2VwaWtfcHl0aG9uJywgJy1waHQnLCAnMi4wJywgJy1waCcsICc3LjAnLCAnLXRuJywgJzgnLCAnLW1hJywgJzIwMCcsICctaW1hZScsICc8aW5maWxlLm1hZT4nLCAnLW9tYWUnLCAnPG91dGZpbGUubWFlPic=

>  <r_lp_tautomer_probability>  (67) 
1

>  <r_epik_Ionization_Penalty>  (67) 
0.0125842

>  <r_epik_Ionization_Penalty_Charging>  (67) 
0.0125822

>  <r_epik_Ionization_Penalty_Neutral>  (67) 
1.99024e-06

>  <r_epik_State_Penalty>  (67) 
0.00974742

>  <r_epik_Charging_Adjusted_Penalty>  (67) 
0.0223296

>  <i_epik_Tot_Q>  (67) 
1

>  <i_epik_Tot_abs_Q>  (67) 
1

>  <s_lp_Force_Field>  (67) 
OPLS3e

>  <r_lp_Energy>  (67) 
114.22

>  <b_lp_Chiralities_Consistent>  (67) 
1

>  <s_lp_Variant>  (67) 
17:0-1

>  <s_i_glide_gridfile>  (67) 
pfpi4k_grid

>  <i_i_glide_lignum>  (67) 
26

>  <i_i_glide_rotatable_bonds>  (67) 
2

>  <r_i_docking_score>  (67) 
-3.19853

>  <r_i_glide_ligand_efficiency>  (67) 
-0.145388

>  <r_i_glide_ligand_efficiency_sa>  (67) 
-0.407382

>  <r_i_glide_ligand_efficiency_ln>  (67) 
-0.781836

>  <r_i_glide_gscore>  (67) 
-3.19853

>  <r_i_glide_lipo>  (67) 
-0.245779

>  <r_i_glide_hbond>  (67) 
-0.16

>  <r_i_glide_metal>  (67) 
-0

>  <r_i_glide_rewards>  (67) 
-1.3611

>  <r_i_glide_evdw>  (67) 
-18.4687

>  <r_i_glide_ecoul>  (67) 
-3.38808

>  <r_i_glide_erotb>  (67) 
0

>  <r_i_glide_esite>  (67) 
0

>  <r_i_glide_emodel>  (67) 
-26.5596

>  <r_i_glide_energy>  (67) 
-21.8568

>  <r_i_glide_einternal>  (67) 
0.0840784

>  <r_i_glide_intrahb_reward>  (67) 
-0

>  <i_i_glide_confnum>  (67) 
1

>  <i_i_glide_posenum>  (67) 
1

>  <r_i_glide_eff_state_penalty>  (67) 
0

>  <ligand_id>  (67) 
17

>  <original_smiles>  (67) 
COc1ccc2c3c1OC1C45CCN(C)C(C2)C4(CC5)C31O

>  <smiles>  (67) 
[H]OC12c3c4c(OC([H])([H])[H])c([H])c([H])c3C([H])([H])C3([H])C15C([H])([H])C([H])([H])C5(C([H])([H])C([H])([H])[N+]3([H])C([H])([H])[H])C2([H])O4

$$$$
17:1:0
     RDKit          3D

 43 48  0  0  1  0  0  0  0  0999 V2000
    0.8814   -6.9027    2.5252 C   0  0  0  0  0  0  0  0  0  0  0  0
    1.2768   -5.9794    1.5267 O   0  0  0  0  0  0  0  0  0  0  0  0
    2.6163   -5.6908    1.3975 C   0  0  0  0  0  0  0  0  0  0  0  0
    3.6494   -6.1362    2.2790 C   0  0  0  0  0  0  0  0  0  0  0  0
    4.9695   -5.6119    2.1786 C   0  0  0  0  0  0  0  0  0  0  0  0
    5.3378   -4.7826    1.0876 C   0  0  0  0  0  0  0  0  0  0  0  0
    4.3069   -4.6088    0.1391 C   0  0  0  0  0  0  0  0  0  0  0  0
    2.9710   -4.8350    0.3497 C   0  0  0  0  0  0  0  0  0  0  0  0
    2.1463   -4.0035   -0.3828 O   0  0  0  0  0  0  0  0  0  0  0  0
    2.9576   -3.1480   -1.2285 C   0  0  1  0  0  0  0  0  0  0  0  0
    3.4753   -1.7117   -0.8393 C   0  0  1  0  0  0  0  0  0  0  0  0
    3.0095   -0.9166    0.4038 C   0  0  0  0  0  0  0  0  0  0  0  0
    4.1396   -0.2168    1.2301 C   0  0  0  0  0  0  0  0  0  0  0  0
    5.4620   -0.8769    1.2499 N   0  0  0  0  0  0  0  0  0  0  0  0
    6.0624   -0.6553    2.5482 C   0  0  0  0  0  0  0  0  0  0  0  0
    5.2721   -2.2784    0.8845 C   0  0  2  0  0  0  0  0  0  0  0  0
    6.1947   -3.4961    1.1717 C   0  0  0  0  0  0  0  0  0  0  0  0
    4.8423   -2.3107   -0.5824 C   0  0  2  0  0  0  0  0  0  0  0  0
    5.4536   -1.3746   -1.6420 C   0  0  0  0  0  0  0  0  0  0  0  0
    4.0585   -0.9343   -2.0412 C   0  0  0  0  0  0  0  0  0  0  0  0
    4.3742   -3.6752   -1.0104 C   0  0  1  0  0  0  0  0  0  0  0  0
    5.0072   -4.2563   -2.1195 O   0  0  0  0  0  0  0  0  0  0  0  0
   -0.2018   -7.0076    2.5040 H   0  0  0  0  0  0  0  0  0  0  0  0
    1.1580   -6.5615    3.5238 H   0  0  0  0  0  0  0  0  0  0  0  0
    1.3159   -7.8842    2.3356 H   0  0  0  0  0  0  0  0  0  0  0  0
    3.4054   -6.7569    3.1190 H   0  0  0  0  0  0  0  0  0  0  0  0
    5.6441   -5.7386    3.0191 H   0  0  0  0  0  0  0  0  0  0  0  0
    2.6214   -3.1998   -2.2652 H   0  0  0  0  0  0  0  0  0  0  0  0
    2.3184   -0.1222    0.1451 H   0  0  0  0  0  0  0  0  0  0  0  0
    2.4588   -1.5897    1.0586 H   0  0  0  0  0  0  0  0  0  0  0  0
    4.2705    0.7960    0.8684 H   0  0  0  0  0  0  0  0  0  0  0  0
    3.7630   -0.1062    2.2601 H   0  0  0  0  0  0  0  0  0  0  0  0
    7.0593   -1.0627    2.4991 H   0  0  0  0  0  0  0  0  0  0  0  0
    5.5240   -1.1306    3.3648 H   0  0  0  0  0  0  0  0  0  0  0  0
    6.1602    0.4024    2.7968 H   0  0  0  0  0  0  0  0  0  0  0  0
    4.4234   -2.5322    1.5286 H   0  0  0  0  0  0  0  0  0  0  0  0
    6.5320   -3.4119    2.1917 H   0  0  0  0  0  0  0  0  0  0  0  0
    7.0664   -3.5285    0.5077 H   0  0  0  0  0  0  0  0  0  0  0  0
    6.0253   -0.5515   -1.2087 H   0  0  0  0  0  0  0  0  0  0  0  0
    5.9866   -1.8862   -2.4374 H   0  0  0  0  0  0  0  0  0  0  0  0
    3.7263   -1.3426   -2.9954 H   0  0  0  0  0  0  0  0  0  0  0  0
    3.9573    0.1340   -2.0348 H   0  0  0  0  0  0  0  0  0  0  0  0
    4.4333   -4.9526   -2.4111 H   0  0  0  0  0  0  0  0  0  0  0  0
  1  2  1  0
  1 23  1  0
  1 24  1  0
  1 25  1  0
  2  3  1  0
  3  8  2  0
  3  4  1  0
  4  5  2  0
  4 26  1  0
  5  6  1  0
  5 27  1  0
  6 17  1  0
  6  7  2  0
  7 21  1  0
  7  8  1  0
  8  9  1  0
  9 10  1  0
 10 21  1  0
 10 11  1  0
 10 28  1  6
 11 18  1  0
 11 20  1  6
 11 12  1  0
 12 13  1  0
 12 29  1  0
 12 30  1  0
 13 14  1  0
 13 31  1  0
 13 32  1  0
 14 15  1  0
 14 16  1  0
 15 33  1  0
 15 34  1  0
 15 35  1  0
 16 17  1  0
 16 18  1  0
 16 36  1  1
 17 37  1  0
 17 38  1  0
 18 19  1  6
 18 21  1  0
 19 20  1  0
 19 39  1  0
 19 40  1  0
 20 41  1  0
 20 42  1  0
 21 22  1  6
 22 43  1  0
M  END
>  <i_m_ct_stereo_status>  (68) 
1

>  <s_m_source_file>  (68) 
/var/tmp/pbs.5076255.sched01/tmpd0mq1ayv/02wja6gfv.sdf

>  <i_m_source_file_index>  (68) 
27

>  <i_lp_mmshare_version>  (68) 
48012

>  <i_f3d_flags>  (68) 
0

>  <s_epik_input>  (68) 
W09IXVtDQEBdMTJbQ0BIXTNPYyhjKE9bQ0gzXSlbY0hdW2NIXTQpYzFjNFtDSDJdW0NAQEhdKE4oW0NIM10pW0NIMl1bQ0gyXTUpW0NAQF0yKFtDQEBdMzU2KVtDSDJdW0NIMl02

>  <s_epik_cmdline>  (68) 
J2VwaWtfcHl0aG9uJywgJy1waHQnLCAnMi4wJywgJy1waCcsICc3LjAnLCAnLXRuJywgJzgnLCAnLW1hJywgJzIwMCcsICctaW1hZScsICc8aW5maWxlLm1hZT4nLCAnLW9tYWUnLCAnPG91dGZpbGUubWFlPic=

>  <r_lp_tautomer_probability>  (68) 
1

>  <r_epik_Ionization_Penalty>  (68) 
2.28856

>  <r_epik_Ionization_Penalty_Charging>  (68) 
0

>  <r_epik_Ionization_Penalty_Neutral>  (68) 
2.28856

>  <r_epik_State_Penalty>  (68) 
2.4384

>  <r_epik_Charging_Adjusted_Penalty>  (68) 
2.4384

>  <i_epik_Tot_Q>  (68) 
0

>  <i_epik_Tot_abs_Q>  (68) 
0

>  <s_lp_Force_Field>  (68) 
OPLS3e

>  <r_lp_Energy>  (68) 
102.372

>  <b_lp_Chiralities_Consistent>  (68) 
1

>  <s_lp_Variant>  (68) 
17:0-2

>  <s_i_glide_gridfile>  (68) 
pfpi4k_grid

>  <i_i_glide_lignum>  (68) 
27

>  <i_i_glide_rotatable_bonds>  (68) 
2

>  <r_i_docking_score>  (68) 
-3.39681

>  <r_i_glide_ligand_efficiency>  (68) 
-0.1544

>  <r_i_glide_ligand_efficiency_sa>  (68) 
-0.432636

>  <r_i_glide_ligand_efficiency_ln>  (68) 
-0.830303

>  <r_i_glide_gscore>  (68) 
-3.39681

>  <r_i_glide_lipo>  (68) 
-0.367179

>  <r_i_glide_hbond>  (68) 
-0.135556

>  <r_i_glide_metal>  (68) 
-0

>  <r_i_glide_rewards>  (68) 
-1.36797

>  <r_i_glide_evdw>  (68) 
-15.212

>  <r_i_glide_ecoul>  (68) 
-5.10335

>  <r_i_glide_erotb>  (68) 
0

>  <r_i_glide_esite>  (68) 
0

>  <r_i_glide_emodel>  (68) 
-23.966

>  <r_i_glide_energy>  (68) 
-20.3153

>  <r_i_glide_einternal>  (68) 
1.90762

>  <r_i_glide_intrahb_reward>  (68) 
-0

>  <i_i_glide_confnum>  (68) 
1

>  <i_i_glide_posenum>  (68) 
22

>  <r_i_glide_eff_state_penalty>  (68) 
0

>  <ligand_id>  (68) 
17

>  <original_smiles>  (68) 
COc1ccc2c3c1OC1C45CCN(C)C(C2)C4(CC5)C31O

>  <smiles>  (68) 
[H]OC12c3c4c(OC([H])([H])[H])c([H])c([H])c3C([H])([H])C3([H])N(C([H])([H])[H])C([H])([H])C([H])([H])C5(C([H])([H])C([H])([H])C135)C2([H])O4

$$$$
17:1:1
     RDKit          3D

 43 48  0  0  1  0  0  0  0  0999 V2000
    2.3205   -2.6763   -3.6715 C   0  0  0  0  0  0  0  0  0  0  0  0
    3.5707   -3.3675   -3.6034 O   0  0  0  0  0  0  0  0  0  0  0  0
    4.3777   -3.0492   -2.5359 C   0  0  0  0  0  0  0  0  0  0  0  0
    5.7880   -3.0584   -2.7154 C   0  0  0  0  0  0  0  0  0  0  0  0
    6.6810   -2.8867   -1.6293 C   0  0  0  0  0  0  0  0  0  0  0  0
    6.1920   -2.5490   -0.3422 C   0  0  0  0  0  0  0  0  0  0  0  0
    4.7901   -2.3649   -0.3014 C   0  0  0  0  0  0  0  0  0  0  0  0
    3.8798   -2.8081   -1.2439 C   0  0  0  0  0  0  0  0  0  0  0  0
    2.6633   -3.1904   -0.7024 O   0  0  0  0  0  0  0  0  0  0  0  0
    2.6558   -2.8485    0.6955 C   0  0  1  0  0  0  0  0  0  0  0  0
    3.0048   -3.8701    1.8322 C   0  0  1  0  0  0  0  0  0  0  0  0
    3.1625   -5.3871    1.6073 C   0  0  0  0  0  0  0  0  0  0  0  0
    4.4253   -6.0293    2.3128 C   0  0  0  0  0  0  0  0  0  0  0  0
    5.6281   -5.1651    2.5034 N   0  0  0  0  0  0  0  0  0  0  0  0
    6.8415   -5.9749    2.4071 C   0  0  0  0  0  0  0  0  0  0  0  0
    5.5348   -4.0719    1.5412 C   0  0  2  0  0  0  0  0  0  0  0  0
    6.6802   -3.1654    0.9988 C   0  0  0  0  0  0  0  0  0  0  0  0
    4.3558   -3.1915    1.9815 C   0  0  2  0  0  0  0  0  0  0  0  0
    4.0382   -2.8919    3.4643 C   0  0  0  0  0  0  0  0  0  0  0  0
    2.6161   -3.3987    3.2427 C   0  0  0  0  0  0  0  0  0  0  0  0
    4.0020   -2.1645    0.9358 C   0  0  1  0  0  0  0  0  0  0  0  0
    3.9613   -0.8162    1.3267 O   0  0  0  0  0  0  0  0  0  0  0  0
    1.6852   -3.1068   -4.4455 H   0  0  0  0  0  0  0  0  0  0  0  0
    2.5285   -1.6389   -3.9271 H   0  0  0  0  0  0  0  0  0  0  0  0
    1.7055   -2.6768   -2.7734 H   0  0  0  0  0  0  0  0  0  0  0  0
    6.1609   -3.3522   -3.6772 H   0  0  0  0  0  0  0  0  0  0  0  0
    7.7255   -3.1512   -1.7718 H   0  0  0  0  0  0  0  0  0  0  0  0
    1.8060   -2.2163    0.9542 H   0  0  0  0  0  0  0  0  0  0  0  0
    2.2650   -5.9134    1.9297 H   0  0  0  0  0  0  0  0  0  0  0  0
    3.2416   -5.5800    0.5382 H   0  0  0  0  0  0  0  0  0  0  0  0
    4.1392   -6.4010    3.2934 H   0  0  0  0  0  0  0  0  0  0  0  0
    4.7027   -6.9202    1.7413 H   0  0  0  0  0  0  0  0  0  0  0  0
    7.7300   -5.3800    2.6131 H   0  0  0  0  0  0  0  0  0  0  0  0
    6.9541   -6.4264    1.4225 H   0  0  0  0  0  0  0  0  0  0  0  0
    6.8267   -6.7830    3.1400 H   0  0  0  0  0  0  0  0  0  0  0  0
    5.2830   -4.6271    0.6347 H   0  0  0  0  0  0  0  0  0  0  0  0
    7.5528   -3.7708    0.7921 H   0  0  0  0  0  0  0  0  0  0  0  0
    6.9678   -2.3861    1.6985 H   0  0  0  0  0  0  0  0  0  0  0  0
    4.5909   -3.4955    4.1869 H   0  0  0  0  0  0  0  0  0  0  0  0
    4.0842   -1.8306    3.7159 H   0  0  0  0  0  0  0  0  0  0  0  0
    1.8795   -2.5924    3.2106 H   0  0  0  0  0  0  0  0  0  0  0  0
    2.3082   -4.2021    3.9082 H   0  0  0  0  0  0  0  0  0  0  0  0
    3.3144   -0.4013    0.7740 H   0  0  0  0  0  0  0  0  0  0  0  0
  1  2  1  0
  1 23  1  0
  1 24  1  0
  1 25  1  0
  2  3  1  0
  3  8  2  0
  3  4  1  0
  4  5  2  0
  4 26  1  0
  5  6  1  0
  5 27  1  0
  6 17  1  0
  6  7  2  0
  7 21  1  0
  7  8  1  0
  8  9  1  0
  9 10  1  0
 10 21  1  0
 10 11  1  0
 10 28  1  1
 11 18  1  0
 11 20  1  1
 11 12  1  0
 12 13  1  0
 12 29  1  0
 12 30  1  0
 13 14  1  0
 13 31  1  0
 13 32  1  0
 14 15  1  0
 14 16  1  0
 15 33  1  0
 15 34  1  0
 15 35  1  0
 16 17  1  0
 16 18  1  0
 16 36  1  6
 17 37  1  0
 17 38  1  0
 18 19  1  1
 18 21  1  0
 19 20  1  0
 19 39  1  0
 19 40  1  0
 20 41  1  0
 20 42  1  0
 21 22  1  1
 22 43  1  0
M  END
>  <i_m_ct_stereo_status>  (69) 
1

>  <s_m_source_file>  (69) 
/var/tmp/pbs.5076255.sched01/tmpd0mq1ayv/02wja6gfv.sdf

>  <i_m_source_file_index>  (69) 
27

>  <i_lp_mmshare_version>  (69) 
48012

>  <i_f3d_flags>  (69) 
0

>  <s_epik_input>  (69) 
W09IXVtDQEBdMTJbQ0BIXTNPYyhjKE9bQ0gzXSlbY0hdW2NIXTQpYzFjNFtDSDJdW0NAQEhdKE4oW0NIM10pW0NIMl1bQ0gyXTUpW0NAQF0yKFtDQEBdMzU2KVtDSDJdW0NIMl02

>  <s_epik_cmdline>  (69) 
J2VwaWtfcHl0aG9uJywgJy1waHQnLCAnMi4wJywgJy1waCcsICc3LjAnLCAnLXRuJywgJzgnLCAnLW1hJywgJzIwMCcsICctaW1hZScsICc8aW5maWxlLm1hZT4nLCAnLW9tYWUnLCAnPG91dGZpbGUubWFlPic=

>  <r_lp_tautomer_probability>  (69) 
1

>  <r_epik_Ionization_Penalty>  (69) 
2.28856

>  <r_epik_Ionization_Penalty_Charging>  (69) 
0

>  <r_epik_Ionization_Penalty_Neutral>  (69) 
2.28856

>  <r_epik_State_Penalty>  (69) 
2.4384

>  <r_epik_Charging_Adjusted_Penalty>  (69) 
2.4384

>  <i_epik_Tot_Q>  (69) 
0

>  <i_epik_Tot_abs_Q>  (69) 
0

>  <s_lp_Force_Field>  (69) 
OPLS3e

>  <r_lp_Energy>  (69) 
102.372

>  <b_lp_Chiralities_Consistent>  (69) 
1

>  <s_lp_Variant>  (69) 
17:0-2

>  <s_i_glide_gridfile>  (69) 
pfpi4k_grid

>  <i_i_glide_lignum>  (69) 
27

>  <i_i_glide_rotatable_bonds>  (69) 
2

>  <r_i_docking_score>  (69) 
-3.33128

>  <r_i_glide_ligand_efficiency>  (69) 
-0.151422

>  <r_i_glide_ligand_efficiency_sa>  (69) 
-0.424289

>  <r_i_glide_ligand_efficiency_ln>  (69) 
-0.814285

>  <r_i_glide_gscore>  (69) 
-3.33128

>  <r_i_glide_lipo>  (69) 
-0.639591

>  <r_i_glide_hbond>  (69) 
0

>  <r_i_glide_metal>  (69) 
-0

>  <r_i_glide_rewards>  (69) 
-1.36797

>  <r_i_glide_evdw>  (69) 
-22.6857

>  <r_i_glide_ecoul>  (69) 
-1.26286

>  <r_i_glide_erotb>  (69) 
0

>  <r_i_glide_esite>  (69) 
0

>  <r_i_glide_emodel>  (69) 
-24.8736

>  <r_i_glide_energy>  (69) 
-23.9485

>  <r_i_glide_einternal>  (69) 
6.93044

>  <r_i_glide_intrahb_reward>  (69) 
-0

>  <i_i_glide_confnum>  (69) 
1

>  <i_i_glide_posenum>  (69) 
14

>  <r_i_glide_eff_state_penalty>  (69) 
0

>  <ligand_id>  (69) 
17

>  <original_smiles>  (69) 
COc1ccc2c3c1OC1C45CCN(C)C(C2)C4(CC5)C31O

>  <smiles>  (69) 
[H]OC12c3c4c(OC([H])([H])[H])c([H])c([H])c3C([H])([H])C3([H])N(C([H])([H])[H])C([H])([H])C([H])([H])C5(C([H])([H])C([H])([H])C135)C2([H])O4

$$$$
17:1:2
     RDKit          3D

 43 48  0  0  1  0  0  0  0  0999 V2000
    0.5130   -6.6720    0.5729 C   0  0  0  0  0  0  0  0  0  0  0  0
    0.8399   -6.0667    1.8155 O   0  0  0  0  0  0  0  0  0  0  0  0
    2.1476   -5.6832    1.9432 C   0  0  0  0  0  0  0  0  0  0  0  0
    2.8482   -6.0588    3.1173 C   0  0  0  0  0  0  0  0  0  0  0  0
    4.1285   -5.5212    3.4153 C   0  0  0  0  0  0  0  0  0  0  0  0
    4.8069   -4.7100    2.4718 C   0  0  0  0  0  0  0  0  0  0  0  0
    4.1126   -4.5638    1.2473 C   0  0  0  0  0  0  0  0  0  0  0  0
    2.7848   -4.8336    1.0202 C   0  0  0  0  0  0  0  0  0  0  0  0
    2.2191   -4.0108    0.0675 O   0  0  0  0  0  0  0  0  0  0  0  0
    3.2288   -3.1542   -0.4935 C   0  0  1  0  0  0  0  0  0  0  0  0
    3.6104   -1.7142    0.0158 C   0  0  1  0  0  0  0  0  0  0  0  0
    2.7823   -0.8827    1.0168 C   0  0  0  0  0  0  0  0  0  0  0  0
    3.6109   -0.1703    2.1563 C   0  0  0  0  0  0  0  0  0  0  0  0
    4.8842   -0.8097    2.5895 N   0  0  0  0  0  0  0  0  0  0  0  0
    5.0842   -0.5566    4.0122 C   0  0  0  0  0  0  0  0  0  0  0  0
    4.8034   -2.2178    2.2121 C   0  0  2  0  0  0  0  0  0  0  0  0
    5.6042   -3.4147    2.7898 C   0  0  0  0  0  0  0  0  0  0  0  0
    4.8506   -2.2788    0.6778 C   0  0  2  0  0  0  0  0  0  0  0  0
    5.7439   -1.3350   -0.1669 C   0  0  0  0  0  0  0  0  0  0  0  0
    4.5128   -0.9218   -0.9572 C   0  0  0  0  0  0  0  0  0  0  0  0
    4.5203   -3.6544    0.1502 C   0  0  1  0  0  0  0  0  0  0  0  0
    5.4533   -4.2582   -0.7062 O   0  0  0  0  0  0  0  0  0  0  0  0
   -0.5678   -6.8064    0.4888 H   0  0  0  0  0  0  0  0  0  0  0  0
    0.9739   -7.6587    0.5414 H   0  0  0  0  0  0  0  0  0  0  0  0
    0.8438   -6.1142   -0.3068 H   0  0  0  0  0  0  0  0  0  0  0  0
    2.3246   -6.6584    3.8402 H   0  0  0  0  0  0  0  0  0  0  0  0
    4.5225   -5.6374    4.4213 H   0  0  0  0  0  0  0  0  0  0  0  0
    3.2234   -3.2201   -1.5814 H   0  0  0  0  0  0  0  0  0  0  0  0
    2.2340   -0.1019    0.4953 H   0  0  0  0  0  0  0  0  0  0  0  0
    2.0397   -1.5326    1.4803 H   0  0  0  0  0  0  0  0  0  0  0  0
    3.8368    0.8425    1.8414 H   0  0  0  0  0  0  0  0  0  0  0  0
    2.9402   -0.0501    3.0192 H   0  0  0  0  0  0  0  0  0  0  0  0
    6.0406   -0.9496    4.3413 H   0  0  0  0  0  0  0  0  0  0  0  0
    4.3039   -1.0045    4.6279 H   0  0  0  0  0  0  0  0  0  0  0  0
    5.1019    0.5163    4.2204 H   0  0  0  0  0  0  0  0  0  0  0  0
    3.8005   -2.4673    2.5748 H   0  0  0  0  0  0  0  0  0  0  0  0
    5.6702   -3.3257    3.8653 H   0  0  0  0  0  0  0  0  0  0  0  0
    6.6065   -3.4790    2.3709 H   0  0  0  0  0  0  0  0  0  0  0  0
    6.1868   -0.4994    0.3848 H   0  0  0  0  0  0  0  0  0  0  0  0
    6.4880   -1.8571   -0.7645 H   0  0  0  0  0  0  0  0  0  0  0  0
    4.4785   -1.3342   -1.9659 H   0  0  0  0  0  0  0  0  0  0  0  0
    4.3170    0.1338   -0.9509 H   0  0  0  0  0  0  0  0  0  0  0  0
    5.4789   -3.7188   -1.4786 H   0  0  0  0  0  0  0  0  0  0  0  0
  1  2  1  0
  1 23  1  0
  1 24  1  0
  1 25  1  0
  2  3  1  0
  3  8  2  0
  3  4  1  0
  4  5  2  0
  4 26  1  0
  5  6  1  0
  5 27  1  0
  6 17  1  0
  6  7  2  0
  7 21  1  0
  7  8  1  0
  8  9  1  0
  9 10  1  0
 10 21  1  0
 10 11  1  0
 10 28  1  6
 11 18  1  0
 11 20  1  6
 11 12  1  0
 12 13  1  0
 12 29  1  0
 12 30  1  0
 13 14  1  0
 13 31  1  0
 13 32  1  0
 14 15  1  0
 14 16  1  0
 15 33  1  0
 15 34  1  0
 15 35  1  0
 16 17  1  0
 16 18  1  0
 16 36  1  6
 17 37  1  0
 17 38  1  0
 18 19  1  6
 18 21  1  0
 19 20  1  0
 19 39  1  0
 19 40  1  0
 20 41  1  0
 20 42  1  0
 21 22  1  6
 22 43  1  0
M  END
>  <i_m_ct_stereo_status>  (70) 
1

>  <s_m_source_file>  (70) 
/var/tmp/pbs.5076255.sched01/tmpd0mq1ayv/02wja6gfv.sdf

>  <i_m_source_file_index>  (70) 
27

>  <i_lp_mmshare_version>  (70) 
48012

>  <i_f3d_flags>  (70) 
0

>  <s_epik_input>  (70) 
W09IXVtDQEBdMTJbQ0BIXTNPYyhjKE9bQ0gzXSlbY0hdW2NIXTQpYzFjNFtDSDJdW0NAQEhdKE4oW0NIM10pW0NIMl1bQ0gyXTUpW0NAQF0yKFtDQEBdMzU2KVtDSDJdW0NIMl02

>  <s_epik_cmdline>  (70) 
J2VwaWtfcHl0aG9uJywgJy1waHQnLCAnMi4wJywgJy1waCcsICc3LjAnLCAnLXRuJywgJzgnLCAnLW1hJywgJzIwMCcsICctaW1hZScsICc8aW5maWxlLm1hZT4nLCAnLW9tYWUnLCAnPG91dGZpbGUubWFlPic=

>  <r_lp_tautomer_probability>  (70) 
1

>  <r_epik_Ionization_Penalty>  (70) 
2.28856

>  <r_epik_Ionization_Penalty_Charging>  (70) 
0

>  <r_epik_Ionization_Penalty_Neutral>  (70) 
2.28856

>  <r_epik_State_Penalty>  (70) 
2.4384

>  <r_epik_Charging_Adjusted_Penalty>  (70) 
2.4384

>  <i_epik_Tot_Q>  (70) 
0

>  <i_epik_Tot_abs_Q>  (70) 
0

>  <s_lp_Force_Field>  (70) 
OPLS3e

>  <r_lp_Energy>  (70) 
102.372

>  <b_lp_Chiralities_Consistent>  (70) 
1

>  <s_lp_Variant>  (70) 
17:0-2

>  <s_i_glide_gridfile>  (70) 
pfpi4k_grid

>  <i_i_glide_lignum>  (70) 
27

>  <i_i_glide_rotatable_bonds>  (70) 
2

>  <r_i_docking_score>  (70) 
-2.73142

>  <r_i_glide_ligand_efficiency>  (70) 
-0.124155

>  <r_i_glide_ligand_efficiency_sa>  (70) 
-0.347888

>  <r_i_glide_ligand_efficiency_ln>  (70) 
-0.667658

>  <r_i_glide_gscore>  (70) 
-2.73142

>  <r_i_glide_lipo>  (70) 
-0.267928

>  <r_i_glide_hbond>  (70) 
-0.139717

>  <r_i_glide_metal>  (70) 
-0

>  <r_i_glide_rewards>  (70) 
-1.36797

>  <r_i_glide_evdw>  (70) 
-16.274

>  <r_i_glide_ecoul>  (70) 
-0.947334

>  <r_i_glide_erotb>  (70) 
0

>  <r_i_glide_esite>  (70) 
0

>  <r_i_glide_emodel>  (70) 
-18.0587

>  <r_i_glide_energy>  (70) 
-17.2213

>  <r_i_glide_einternal>  (70) 
5.67305

>  <r_i_glide_intrahb_reward>  (70) 
-0

>  <i_i_glide_confnum>  (70) 
1

>  <i_i_glide_posenum>  (70) 
28

>  <r_i_glide_eff_state_penalty>  (70) 
0

>  <ligand_id>  (70) 
17

>  <original_smiles>  (70) 
COc1ccc2c3c1OC1C45CCN(C)C(C2)C4(CC5)C31O

>  <smiles>  (70) 
[H]OC12c3c4c(OC([H])([H])[H])c([H])c([H])c3C([H])([H])C3([H])N(C([H])([H])[H])C([H])([H])C([H])([H])C5(C([H])([H])C([H])([H])C135)C2([H])O4

$$$$
18:0:0
     RDKit          3D

 34 39  0  0  1  0  0  0  0  0999 V2000
    2.3737   -0.0099    2.0639 N   0  0  0  0  0  0  0  0  0  0  0  0
    2.6372   -0.8384    0.8871 N   0  0  0  0  0  0  0  0  0  0  0  0
    4.0008   -0.6963    0.3198 C   0  0  2  0  0  0  0  0  0  0  0  0
    4.0891   -1.2292   -1.1159 C   0  0  0  0  0  0  0  0  0  0  0  0
    4.5873   -2.6732   -1.0333 C   0  0  1  0  0  0  0  0  0  0  0  0
    6.0675   -2.8244   -0.0841 C   0  0  1  0  0  0  0  0  0  0  0  0
    6.3930   -1.4776    0.4973 C   0  0  0  0  0  0  0  0  0  0  0  0
    5.0622   -1.4344    1.1762 C   0  0  2  0  0  0  0  0  0  0  0  0
    4.7518   -2.9845    1.3587 C   0  0  2  0  0  0  0  0  0  0  0  0
    5.8112   -3.8131    1.3126 C   0  0  1  0  0  0  0  0  0  0  0  0
    4.4823   -4.7917    1.6989 C   0  0  1  0  0  0  0  0  0  0  0  0
    2.9341   -4.3777    0.8832 C   0  0  1  0  0  0  0  0  0  0  0  0
    3.2749   -3.5878   -0.5184 C   0  0  1  0  0  0  0  0  0  0  0  0
    4.2942   -4.2545    0.0875 C   0  0  2  0  0  0  0  0  0  0  0  0
    3.8052   -5.4033    0.7202 C   0  0  1  0  0  0  0  0  0  0  0  0
    2.4592    0.9100    1.6466 H   0  0  0  0  0  0  0  0  0  0  0  0
    1.3873   -0.1821    2.1644 H   0  0  0  0  0  0  0  0  0  0  0  0
    2.5202   -1.8031    1.1800 H   0  0  0  0  0  0  0  0  0  0  0  0
    4.2355    0.3712    0.2870 H   0  0  0  0  0  0  0  0  0  0  0  0
    3.1271   -1.1672   -1.6312 H   0  0  0  0  0  0  0  0  0  0  0  0
    4.7900   -0.6345   -1.6979 H   0  0  0  0  0  0  0  0  0  0  0  0
    4.8283   -2.9632   -2.0599 H   0  0  0  0  0  0  0  0  0  0  0  0
    6.8880   -3.1922   -0.6946 H   0  0  0  0  0  0  0  0  0  0  0  0
    7.2207   -1.5393    1.2062 H   0  0  0  0  0  0  0  0  0  0  0  0
    6.5622   -0.6651   -0.2177 H   0  0  0  0  0  0  0  0  0  0  0  0
    5.1669   -0.9348    2.1434 H   0  0  0  0  0  0  0  0  0  0  0  0
    4.1905   -2.8621    2.3189 H   0  0  0  0  0  0  0  0  0  0  0  0
    6.4979   -3.6674    2.1413 H   0  0  0  0  0  0  0  0  0  0  0  0
    4.4572   -5.2617    2.6827 H   0  0  0  0  0  0  0  0  0  0  0  0
    1.9310   -4.5052    1.2987 H   0  0  0  0  0  0  0  0  0  0  0  0
    2.8803   -4.1582   -1.3683 H   0  0  0  0  0  0  0  0  0  0  0  0
    4.9882   -4.7460   -0.6508 H   0  0  0  0  0  0  0  0  0  0  0  0
    3.7883   -6.3672    0.2093 H   0  0  0  0  0  0  0  0  0  0  0  0
    1.9075   -0.6515    0.1870 H   0  0  0  0  0  0  0  0  0  0  0  0
  1  2  1  0
  1 16  1  0
  1 17  1  0
  2  3  1  0
  2 18  1  0
  2 34  1  0
  3  8  1  0
  3  4  1  0
  3 19  1  6
  4  5  1  0
  4 20  1  0
  4 21  1  0
  5 13  1  0
  5  6  1  0
  5 22  1  6
  6 10  1  0
  6  7  1  0
  6 23  1  6
  7  8  1  0
  7 24  1  0
  7 25  1  0
  8  9  1  0
  8 26  1  1
  9 14  1  0
  9 10  1  0
  9 27  1  1
 10 11  1  0
 10 28  1  1
 11 15  1  0
 11 12  1  0
 11 29  1  1
 12 15  1  0
 12 13  1  0
 12 30  1  1
 13 14  1  0
 13 31  1  6
 14 15  1  0
 14 32  1  6
 15 33  1  6
M  CHG  1   2   1
M  END
>  <i_m_ct_stereo_status>  (71) 
1

>  <s_m_source_file>  (71) 
/var/tmp/pbs.5076255.sched01/tmpd0mq1ayv/02wja6gfv.sdf

>  <i_m_source_file_index>  (71) 
28

>  <i_lp_mmshare_version>  (71) 
48012

>  <i_f3d_flags>  (71) 
0

>  <s_epik_input>  (71) 
W05IMl1bTkhdW0NASF0oW0NIMl0xKVtDQEhdKFtDSDJdMilbQ0BIXShbQ0BASF0zW0NASF0yW0NASF0xNClbQ0BASF01W0NASF00W0NAQEhdNltDQEhdM1tDQEhdNTY=

>  <s_epik_cmdline>  (71) 
J2VwaWtfcHl0aG9uJywgJy1waHQnLCAnMi4wJywgJy1waCcsICc3LjAnLCAnLXRuJywgJzgnLCAnLW1hJywgJzIwMCcsICctaW1hZScsICc8aW5maWxlLm1hZT4nLCAnLW9tYWUnLCAnPG91dGZpbGUubWFlPic=

>  <r_epik_Ionization_Penalty>  (71) 
0.00217399

>  <r_epik_Ionization_Penalty_Charging>  (71) 
0.00217399

>  <r_epik_Ionization_Penalty_Neutral>  (71) 
3.52106e-10

>  <r_epik_State_Penalty>  (71) 
0.0166306

>  <r_epik_Charging_Adjusted_Penalty>  (71) 
0.0188046

>  <i_epik_Tot_Q>  (71) 
1

>  <i_epik_Tot_abs_Q>  (71) 
1

>  <s_lp_Force_Field>  (71) 
OPLS3e

>  <r_lp_Energy>  (71) 
449.286

>  <b_lp_Chiralities_Consistent>  (71) 
1

>  <s_lp_Variant>  (71) 
18:0-1

>  <s_i_glide_gridfile>  (71) 
pfpi4k_grid

>  <i_i_glide_lignum>  (71) 
28

>  <i_i_glide_rotatable_bonds>  (71) 
1

>  <r_i_docking_score>  (71) 
-4.57061

>  <r_i_glide_ligand_efficiency>  (71) 
-0.304707

>  <r_i_glide_ligand_efficiency_sa>  (71) 
-0.751473

>  <r_i_glide_ligand_efficiency_ln>  (71) 
-1.23262

>  <r_i_glide_gscore>  (71) 
-4.57061

>  <r_i_glide_lipo>  (71) 
-0.324486

>  <r_i_glide_hbond>  (71) 
-0.2

>  <r_i_glide_metal>  (71) 
-0

>  <r_i_glide_rewards>  (71) 
-2.02293

>  <r_i_glide_evdw>  (71) 
-16.4548

>  <r_i_glide_ecoul>  (71) 
-7.57904

>  <r_i_glide_erotb>  (71) 
0

>  <r_i_glide_esite>  (71) 
-0.0635962

>  <r_i_glide_emodel>  (71) 
-31.954

>  <r_i_glide_energy>  (71) 
-24.0338

>  <r_i_glide_einternal>  (71) 
0.17381

>  <r_i_glide_intrahb_reward>  (71) 
-0

>  <i_i_glide_confnum>  (71) 
2

>  <i_i_glide_posenum>  (71) 
24

>  <r_i_glide_eff_state_penalty>  (71) 
0

>  <ligand_id>  (71) 
18

>  <original_smiles>  (71) 
NNC1CC2C3CC1C1C3C3C4C2C1C34

>  <smiles>  (71) 
[H]N([H])[N+]([H])([H])C1([H])C([H])([H])C2([H])C3([H])C([H])([H])C1([H])C1([H])C3([H])C3([H])C4([H])C2([H])C1([H])C43[H]

$$$$
18:0:1
     RDKit          3D

 34 39  0  0  1  0  0  0  0  0999 V2000
    2.2023   -1.4866    1.7197 N   0  0  0  0  0  0  0  0  0  0  0  0
    2.7808   -2.2418    0.6114 N   0  0  0  0  0  0  0  0  0  0  0  0
    4.2578   -2.2615    0.5985 C   0  0  2  0  0  0  0  0  0  0  0  0
    4.8347   -0.9373    0.0827 C   0  0  0  0  0  0  0  0  0  0  0  0
    5.0926   -1.1222   -1.4127 C   0  0  1  0  0  0  0  0  0  0  0  0
    6.0771   -2.5434   -1.7470 C   0  0  1  0  0  0  0  0  0  0  0  0
    6.2979   -3.2874   -0.4577 C   0  0  0  0  0  0  0  0  0  0  0  0
    4.8205   -3.4164   -0.2695 C   0  0  2  0  0  0  0  0  0  0  0  0
    4.2964   -3.3810   -1.7671 C   0  0  2  0  0  0  0  0  0  0  0  0
    5.1965   -3.6568   -2.7208 C   0  0  1  0  0  0  0  0  0  0  0  0
    3.7419   -3.4628   -3.5509 C   0  0  1  0  0  0  0  0  0  0  0  0
    2.6611   -2.1825   -2.9342 C   0  0  1  0  0  0  0  0  0  0  0  0
    3.5938   -1.0553   -2.1728 C   0  0  1  0  0  0  0  0  0  0  0  0
    4.2237   -1.9636   -2.9538 C   0  0  2  0  0  0  0  0  0  0  0  0
    3.4136   -2.2792   -4.0478 C   0  0  1  0  0  0  0  0  0  0  0  0
    2.5830   -0.5737    1.5079 H   0  0  0  0  0  0  0  0  0  0  0  0
    1.2446   -1.4501    1.4024 H   0  0  0  0  0  0  0  0  0  0  0  0
    2.4279   -3.1855    0.7067 H   0  0  0  0  0  0  0  0  0  0  0  0
    4.5906   -2.4158    1.6278 H   0  0  0  0  0  0  0  0  0  0  0  0
    4.1608   -0.0951    0.2578 H   0  0  0  0  0  0  0  0  0  0  0  0
    5.7654   -0.7028    0.5959 H   0  0  0  0  0  0  0  0  0  0  0  0
    5.6718   -0.2524   -1.7235 H   0  0  0  0  0  0  0  0  0  0  0  0
    7.0286   -2.2839   -2.2075 H   0  0  0  0  0  0  0  0  0  0  0  0
    6.7825   -4.2505   -0.6288 H   0  0  0  0  0  0  0  0  0  0  0  0
    6.8212   -2.7340    0.3301 H   0  0  0  0  0  0  0  0  0  0  0  0
    4.5988   -4.3739    0.2049 H   0  0  0  0  0  0  0  0  0  0  0  0
    3.4316   -4.0684   -1.6020 H   0  0  0  0  0  0  0  0  0  0  0  0
    5.5050   -4.6817   -2.6663 H   0  0  0  0  0  0  0  0  0  0  0  0
    3.2944   -4.3326   -4.0281 H   0  0  0  0  0  0  0  0  0  0  0  0
    1.5751   -2.2624   -2.9130 H   0  0  0  0  0  0  0  0  0  0  0  0
    3.5117   -0.1096   -2.7075 H   0  0  0  0  0  0  0  0  0  0  0  0
    5.0786   -1.5122   -3.5207 H   0  0  0  0  0  0  0  0  0  0  0  0
    3.4811   -1.7427   -4.9910 H   0  0  0  0  0  0  0  0  0  0  0  0
    2.4032   -1.8075   -0.2337 H   0  0  0  0  0  0  0  0  0  0  0  0
  1  2  1  0
  1 16  1  0
  1 17  1  0
  2  3  1  0
  2 18  1  0
  2 34  1  0
  3  8  1  0
  3  4  1  0
  3 19  1  1
  4  5  1  0
  4 20  1  0
  4 21  1  0
  5 13  1  0
  5  6  1  0
  5 22  1  6
  6 10  1  0
  6  7  1  0
  6 23  1  6
  7  8  1  0
  7 24  1  0
  7 25  1  0
  8  9  1  0
  8 26  1  1
  9 14  1  0
  9 10  1  0
  9 27  1  1
 10 11  1  0
 10 28  1  1
 11 15  1  0
 11 12  1  0
 11 29  1  6
 12 15  1  0
 12 13  1  0
 12 30  1  6
 13 14  1  0
 13 31  1  6
 14 15  1  0
 14 32  1  6
 15 33  1  6
M  CHG  1   2   1
M  END
>  <i_m_ct_stereo_status>  (72) 
1

>  <s_m_source_file>  (72) 
/var/tmp/pbs.5076255.sched01/tmpd0mq1ayv/02wja6gfv.sdf

>  <i_m_source_file_index>  (72) 
28

>  <i_lp_mmshare_version>  (72) 
48012

>  <i_f3d_flags>  (72) 
0

>  <s_epik_input>  (72) 
W05IMl1bTkhdW0NASF0oW0NIMl0xKVtDQEhdKFtDSDJdMilbQ0BIXShbQ0BASF0zW0NASF0yW0NASF0xNClbQ0BASF01W0NASF00W0NAQEhdNltDQEhdM1tDQEhdNTY=

>  <s_epik_cmdline>  (72) 
J2VwaWtfcHl0aG9uJywgJy1waHQnLCAnMi4wJywgJy1waCcsICc3LjAnLCAnLXRuJywgJzgnLCAnLW1hJywgJzIwMCcsICctaW1hZScsICc8aW5maWxlLm1hZT4nLCAnLW9tYWUnLCAnPG91dGZpbGUubWFlPic=

>  <r_epik_Ionization_Penalty>  (72) 
0.00217399

>  <r_epik_Ionization_Penalty_Charging>  (72) 
0.00217399

>  <r_epik_Ionization_Penalty_Neutral>  (72) 
3.52106e-10

>  <r_epik_State_Penalty>  (72) 
0.0166306

>  <r_epik_Charging_Adjusted_Penalty>  (72) 
0.0188046

>  <i_epik_Tot_Q>  (72) 
1

>  <i_epik_Tot_abs_Q>  (72) 
1

>  <s_lp_Force_Field>  (72) 
OPLS3e

>  <r_lp_Energy>  (72) 
449.286

>  <b_lp_Chiralities_Consistent>  (72) 
1

>  <s_lp_Variant>  (72) 
18:0-1

>  <s_i_glide_gridfile>  (72) 
pfpi4k_grid

>  <i_i_glide_lignum>  (72) 
28

>  <i_i_glide_rotatable_bonds>  (72) 
1

>  <r_i_docking_score>  (72) 
-4.54621

>  <r_i_glide_ligand_efficiency>  (72) 
-0.303081

>  <r_i_glide_ligand_efficiency_sa>  (72) 
-0.747461

>  <r_i_glide_ligand_efficiency_ln>  (72) 
-1.22604

>  <r_i_glide_gscore>  (72) 
-4.54621

>  <r_i_glide_lipo>  (72) 
-0.518276

>  <r_i_glide_hbond>  (72) 
-0.17674

>  <r_i_glide_metal>  (72) 
-0

>  <r_i_glide_rewards>  (72) 
-2.02293

>  <r_i_glide_evdw>  (72) 
-19.471

>  <r_i_glide_ecoul>  (72) 
-5.28756

>  <r_i_glide_erotb>  (72) 
0

>  <r_i_glide_esite>  (72) 
-0.0615755

>  <r_i_glide_emodel>  (72) 
-32.1508

>  <r_i_glide_energy>  (72) 
-24.7586

>  <r_i_glide_einternal>  (72) 
0.489683

>  <r_i_glide_intrahb_reward>  (72) 
-0

>  <i_i_glide_confnum>  (72) 
1

>  <i_i_glide_posenum>  (72) 
38

>  <r_i_glide_eff_state_penalty>  (72) 
0

>  <ligand_id>  (72) 
18

>  <original_smiles>  (72) 
NNC1CC2C3CC1C1C3C3C4C2C1C34

>  <smiles>  (72) 
[H]N([H])[N+]([H])([H])C1([H])C([H])([H])C2([H])C3([H])C([H])([H])C1([H])C1([H])C3([H])C3([H])C4([H])C2([H])C1([H])C43[H]

$$$$
18:0:2
     RDKit          3D

 34 39  0  0  1  0  0  0  0  0999 V2000
    3.3247    0.1265    1.4903 N   0  0  0  0  0  0  0  0  0  0  0  0
    3.0211   -0.8970    0.4794 N   0  0  0  0  0  0  0  0  0  0  0  0
    4.1067   -1.1006   -0.5110 C   0  0  2  0  0  0  0  0  0  0  0  0
    3.6431   -1.8876   -1.7394 C   0  0  0  0  0  0  0  0  0  0  0  0
    3.9632   -3.3548   -1.4738 C   0  0  1  0  0  0  0  0  0  0  0  0
    5.6503   -3.5904   -1.0453 C   0  0  1  0  0  0  0  0  0  0  0  0
    6.3133   -2.2499   -0.9381 C   0  0  0  0  0  0  0  0  0  0  0  0
    5.3275   -1.8479    0.1048 C   0  0  2  0  0  0  0  0  0  0  0  0
    4.9390   -3.2464    0.7436 C   0  0  2  0  0  0  0  0  0  0  0  0
    5.8029   -4.2532    0.5469 C   0  0  1  0  0  0  0  0  0  0  0  0
    4.6025   -4.8929    1.5600 C   0  0  1  0  0  0  0  0  0  0  0  0
    2.9167   -4.3414    1.2084 C   0  0  1  0  0  0  0  0  0  0  0  0
    2.8322   -3.9113   -0.3708 C   0  0  1  0  0  0  0  0  0  0  0  0
    3.9251   -4.6192    0.0226 C   0  0  2  0  0  0  0  0  0  0  0  0
    3.5536   -5.5202    1.0223 C   0  0  1  0  0  0  0  0  0  0  0  0
    3.4032    0.9472    0.8994 H   0  0  0  0  0  0  0  0  0  0  0  0
    2.4292    0.1913    1.9504 H   0  0  0  0  0  0  0  0  0  0  0  0
    2.8829   -1.7538    0.9798 H   0  0  0  0  0  0  0  0  0  0  0  0
    4.4327   -0.1215   -0.8695 H   0  0  0  0  0  0  0  0  0  0  0  0
    2.5801   -1.7534   -1.9350 H   0  0  0  0  0  0  0  0  0  0  0  0
    4.1534   -1.5519   -2.6397 H   0  0  0  0  0  0  0  0  0  0  0  0
    3.8005   -3.8572   -2.4284 H   0  0  0  0  0  0  0  0  0  0  0  0
    6.1534   -4.2032   -1.7892 H   0  0  0  0  0  0  0  0  0  0  0  0
    7.3246   -2.3463   -0.5506 H   0  0  0  0  0  0  0  0  0  0  0  0
    6.3078   -1.6553   -1.8504 H   0  0  0  0  0  0  0  0  0  0  0  0
    5.8201   -1.1999    0.8261 H   0  0  0  0  0  0  0  0  0  0  0  0
    4.7760   -2.8533    1.7765 H   0  0  0  0  0  0  0  0  0  0  0  0
    6.7575   -4.0929    1.0541 H   0  0  0  0  0  0  0  0  0  0  0  0
    4.8729   -5.1541    2.5853 H   0  0  0  0  0  0  0  0  0  0  0  0
    2.1304   -4.1901    1.9447 H   0  0  0  0  0  0  0  0  0  0  0  0
    2.1087   -4.5442   -0.8923 H   0  0  0  0  0  0  0  0  0  0  0  0
    4.2475   -5.3637   -0.7523 H   0  0  0  0  0  0  0  0  0  0  0  0
    3.2594   -6.5420    0.8003 H   0  0  0  0  0  0  0  0  0  0  0  0
    2.1386   -0.6450    0.0161 H   0  0  0  0  0  0  0  0  0  0  0  0
  1  2  1  0
  1 16  1  0
  1 17  1  0
  2  3  1  0
  2 18  1  0
  2 34  1  0
  3  8  1  0
  3  4  1  0
  3 19  1  6
  4  5  1  0
  4 20  1  0
  4 21  1  0
  5 13  1  0
  5  6  1  0
  5 22  1  6
  6 10  1  0
  6  7  1  0
  6 23  1  6
  7  8  1  0
  7 24  1  0
  7 25  1  0
  8  9  1  0
  8 26  1  1
  9 14  1  0
  9 10  1  0
  9 27  1  1
 10 11  1  0
 10 28  1  1
 11 15  1  0
 11 12  1  0
 11 29  1  1
 12 15  1  0
 12 13  1  0
 12 30  1  1
 13 14  1  0
 13 31  1  6
 14 15  1  0
 14 32  1  6
 15 33  1  6
M  CHG  1   2   1
M  END
>  <i_m_ct_stereo_status>  (73) 
1

>  <s_m_source_file>  (73) 
/var/tmp/pbs.5076255.sched01/tmpd0mq1ayv/02wja6gfv.sdf

>  <i_m_source_file_index>  (73) 
28

>  <i_lp_mmshare_version>  (73) 
48012

>  <i_f3d_flags>  (73) 
0

>  <s_epik_input>  (73) 
W05IMl1bTkhdW0NASF0oW0NIMl0xKVtDQEhdKFtDSDJdMilbQ0BIXShbQ0BASF0zW0NASF0yW0NASF0xNClbQ0BASF01W0NASF00W0NAQEhdNltDQEhdM1tDQEhdNTY=

>  <s_epik_cmdline>  (73) 
J2VwaWtfcHl0aG9uJywgJy1waHQnLCAnMi4wJywgJy1waCcsICc3LjAnLCAnLXRuJywgJzgnLCAnLW1hJywgJzIwMCcsICctaW1hZScsICc8aW5maWxlLm1hZT4nLCAnLW9tYWUnLCAnPG91dGZpbGUubWFlPic=

>  <r_epik_Ionization_Penalty>  (73) 
0.00217399

>  <r_epik_Ionization_Penalty_Charging>  (73) 
0.00217399

>  <r_epik_Ionization_Penalty_Neutral>  (73) 
3.52106e-10

>  <r_epik_State_Penalty>  (73) 
0.0166306

>  <r_epik_Charging_Adjusted_Penalty>  (73) 
0.0188046

>  <i_epik_Tot_Q>  (73) 
1

>  <i_epik_Tot_abs_Q>  (73) 
1

>  <s_lp_Force_Field>  (73) 
OPLS3e

>  <r_lp_Energy>  (73) 
449.286

>  <b_lp_Chiralities_Consistent>  (73) 
1

>  <s_lp_Variant>  (73) 
18:0-1

>  <s_i_glide_gridfile>  (73) 
pfpi4k_grid

>  <i_i_glide_lignum>  (73) 
28

>  <i_i_glide_rotatable_bonds>  (73) 
1

>  <r_i_docking_score>  (73) 
-4.35268

>  <r_i_glide_ligand_efficiency>  (73) 
-0.290179

>  <r_i_glide_ligand_efficiency_sa>  (73) 
-0.715643

>  <r_i_glide_ligand_efficiency_ln>  (73) 
-1.17385

>  <r_i_glide_gscore>  (73) 
-4.35268

>  <r_i_glide_lipo>  (73) 
-0.230825

>  <r_i_glide_hbond>  (73) 
-0.2

>  <r_i_glide_metal>  (73) 
-0

>  <r_i_glide_rewards>  (73) 
-2.02293

>  <r_i_glide_evdw>  (73) 
-16.3723

>  <r_i_glide_ecoul>  (73) 
-6.65188

>  <r_i_glide_erotb>  (73) 
0

>  <r_i_glide_esite>  (73) 
-0.0825285

>  <r_i_glide_emodel>  (73) 
-30.4415

>  <r_i_glide_energy>  (73) 
-23.0242

>  <r_i_glide_einternal>  (73) 
0.069894

>  <r_i_glide_intrahb_reward>  (73) 
-0

>  <i_i_glide_confnum>  (73) 
1

>  <i_i_glide_posenum>  (73) 
12

>  <r_i_glide_eff_state_penalty>  (73) 
0

>  <ligand_id>  (73) 
18

>  <original_smiles>  (73) 
NNC1CC2C3CC1C1C3C3C4C2C1C34

>  <smiles>  (73) 
[H]N([H])[N+]([H])([H])C1([H])C([H])([H])C2([H])C3([H])C([H])([H])C1([H])C1([H])C3([H])C3([H])C4([H])C2([H])C1([H])C43[H]

$$$$
18:1:0
     RDKit          3D

 34 39  0  0  1  0  0  0  0  0999 V2000
    2.2243   -1.2532    1.2920 N   0  0  0  0  0  0  0  0  0  0  0  0
    2.8708   -2.4447    0.7365 N   0  0  0  0  0  0  0  0  0  0  0  0
    4.3205   -2.2961    0.6332 C   0  0  2  0  0  0  0  0  0  0  0  0
    4.8328   -0.9499    0.0855 C   0  0  0  0  0  0  0  0  0  0  0  0
    5.0871   -1.1335   -1.4023 C   0  0  1  0  0  0  0  0  0  0  0  0
    6.0898   -2.5508   -1.7560 C   0  0  1  0  0  0  0  0  0  0  0  0
    6.3418   -3.2741   -0.4689 C   0  0  0  0  0  0  0  0  0  0  0  0
    4.8740   -3.4311   -0.2684 C   0  0  2  0  0  0  0  0  0  0  0  0
    4.3516   -3.3832   -1.7683 C   0  0  2  0  0  0  0  0  0  0  0  0
    5.2295   -3.6722   -2.7310 C   0  0  1  0  0  0  0  0  0  0  0  0
    3.7855   -3.5042   -3.5444 C   0  0  1  0  0  0  0  0  0  0  0  0
    2.6893   -2.2099   -2.9090 C   0  0  1  0  0  0  0  0  0  0  0  0
    3.6010   -1.0739   -2.1606 C   0  0  1  0  0  0  0  0  0  0  0  0
    4.2382   -1.9559   -2.9517 C   0  0  2  0  0  0  0  0  0  0  0  0
    3.4409   -2.3227   -4.0251 C   0  0  1  0  0  0  0  0  0  0  0  0
    1.5819   -0.9564    0.5411 H   0  0  0  0  0  0  0  0  0  0  0  0
    2.9494   -0.5660    1.4607 H   0  0  0  0  0  0  0  0  0  0  0  0
    2.4573   -2.3902   -0.1842 H   0  0  0  0  0  0  0  0  0  0  0  0
    4.7001   -2.4128    1.6469 H   0  0  0  0  0  0  0  0  0  0  0  0
    4.1691   -0.0946    0.2248 H   0  0  0  0  0  0  0  0  0  0  0  0
    5.7731   -0.6914    0.5726 H   0  0  0  0  0  0  0  0  0  0  0  0
    5.6586   -0.2743   -1.7137 H   0  0  0  0  0  0  0  0  0  0  0  0
    7.0214   -2.2618   -2.2231 H   0  0  0  0  0  0  0  0  0  0  0  0
    6.8454   -4.2251   -0.6372 H   0  0  0  0  0  0  0  0  0  0  0  0
    6.8589   -2.7051    0.3113 H   0  0  0  0  0  0  0  0  0  0  0  0
    4.6776   -4.4015    0.1884 H   0  0  0  0  0  0  0  0  0  0  0  0
    3.4812   -4.0551   -1.6046 H   0  0  0  0  0  0  0  0  0  0  0  0
    5.5296   -4.7102   -2.6590 H   0  0  0  0  0  0  0  0  0  0  0  0
    3.3374   -4.3586   -4.0281 H   0  0  0  0  0  0  0  0  0  0  0  0
    1.6180   -2.2445   -2.9238 H   0  0  0  0  0  0  0  0  0  0  0  0
    3.5057   -0.1318   -2.7166 H   0  0  0  0  0  0  0  0  0  0  0  0
    5.0809   -1.4873   -3.5204 H   0  0  0  0  0  0  0  0  0  0  0  0
    3.4928   -1.7687   -4.9439 H   0  0  0  0  0  0  0  0  0  0  0  0
    1.7308   -1.5328    2.1273 H   0  0  0  0  0  0  0  0  0  0  0  0
  1  2  1  0
  1 16  1  0
  1 17  1  0
  1 34  1  0
  2  3  1  0
  2 18  1  0
  3  8  1  0
  3  4  1  0
  3 19  1  1
  4  5  1  0
  4 20  1  0
  4 21  1  0
  5 13  1  0
  5  6  1  0
  5 22  1  6
  6 10  1  0
  6  7  1  0
  6 23  1  6
  7  8  1  0
  7 24  1  0
  7 25  1  0
  8  9  1  0
  8 26  1  1
  9 14  1  0
  9 10  1  0
  9 27  1  1
 10 11  1  0
 10 28  1  1
 11 15  1  0
 11 12  1  0
 11 29  1  6
 12 15  1  0
 12 13  1  0
 12 30  1  6
 13 14  1  0
 13 31  1  6
 14 15  1  0
 14 32  1  6
 15 33  1  6
M  CHG  1   1   1
M  END
>  <i_m_ct_stereo_status>  (74) 
1

>  <s_m_source_file>  (74) 
/var/tmp/pbs.5076255.sched01/tmpd0mq1ayv/02wja6gfv.sdf

>  <i_m_source_file_index>  (74) 
29

>  <i_lp_mmshare_version>  (74) 
48012

>  <i_f3d_flags>  (74) 
0

>  <s_epik_input>  (74) 
W05IMl1bTkhdW0NASF0oW0NIMl0xKVtDQEhdKFtDSDJdMilbQ0BIXShbQ0BASF0zW0NASF0yW0NASF0xNClbQ0BASF01W0NASF00W0NAQEhdNltDQEhdM1tDQEhdNTY=

>  <s_epik_cmdline>  (74) 
J2VwaWtfcHl0aG9uJywgJy1waHQnLCAnMi4wJywgJy1waCcsICc3LjAnLCAnLXRuJywgJzgnLCAnLW1hJywgJzIwMCcsICctaW1hZScsICc8aW5maWxlLm1hZT4nLCAnLW9tYWUnLCAnPG91dGZpbGUubWFlPic=

>  <r_epik_Ionization_Penalty>  (74) 
0.063234

>  <r_epik_Ionization_Penalty_Charging>  (74) 
0.063234

>  <r_epik_Ionization_Penalty_Neutral>  (74) 
1.1518e-10

>  <r_epik_State_Penalty>  (74) 
2.1803

>  <r_epik_Charging_Adjusted_Penalty>  (74) 
2.24353

>  <i_epik_Tot_Q>  (74) 
1

>  <i_epik_Tot_abs_Q>  (74) 
1

>  <s_lp_Force_Field>  (74) 
OPLS3e

>  <r_lp_Energy>  (74) 
448.936

>  <b_lp_Chiralities_Consistent>  (74) 
1

>  <s_lp_Variant>  (74) 
18:0-2

>  <s_i_glide_gridfile>  (74) 
pfpi4k_grid

>  <i_i_glide_lignum>  (74) 
29

>  <i_i_glide_rotatable_bonds>  (74) 
1

>  <r_i_docking_score>  (74) 
-4.90132

>  <r_i_glide_ligand_efficiency>  (74) 
-0.326754

>  <r_i_glide_ligand_efficiency_sa>  (74) 
-0.805846

>  <r_i_glide_ligand_efficiency_ln>  (74) 
-1.3218

>  <r_i_glide_gscore>  (74) 
-4.90132

>  <r_i_glide_lipo>  (74) 
-0.502699

>  <r_i_glide_hbond>  (74) 
-0.22662

>  <r_i_glide_metal>  (74) 
-0

>  <r_i_glide_rewards>  (74) 
-2.02293

>  <r_i_glide_evdw>  (74) 
-18.1664

>  <r_i_glide_ecoul>  (74) 
-7.69656

>  <r_i_glide_erotb>  (74) 
0

>  <r_i_glide_esite>  (74) 
-0.0862581

>  <r_i_glide_emodel>  (74) 
-34.5904

>  <r_i_glide_energy>  (74) 
-25.863

>  <r_i_glide_einternal>  (74) 
1.07739

>  <r_i_glide_intrahb_reward>  (74) 
-0

>  <i_i_glide_confnum>  (74) 
1

>  <i_i_glide_posenum>  (74) 
33

>  <r_i_glide_eff_state_penalty>  (74) 
0

>  <ligand_id>  (74) 
18

>  <original_smiles>  (74) 
NNC1CC2C3CC1C1C3C3C4C2C1C34

>  <smiles>  (74) 
[H]N(C1([H])C([H])([H])C2([H])C3([H])C([H])([H])C1([H])C1([H])C3([H])C3([H])C4([H])C2([H])C1([H])C34[H])[N+]([H])([H])[H]

$$$$
18:1:1
     RDKit          3D

 34 39  0  0  1  0  0  0  0  0999 V2000
    1.9490   -0.6870    1.6812 N   0  0  0  0  0  0  0  0  0  0  0  0
    2.5786   -1.9522    1.2938 N   0  0  0  0  0  0  0  0  0  0  0  0
    3.9971   -2.0103    1.6201 C   0  0  2  0  0  0  0  0  0  0  0  0
    4.8320   -0.7874    1.2007 C   0  0  0  0  0  0  0  0  0  0  0  0
    5.4693   -1.1200   -0.1412 C   0  0  1  0  0  0  0  0  0  0  0  0
    6.3205   -2.6798   -0.1344 C   0  0  1  0  0  0  0  0  0  0  0  0
    6.0869   -3.3254    1.1848 C   0  0  0  0  0  0  0  0  0  0  0  0
    4.6134   -3.2735    0.9607 C   0  0  2  0  0  0  0  0  0  0  0  0
    4.5461   -3.2774   -0.6259 C   0  0  2  0  0  0  0  0  0  0  0  0
    5.6023   -3.7712   -1.2666 C   0  0  1  0  0  0  0  0  0  0  0  0
    4.4790   -3.4580   -2.4776 C   0  0  1  0  0  0  0  0  0  0  0  0
    3.4578   -1.9836   -2.2468 C   0  0  1  0  0  0  0  0  0  0  0  0
    4.2814   -0.9374   -1.3000 C   0  0  1  0  0  0  0  0  0  0  0  0
    4.9894   -1.9474   -1.8517 C   0  0  2  0  0  0  0  0  0  0  0  0
    4.4724   -2.2781   -3.0909 C   0  0  1  0  0  0  0  0  0  0  0  0
    1.5671   -0.3180    0.7993 H   0  0  0  0  0  0  0  0  0  0  0  0
    2.6707   -0.0908    2.0754 H   0  0  0  0  0  0  0  0  0  0  0  0
    2.4315   -1.8676    0.2955 H   0  0  0  0  0  0  0  0  0  0  0  0
    4.0591   -2.0995    2.7037 H   0  0  0  0  0  0  0  0  0  0  0  0
    4.2742    0.1495    1.1155 H   0  0  0  0  0  0  0  0  0  0  0  0
    5.6259   -0.6155    1.9275 H   0  0  0  0  0  0  0  0  0  0  0  0
    6.2140   -0.3475   -0.2814 H   0  0  0  0  0  0  0  0  0  0  0  0
    7.3728   -2.5384   -0.3263 H   0  0  0  0  0  0  0  0  0  0  0  0
    6.4740   -4.3455    1.2003 H   0  0  0  0  0  0  0  0  0  0  0  0
    6.4416   -2.7671    2.0560 H   0  0  0  0  0  0  0  0  0  0  0  0
    4.1533   -4.1725    1.3753 H   0  0  0  0  0  0  0  0  0  0  0  0
    3.5714   -3.8125   -0.6928 H   0  0  0  0  0  0  0  0  0  0  0  0
    5.7442   -4.8391   -1.0604 H   0  0  0  0  0  0  0  0  0  0  0  0
    4.0828   -4.2707   -3.0568 H   0  0  0  0  0  0  0  0  0  0  0  0
    2.4516   -1.8292   -2.5846 H   0  0  0  0  0  0  0  0  0  0  0  0
    4.4691   -0.0181   -1.8713 H   0  0  0  0  0  0  0  0  0  0  0  0
    6.0312   -1.6411   -2.1490 H   0  0  0  0  0  0  0  0  0  0  0  0
    4.8767   -1.8239   -3.9754 H   0  0  0  0  0  0  0  0  0  0  0  0
    1.2133   -0.8991    2.3368 H   0  0  0  0  0  0  0  0  0  0  0  0
  1  2  1  0
  1 16  1  0
  1 17  1  0
  1 34  1  0
  2  3  1  0
  2 18  1  0
  3  8  1  0
  3  4  1  0
  3 19  1  1
  4  5  1  0
  4 20  1  0
  4 21  1  0
  5 13  1  0
  5  6  1  0
  5 22  1  6
  6 10  1  0
  6  7  1  0
  6 23  1  6
  7  8  1  0
  7 24  1  0
  7 25  1  0
  8  9  1  0
  8 26  1  1
  9 14  1  0
  9 10  1  0
  9 27  1  1
 10 11  1  0
 10 28  1  1
 11 15  1  0
 11 12  1  0
 11 29  1  6
 12 15  1  0
 12 13  1  0
 12 30  1  6
 13 14  1  0
 13 31  1  6
 14 15  1  0
 14 32  1  6
 15 33  1  6
M  CHG  1   1   1
M  END
>  <i_m_ct_stereo_status>  (75) 
1

>  <s_m_source_file>  (75) 
/var/tmp/pbs.5076255.sched01/tmpd0mq1ayv/02wja6gfv.sdf

>  <i_m_source_file_index>  (75) 
29

>  <i_lp_mmshare_version>  (75) 
48012

>  <i_f3d_flags>  (75) 
0

>  <s_epik_input>  (75) 
W05IMl1bTkhdW0NASF0oW0NIMl0xKVtDQEhdKFtDSDJdMilbQ0BIXShbQ0BASF0zW0NASF0yW0NASF0xNClbQ0BASF01W0NASF00W0NAQEhdNltDQEhdM1tDQEhdNTY=

>  <s_epik_cmdline>  (75) 
J2VwaWtfcHl0aG9uJywgJy1waHQnLCAnMi4wJywgJy1waCcsICc3LjAnLCAnLXRuJywgJzgnLCAnLW1hJywgJzIwMCcsICctaW1hZScsICc8aW5maWxlLm1hZT4nLCAnLW9tYWUnLCAnPG91dGZpbGUubWFlPic=

>  <r_epik_Ionization_Penalty>  (75) 
0.063234

>  <r_epik_Ionization_Penalty_Charging>  (75) 
0.063234

>  <r_epik_Ionization_Penalty_Neutral>  (75) 
1.1518e-10

>  <r_epik_State_Penalty>  (75) 
2.1803

>  <r_epik_Charging_Adjusted_Penalty>  (75) 
2.24353

>  <i_epik_Tot_Q>  (75) 
1

>  <i_epik_Tot_abs_Q>  (75) 
1

>  <s_lp_Force_Field>  (75) 
OPLS3e

>  <r_lp_Energy>  (75) 
448.936

>  <b_lp_Chiralities_Consistent>  (75) 
1

>  <s_lp_Variant>  (75) 
18:0-2

>  <s_i_glide_gridfile>  (75) 
pfpi4k_grid

>  <i_i_glide_lignum>  (75) 
29

>  <i_i_glide_rotatable_bonds>  (75) 
1

>  <r_i_docking_score>  (75) 
-4.55766

>  <r_i_glide_ligand_efficiency>  (75) 
-0.303844

>  <r_i_glide_ligand_efficiency_sa>  (75) 
-0.749344

>  <r_i_glide_ligand_efficiency_ln>  (75) 
-1.22913

>  <r_i_glide_gscore>  (75) 
-4.55766

>  <r_i_glide_lipo>  (75) 
-0.456496

>  <r_i_glide_hbond>  (75) 
-0.208596

>  <r_i_glide_metal>  (75) 
-0

>  <r_i_glide_rewards>  (75) 
-2.02293

>  <r_i_glide_evdw>  (75) 
-18.4567

>  <r_i_glide_ecoul>  (75) 
-5.7346

>  <r_i_glide_erotb>  (75) 
0

>  <r_i_glide_esite>  (75) 
-0.0866125

>  <r_i_glide_emodel>  (75) 
-32.5778

>  <r_i_glide_energy>  (75) 
-24.1913

>  <r_i_glide_einternal>  (75) 
0.701255

>  <r_i_glide_intrahb_reward>  (75) 
-0

>  <i_i_glide_confnum>  (75) 
2

>  <i_i_glide_posenum>  (75) 
23

>  <r_i_glide_eff_state_penalty>  (75) 
0

>  <ligand_id>  (75) 
18

>  <original_smiles>  (75) 
NNC1CC2C3CC1C1C3C3C4C2C1C34

>  <smiles>  (75) 
[H]N(C1([H])C([H])([H])C2([H])C3([H])C([H])([H])C1([H])C1([H])C3([H])C3([H])C4([H])C2([H])C1([H])C34[H])[N+]([H])([H])[H]

$$$$
18:1:2
     RDKit          3D

 34 39  0  0  1  0  0  0  0  0999 V2000
    1.8241    0.1544    1.2822 N   0  0  0  0  0  0  0  0  0  0  0  0
    3.2999    0.0174    1.2966 N   0  0  0  0  0  0  0  0  0  0  0  0
    3.7062   -1.1088    2.1290 C   0  0  2  0  0  0  0  0  0  0  0  0
    5.2213   -1.1697    2.3372 C   0  0  0  0  0  0  0  0  0  0  0  0
    5.7782   -2.1859    1.3421 C   0  0  1  0  0  0  0  0  0  0  0  0
    4.9008   -3.7326    1.3599 C   0  0  1  0  0  0  0  0  0  0  0  0
    3.7748   -3.6036    2.3206 C   0  0  0  0  0  0  0  0  0  0  0  0
    3.2360   -2.4652    1.5293 C   0  0  2  0  0  0  0  0  0  0  0  0
    3.8290   -2.7685    0.0893 C   0  0  2  0  0  0  0  0  0  0  0  0
    4.1357   -4.0396   -0.1666 C   0  0  1  0  0  0  0  0  0  0  0  0
    4.3412   -3.2396   -1.6313 C   0  0  1  0  0  0  0  0  0  0  0  0
    5.0066   -1.5562   -1.5261 C   0  0  1  0  0  0  0  0  0  0  0  0
    5.8548   -1.4067   -0.1277 C   0  0  1  0  0  0  0  0  0  0  0  0
    5.5742   -2.6647   -0.5490 C   0  0  2  0  0  0  0  0  0  0  0  0
    5.5350   -2.7338   -1.9337 C   0  0  1  0  0  0  0  0  0  0  0  0
    1.6028    1.1176    1.5652 H   0  0  0  0  0  0  0  0  0  0  0  0
    1.4666   -0.5308    1.9629 H   0  0  0  0  0  0  0  0  0  0  0  0
    3.5590    0.9086    1.6993 H   0  0  0  0  0  0  0  0  0  0  0  0
    3.2669   -0.9402    3.1109 H   0  0  0  0  0  0  0  0  0  0  0  0
    5.7077   -0.1953    2.2173 H   0  0  0  0  0  0  0  0  0  0  0  0
    5.4561   -1.5275    3.3398 H   0  0  0  0  0  0  0  0  0  0  0  0
    6.7906   -2.4060    1.6617 H   0  0  0  0  0  0  0  0  0  0  0  0
    5.5660   -4.5346    1.6418 H   0  0  0  0  0  0  0  0  0  0  0  0
    3.1186   -4.4737    2.2880 H   0  0  0  0  0  0  0  0  0  0  0  0
    4.0448   -3.3635    3.3542 H   0  0  0  0  0  0  0  0  0  0  0  0
    2.1471   -2.5258    1.5323 H   0  0  0  0  0  0  0  0  0  0  0  0
    2.9942   -2.2789   -0.4582 H   0  0  0  0  0  0  0  0  0  0  0  0
    3.2692   -4.7036   -0.1501 H   0  0  0  0  0  0  0  0  0  0  0  0
    3.6893   -3.4984   -2.4587 H   0  0  0  0  0  0  0  0  0  0  0  0
    4.8203   -0.7378   -2.1888 H   0  0  0  0  0  0  0  0  0  0  0  0
    6.9028   -1.1836   -0.3375 H   0  0  0  0  0  0  0  0  0  0  0  0
    6.4062   -3.3953   -0.3299 H   0  0  0  0  0  0  0  0  0  0  0  0
    6.4263   -3.0190   -2.4669 H   0  0  0  0  0  0  0  0  0  0  0  0
    1.4983   -0.0905    0.3707 H   0  0  0  0  0  0  0  0  0  0  0  0
  1  2  1  0
  1 16  1  0
  1 17  1  0
  1 34  1  0
  2  3  1  0
  2 18  1  0
  3  8  1  0
  3  4  1  0
  3 19  1  1
  4  5  1  0
  4 20  1  0
  4 21  1  0
  5 13  1  0
  5  6  1  0
  5 22  1  1
  6 10  1  0
  6  7  1  0
  6 23  1  1
  7  8  1  0
  7 24  1  0
  7 25  1  0
  8  9  1  0
  8 26  1  6
  9 14  1  0
  9 10  1  0
  9 27  1  6
 10 11  1  0
 10 28  1  6
 11 15  1  0
 11 12  1  0
 11 29  1  6
 12 15  1  0
 12 13  1  0
 12 30  1  6
 13 14  1  0
 13 31  1  6
 14 15  1  0
 14 32  1  1
 15 33  1  6
M  CHG  1   1   1
M  END
>  <i_m_ct_stereo_status>  (76) 
1

>  <s_m_source_file>  (76) 
/var/tmp/pbs.5076255.sched01/tmpd0mq1ayv/02wja6gfv.sdf

>  <i_m_source_file_index>  (76) 
29

>  <i_lp_mmshare_version>  (76) 
48012

>  <i_f3d_flags>  (76) 
0

>  <s_epik_input>  (76) 
W05IMl1bTkhdW0NASF0oW0NIMl0xKVtDQEhdKFtDSDJdMilbQ0BIXShbQ0BASF0zW0NASF0yW0NASF0xNClbQ0BASF01W0NASF00W0NAQEhdNltDQEhdM1tDQEhdNTY=

>  <s_epik_cmdline>  (76) 
J2VwaWtfcHl0aG9uJywgJy1waHQnLCAnMi4wJywgJy1waCcsICc3LjAnLCAnLXRuJywgJzgnLCAnLW1hJywgJzIwMCcsICctaW1hZScsICc8aW5maWxlLm1hZT4nLCAnLW9tYWUnLCAnPG91dGZpbGUubWFlPic=

>  <r_epik_Ionization_Penalty>  (76) 
0.063234

>  <r_epik_Ionization_Penalty_Charging>  (76) 
0.063234

>  <r_epik_Ionization_Penalty_Neutral>  (76) 
1.1518e-10

>  <r_epik_State_Penalty>  (76) 
2.1803

>  <r_epik_Charging_Adjusted_Penalty>  (76) 
2.24353

>  <i_epik_Tot_Q>  (76) 
1

>  <i_epik_Tot_abs_Q>  (76) 
1

>  <s_lp_Force_Field>  (76) 
OPLS3e

>  <r_lp_Energy>  (76) 
448.936

>  <b_lp_Chiralities_Consistent>  (76) 
1

>  <s_lp_Variant>  (76) 
18:0-2

>  <s_i_glide_gridfile>  (76) 
pfpi4k_grid

>  <i_i_glide_lignum>  (76) 
29

>  <i_i_glide_rotatable_bonds>  (76) 
1

>  <r_i_docking_score>  (76) 
-4.52358

>  <r_i_glide_ligand_efficiency>  (76) 
-0.301572

>  <r_i_glide_ligand_efficiency_sa>  (76) 
-0.743741

>  <r_i_glide_ligand_efficiency_ln>  (76) 
-1.21994

>  <r_i_glide_gscore>  (76) 
-4.52358

>  <r_i_glide_lipo>  (76) 
-0.284247

>  <r_i_glide_hbond>  (76) 
-0.2

>  <r_i_glide_metal>  (76) 
-0

>  <r_i_glide_rewards>  (76) 
-2.02293

>  <r_i_glide_evdw>  (76) 
-17.484

>  <r_i_glide_ecoul>  (76) 
-7.04259

>  <r_i_glide_erotb>  (76) 
0

>  <r_i_glide_esite>  (76) 
-0.0858141

>  <r_i_glide_emodel>  (76) 
-33.1225

>  <r_i_glide_energy>  (76) 
-24.5266

>  <r_i_glide_einternal>  (76) 
0.387732

>  <r_i_glide_intrahb_reward>  (76) 
-0

>  <i_i_glide_confnum>  (76) 
1

>  <i_i_glide_posenum>  (76) 
28

>  <r_i_glide_eff_state_penalty>  (76) 
0

>  <ligand_id>  (76) 
18

>  <original_smiles>  (76) 
NNC1CC2C3CC1C1C3C3C4C2C1C34

>  <smiles>  (76) 
[H]N(C1([H])C([H])([H])C2([H])C3([H])C([H])([H])C1([H])C1([H])C3([H])C3([H])C4([H])C2([H])C1([H])C34[H])[N+]([H])([H])[H]

$$$$
19:0:0
     RDKit          3D

 59 64  0  0  1  0  0  0  0  0999 V2000
   -1.4659    1.4784    8.3702 C   0  0  0  0  0  0  0  0  0  0  0  0
   -1.3597    1.1582    6.9892 O   0  0  0  0  0  0  0  0  0  0  0  0
   -0.9675    2.2064    6.0927 C   0  0  1  0  0  0  0  0  0  0  0  0
   -2.2110    3.0890    5.8583 C   0  0  0  0  0  0  0  0  0  0  0  0
   -2.0038    3.0384    4.3446 C   0  0  1  0  0  0  0  0  0  0  0  0
   -3.2223    2.8915    3.6363 O   0  0  0  0  0  0  0  0  0  0  0  0
   -1.2660    4.1684    3.6367 C   0  0  0  0  0  0  0  0  0  0  0  0
    0.2712    4.0386    3.6321 C   0  0  0  0  0  0  0  0  0  0  0  0
    0.9003    2.6195    3.3558 C   0  0  2  0  0  0  0  0  0  0  0  0
   -0.1185    1.4486    3.4927 C   0  0  1  0  0  0  0  0  0  0  0  0
   -0.8538    1.3345    2.1192 C   0  0  0  0  0  0  0  0  0  0  0  0
    0.5248    0.0540    3.6038 C   0  0  0  0  0  0  0  0  0  0  0  0
    0.9421   -0.4214    4.9735 C   0  0  0  0  0  0  0  0  0  0  0  0
    2.0417    0.3546    5.7099 C   0  0  2  0  0  0  0  0  0  0  0  0
    1.6070    0.8089    7.1025 C   0  0  0  0  0  0  0  0  0  0  0  0
    1.5913    2.3342    7.0449 C   0  0  2  0  0  0  0  0  0  0  0  0
    0.2542    3.0030    6.6150 C   0  0  0  0  0  0  0  0  0  0  0  0
    0.1755    4.2030    6.8873 O   0  0  0  0  0  0  0  0  0  0  0  0
    2.8639    2.6174    6.1924 C   0  0  2  0  0  0  0  0  0  0  0  0
    3.9497    2.4692    7.1032 O   0  0  0  0  0  0  0  0  0  0  0  0
    3.0762    3.9968    5.5245 C   0  0  0  0  0  0  0  0  0  0  0  0
    3.1376    3.7091    4.0179 C   0  0  0  0  0  0  0  0  0  0  0  0
    2.4114    2.3598    3.7827 C   0  0  2  0  0  0  0  0  0  0  0  0
    3.0048    1.7801    2.6272 O   0  0  0  0  0  0  0  0  0  0  0  0
    2.8666    1.5337    5.0718 C   0  0  2  0  0  0  0  0  0  0  0  0
    4.3039    0.9620    4.8442 C   0  0  0  0  0  0  0  0  0  0  0  0
   -1.1840    1.7563    4.5869 C   0  0  1  0  0  0  0  0  0  0  0  0
   -1.7755    0.5793    8.8727 H   0  0  0  0  0  0  0  0  0  0  0  0
   -2.1829    2.2712    8.5650 H   0  0  0  0  0  0  0  0  0  0  0  0
   -0.5129    1.7405    8.8185 H   0  0  0  0  0  0  0  0  0  0  0  0
   -3.1406    2.6082    6.1645 H   0  0  0  0  0  0  0  0  0  0  0  0
   -2.1642    4.1021    6.2517 H   0  0  0  0  0  0  0  0  0  0  0  0
   -3.2649    1.9950    3.3419 H   0  0  0  0  0  0  0  0  0  0  0  0
   -1.6058    4.2667    2.6070 H   0  0  0  0  0  0  0  0  0  0  0  0
   -1.5312    5.1099    4.0968 H   0  0  0  0  0  0  0  0  0  0  0  0
    0.6235    4.7372    2.8747 H   0  0  0  0  0  0  0  0  0  0  0  0
    0.6233    4.4884    4.5425 H   0  0  0  0  0  0  0  0  0  0  0  0
    1.0169    2.7309    2.2742 H   0  0  0  0  0  0  0  0  0  0  0  0
   -1.7027    0.6459    2.1439 H   0  0  0  0  0  0  0  0  0  0  0  0
   -0.1796    0.9969    1.3229 H   0  0  0  0  0  0  0  0  0  0  0  0
   -1.2362    2.2921    1.7833 H   0  0  0  0  0  0  0  0  0  0  0  0
   -0.2102   -0.6808    3.2819 H   0  0  0  0  0  0  0  0  0  0  0  0
    1.3370   -0.0688    2.8896 H   0  0  0  0  0  0  0  0  0  0  0  0
    0.0541   -0.5365    5.5963 H   0  0  0  0  0  0  0  0  0  0  0  0
    1.3010   -1.4436    4.8454 H   0  0  0  0  0  0  0  0  0  0  0  0
    2.7477   -0.4405    5.9525 H   0  0  0  0  0  0  0  0  0  0  0  0
    0.7162    0.3178    7.4764 H   0  0  0  0  0  0  0  0  0  0  0  0
    2.3777    0.5281    7.8236 H   0  0  0  0  0  0  0  0  0  0  0  0
    1.7625    2.7190    8.0527 H   0  0  0  0  0  0  0  0  0  0  0  0
    4.7494    2.5541    6.6163 H   0  0  0  0  0  0  0  0  0  0  0  0
    2.3080    4.7209    5.7847 H   0  0  0  0  0  0  0  0  0  0  0  0
    4.0096    4.4728    5.8377 H   0  0  0  0  0  0  0  0  0  0  0  0
    2.7880    4.5419    3.4047 H   0  0  0  0  0  0  0  0  0  0  0  0
    4.1917    3.6108    3.7742 H   0  0  0  0  0  0  0  0  0  0  0  0
    3.8787    2.1472    2.5112 H   0  0  0  0  0  0  0  0  0  0  0  0
    5.0085    1.7208    4.5176 H   0  0  0  0  0  0  0  0  0  0  0  0
    4.2924    0.1698    4.0954 H   0  0  0  0  0  0  0  0  0  0  0  0
    4.7258    0.5076    5.7410 H   0  0  0  0  0  0  0  0  0  0  0  0
   -1.8921    0.9245    4.6250 H   0  0  0  0  0  0  0  0  0  0  0  0
  1  2  1  0
  1 28  1  0
  1 29  1  0
  1 30  1  0
  3  2  1  1
  3 17  1  0
  3 27  1  0
  3  4  1  0
  4  5  1  0
  4 31  1  0
  4 32  1  0
  5 27  1  0
  5  6  1  6
  5  7  1  0
  6 33  1  0
  7  8  1  0
  7 34  1  0
  7 35  1  0
  8  9  1  0
  8 36  1  0
  8 37  1  0
  9 23  1  0
  9 10  1  0
  9 38  1  6
 10 11  1  6
 10 12  1  0
 10 27  1  0
 11 39  1  0
 11 40  1  0
 11 41  1  0
 12 13  1  0
 12 42  1  0
 12 43  1  0
 13 14  1  0
 13 44  1  0
 13 45  1  0
 14 25  1  0
 14 15  1  0
 14 46  1  1
 15 16  1  0
 15 47  1  0
 15 48  1  0
 16 17  1  0
 16 19  1  0
 16 49  1  1
 17 18  2  0
 19 25  1  0
 19 20  1  1
 19 21  1  0
 20 50  1  0
 21 22  1  0
 21 51  1  0
 21 52  1  0
 22 23  1  0
 22 53  1  0
 22 54  1  0
 23 24  1  6
 23 25  1  0
 24 55  1  0
 25 26  1  6
 26 56  1  0
 26 57  1  0
 26 58  1  0
 27 59  1  1
M  END
>  <i_m_ct_stereo_status>  (77) 
1

>  <s_m_source_file>  (77) 
/var/tmp/pbs.5076255.sched01/tmpd0mq1ayv/02wja6gfv.sdf

>  <i_m_source_file_index>  (77) 
30

>  <i_lp_mmshare_version>  (77) 
48012

>  <i_f3d_flags>  (77) 
0

>  <s_epik_input>  (77) 
W0NIM11PW0NAQF0xMltDQEhdM1tDQF0oW0NIMl0xKShbT0hdKVtDSDJdW0NIMl1bQ0hdNFtDQEBdMyhbQ0gzXSlbQ0gyXVtDSDJdW0NASF01W0NAXTYoW0NIM10pW0NAXShbT0hdKShbQ0BIXShbQ0gyXTUpQzI9TylbQ0gyXVtDSDJdW0NAXTQ2W09IXQ==

>  <s_epik_cmdline>  (77) 
J2VwaWtfcHl0aG9uJywgJy1waHQnLCAnMi4wJywgJy1waCcsICc3LjAnLCAnLXRuJywgJzgnLCAnLW1hJywgJzIwMCcsICctaW1hZScsICc8aW5maWxlLm1hZT4nLCAnLW9tYWUnLCAnPG91dGZpbGUubWFlPic=

>  <r_lp_tautomer_probability>  (77) 
1

>  <r_epik_Ionization_Penalty>  (77) 
3.06625e-06

>  <r_epik_Ionization_Penalty_Charging>  (77) 
0

>  <r_epik_Ionization_Penalty_Neutral>  (77) 
3.06625e-06

>  <r_epik_State_Penalty>  (77) 
-0

>  <r_epik_Charging_Adjusted_Penalty>  (77) 
0

>  <i_epik_Tot_Q>  (77) 
0

>  <i_epik_Tot_abs_Q>  (77) 
0

>  <s_lp_Force_Field>  (77) 
OPLS3e

>  <r_lp_Energy>  (77) 
122.343

>  <b_lp_Chiralities_Consistent>  (77) 
1

>  <s_lp_Variant>  (77) 
19:0-1

>  <s_i_glide_gridfile>  (77) 
pfpi4k_grid

>  <i_i_glide_lignum>  (77) 
30

>  <i_i_glide_rotatable_bonds>  (77) 
4

>  <r_i_docking_score>  (77) 
-3.44105

>  <r_i_glide_ligand_efficiency>  (77) 
-0.127446

>  <r_i_glide_ligand_efficiency_sa>  (77) 
-0.382339

>  <r_i_glide_ligand_efficiency_ln>  (77) 
-0.80102

>  <r_i_glide_gscore>  (77) 
-3.44105

>  <r_i_glide_lipo>  (77) 
-0.0479718

>  <r_i_glide_hbond>  (77) 
-0.654623

>  <r_i_glide_metal>  (77) 
-0

>  <r_i_glide_rewards>  (77) 
-0.842138

>  <r_i_glide_evdw>  (77) 
-13.3015

>  <r_i_glide_ecoul>  (77) 
-8.20827

>  <r_i_glide_erotb>  (77) 
0

>  <r_i_glide_esite>  (77) 
0

>  <r_i_glide_emodel>  (77) 
-25.4401

>  <r_i_glide_energy>  (77) 
-21.5098

>  <r_i_glide_einternal>  (77) 
2.31976

>  <r_i_glide_intrahb_reward>  (77) 
-0

>  <i_i_glide_confnum>  (77) 
1

>  <i_i_glide_posenum>  (77) 
29

>  <r_i_glide_eff_state_penalty>  (77) 
0

>  <ligand_id>  (77) 
19

>  <original_smiles>  (77) 
COC12CC3(O)CCC4C(C)(CCC5CC(C1=O)C1(O)CCC4(O)C51C)C32

>  <smiles>  (77) 
[H]OC12C([H])([H])C([H])([H])C3([H])C4(O[H])C([H])([H])C([H])([H])C5(O[H])C6([H])C(=O)C(OC([H])([H])[H])(C1([H])[H])C2([H])C3(C([H])([H])[H])C([H])([H])C([H])([H])C([H])(C6([H])[H])C54C([H])([H])[H]

$$$$
19:0:1
     RDKit          3D

 59 64  0  0  1  0  0  0  0  0999 V2000
   -2.1921    2.1621    8.2908 C   0  0  0  0  0  0  0  0  0  0  0  0
   -1.8243    1.5967    7.0355 O   0  0  0  0  0  0  0  0  0  0  0  0
   -1.2522    2.4870    6.0677 C   0  0  1  0  0  0  0  0  0  0  0  0
   -2.3741    3.4254    5.5885 C   0  0  0  0  0  0  0  0  0  0  0  0
   -2.0567    3.1351    4.1311 C   0  0  1  0  0  0  0  0  0  0  0  0
   -3.2206    2.9441    3.3477 O   0  0  0  0  0  0  0  0  0  0  0  0
   -1.1633    4.1284    3.3745 C   0  0  0  0  0  0  0  0  0  0  0  0
    0.3566    3.8896    3.5535 C   0  0  0  0  0  0  0  0  0  0  0  0
    0.8883    2.4105    3.5053 C   0  0  2  0  0  0  0  0  0  0  0  0
   -0.2367    1.3413    3.6797 C   0  0  1  0  0  0  0  0  0  0  0  0
   -0.8531    1.1115    2.2628 C   0  0  0  0  0  0  0  0  0  0  0  0
    0.2692   -0.0703    4.0411 C   0  0  0  0  0  0  0  0  0  0  0  0
    0.5176   -0.3829    5.5008 C   0  0  0  0  0  0  0  0  0  0  0  0
    1.6041    0.4078    6.2422 C   0  0  2  0  0  0  0  0  0  0  0  0
    1.0856    1.0808    7.5179 C   0  0  0  0  0  0  0  0  0  0  0  0
    1.2126    2.5759    7.2631 C   0  0  2  0  0  0  0  0  0  0  0  0
   -0.0208    3.2636    6.6192 C   0  0  0  0  0  0  0  0  0  0  0  0
   -0.0196    4.4928    6.7375 O   0  0  0  0  0  0  0  0  0  0  0  0
    2.5764    2.6456    6.5098 C   0  0  2  0  0  0  0  0  0  0  0  0
    3.5583    2.5446    7.5347 O   0  0  0  0  0  0  0  0  0  0  0  0
    2.9708    3.8969    5.6915 C   0  0  0  0  0  0  0  0  0  0  0  0
    3.1558    3.4033    4.2503 C   0  0  0  0  0  0  0  0  0  0  0  0
    2.3296    2.1014    4.1172 C   0  0  2  0  0  0  0  0  0  0  0  0
    2.9995    1.3444    3.1173 O   0  0  0  0  0  0  0  0  0  0  0  0
    2.5873    1.4224    5.5429 C   0  0  2  0  0  0  0  0  0  0  0  0
    3.9914    0.7208    5.5362 C   0  0  0  0  0  0  0  0  0  0  0  0
   -1.3599    1.8584    4.6163 C   0  0  1  0  0  0  0  0  0  0  0  0
   -2.6142    1.3578    8.8823 H   0  0  0  0  0  0  0  0  0  0  0  0
   -2.9410    2.9488    8.1993 H   0  0  0  0  0  0  0  0  0  0  0  0
   -1.3416    2.5525    8.8476 H   0  0  0  0  0  0  0  0  0  0  0  0
   -3.3782    3.0963    5.8633 H   0  0  0  0  0  0  0  0  0  0  0  0
   -2.2184    4.4713    5.8172 H   0  0  0  0  0  0  0  0  0  0  0  0
   -3.3300    2.0095    3.2058 H   0  0  0  0  0  0  0  0  0  0  0  0
   -1.4058    4.1066    2.3157 H   0  0  0  0  0  0  0  0  0  0  0  0
   -1.3866    5.1521    3.6633 H   0  0  0  0  0  0  0  0  0  0  0  0
    0.8782    4.4749    2.8017 H   0  0  0  0  0  0  0  0  0  0  0  0
    0.6551    4.4115    4.4403 H   0  0  0  0  0  0  0  0  0  0  0  0
    1.1048    2.3707    2.4346 H   0  0  0  0  0  0  0  0  0  0  0  0
   -1.7655    0.5197    2.2964 H   0  0  0  0  0  0  0  0  0  0  0  0
   -0.1516    0.6035    1.5972 H   0  0  0  0  0  0  0  0  0  0  0  0
   -1.1096    2.0345    1.7510 H   0  0  0  0  0  0  0  0  0  0  0  0
   -0.4974   -0.7872    3.7427 H   0  0  0  0  0  0  0  0  0  0  0  0
    1.1359   -0.3464    3.4389 H   0  0  0  0  0  0  0  0  0  0  0  0
   -0.4261   -0.3467    6.0375 H   0  0  0  0  0  0  0  0  0  0  0  0
    0.7989   -1.4368    5.5423 H   0  0  0  0  0  0  0  0  0  0  0  0
    2.2175   -0.3965    6.6521 H   0  0  0  0  0  0  0  0  0  0  0  0
    0.1201    0.7307    7.8665 H   0  0  0  0  0  0  0  0  0  0  0  0
    1.7564    0.8338    8.3430 H   0  0  0  0  0  0  0  0  0  0  0  0
    1.3263    3.0778    8.2254 H   0  0  0  0  0  0  0  0  0  0  0  0
    4.4099    2.5032    7.1233 H   0  0  0  0  0  0  0  0  0  0  0  0
    2.2472    4.7035    5.7777 H   0  0  0  0  0  0  0  0  0  0  0  0
    3.9080    4.3420    6.0309 H   0  0  0  0  0  0  0  0  0  0  0  0
    2.9298    4.1697    3.5088 H   0  0  0  0  0  0  0  0  0  0  0  0
    4.2142    3.1918    4.1094 H   0  0  0  0  0  0  0  0  0  0  0  0
    3.4502    1.9442    2.5349 H   0  0  0  0  0  0  0  0  0  0  0  0
    4.7931    1.3677    5.1866 H   0  0  0  0  0  0  0  0  0  0  0  0
    3.9816   -0.1605    4.8930 H   0  0  0  0  0  0  0  0  0  0  0  0
    4.2898    0.3596    6.5205 H   0  0  0  0  0  0  0  0  0  0  0  0
   -2.1320    1.0866    4.6893 H   0  0  0  0  0  0  0  0  0  0  0  0
  1  2  1  0
  1 28  1  0
  1 29  1  0
  1 30  1  0
  3  2  1  1
  3 17  1  0
  3 27  1  0
  3  4  1  0
  4  5  1  0
  4 31  1  0
  4 32  1  0
  5 27  1  0
  5  6  1  6
  5  7  1  0
  6 33  1  0
  7  8  1  0
  7 34  1  0
  7 35  1  0
  8  9  1  0
  8 36  1  0
  8 37  1  0
  9 23  1  0
  9 10  1  0
  9 38  1  6
 10 11  1  6
 10 12  1  0
 10 27  1  0
 11 39  1  0
 11 40  1  0
 11 41  1  0
 12 13  1  0
 12 42  1  0
 12 43  1  0
 13 14  1  0
 13 44  1  0
 13 45  1  0
 14 25  1  0
 14 15  1  0
 14 46  1  1
 15 16  1  0
 15 47  1  0
 15 48  1  0
 16 17  1  0
 16 19  1  0
 16 49  1  1
 17 18  2  0
 19 25  1  0
 19 20  1  1
 19 21  1  0
 20 50  1  0
 21 22  1  0
 21 51  1  0
 21 52  1  0
 22 23  1  0
 22 53  1  0
 22 54  1  0
 23 24  1  6
 23 25  1  0
 24 55  1  0
 25 26  1  6
 26 56  1  0
 26 57  1  0
 26 58  1  0
 27 59  1  1
M  END
>  <i_m_ct_stereo_status>  (78) 
1

>  <s_m_source_file>  (78) 
/var/tmp/pbs.5076255.sched01/tmpd0mq1ayv/02wja6gfv.sdf

>  <i_m_source_file_index>  (78) 
30

>  <i_lp_mmshare_version>  (78) 
48012

>  <i_f3d_flags>  (78) 
0

>  <s_epik_input>  (78) 
W0NIM11PW0NAQF0xMltDQEhdM1tDQF0oW0NIMl0xKShbT0hdKVtDSDJdW0NIMl1bQ0hdNFtDQEBdMyhbQ0gzXSlbQ0gyXVtDSDJdW0NASF01W0NAXTYoW0NIM10pW0NAXShbT0hdKShbQ0BIXShbQ0gyXTUpQzI9TylbQ0gyXVtDSDJdW0NAXTQ2W09IXQ==

>  <s_epik_cmdline>  (78) 
J2VwaWtfcHl0aG9uJywgJy1waHQnLCAnMi4wJywgJy1waCcsICc3LjAnLCAnLXRuJywgJzgnLCAnLW1hJywgJzIwMCcsICctaW1hZScsICc8aW5maWxlLm1hZT4nLCAnLW9tYWUnLCAnPG91dGZpbGUubWFlPic=

>  <r_lp_tautomer_probability>  (78) 
1

>  <r_epik_Ionization_Penalty>  (78) 
3.06625e-06

>  <r_epik_Ionization_Penalty_Charging>  (78) 
0

>  <r_epik_Ionization_Penalty_Neutral>  (78) 
3.06625e-06

>  <r_epik_State_Penalty>  (78) 
-0

>  <r_epik_Charging_Adjusted_Penalty>  (78) 
0

>  <i_epik_Tot_Q>  (78) 
0

>  <i_epik_Tot_abs_Q>  (78) 
0

>  <s_lp_Force_Field>  (78) 
OPLS3e

>  <r_lp_Energy>  (78) 
122.343

>  <b_lp_Chiralities_Consistent>  (78) 
1

>  <s_lp_Variant>  (78) 
19:0-1

>  <s_i_glide_gridfile>  (78) 
pfpi4k_grid

>  <i_i_glide_lignum>  (78) 
30

>  <i_i_glide_rotatable_bonds>  (78) 
4

>  <r_i_docking_score>  (78) 
-3.0456

>  <r_i_glide_ligand_efficiency>  (78) 
-0.1128

>  <r_i_glide_ligand_efficiency_sa>  (78) 
-0.338401

>  <r_i_glide_ligand_efficiency_ln>  (78) 
-0.708967

>  <r_i_glide_gscore>  (78) 
-3.0456

>  <r_i_glide_lipo>  (78) 
-0.00943593

>  <r_i_glide_hbond>  (78) 
-0.478865

>  <r_i_glide_metal>  (78) 
-0

>  <r_i_glide_rewards>  (78) 
-0.842138

>  <r_i_glide_evdw>  (78) 
-16.0966

>  <r_i_glide_ecoul>  (78) 
-6.0689

>  <r_i_glide_erotb>  (78) 
0

>  <r_i_glide_esite>  (78) 
0

>  <r_i_glide_emodel>  (78) 
-25.7158

>  <r_i_glide_energy>  (78) 
-22.1655

>  <r_i_glide_einternal>  (78) 
2.02247

>  <r_i_glide_intrahb_reward>  (78) 
-0

>  <i_i_glide_confnum>  (78) 
2

>  <i_i_glide_posenum>  (78) 
33

>  <r_i_glide_eff_state_penalty>  (78) 
0

>  <ligand_id>  (78) 
19

>  <original_smiles>  (78) 
COC12CC3(O)CCC4C(C)(CCC5CC(C1=O)C1(O)CCC4(O)C51C)C32

>  <smiles>  (78) 
[H]OC12C([H])([H])C([H])([H])C3([H])C4(O[H])C([H])([H])C([H])([H])C5(O[H])C6([H])C(=O)C(OC([H])([H])[H])(C1([H])[H])C2([H])C3(C([H])([H])[H])C([H])([H])C([H])([H])C([H])(C6([H])[H])C54C([H])([H])[H]

$$$$
19:0:2
     RDKit          3D

 59 64  0  0  1  0  0  0  0  0999 V2000
   -2.2021    2.1553    8.2872 C   0  0  0  0  0  0  0  0  0  0  0  0
   -1.8505    1.5946    7.0254 O   0  0  0  0  0  0  0  0  0  0  0  0
   -1.2738    2.4814    6.0575 C   0  0  1  0  0  0  0  0  0  0  0  0
   -2.3914    3.4226    5.5739 C   0  0  0  0  0  0  0  0  0  0  0  0
   -2.0709    3.1298    4.1165 C   0  0  1  0  0  0  0  0  0  0  0  0
   -3.2326    2.9416    3.3294 O   0  0  0  0  0  0  0  0  0  0  0  0
   -1.1686    4.1174    3.3617 C   0  0  0  0  0  0  0  0  0  0  0  0
    0.3499    3.8736    3.5463 C   0  0  0  0  0  0  0  0  0  0  0  0
    0.8728    2.3920    3.5057 C   0  0  2  0  0  0  0  0  0  0  0  0
   -0.2573    1.3271    3.6745 C   0  0  1  0  0  0  0  0  0  0  0  0
   -0.8680    1.0981    2.2546 C   0  0  0  0  0  0  0  0  0  0  0  0
    0.2422   -0.0863    4.0400 C   0  0  0  0  0  0  0  0  0  0  0  0
    0.4849   -0.3985    5.5004 C   0  0  0  0  0  0  0  0  0  0  0  0
    1.5713    0.3885    6.2458 C   0  0  2  0  0  0  0  0  0  0  0  0
    1.0516    1.0641    7.5192 C   0  0  0  0  0  0  0  0  0  0  0  0
    1.1867    2.5600    7.2649 C   0  0  2  0  0  0  0  0  0  0  0  0
   -0.0403    3.2513    6.6127 C   0  0  0  0  0  0  0  0  0  0  0  0
   -0.0337    4.4823    6.7274 O   0  0  0  0  0  0  0  0  0  0  0  0
    2.5555    2.6215    6.5165 C   0  0  2  0  0  0  0  0  0  0  0  0
    3.5393    2.5080    7.5397 O   0  0  0  0  0  0  0  0  0  0  0  0
    2.9577    3.8715    5.6964 C   0  0  0  0  0  0  0  0  0  0  0  0
    3.1420    3.3755    4.2563 C   0  0  0  0  0  0  0  0  0  0  0  0
    2.3088    2.0785    4.1240 C   0  0  2  0  0  0  0  0  0  0  0  0
    2.9686    1.3157    3.1247 O   0  0  0  0  0  0  0  0  0  0  0  0
    2.5604    1.3984    5.5492 C   0  0  2  0  0  0  0  0  0  0  0  0
    3.9603    0.6901    5.5456 C   0  0  0  0  0  0  0  0  0  0  0  0
   -1.3810    1.8502    4.6074 C   0  0  1  0  0  0  0  0  0  0  0  0
   -2.6314    1.3570    8.8793 H   0  0  0  0  0  0  0  0  0  0  0  0
   -2.9404    2.9533    8.2055 H   0  0  0  0  0  0  0  0  0  0  0  0
   -1.3412    2.5283    8.8415 H   0  0  0  0  0  0  0  0  0  0  0  0
   -3.3964    3.0985    5.8470 H   0  0  0  0  0  0  0  0  0  0  0  0
   -2.2338    4.4692    5.7991 H   0  0  0  0  0  0  0  0  0  0  0  0
   -3.3336    2.0081    3.1719 H   0  0  0  0  0  0  0  0  0  0  0  0
   -1.4076    4.0950    2.3019 H   0  0  0  0  0  0  0  0  0  0  0  0
   -1.3885    5.1434    3.6480 H   0  0  0  0  0  0  0  0  0  0  0  0
    0.8790    4.4535    2.7950 H   0  0  0  0  0  0  0  0  0  0  0  0
    0.6475    4.3953    4.4333 H   0  0  0  0  0  0  0  0  0  0  0  0
    1.0895    2.3521    2.4352 H   0  0  0  0  0  0  0  0  0  0  0  0
   -1.7831    0.5103    2.2854 H   0  0  0  0  0  0  0  0  0  0  0  0
   -0.1653    0.5862    1.5925 H   0  0  0  0  0  0  0  0  0  0  0  0
   -1.1184    2.0217    1.7401 H   0  0  0  0  0  0  0  0  0  0  0  0
   -0.5261   -0.8000    3.7400 H   0  0  0  0  0  0  0  0  0  0  0  0
    1.1089   -0.3680    3.4412 H   0  0  0  0  0  0  0  0  0  0  0  0
   -0.4607   -0.3583    6.0343 H   0  0  0  0  0  0  0  0  0  0  0  0
    0.7617   -1.4534    5.5442 H   0  0  0  0  0  0  0  0  0  0  0  0
    2.1813   -0.4172    6.6579 H   0  0  0  0  0  0  0  0  0  0  0  0
    0.0838    0.7163    7.8638 H   0  0  0  0  0  0  0  0  0  0  0  0
    1.7189    0.8140    8.3461 H   0  0  0  0  0  0  0  0  0  0  0  0
    1.2897    3.0609    8.2285 H   0  0  0  0  0  0  0  0  0  0  0  0
    3.4949    3.2781    8.0858 H   0  0  0  0  0  0  0  0  0  0  0  0
    2.2391    4.6844    5.7749 H   0  0  0  0  0  0  0  0  0  0  0  0
    3.8998    4.3080    6.0354 H   0  0  0  0  0  0  0  0  0  0  0  0
    2.9262    4.1413    3.5121 H   0  0  0  0  0  0  0  0  0  0  0  0
    4.1993    3.1539    4.1186 H   0  0  0  0  0  0  0  0  0  0  0  0
    3.1704    1.8900    2.4009 H   0  0  0  0  0  0  0  0  0  0  0  0
    4.7662    1.3354    5.2023 H   0  0  0  0  0  0  0  0  0  0  0  0
    3.9508   -0.1910    4.9036 H   0  0  0  0  0  0  0  0  0  0  0  0
    4.2559    0.3325    6.5318 H   0  0  0  0  0  0  0  0  0  0  0  0
   -2.1557    1.0811    4.6781 H   0  0  0  0  0  0  0  0  0  0  0  0
  1  2  1  0
  1 28  1  0
  1 29  1  0
  1 30  1  0
  3  2  1  1
  3 17  1  0
  3 27  1  0
  3  4  1  0
  4  5  1  0
  4 31  1  0
  4 32  1  0
  5 27  1  0
  5  6  1  6
  5  7  1  0
  6 33  1  0
  7  8  1  0
  7 34  1  0
  7 35  1  0
  8  9  1  0
  8 36  1  0
  8 37  1  0
  9 23  1  0
  9 10  1  0
  9 38  1  6
 10 11  1  6
 10 12  1  0
 10 27  1  0
 11 39  1  0
 11 40  1  0
 11 41  1  0
 12 13  1  0
 12 42  1  0
 12 43  1  0
 13 14  1  0
 13 44  1  0
 13 45  1  0
 14 25  1  0
 14 15  1  0
 14 46  1  1
 15 16  1  0
 15 47  1  0
 15 48  1  0
 16 17  1  0
 16 19  1  0
 16 49  1  1
 17 18  2  0
 19 25  1  0
 19 20  1  1
 19 21  1  0
 20 50  1  0
 21 22  1  0
 21 51  1  0
 21 52  1  0
 22 23  1  0
 22 53  1  0
 22 54  1  0
 23 24  1  6
 23 25  1  0
 24 55  1  0
 25 26  1  6
 26 56  1  0
 26 57  1  0
 26 58  1  0
 27 59  1  1
M  END
>  <i_m_ct_stereo_status>  (79) 
1

>  <s_m_source_file>  (79) 
/var/tmp/pbs.5076255.sched01/tmpd0mq1ayv/02wja6gfv.sdf

>  <i_m_source_file_index>  (79) 
30

>  <i_lp_mmshare_version>  (79) 
48012

>  <i_f3d_flags>  (79) 
0

>  <s_epik_input>  (79) 
W0NIM11PW0NAQF0xMltDQEhdM1tDQF0oW0NIMl0xKShbT0hdKVtDSDJdW0NIMl1bQ0hdNFtDQEBdMyhbQ0gzXSlbQ0gyXVtDSDJdW0NASF01W0NAXTYoW0NIM10pW0NAXShbT0hdKShbQ0BIXShbQ0gyXTUpQzI9TylbQ0gyXVtDSDJdW0NAXTQ2W09IXQ==

>  <s_epik_cmdline>  (79) 
J2VwaWtfcHl0aG9uJywgJy1waHQnLCAnMi4wJywgJy1waCcsICc3LjAnLCAnLXRuJywgJzgnLCAnLW1hJywgJzIwMCcsICctaW1hZScsICc8aW5maWxlLm1hZT4nLCAnLW9tYWUnLCAnPG91dGZpbGUubWFlPic=

>  <r_lp_tautomer_probability>  (79) 
1

>  <r_epik_Ionization_Penalty>  (79) 
3.06625e-06

>  <r_epik_Ionization_Penalty_Charging>  (79) 
0

>  <r_epik_Ionization_Penalty_Neutral>  (79) 
3.06625e-06

>  <r_epik_State_Penalty>  (79) 
-0

>  <r_epik_Charging_Adjusted_Penalty>  (79) 
0

>  <i_epik_Tot_Q>  (79) 
0

>  <i_epik_Tot_abs_Q>  (79) 
0

>  <s_lp_Force_Field>  (79) 
OPLS3e

>  <r_lp_Energy>  (79) 
122.343

>  <b_lp_Chiralities_Consistent>  (79) 
1

>  <s_lp_Variant>  (79) 
19:0-1

>  <s_i_glide_gridfile>  (79) 
pfpi4k_grid

>  <i_i_glide_lignum>  (79) 
30

>  <i_i_glide_rotatable_bonds>  (79) 
4

>  <r_i_docking_score>  (79) 
-2.78194

>  <r_i_glide_ligand_efficiency>  (79) 
-0.103035

>  <r_i_glide_ligand_efficiency_sa>  (79) 
-0.309104

>  <r_i_glide_ligand_efficiency_ln>  (79) 
-0.647589

>  <r_i_glide_gscore>  (79) 
-2.78194

>  <r_i_glide_lipo>  (79) 
-0.0100327

>  <r_i_glide_hbond>  (79) 
-0.32

>  <r_i_glide_metal>  (79) 
-0

>  <r_i_glide_rewards>  (79) 
-0.842138

>  <r_i_glide_evdw>  (79) 
-15.9827

>  <r_i_glide_ecoul>  (79) 
-5.40422

>  <r_i_glide_erotb>  (79) 
0

>  <r_i_glide_esite>  (79) 
0

>  <r_i_glide_emodel>  (79) 
-24.9669

>  <r_i_glide_energy>  (79) 
-21.3869

>  <r_i_glide_einternal>  (79) 
1.44276

>  <r_i_glide_intrahb_reward>  (79) 
-0

>  <i_i_glide_confnum>  (79) 
2

>  <i_i_glide_posenum>  (79) 
21

>  <r_i_glide_eff_state_penalty>  (79) 
0

>  <ligand_id>  (79) 
19

>  <original_smiles>  (79) 
COC12CC3(O)CCC4C(C)(CCC5CC(C1=O)C1(O)CCC4(O)C51C)C32

>  <smiles>  (79) 
[H]OC12C([H])([H])C([H])([H])C3([H])C4(O[H])C([H])([H])C([H])([H])C5(O[H])C6([H])C(=O)C(OC([H])([H])[H])(C1([H])[H])C2([H])C3(C([H])([H])[H])C([H])([H])C([H])([H])C([H])(C6([H])[H])C54C([H])([H])[H]

$$$$
20:0:0
     RDKit          3D

 51 54  0  0  1  0  0  0  0  0999 V2000
   -6.5736   -4.6041   -3.9440 C   0  0  0  0  0  0  0  0  0  0  0  0
   -7.3601   -5.4297   -4.9444 C   0  0  2  0  0  0  0  0  0  0  0  0
   -6.4936   -6.5827   -5.4720 C   0  0  0  0  0  0  0  0  0  0  0  0
   -7.2435   -7.4121   -6.5161 C   0  0  0  0  0  0  0  0  0  0  0  0
   -7.8025   -6.5205   -7.6434 C   0  0  1  0  0  0  0  0  0  0  0  0
   -8.5010   -7.3442   -8.5916 N   0  0  0  0  0  0  0  0  0  0  0  0
   -8.9568   -7.0293   -9.8046 C   0  0  0  0  0  0  0  0  0  0  0  0
   -8.6738   -6.0062  -10.4185 O   0  0  0  0  0  0  0  0  0  0  0  0
   -9.8051   -7.9465  -10.3029 N   0  0  0  0  0  0  0  0  0  0  0  0
  -10.3052   -9.1876   -9.6741 C   0  0  1  0  0  0  0  0  0  0  0  0
  -11.0189   -8.9370   -8.3038 C   0  0  0  0  0  0  0  0  0  0  0  0
  -11.4926  -10.2628   -7.7170 C   0  0  2  0  0  0  0  0  0  0  0  0
  -10.2823  -11.2112   -7.5411 C   0  0  0  0  0  0  0  0  0  0  0  0
   -9.6507  -11.5179   -8.9109 C   0  0  1  0  0  0  0  0  0  0  0  0
  -10.6996  -12.1398   -9.8502 C   0  0  0  0  0  0  0  0  0  0  0  0
  -11.8782  -11.1590  -10.0228 C   0  0  1  0  0  0  0  0  0  0  0  0
  -12.5318  -10.8923   -8.6527 C   0  0  0  0  0  0  0  0  0  0  0  0
  -11.3595   -9.8209  -10.6214 C   0  0  0  0  0  0  0  0  0  0  0  0
   -9.1192  -10.1950   -9.5273 C   0  0  0  0  0  0  0  0  0  0  0  0
   -8.7039   -5.4054   -7.0906 C   0  0  0  0  0  0  0  0  0  0  0  0
   -7.9324   -4.5596   -6.0729 C   0  0  0  0  0  0  0  0  0  0  0  0
   -5.7338   -4.0884   -4.4170 H   0  0  0  0  0  0  0  0  0  0  0  0
   -6.1939   -5.2150   -3.1285 H   0  0  0  0  0  0  0  0  0  0  0  0
   -7.2288   -3.8677   -3.4980 H   0  0  0  0  0  0  0  0  0  0  0  0
   -8.2157   -5.8515   -4.4277 H   0  0  0  0  0  0  0  0  0  0  0  0
   -5.5857   -6.1778   -5.9154 H   0  0  0  0  0  0  0  0  0  0  0  0
   -6.1748   -7.2209   -4.6431 H   0  0  0  0  0  0  0  0  0  0  0  0
   -6.5834   -8.1887   -6.9068 H   0  0  0  0  0  0  0  0  0  0  0  0
   -8.0584   -7.9398   -6.0315 H   0  0  0  0  0  0  0  0  0  0  0  0
   -7.0167   -6.0472   -8.1744 H   0  0  0  0  0  0  0  0  0  0  0  0
   -8.8268   -8.2280   -8.2311 H   0  0  0  0  0  0  0  0  0  0  0  0
  -10.1445   -7.7488  -11.2229 H   0  0  0  0  0  0  0  0  0  0  0  0
  -10.3964   -8.5304   -7.5149 H   0  0  0  0  0  0  0  0  0  0  0  0
  -11.8471   -8.2370   -8.4058 H   0  0  0  0  0  0  0  0  0  0  0  0
  -11.9423  -10.0634   -6.7465 H   0  0  0  0  0  0  0  0  0  0  0  0
   -9.5408  -10.7684   -6.8735 H   0  0  0  0  0  0  0  0  0  0  0  0
  -10.5922  -12.1428   -7.0686 H   0  0  0  0  0  0  0  0  0  0  0  0
   -8.8150  -12.2070   -8.7771 H   0  0  0  0  0  0  0  0  0  0  0  0
  -10.2398  -12.3488  -10.8133 H   0  0  0  0  0  0  0  0  0  0  0  0
  -11.0435  -13.0986   -9.4537 H   0  0  0  0  0  0  0  0  0  0  0  0
  -12.6189  -11.6058  -10.6871 H   0  0  0  0  0  0  0  0  0  0  0  0
  -12.9224  -11.8142   -8.2188 H   0  0  0  0  0  0  0  0  0  0  0  0
  -13.3747  -10.2079   -8.7597 H   0  0  0  0  0  0  0  0  0  0  0  0
  -12.1938   -9.1332  -10.7426 H   0  0  0  0  0  0  0  0  0  0  0  0
  -10.9622   -9.9892  -11.6228 H   0  0  0  0  0  0  0  0  0  0  0  0
   -8.6499  -10.3780  -10.4994 H   0  0  0  0  0  0  0  0  0  0  0  0
   -8.3058   -9.8412   -8.8873 H   0  0  0  0  0  0  0  0  0  0  0  0
   -9.0410   -4.7585   -7.9021 H   0  0  0  0  0  0  0  0  0  0  0  0
   -9.6004   -5.8265   -6.6376 H   0  0  0  0  0  0  0  0  0  0  0  0
   -8.5950   -3.7942   -5.6607 H   0  0  0  0  0  0  0  0  0  0  0  0
   -7.1202   -4.0371   -6.5763 H   0  0  0  0  0  0  0  0  0  0  0  0
  1  2  1  0
  1 22  1  0
  1 23  1  0
  1 24  1  0
  2 21  1  0
  2  3  1  0
  2 25  1  1
  3  4  1  0
  3 26  1  0
  3 27  1  0
  4  5  1  0
  4 28  1  0
  4 29  1  0
  5  6  1  0
  5 20  1  0
  5 30  1  6
  6  7  1  0
  6 31  1  0
  7  8  2  0
  7  9  1  0
 10  9  1  6
  9 32  1  0
 10 18  1  0
 10 19  1  0
 10 11  1  0
 11 12  1  0
 11 33  1  0
 11 34  1  0
 12 17  1  0
 12 13  1  0
 12 35  1  1
 13 14  1  0
 13 36  1  0
 13 37  1  0
 14 15  1  0
 14 19  1  0
 14 38  1  1
 15 16  1  0
 15 39  1  0
 15 40  1  0
 16 17  1  0
 16 18  1  0
 16 41  1  6
 17 42  1  0
 17 43  1  0
 18 44  1  0
 18 45  1  0
 19 46  1  0
 19 47  1  0
 20 21  1  0
 20 48  1  0
 20 49  1  0
 21 50  1  0
 21 51  1  0
M  END
>  <i_m_ct_stereo_status>  (80) 
1

>  <s_m_source_file>  (80) 
/var/tmp/pbs.5076255.sched01/tmpd0mq1ayv/02wja6gfv.sdf

>  <i_m_source_file_index>  (80) 
31

>  <i_lp_mmshare_version>  (80) 
48012

>  <i_f3d_flags>  (80) 
0

>  <s_epik_input>  (80) 
W0NIM11bQ0BASF0xW0NIMl1bQ0gyXVtDQEhdKFtDSDJdW0NIMl0xKVtOSF1DKD1PKVtOSF1DMjNbQ0gyXVtDQEhdNFtDSDJdW0NAQEhdKFtDSDJdMylbQ0gyXVtDQEhdKFtDSDJdNClbQ0gyXTI=

>  <s_epik_cmdline>  (80) 
J2VwaWtfcHl0aG9uJywgJy1waHQnLCAnMi4wJywgJy1waCcsICc3LjAnLCAnLXRuJywgJzgnLCAnLW1hJywgJzIwMCcsICctaW1hZScsICc8aW5maWxlLm1hZT4nLCAnLW9tYWUnLCAnPG91dGZpbGUubWFlPic=

>  <r_lp_tautomer_probability>  (80) 
1

>  <r_epik_Ionization_Penalty>  (80) 
7.72748e-05

>  <r_epik_Ionization_Penalty_Charging>  (80) 
0

>  <r_epik_Ionization_Penalty_Neutral>  (80) 
7.72748e-05

>  <r_epik_State_Penalty>  (80) 
-0

>  <r_epik_Charging_Adjusted_Penalty>  (80) 
0

>  <i_epik_Tot_Q>  (80) 
0

>  <i_epik_Tot_abs_Q>  (80) 
0

>  <s_lp_Force_Field>  (80) 
OPLS3e

>  <r_lp_Energy>  (80) 
10.0366

>  <b_lp_Chiralities_Consistent>  (80) 
1

>  <s_lp_Variant>  (80) 
20:0-1

>  <s_i_glide_gridfile>  (80) 
pfpi4k_grid

>  <i_i_glide_lignum>  (80) 
31

>  <i_i_glide_rotatable_bonds>  (80) 
4

>  <r_i_docking_score>  (80) 
-4.61013

>  <r_i_glide_ligand_efficiency>  (80) 
-0.21953

>  <r_i_glide_ligand_efficiency_sa>  (80) 
-0.605667

>  <r_i_glide_ligand_efficiency_ln>  (80) 
-1.13985

>  <r_i_glide_gscore>  (80) 
-4.61013

>  <r_i_glide_lipo>  (80) 
-1.91597

>  <r_i_glide_hbond>  (80) 
0

>  <r_i_glide_metal>  (80) 
-0

>  <r_i_glide_rewards>  (80) 
-1.93509

>  <r_i_glide_evdw>  (80) 
-24.4127

>  <r_i_glide_ecoul>  (80) 
-1.24377

>  <r_i_glide_erotb>  (80) 
0.648138

>  <r_i_glide_esite>  (80) 
0

>  <r_i_glide_emodel>  (80) 
-26.9591

>  <r_i_glide_energy>  (80) 
-25.6565

>  <r_i_glide_einternal>  (80) 
11.2902

>  <r_i_glide_intrahb_reward>  (80) 
-0

>  <i_i_glide_confnum>  (80) 
4

>  <i_i_glide_posenum>  (80) 
5

>  <r_i_glide_eff_state_penalty>  (80) 
0

>  <ligand_id>  (80) 
20

>  <original_smiles>  (80) 
CC1CCC(NC(=O)NC23CC4CC(CC(C4)C2)C3)CC1

>  <smiles>  (80) 
[H]N(C(=O)N([H])C12C([H])([H])C3([H])C([H])([H])C([H])(C([H])([H])C([H])(C3([H])[H])C1([H])[H])C2([H])[H])C1([H])C([H])([H])C([H])([H])C([H])(C([H])([H])[H])C([H])([H])C1([H])[H]

$$$$
20:0:1
     RDKit          3D

 51 54  0  0  1  0  0  0  0  0999 V2000
   -6.4925   -4.5326   -4.0472 C   0  0  0  0  0  0  0  0  0  0  0  0
   -7.0463   -5.6555   -4.9009 C   0  0  2  0  0  0  0  0  0  0  0  0
   -6.0226   -6.7973   -5.0063 C   0  0  0  0  0  0  0  0  0  0  0  0
   -6.5276   -7.9457   -5.8703 C   0  0  0  0  0  0  0  0  0  0  0  0
   -6.9547   -7.4412   -7.2550 C   0  0  1  0  0  0  0  0  0  0  0  0
   -7.5257   -8.5076   -8.0523 N   0  0  0  0  0  0  0  0  0  0  0  0
   -6.9855   -9.6909   -8.4121 C   0  0  0  0  0  0  0  0  0  0  0  0
   -5.8907  -10.1154   -8.1308 O   0  0  0  0  0  0  0  0  0  0  0  0
   -7.8072  -10.3426   -9.2471 N   0  0  0  0  0  0  0  0  0  0  0  0
   -9.2745  -10.4975   -9.1709 C   0  0  1  0  0  0  0  0  0  0  0  0
  -10.0584   -9.1433   -9.0323 C   0  0  0  0  0  0  0  0  0  0  0  0
  -11.5690   -9.3522   -9.0634 C   0  0  2  0  0  0  0  0  0  0  0  0
  -11.9351  -10.2651   -7.8770 C   0  0  0  0  0  0  0  0  0  0  0  0
  -11.2060  -11.6236   -8.0273 C   0  0  1  0  0  0  0  0  0  0  0  0
  -11.6594  -12.2758   -9.3434 C   0  0  0  0  0  0  0  0  0  0  0  0
  -11.2554  -11.3729  -10.5230 C   0  0  1  0  0  0  0  0  0  0  0  0
  -11.9707  -10.0092  -10.3933 C   0  0  0  0  0  0  0  0  0  0  0  0
   -9.7262  -11.1779  -10.5002 C   0  0  0  0  0  0  0  0  0  0  0  0
   -9.6896  -11.4344   -7.9899 C   0  0  0  0  0  0  0  0  0  0  0  0
   -8.0100   -6.2906   -7.1458 C   0  0  0  0  0  0  0  0  0  0  0  0
   -7.5013   -5.1392   -6.2723 C   0  0  0  0  0  0  0  0  0  0  0  0
   -5.5977   -4.0900   -4.4927 H   0  0  0  0  0  0  0  0  0  0  0  0
   -6.2278   -4.9122   -3.0629 H   0  0  0  0  0  0  0  0  0  0  0  0
   -7.2435   -3.7570   -3.9188 H   0  0  0  0  0  0  0  0  0  0  0  0
   -7.9453   -6.0072   -4.4113 H   0  0  0  0  0  0  0  0  0  0  0  0
   -5.0932   -6.4296   -5.4409 H   0  0  0  0  0  0  0  0  0  0  0  0
   -5.7816   -7.1980   -4.0185 H   0  0  0  0  0  0  0  0  0  0  0  0
   -5.7292   -8.6904   -5.9464 H   0  0  0  0  0  0  0  0  0  0  0  0
   -7.3683   -8.4543   -5.3874 H   0  0  0  0  0  0  0  0  0  0  0  0
   -6.0643   -7.0762   -7.7619 H   0  0  0  0  0  0  0  0  0  0  0  0
   -8.4081   -8.3024   -8.4747 H   0  0  0  0  0  0  0  0  0  0  0  0
   -7.3425  -11.1263   -9.6803 H   0  0  0  0  0  0  0  0  0  0  0  0
   -9.8908   -8.6627   -8.0707 H   0  0  0  0  0  0  0  0  0  0  0  0
   -9.7632   -8.4523   -9.8160 H   0  0  0  0  0  0  0  0  0  0  0  0
  -12.0515   -8.3811   -8.9516 H   0  0  0  0  0  0  0  0  0  0  0  0
  -11.6281   -9.7980   -6.9403 H   0  0  0  0  0  0  0  0  0  0  0  0
  -13.0252  -10.3631   -7.7958 H   0  0  0  0  0  0  0  0  0  0  0  0
  -11.4646  -12.3133   -7.2399 H   0  0  0  0  0  0  0  0  0  0  0  0
  -11.2095  -13.2628   -9.4341 H   0  0  0  0  0  0  0  0  0  0  0  0
  -12.7509  -12.4425   -9.3377 H   0  0  0  0  0  0  0  0  0  0  0  0
  -11.5633  -11.8400  -11.4560 H   0  0  0  0  0  0  0  0  0  0  0  0
  -13.0544  -10.1161  -10.4335 H   0  0  0  0  0  0  0  0  0  0  0  0
  -11.6690   -9.3502  -11.2106 H   0  0  0  0  0  0  0  0  0  0  0  0
   -9.4139  -10.5496  -11.3246 H   0  0  0  0  0  0  0  0  0  0  0  0
   -9.2151  -12.1339  -10.6458 H   0  0  0  0  0  0  0  0  0  0  0  0
   -9.1754  -12.3925   -8.0696 H   0  0  0  0  0  0  0  0  0  0  0  0
   -9.3591  -11.0351   -7.0288 H   0  0  0  0  0  0  0  0  0  0  0  0
   -8.2707   -5.8953   -8.1265 H   0  0  0  0  0  0  0  0  0  0  0  0
   -8.9445   -6.6564   -6.7333 H   0  0  0  0  0  0  0  0  0  0  0  0
   -8.2882   -4.3899   -6.1355 H   0  0  0  0  0  0  0  0  0  0  0  0
   -6.6759   -4.6536   -6.7867 H   0  0  0  0  0  0  0  0  0  0  0  0
  1  2  1  0
  1 22  1  0
  1 23  1  0
  1 24  1  0
  2 21  1  0
  2  3  1  0
  2 25  1  1
  3  4  1  0
  3 26  1  0
  3 27  1  0
  4  5  1  0
  4 28  1  0
  4 29  1  0
  5  6  1  0
  5 20  1  0
  5 30  1  6
  6  7  1  0
  6 31  1  0
  7  8  2  0
  7  9  1  0
 10  9  1  6
  9 32  1  0
 10 18  1  0
 10 19  1  0
 10 11  1  0
 11 12  1  0
 11 33  1  0
 11 34  1  0
 12 17  1  0
 12 13  1  0
 12 35  1  1
 13 14  1  0
 13 36  1  0
 13 37  1  0
 14 15  1  0
 14 19  1  0
 14 38  1  1
 15 16  1  0
 15 39  1  0
 15 40  1  0
 16 17  1  0
 16 18  1  0
 16 41  1  6
 17 42  1  0
 17 43  1  0
 18 44  1  0
 18 45  1  0
 19 46  1  0
 19 47  1  0
 20 21  1  0
 20 48  1  0
 20 49  1  0
 21 50  1  0
 21 51  1  0
M  END
>  <i_m_ct_stereo_status>  (81) 
1

>  <s_m_source_file>  (81) 
/var/tmp/pbs.5076255.sched01/tmpd0mq1ayv/02wja6gfv.sdf

>  <i_m_source_file_index>  (81) 
31

>  <i_lp_mmshare_version>  (81) 
48012

>  <i_f3d_flags>  (81) 
0

>  <s_epik_input>  (81) 
W0NIM11bQ0BASF0xW0NIMl1bQ0gyXVtDQEhdKFtDSDJdW0NIMl0xKVtOSF1DKD1PKVtOSF1DMjNbQ0gyXVtDQEhdNFtDSDJdW0NAQEhdKFtDSDJdMylbQ0gyXVtDQEhdKFtDSDJdNClbQ0gyXTI=

>  <s_epik_cmdline>  (81) 
J2VwaWtfcHl0aG9uJywgJy1waHQnLCAnMi4wJywgJy1waCcsICc3LjAnLCAnLXRuJywgJzgnLCAnLW1hJywgJzIwMCcsICctaW1hZScsICc8aW5maWxlLm1hZT4nLCAnLW9tYWUnLCAnPG91dGZpbGUubWFlPic=

>  <r_lp_tautomer_probability>  (81) 
1

>  <r_epik_Ionization_Penalty>  (81) 
7.72748e-05

>  <r_epik_Ionization_Penalty_Charging>  (81) 
0

>  <r_epik_Ionization_Penalty_Neutral>  (81) 
7.72748e-05

>  <r_epik_State_Penalty>  (81) 
-0

>  <r_epik_Charging_Adjusted_Penalty>  (81) 
0

>  <i_epik_Tot_Q>  (81) 
0

>  <i_epik_Tot_abs_Q>  (81) 
0

>  <s_lp_Force_Field>  (81) 
OPLS3e

>  <r_lp_Energy>  (81) 
10.0366

>  <b_lp_Chiralities_Consistent>  (81) 
1

>  <s_lp_Variant>  (81) 
20:0-1

>  <s_i_glide_gridfile>  (81) 
pfpi4k_grid

>  <i_i_glide_lignum>  (81) 
31

>  <i_i_glide_rotatable_bonds>  (81) 
4

>  <r_i_docking_score>  (81) 
-3.96276

>  <r_i_glide_ligand_efficiency>  (81) 
-0.188703

>  <r_i_glide_ligand_efficiency_sa>  (81) 
-0.520617

>  <r_i_glide_ligand_efficiency_ln>  (81) 
-0.979785

>  <r_i_glide_gscore>  (81) 
-3.96276

>  <r_i_glide_lipo>  (81) 
-1.92353

>  <r_i_glide_hbond>  (81) 
0

>  <r_i_glide_metal>  (81) 
-0

>  <r_i_glide_rewards>  (81) 
-1.60475

>  <r_i_glide_evdw>  (81) 
-20.3006

>  <r_i_glide_ecoul>  (81) 
-0.450639

>  <r_i_glide_erotb>  (81) 
0.648138

>  <r_i_glide_esite>  (81) 
0

>  <r_i_glide_emodel>  (81) 
-17.8002

>  <r_i_glide_energy>  (81) 
-20.7512

>  <r_i_glide_einternal>  (81) 
17.3082

>  <r_i_glide_intrahb_reward>  (81) 
-0

>  <i_i_glide_confnum>  (81) 
4

>  <i_i_glide_posenum>  (81) 
9

>  <r_i_glide_eff_state_penalty>  (81) 
0

>  <ligand_id>  (81) 
20

>  <original_smiles>  (81) 
CC1CCC(NC(=O)NC23CC4CC(CC(C4)C2)C3)CC1

>  <smiles>  (81) 
[H]N(C(=O)N([H])C12C([H])([H])C3([H])C([H])([H])C([H])(C([H])([H])C([H])(C3([H])[H])C1([H])[H])C2([H])[H])C1([H])C([H])([H])C([H])([H])C([H])(C([H])([H])[H])C([H])([H])C1([H])[H]

$$$$
20:0:2
     RDKit          3D

 51 54  0  0  1  0  0  0  0  0999 V2000
   -6.5313   -3.9939   -4.3174 C   0  0  0  0  0  0  0  0  0  0  0  0
   -6.4011   -5.1478   -5.2938 C   0  0  2  0  0  0  0  0  0  0  0  0
   -7.7625   -5.7336   -5.6743 C   0  0  0  0  0  0  0  0  0  0  0  0
   -7.5806   -6.9380   -6.6188 C   0  0  0  0  0  0  0  0  0  0  0  0
   -6.6383   -8.0185   -6.0160 C   0  0  1  0  0  0  0  0  0  0  0  0
   -6.4843   -9.1062   -6.9567 N   0  0  0  0  0  0  0  0  0  0  0  0
   -5.9203  -10.2937   -6.7556 C   0  0  0  0  0  0  0  0  0  0  0  0
   -4.9737  -10.5279   -5.9857 O   0  0  0  0  0  0  0  0  0  0  0  0
   -6.4810  -11.2601   -7.4724 N   0  0  0  0  0  0  0  0  0  0  0  0
   -7.8276  -11.3119   -8.0781 C   0  0  1  0  0  0  0  0  0  0  0  0
   -8.9806  -10.9073   -7.0938 C   0  0  0  0  0  0  0  0  0  0  0  0
  -10.3224  -10.9727   -7.8266 C   0  0  2  0  0  0  0  0  0  0  0  0
  -10.5786  -12.4192   -8.2871 C   0  0  0  0  0  0  0  0  0  0  0  0
   -9.4604  -12.8545   -9.2576 C   0  0  1  0  0  0  0  0  0  0  0  0
   -9.4545  -11.9209  -10.4895 C   0  0  0  0  0  0  0  0  0  0  0  0
   -9.2033  -10.4720  -10.0375 C   0  0  1  0  0  0  0  0  0  0  0  0
  -10.3075  -10.0317   -9.0553 C   0  0  0  0  0  0  0  0  0  0  0  0
   -7.8546  -10.3844   -9.3291 C   0  0  0  0  0  0  0  0  0  0  0  0
   -8.0896  -12.7786   -8.5396 C   0  0  0  0  0  0  0  0  0  0  0  0
   -5.2876   -7.4082   -5.6354 C   0  0  0  0  0  0  0  0  0  0  0  0
   -5.4837   -6.2212   -4.7040 C   0  0  0  0  0  0  0  0  0  0  0  0
   -6.9599   -4.3265   -3.3665 H   0  0  0  0  0  0  0  0  0  0  0  0
   -7.1687   -3.2108   -4.7227 H   0  0  0  0  0  0  0  0  0  0  0  0
   -5.5559   -3.5532   -4.0889 H   0  0  0  0  0  0  0  0  0  0  0  0
   -5.9521   -4.7383   -6.1945 H   0  0  0  0  0  0  0  0  0  0  0  0
   -8.2910   -6.0427   -4.7723 H   0  0  0  0  0  0  0  0  0  0  0  0
   -8.3799   -4.9698   -6.1517 H   0  0  0  0  0  0  0  0  0  0  0  0
   -8.5585   -7.3750   -6.8213 H   0  0  0  0  0  0  0  0  0  0  0  0
   -7.2020   -6.5911   -7.5818 H   0  0  0  0  0  0  0  0  0  0  0  0
   -7.1086   -8.4133   -5.1161 H   0  0  0  0  0  0  0  0  0  0  0  0
   -7.1482   -9.0594   -7.7207 H   0  0  0  0  0  0  0  0  0  0  0  0
   -6.0147  -12.1551   -7.3956 H   0  0  0  0  0  0  0  0  0  0  0  0
   -8.9815  -11.5645   -6.2195 H   0  0  0  0  0  0  0  0  0  0  0  0
   -8.8850   -9.8976   -6.7062 H   0  0  0  0  0  0  0  0  0  0  0  0
  -11.1167  -10.6618   -7.1418 H   0  0  0  0  0  0  0  0  0  0  0  0
  -10.5969  -13.0782   -7.4156 H   0  0  0  0  0  0  0  0  0  0  0  0
  -11.5640  -12.4956   -8.7501 H   0  0  0  0  0  0  0  0  0  0  0  0
   -9.6512  -13.8656   -9.5890 H   0  0  0  0  0  0  0  0  0  0  0  0
   -8.6708  -12.2227  -11.1873 H   0  0  0  0  0  0  0  0  0  0  0  0
  -10.3968  -11.9783  -11.0411 H   0  0  0  0  0  0  0  0  0  0  0  0
   -9.2003   -9.8051  -10.9019 H   0  0  0  0  0  0  0  0  0  0  0  0
  -11.2758  -10.0248   -9.5467 H   0  0  0  0  0  0  0  0  0  0  0  0
  -10.1268   -9.0074   -8.7182 H   0  0  0  0  0  0  0  0  0  0  0  0
   -7.7112   -9.3341   -9.1011 H   0  0  0  0  0  0  0  0  0  0  0  0
   -7.0046  -10.6643   -9.9395 H   0  0  0  0  0  0  0  0  0  0  0  0
   -7.2854  -13.1079   -9.1869 H   0  0  0  0  0  0  0  0  0  0  0  0
   -8.0426  -13.4608   -7.6972 H   0  0  0  0  0  0  0  0  0  0  0  0
   -4.6619   -8.1360   -5.1165 H   0  0  0  0  0  0  0  0  0  0  0  0
   -4.7715   -7.1027   -6.5436 H   0  0  0  0  0  0  0  0  0  0  0  0
   -4.5155   -5.7802   -4.5161 H   0  0  0  0  0  0  0  0  0  0  0  0
   -5.8760   -6.5811   -3.7501 H   0  0  0  0  0  0  0  0  0  0  0  0
  1  2  1  0
  1 22  1  0
  1 23  1  0
  1 24  1  0
  2 21  1  0
  2  3  1  0
  2 25  1  6
  3  4  1  0
  3 26  1  0
  3 27  1  0
  4  5  1  0
  4 28  1  0
  4 29  1  0
  5  6  1  0
  5 20  1  0
  5 30  1  1
  6  7  1  0
  6 31  1  0
  7  8  2  0
  7  9  1  0
 10  9  1  1
  9 32  1  0
 10 18  1  0
 10 19  1  0
 10 11  1  0
 11 12  1  0
 11 33  1  0
 11 34  1  0
 12 17  1  0
 12 13  1  0
 12 35  1  1
 13 14  1  0
 13 36  1  0
 13 37  1  0
 14 15  1  0
 14 19  1  0
 14 38  1  6
 15 16  1  0
 15 39  1  0
 15 40  1  0
 16 17  1  0
 16 18  1  0
 16 41  1  6
 17 42  1  0
 17 43  1  0
 18 44  1  0
 18 45  1  0
 19 46  1  0
 19 47  1  0
 20 21  1  0
 20 48  1  0
 20 49  1  0
 21 50  1  0
 21 51  1  0
M  END
>  <i_m_ct_stereo_status>  (82) 
1

>  <s_m_source_file>  (82) 
/var/tmp/pbs.5076255.sched01/tmpd0mq1ayv/02wja6gfv.sdf

>  <i_m_source_file_index>  (82) 
31

>  <i_lp_mmshare_version>  (82) 
48012

>  <i_f3d_flags>  (82) 
0

>  <s_epik_input>  (82) 
W0NIM11bQ0BASF0xW0NIMl1bQ0gyXVtDQEhdKFtDSDJdW0NIMl0xKVtOSF1DKD1PKVtOSF1DMjNbQ0gyXVtDQEhdNFtDSDJdW0NAQEhdKFtDSDJdMylbQ0gyXVtDQEhdKFtDSDJdNClbQ0gyXTI=

>  <s_epik_cmdline>  (82) 
J2VwaWtfcHl0aG9uJywgJy1waHQnLCAnMi4wJywgJy1waCcsICc3LjAnLCAnLXRuJywgJzgnLCAnLW1hJywgJzIwMCcsICctaW1hZScsICc8aW5maWxlLm1hZT4nLCAnLW9tYWUnLCAnPG91dGZpbGUubWFlPic=

>  <r_lp_tautomer_probability>  (82) 
1

>  <r_epik_Ionization_Penalty>  (82) 
7.72748e-05

>  <r_epik_Ionization_Penalty_Charging>  (82) 
0

>  <r_epik_Ionization_Penalty_Neutral>  (82) 
7.72748e-05

>  <r_epik_State_Penalty>  (82) 
-0

>  <r_epik_Charging_Adjusted_Penalty>  (82) 
0

>  <i_epik_Tot_Q>  (82) 
0

>  <i_epik_Tot_abs_Q>  (82) 
0

>  <s_lp_Force_Field>  (82) 
OPLS3e

>  <r_lp_Energy>  (82) 
10.0366

>  <b_lp_Chiralities_Consistent>  (82) 
1

>  <s_lp_Variant>  (82) 
20:0-1

>  <s_i_glide_gridfile>  (82) 
pfpi4k_grid

>  <i_i_glide_lignum>  (82) 
31

>  <i_i_glide_rotatable_bonds>  (82) 
4

>  <r_i_docking_score>  (82) 
-3.67511

>  <r_i_glide_ligand_efficiency>  (82) 
-0.175005

>  <r_i_glide_ligand_efficiency_sa>  (82) 
-0.482826

>  <r_i_glide_ligand_efficiency_ln>  (82) 
-0.908663

>  <r_i_glide_gscore>  (82) 
-3.67511

>  <r_i_glide_lipo>  (82) 
-2.09308

>  <r_i_glide_hbond>  (82) 
0

>  <r_i_glide_metal>  (82) 
-0

>  <r_i_glide_rewards>  (82) 
-1.02832

>  <r_i_glide_evdw>  (82) 
-29.7825

>  <r_i_glide_ecoul>  (82) 
1.91519

>  <r_i_glide_erotb>  (82) 
0.648138

>  <r_i_glide_esite>  (82) 
0

>  <r_i_glide_emodel>  (82) 
-24.2523

>  <r_i_glide_energy>  (82) 
-27.8673

>  <r_i_glide_einternal>  (82) 
17.6244

>  <r_i_glide_intrahb_reward>  (82) 
-0

>  <i_i_glide_confnum>  (82) 
4

>  <i_i_glide_posenum>  (82) 
32

>  <r_i_glide_eff_state_penalty>  (82) 
0

>  <ligand_id>  (82) 
20

>  <original_smiles>  (82) 
CC1CCC(NC(=O)NC23CC4CC(CC(C4)C2)C3)CC1

>  <smiles>  (82) 
[H]N(C(=O)N([H])C12C([H])([H])C3([H])C([H])([H])C([H])(C([H])([H])C([H])(C3([H])[H])C1([H])[H])C2([H])[H])C1([H])C([H])([H])C([H])([H])C([H])(C([H])([H])[H])C([H])([H])C1([H])[H]

$$$$
21:0:0
     RDKit          3D

 42 46  0  0  1  0  0  0  0  0999 V2000
    9.1797   -2.8264    0.1848 C   0  0  0  0  0  0  0  0  0  0  0  0
    8.2910   -3.7655   -0.6400 C   0  0  0  0  0  0  0  0  0  0  0  0
    6.8370   -3.5242   -0.4792 N   0  0  0  0  0  0  0  0  0  0  0  0
    6.0872   -3.6862    0.7268 C   0  0  0  0  0  0  0  0  0  0  0  0
    6.5511   -4.1209    1.7724 O   0  0  0  0  0  0  0  0  0  0  0  0
    4.6084   -3.3489    0.4518 C   0  0  2  0  0  0  0  0  0  0  0  0
    3.9831   -2.2225    1.3399 C   0  0  0  0  0  0  0  0  0  0  0  0
    2.6733   -2.8388    1.9179 C   0  0  0  0  0  0  0  0  0  0  0  0
    2.7189   -4.2131    1.4864 N   0  0  0  0  0  0  0  0  0  0  0  0
    1.8878   -5.2981    1.6725 C   0  0  0  0  0  0  0  0  0  0  0  0
    2.4333   -6.3361    0.9729 C   0  0  0  0  0  0  0  0  0  0  0  0
    3.6512   -5.8709    0.3734 C   0  0  0  0  0  0  0  0  0  0  0  0
    3.7653   -4.5475    0.6948 C   0  0  0  0  0  0  0  0  0  0  0  0
    4.7229   -2.9856   -0.9427 N   0  0  0  0  0  0  0  0  0  0  0  0
    5.9505   -3.1373   -1.4079 C   0  0  0  0  0  0  0  0  0  0  0  0
    6.0528   -2.8448   -2.6854 N   0  0  0  0  0  0  0  0  0  0  0  0
    4.7076   -2.4912   -3.1832 C   0  0  1  0  0  0  0  0  0  0  0  0
    4.1127   -3.6925   -3.9309 C   0  0  0  0  0  0  0  0  0  0  0  0
    2.6202   -3.6194   -3.6366 C   0  0  0  0  0  0  0  0  0  0  0  0
    2.5347   -3.1983   -2.1718 C   0  0  0  0  0  0  0  0  0  0  0  0
    3.8129   -2.3924   -1.9155 C   0  0  1  0  0  0  0  0  0  0  0  0
   10.2389   -3.0194    0.0637 H   0  0  0  0  0  0  0  0  0  0  0  0
    9.0163   -3.0054    1.2433 H   0  0  0  0  0  0  0  0  0  0  0  0
    9.0276   -1.7751   -0.0366 H   0  0  0  0  0  0  0  0  0  0  0  0
    8.5860   -3.6859   -1.6813 H   0  0  0  0  0  0  0  0  0  0  0  0
    8.5153   -4.7831   -0.3396 H   0  0  0  0  0  0  0  0  0  0  0  0
    4.6452   -1.8959    2.1378 H   0  0  0  0  0  0  0  0  0  0  0  0
    3.7359   -1.3336    0.7592 H   0  0  0  0  0  0  0  0  0  0  0  0
    2.6413   -2.7999    3.0035 H   0  0  0  0  0  0  0  0  0  0  0  0
    1.8038   -2.3434    1.4741 H   0  0  0  0  0  0  0  0  0  0  0  0
    0.9729   -5.2202    2.2414 H   0  0  0  0  0  0  0  0  0  0  0  0
    1.9639   -7.3075    0.8866 H   0  0  0  0  0  0  0  0  0  0  0  0
    4.3119   -6.4294   -0.2830 H   0  0  0  0  0  0  0  0  0  0  0  0
    4.6660   -1.5546   -3.7334 H   0  0  0  0  0  0  0  0  0  0  0  0
    4.3059   -3.6869   -4.9877 H   0  0  0  0  0  0  0  0  0  0  0  0
    4.5633   -4.6036   -3.5210 H   0  0  0  0  0  0  0  0  0  0  0  0
    2.1282   -2.8664   -4.2559 H   0  0  0  0  0  0  0  0  0  0  0  0
    2.1374   -4.5576   -3.8822 H   0  0  0  0  0  0  0  0  0  0  0  0
    1.6663   -2.5734   -2.0621 H   0  0  0  0  0  0  0  0  0  0  0  0
    2.4007   -4.0513   -1.5039 H   0  0  0  0  0  0  0  0  0  0  0  0
    3.5729   -1.3517   -1.6702 H   0  0  0  0  0  0  0  0  0  0  0  0
    6.9579   -2.8187   -3.1754 H   0  0  0  0  0  0  0  0  0  0  0  0
  1  2  1  0
  1 22  1  0
  1 23  1  0
  1 24  1  0
  2  3  1  0
  2 25  1  0
  2 26  1  0
  3 15  1  0
  3  4  1  0
  4  5  2  0
  4  6  1  0
  6 13  1  0
  6  7  1  1
  6 14  1  0
  7  8  1  0
  7 27  1  0
  7 28  1  0
  8  9  1  0
  8 29  1  0
  8 30  1  0
  9 13  1  0
  9 10  1  0
 10 11  2  0
 10 31  1  0
 11 12  1  0
 11 32  1  0
 12 13  2  0
 12 33  1  0
 14 21  1  0
 14 15  1  0
 15 16  2  0
 16 17  1  0
 16 42  1  0
 17 21  1  0
 17 18  1  0
 17 34  1  6
 18 19  1  0
 18 35  1  0
 18 36  1  0
 19 20  1  0
 19 37  1  0
 19 38  1  0
 20 21  1  0
 20 39  1  0
 20 40  1  0
 21 41  1  1
M  CHG  1  16   1
M  END
>  <i_m_ct_stereo_status>  (83) 
1

>  <s_m_source_file>  (83) 
/var/tmp/pbs.5076255.sched01/tmpd0mq1ayv/02wja6gfv.sdf

>  <i_m_source_file_index>  (83) 
32

>  <i_lp_mmshare_version>  (83) 
48012

>  <i_f3d_flags>  (83) 
0

>  <s_epik_input>  (83) 
W0NIMl0xW0NIMl1bQ0gyXVtDQEBIXTJbQ0BIXTFOPUMoTihDMz1PKVtDSDJdW0NIM10pTjJbQ0BAXTM0YzVuKFtDSDJdW0NIMl00KVtjSF1bY0hdW2NIXTU=

>  <s_epik_cmdline>  (83) 
J2VwaWtfcHl0aG9uJywgJy1waHQnLCAnMi4wJywgJy1waCcsICc3LjAnLCAnLXRuJywgJzgnLCAnLW1hJywgJzIwMCcsICctaW1hZScsICc8aW5maWxlLm1hZT4nLCAnLW9tYWUnLCAnPG91dGZpbGUubWFlPic=

>  <r_epik_Ionization_Penalty>  (83) 
0.129148

>  <r_epik_Ionization_Penalty_Charging>  (83) 
0.129148

>  <r_epik_Ionization_Penalty_Neutral>  (83) 
1.84182e-15

>  <r_epik_State_Penalty>  (83) 
0.118564

>  <r_epik_Charging_Adjusted_Penalty>  (83) 
0.247712

>  <i_epik_Tot_Q>  (83) 
1

>  <i_epik_Tot_abs_Q>  (83) 
1

>  <s_epik_Chemistry_Notes>  (83) 
This compound has an imine and may undergo hydrolysis.

>  <s_lp_Force_Field>  (83) 
OPLS3e

>  <r_lp_Energy>  (83) 
19.3599

>  <b_lp_Chiralities_Consistent>  (83) 
1

>  <s_lp_Variant>  (83) 
21:0-1

>  <s_i_glide_gridfile>  (83) 
pfpi4k_grid

>  <i_i_glide_lignum>  (83) 
32

>  <i_i_glide_rotatable_bonds>  (83) 
1

>  <r_i_docking_score>  (83) 
-3.85224

>  <r_i_glide_ligand_efficiency>  (83) 
-0.18344

>  <r_i_glide_ligand_efficiency_sa>  (83) 
-0.506097

>  <r_i_glide_ligand_efficiency_ln>  (83) 
-0.952459

>  <r_i_glide_gscore>  (83) 
-3.85224

>  <r_i_glide_lipo>  (83) 
-0.515844

>  <r_i_glide_hbond>  (83) 
0

>  <r_i_glide_metal>  (83) 
-0

>  <r_i_glide_rewards>  (83) 
-1.75338

>  <r_i_glide_evdw>  (83) 
-18.9113

>  <r_i_glide_ecoul>  (83) 
-4.17117

>  <r_i_glide_erotb>  (83) 
0

>  <r_i_glide_esite>  (83) 
-0.0117765

>  <r_i_glide_emodel>  (83) 
-26.7726

>  <r_i_glide_energy>  (83) 
-23.0824

>  <r_i_glide_einternal>  (83) 
0.200381

>  <r_i_glide_intrahb_reward>  (83) 
-0

>  <i_i_glide_confnum>  (83) 
2

>  <i_i_glide_posenum>  (83) 
14

>  <r_i_glide_eff_state_penalty>  (83) 
0

>  <ligand_id>  (83) 
21

>  <original_smiles>  (83) 
CCN1C(=O)C2(CCn3cccc32)N2C1=NC1CCCC12

>  <smiles>  (83) 
[H]c1c([H])c2n(c1[H])C([H])([H])C([H])([H])C21C(=O)N(C([H])([H])C([H])([H])[H])C2=[N+]([H])C3([H])C([H])([H])C([H])([H])C([H])([H])C3([H])N21

$$$$
21:0:1
     RDKit          3D

 42 46  0  0  1  0  0  0  0  0999 V2000
    7.9796   -5.0780    1.6889 C   0  0  0  0  0  0  0  0  0  0  0  0
    6.6703   -5.3741    2.4307 C   0  0  0  0  0  0  0  0  0  0  0  0
    5.5566   -4.6159    1.8331 N   0  0  0  0  0  0  0  0  0  0  0  0
    4.9814   -4.8646    0.5459 C   0  0  0  0  0  0  0  0  0  0  0  0
    5.3396   -5.7566   -0.2161 O   0  0  0  0  0  0  0  0  0  0  0  0
    3.8791   -3.8347    0.2854 C   0  0  2  0  0  0  0  0  0  0  0  0
    2.4819   -4.4288   -0.0405 C   0  0  0  0  0  0  0  0  0  0  0  0
    2.0092   -3.6964   -1.3261 C   0  0  0  0  0  0  0  0  0  0  0  0
    3.1337   -2.8839   -1.6912 N   0  0  0  0  0  0  0  0  0  0  0  0
    3.3611   -1.9879   -2.7091 C   0  0  0  0  0  0  0  0  0  0  0  0
    4.6149   -1.4783   -2.4987 C   0  0  0  0  0  0  0  0  0  0  0  0
    5.1654   -2.0950   -1.3278 C   0  0  0  0  0  0  0  0  0  0  0  0
    4.2015   -2.9477   -0.8608 C   0  0  0  0  0  0  0  0  0  0  0  0
    3.9117   -3.1420    1.5590 N   0  0  0  0  0  0  0  0  0  0  0  0
    4.8445   -3.6038    2.3623 C   0  0  0  0  0  0  0  0  0  0  0  0
    4.8933   -2.9621    3.5275 N   0  0  0  0  0  0  0  0  0  0  0  0
    3.8678   -1.8947    3.4823 C   0  0  1  0  0  0  0  0  0  0  0  0
    4.5145   -0.5418    3.1601 C   0  0  0  0  0  0  0  0  0  0  0  0
    3.4905    0.1859    2.2853 C   0  0  0  0  0  0  0  0  0  0  0  0
    2.8109   -0.8877    1.4476 C   0  0  0  0  0  0  0  0  0  0  0  0
    3.0265   -2.1885    2.2122 C   0  0  1  0  0  0  0  0  0  0  0  0
    8.8279   -5.5784    2.1503 H   0  0  0  0  0  0  0  0  0  0  0  0
    8.1812   -4.0093    1.6787 H   0  0  0  0  0  0  0  0  0  0  0  0
    7.9349   -5.4055    0.6515 H   0  0  0  0  0  0  0  0  0  0  0  0
    6.4721   -6.4510    2.4255 H   0  0  0  0  0  0  0  0  0  0  0  0
    6.7617   -5.1041    3.4797 H   0  0  0  0  0  0  0  0  0  0  0  0
    2.5004   -5.5137   -0.1875 H   0  0  0  0  0  0  0  0  0  0  0  0
    1.8047   -4.2491    0.7823 H   0  0  0  0  0  0  0  0  0  0  0  0
    1.7459   -4.3408   -2.1523 H   0  0  0  0  0  0  0  0  0  0  0  0
    1.1444   -3.0665   -1.1349 H   0  0  0  0  0  0  0  0  0  0  0  0
    2.6022   -1.7717   -3.4453 H   0  0  0  0  0  0  0  0  0  0  0  0
    5.0427   -0.7084   -3.1190 H   0  0  0  0  0  0  0  0  0  0  0  0
    6.1140   -1.8953   -0.8520 H   0  0  0  0  0  0  0  0  0  0  0  0
    3.2174   -1.8557    4.3656 H   0  0  0  0  0  0  0  0  0  0  0  0
    4.7587    0.0255    4.0570 H   0  0  0  0  0  0  0  0  0  0  0  0
    5.4439   -0.6884    2.6000 H   0  0  0  0  0  0  0  0  0  0  0  0
    2.7533    0.6745    2.9245 H   0  0  0  0  0  0  0  0  0  0  0  0
    3.9379    0.9417    1.6412 H   0  0  0  0  0  0  0  0  0  0  0  0
    1.7509   -0.6752    1.3309 H   0  0  0  0  0  0  0  0  0  0  0  0
    3.2390   -0.8866    0.4468 H   0  0  0  0  0  0  0  0  0  0  0  0
    2.0789   -2.6547    2.4759 H   0  0  0  0  0  0  0  0  0  0  0  0
    5.3905   -3.2817    4.3620 H   0  0  0  0  0  0  0  0  0  0  0  0
  1  2  1  0
  1 22  1  0
  1 23  1  0
  1 24  1  0
  2  3  1  0
  2 25  1  0
  2 26  1  0
  3 15  1  0
  3  4  1  0
  4  5  2  0
  4  6  1  0
  6 13  1  0
  6  7  1  6
  6 14  1  0
  7  8  1  0
  7 27  1  0
  7 28  1  0
  8  9  1  0
  8 29  1  0
  8 30  1  0
  9 13  1  0
  9 10  1  0
 10 11  2  0
 10 31  1  0
 11 12  1  0
 11 32  1  0
 12 13  2  0
 12 33  1  0
 14 21  1  0
 14 15  1  0
 15 16  2  0
 16 17  1  0
 16 42  1  0
 17 21  1  0
 17 18  1  0
 17 34  1  1
 18 19  1  0
 18 35  1  0
 18 36  1  0
 19 20  1  0
 19 37  1  0
 19 38  1  0
 20 21  1  0
 20 39  1  0
 20 40  1  0
 21 41  1  1
M  CHG  1  16   1
M  END
>  <i_m_ct_stereo_status>  (84) 
1

>  <s_m_source_file>  (84) 
/var/tmp/pbs.5076255.sched01/tmpd0mq1ayv/02wja6gfv.sdf

>  <i_m_source_file_index>  (84) 
32

>  <i_lp_mmshare_version>  (84) 
48012

>  <i_f3d_flags>  (84) 
0

>  <s_epik_input>  (84) 
W0NIMl0xW0NIMl1bQ0gyXVtDQEBIXTJbQ0BIXTFOPUMoTihDMz1PKVtDSDJdW0NIM10pTjJbQ0BAXTM0YzVuKFtDSDJdW0NIMl00KVtjSF1bY0hdW2NIXTU=

>  <s_epik_cmdline>  (84) 
J2VwaWtfcHl0aG9uJywgJy1waHQnLCAnMi4wJywgJy1waCcsICc3LjAnLCAnLXRuJywgJzgnLCAnLW1hJywgJzIwMCcsICctaW1hZScsICc8aW5maWxlLm1hZT4nLCAnLW9tYWUnLCAnPG91dGZpbGUubWFlPic=

>  <r_epik_Ionization_Penalty>  (84) 
0.129148

>  <r_epik_Ionization_Penalty_Charging>  (84) 
0.129148

>  <r_epik_Ionization_Penalty_Neutral>  (84) 
1.84182e-15

>  <r_epik_State_Penalty>  (84) 
0.118564

>  <r_epik_Charging_Adjusted_Penalty>  (84) 
0.247712

>  <i_epik_Tot_Q>  (84) 
1

>  <i_epik_Tot_abs_Q>  (84) 
1

>  <s_epik_Chemistry_Notes>  (84) 
This compound has an imine and may undergo hydrolysis.

>  <s_lp_Force_Field>  (84) 
OPLS3e

>  <r_lp_Energy>  (84) 
19.3599

>  <b_lp_Chiralities_Consistent>  (84) 
1

>  <s_lp_Variant>  (84) 
21:0-1

>  <s_i_glide_gridfile>  (84) 
pfpi4k_grid

>  <i_i_glide_lignum>  (84) 
32

>  <i_i_glide_rotatable_bonds>  (84) 
1

>  <r_i_docking_score>  (84) 
-3.30207

>  <r_i_glide_ligand_efficiency>  (84) 
-0.157241

>  <r_i_glide_ligand_efficiency_sa>  (84) 
-0.433817

>  <r_i_glide_ligand_efficiency_ln>  (84) 
-0.81643

>  <r_i_glide_gscore>  (84) 
-3.30207

>  <r_i_glide_lipo>  (84) 
-0.2606

>  <r_i_glide_hbond>  (84) 
0

>  <r_i_glide_metal>  (84) 
-0

>  <r_i_glide_rewards>  (84) 
-1.61194

>  <r_i_glide_evdw>  (84) 
-19.211

>  <r_i_glide_ecoul>  (84) 
-3.03773

>  <r_i_glide_erotb>  (84) 
0

>  <r_i_glide_esite>  (84) 
-0.0133178

>  <r_i_glide_emodel>  (84) 
-25.1071

>  <r_i_glide_energy>  (84) 
-22.2487

>  <r_i_glide_einternal>  (84) 
0.299735

>  <r_i_glide_intrahb_reward>  (84) 
-0

>  <i_i_glide_confnum>  (84) 
2

>  <i_i_glide_posenum>  (84) 
28

>  <r_i_glide_eff_state_penalty>  (84) 
0

>  <ligand_id>  (84) 
21

>  <original_smiles>  (84) 
CCN1C(=O)C2(CCn3cccc32)N2C1=NC1CCCC12

>  <smiles>  (84) 
[H]c1c([H])c2n(c1[H])C([H])([H])C([H])([H])C21C(=O)N(C([H])([H])C([H])([H])[H])C2=[N+]([H])C3([H])C([H])([H])C([H])([H])C([H])([H])C3([H])N21

$$$$
21:1:0
     RDKit          3D

 41 45  0  0  1  0  0  0  0  0999 V2000
   -2.3769    3.2250    8.2434 C   0  0  0  0  0  0  0  0  0  0  0  0
   -2.8270    2.9159    6.8143 C   0  0  0  0  0  0  0  0  0  0  0  0
   -1.7090    2.4791    5.9676 N   0  0  0  0  0  0  0  0  0  0  0  0
   -1.2707    1.2173    5.7950 C   0  0  0  0  0  0  0  0  0  0  0  0
   -1.6719    0.2062    6.3906 O   0  0  0  0  0  0  0  0  0  0  0  0
   -0.1684    1.2131    4.7253 C   0  0  2  0  0  0  0  0  0  0  0  0
   -0.5757    0.4313    3.4228 C   0  0  0  0  0  0  0  0  0  0  0  0
    0.5839   -0.5809    3.1829 C   0  0  0  0  0  0  0  0  0  0  0  0
    1.4557   -0.3957    4.3158 N   0  0  0  0  0  0  0  0  0  0  0  0
    2.6395   -0.9846    4.7158 C   0  0  0  0  0  0  0  0  0  0  0  0
    2.9877   -0.3924    5.9070 C   0  0  0  0  0  0  0  0  0  0  0  0
    1.9967    0.5966    6.2166 C   0  0  0  0  0  0  0  0  0  0  0  0
    1.0800    0.5622    5.1985 C   0  0  0  0  0  0  0  0  0  0  0  0
   -0.0240    2.6308    4.5082 N   0  0  0  0  0  0  0  0  0  0  0  0
   -1.0048    3.3346    5.1171 C   0  0  0  0  0  0  0  0  0  0  0  0
   -1.1646    4.5710    4.7750 N   0  0  0  0  0  0  0  0  0  0  0  0
   -0.1717    4.7797    3.7032 C   0  0  1  0  0  0  0  0  0  0  0  0
    1.0680    5.5693    4.1472 C   0  0  0  0  0  0  0  0  0  0  0  0
    2.2099    4.9684    3.3063 C   0  0  0  0  0  0  0  0  0  0  0  0
    1.8781    3.4786    3.1450 C   0  0  0  0  0  0  0  0  0  0  0  0
    0.3674    3.3846    3.3627 C   0  0  1  0  0  0  0  0  0  0  0  0
   -3.2282    3.4475    8.8843 H   0  0  0  0  0  0  0  0  0  0  0  0
   -1.7033    4.0784    8.2663 H   0  0  0  0  0  0  0  0  0  0  0  0
   -1.8589    2.3750    8.6835 H   0  0  0  0  0  0  0  0  0  0  0  0
   -3.5725    2.1264    6.8746 H   0  0  0  0  0  0  0  0  0  0  0  0
   -3.3443    3.7610    6.3664 H   0  0  0  0  0  0  0  0  0  0  0  0
   -1.5309   -0.0996    3.5654 H   0  0  0  0  0  0  0  0  0  0  0  0
   -0.6692    1.0594    2.5274 H   0  0  0  0  0  0  0  0  0  0  0  0
    0.2439   -1.6176    3.1373 H   0  0  0  0  0  0  0  0  0  0  0  0
    1.1375   -0.3163    2.2772 H   0  0  0  0  0  0  0  0  0  0  0  0
    3.1045   -1.7571    4.1133 H   0  0  0  0  0  0  0  0  0  0  0  0
    3.8729   -0.6476    6.4813 H   0  0  0  0  0  0  0  0  0  0  0  0
    1.9784    1.2463    7.0825 H   0  0  0  0  0  0  0  0  0  0  0  0
   -0.6219    5.2426    2.8249 H   0  0  0  0  0  0  0  0  0  0  0  0
    0.9515    6.6473    3.9939 H   0  0  0  0  0  0  0  0  0  0  0  0
    1.2582    5.3782    5.2035 H   0  0  0  0  0  0  0  0  0  0  0  0
    2.2151    5.4243    2.3129 H   0  0  0  0  0  0  0  0  0  0  0  0
    3.1959    5.1277    3.7524 H   0  0  0  0  0  0  0  0  0  0  0  0
    2.1559    3.1256    2.1537 H   0  0  0  0  0  0  0  0  0  0  0  0
    2.4397    2.8699    3.8542 H   0  0  0  0  0  0  0  0  0  0  0  0
   -0.1384    2.9953    2.4862 H   0  0  0  0  0  0  0  0  0  0  0  0
  1  2  1  0
  1 22  1  0
  1 23  1  0
  1 24  1  0
  2  3  1  0
  2 25  1  0
  2 26  1  0
  3 15  1  0
  3  4  1  0
  4  5  2  0
  4  6  1  0
  6 13  1  0
  6  7  1  6
  6 14  1  0
  7  8  1  0
  7 27  1  0
  7 28  1  0
  8  9  1  0
  8 29  1  0
  8 30  1  0
  9 13  1  0
  9 10  1  0
 10 11  2  0
 10 31  1  0
 11 12  1  0
 11 32  1  0
 12 13  2  0
 12 33  1  0
 14 21  1  0
 14 15  1  0
 15 16  2  0
 16 17  1  0
 17 21  1  0
 17 18  1  0
 17 34  1  6
 18 19  1  0
 18 35  1  0
 18 36  1  0
 19 20  1  0
 19 37  1  0
 19 38  1  0
 20 21  1  0
 20 39  1  0
 20 40  1  0
 21 41  1  6
M  END
>  <i_m_ct_stereo_status>  (85) 
1

>  <s_m_source_file>  (85) 
/var/tmp/pbs.5076255.sched01/tmpd0mq1ayv/02wja6gfv.sdf

>  <i_m_source_file_index>  (85) 
33

>  <i_lp_mmshare_version>  (85) 
48012

>  <i_f3d_flags>  (85) 
0

>  <s_epik_input>  (85) 
W0NIMl0xW0NIMl1bQ0gyXVtDQEBIXTJbQ0BIXTFOPUMoTihDMz1PKVtDSDJdW0NIM10pTjJbQ0BAXTM0YzVuKFtDSDJdW0NIMl00KVtjSF1bY0hdW2NIXTU=

>  <s_epik_cmdline>  (85) 
J2VwaWtfcHl0aG9uJywgJy1waHQnLCAnMi4wJywgJy1waCcsICc3LjAnLCAnLXRuJywgJzgnLCAnLW1hJywgJzIwMCcsICctaW1hZScsICc8aW5maWxlLm1hZT4nLCAnLW9tYWUnLCAnPG91dGZpbGUubWFlPic=

>  <r_lp_tautomer_probability>  (85) 
1

>  <r_epik_Ionization_Penalty>  (85) 
0.965976

>  <r_epik_Ionization_Penalty_Charging>  (85) 
0

>  <r_epik_Ionization_Penalty_Neutral>  (85) 
0.965976

>  <r_epik_State_Penalty>  (85) 
1.01153

>  <r_epik_Charging_Adjusted_Penalty>  (85) 
1.01153

>  <i_epik_Tot_Q>  (85) 
0

>  <i_epik_Tot_abs_Q>  (85) 
0

>  <s_epik_Chemistry_Notes>  (85) 
This compound has an imine and may undergo hydrolysis.

>  <s_lp_Force_Field>  (85) 
OPLS3e

>  <r_lp_Energy>  (85) 
29.0057

>  <b_lp_Chiralities_Consistent>  (85) 
1

>  <s_lp_Variant>  (85) 
21:0-2

>  <s_i_glide_gridfile>  (85) 
pfpi4k_grid

>  <i_i_glide_lignum>  (85) 
33

>  <i_i_glide_rotatable_bonds>  (85) 
1

>  <r_i_docking_score>  (85) 
-4.02284

>  <r_i_glide_ligand_efficiency>  (85) 
-0.191564

>  <r_i_glide_ligand_efficiency_sa>  (85) 
-0.528511

>  <r_i_glide_ligand_efficiency_ln>  (85) 
-0.99464

>  <r_i_glide_gscore>  (85) 
-4.02284

>  <r_i_glide_lipo>  (85) 
-0.229747

>  <r_i_glide_hbond>  (85) 
-0.178308

>  <r_i_glide_metal>  (85) 
-0

>  <r_i_glide_rewards>  (85) 
-1.51409

>  <r_i_glide_evdw>  (85) 
-17.8642

>  <r_i_glide_ecoul>  (85) 
-7.72412

>  <r_i_glide_erotb>  (85) 
0

>  <r_i_glide_esite>  (85) 
-0.048868

>  <r_i_glide_emodel>  (85) 
-32.6286

>  <r_i_glide_energy>  (85) 
-25.5883

>  <r_i_glide_einternal>  (85) 
0.0252963

>  <r_i_glide_intrahb_reward>  (85) 
-0

>  <i_i_glide_confnum>  (85) 
1

>  <i_i_glide_posenum>  (85) 
12

>  <r_i_glide_eff_state_penalty>  (85) 
0

>  <ligand_id>  (85) 
21

>  <original_smiles>  (85) 
CCN1C(=O)C2(CCn3cccc32)N2C1=NC1CCCC12

>  <smiles>  (85) 
[H]c1c([H])c2n(c1[H])C([H])([H])C([H])([H])C21C(=O)N(C([H])([H])C([H])([H])[H])C2=NC3([H])C([H])([H])C([H])([H])C([H])([H])C3([H])N21

$$$$
21:1:1
     RDKit          3D

 41 45  0  0  1  0  0  0  0  0999 V2000
   -3.3578    2.6355    7.2444 C   0  0  0  0  0  0  0  0  0  0  0  0
   -1.9192    3.1620    7.3595 C   0  0  0  0  0  0  0  0  0  0  0  0
   -1.0438    2.6560    6.2895 N   0  0  0  0  0  0  0  0  0  0  0  0
   -0.6899    1.3661    6.0875 C   0  0  0  0  0  0  0  0  0  0  0  0
   -0.9992    0.3978    6.7829 O   0  0  0  0  0  0  0  0  0  0  0  0
    0.1765    1.2814    4.8241 C   0  0  2  0  0  0  0  0  0  0  0  0
   -0.5177    0.4909    3.6562 C   0  0  0  0  0  0  0  0  0  0  0  0
    0.5169   -0.5846    3.2232 C   0  0  0  0  0  0  0  0  0  0  0  0
    1.6056   -0.4199    4.1481 N   0  0  0  0  0  0  0  0  0  0  0  0
    2.8117   -1.0671    4.3205 C   0  0  0  0  0  0  0  0  0  0  0  0
    3.4262   -0.4680    5.3935 C   0  0  0  0  0  0  0  0  0  0  0  0
    2.5694    0.5823    5.8634 C   0  0  0  0  0  0  0  0  0  0  0  0
    1.4671    0.5780    5.0550 C   0  0  0  0  0  0  0  0  0  0  0  0
    0.3344    2.6829    4.5328 N   0  0  0  0  0  0  0  0  0  0  0  0
   -0.4818    3.4591    5.2917 C   0  0  0  0  0  0  0  0  0  0  0  0
   -0.6389    4.6936    4.9512 N   0  0  0  0  0  0  0  0  0  0  0  0
    0.1348    4.8143    3.6958 C   0  0  1  0  0  0  0  0  0  0  0  0
    1.4776    5.5381    3.8533 C   0  0  0  0  0  0  0  0  0  0  0  0
    2.3947    4.8552    2.8227 C   0  0  0  0  0  0  0  0  0  0  0  0
    1.9693    3.3849    2.7831 C   0  0  0  0  0  0  0  0  0  0  0  0
    0.5205    3.3793    3.2904 C   0  0  1  0  0  0  0  0  0  0  0  0
   -3.9845    2.9819    8.0674 H   0  0  0  0  0  0  0  0  0  0  0  0
   -3.3675    1.5506    7.2746 H   0  0  0  0  0  0  0  0  0  0  0  0
   -3.8180    2.9515    6.3098 H   0  0  0  0  0  0  0  0  0  0  0  0
   -1.9145    4.2498    7.3944 H   0  0  0  0  0  0  0  0  0  0  0  0
   -1.5113    2.8269    8.3115 H   0  0  0  0  0  0  0  0  0  0  0  0
   -1.4544    0.0307    3.9923 H   0  0  0  0  0  0  0  0  0  0  0  0
   -0.7571    1.1056    2.7854 H   0  0  0  0  0  0  0  0  0  0  0  0
    0.1212   -1.5980    3.2844 H   0  0  0  0  0  0  0  0  0  0  0  0
    0.8825   -0.3791    2.2136 H   0  0  0  0  0  0  0  0  0  0  0  0
    3.1055   -1.8808    3.6665 H   0  0  0  0  0  0  0  0  0  0  0  0
    4.3950   -0.7580    5.7867 H   0  0  0  0  0  0  0  0  0  0  0  0
    2.7599    1.2511    6.6941 H   0  0  0  0  0  0  0  0  0  0  0  0
   -0.4618    5.2684    2.9032 H   0  0  0  0  0  0  0  0  0  0  0  0
    1.3862    6.6143    3.6830 H   0  0  0  0  0  0  0  0  0  0  0  0
    1.8750    5.3693    4.8549 H   0  0  0  0  0  0  0  0  0  0  0  0
    2.2114    5.2870    1.8376 H   0  0  0  0  0  0  0  0  0  0  0  0
    3.4567    4.9723    3.0476 H   0  0  0  0  0  0  0  0  0  0  0  0
    2.0140    2.9926    1.7698 H   0  0  0  0  0  0  0  0  0  0  0  0
    2.6297    2.7610    3.3863 H   0  0  0  0  0  0  0  0  0  0  0  0
   -0.1589    3.0300    2.5098 H   0  0  0  0  0  0  0  0  0  0  0  0
  1  2  1  0
  1 22  1  0
  1 23  1  0
  1 24  1  0
  2  3  1  0
  2 25  1  0
  2 26  1  0
  3 15  1  0
  3  4  1  0
  4  5  2  0
  4  6  1  0
  6 13  1  0
  6  7  1  6
  6 14  1  0
  7  8  1  0
  7 27  1  0
  7 28  1  0
  8  9  1  0
  8 29  1  0
  8 30  1  0
  9 13  1  0
  9 10  1  0
 10 11  2  0
 10 31  1  0
 11 12  1  0
 11 32  1  0
 12 13  2  0
 12 33  1  0
 14 21  1  0
 14 15  1  0
 15 16  2  0
 16 17  1  0
 17 21  1  0
 17 18  1  0
 17 34  1  6
 18 19  1  0
 18 35  1  0
 18 36  1  0
 19 20  1  0
 19 37  1  0
 19 38  1  0
 20 21  1  0
 20 39  1  0
 20 40  1  0
 21 41  1  6
M  END
>  <i_m_ct_stereo_status>  (86) 
1

>  <s_m_source_file>  (86) 
/var/tmp/pbs.5076255.sched01/tmpd0mq1ayv/02wja6gfv.sdf

>  <i_m_source_file_index>  (86) 
33

>  <i_lp_mmshare_version>  (86) 
48012

>  <i_f3d_flags>  (86) 
0

>  <s_epik_input>  (86) 
W0NIMl0xW0NIMl1bQ0gyXVtDQEBIXTJbQ0BIXTFOPUMoTihDMz1PKVtDSDJdW0NIM10pTjJbQ0BAXTM0YzVuKFtDSDJdW0NIMl00KVtjSF1bY0hdW2NIXTU=

>  <s_epik_cmdline>  (86) 
J2VwaWtfcHl0aG9uJywgJy1waHQnLCAnMi4wJywgJy1waCcsICc3LjAnLCAnLXRuJywgJzgnLCAnLW1hJywgJzIwMCcsICctaW1hZScsICc8aW5maWxlLm1hZT4nLCAnLW9tYWUnLCAnPG91dGZpbGUubWFlPic=

>  <r_lp_tautomer_probability>  (86) 
1

>  <r_epik_Ionization_Penalty>  (86) 
0.965976

>  <r_epik_Ionization_Penalty_Charging>  (86) 
0

>  <r_epik_Ionization_Penalty_Neutral>  (86) 
0.965976

>  <r_epik_State_Penalty>  (86) 
1.01153

>  <r_epik_Charging_Adjusted_Penalty>  (86) 
1.01153

>  <i_epik_Tot_Q>  (86) 
0

>  <i_epik_Tot_abs_Q>  (86) 
0

>  <s_epik_Chemistry_Notes>  (86) 
This compound has an imine and may undergo hydrolysis.

>  <s_lp_Force_Field>  (86) 
OPLS3e

>  <r_lp_Energy>  (86) 
29.0057

>  <b_lp_Chiralities_Consistent>  (86) 
1

>  <s_lp_Variant>  (86) 
21:0-2

>  <s_i_glide_gridfile>  (86) 
pfpi4k_grid

>  <i_i_glide_lignum>  (86) 
33

>  <i_i_glide_rotatable_bonds>  (86) 
1

>  <r_i_docking_score>  (86) 
-3.63048

>  <r_i_glide_ligand_efficiency>  (86) 
-0.17288

>  <r_i_glide_ligand_efficiency_sa>  (86) 
-0.476963

>  <r_i_glide_ligand_efficiency_ln>  (86) 
-0.89763

>  <r_i_glide_gscore>  (86) 
-3.63048

>  <r_i_glide_lipo>  (86) 
-0.202778

>  <r_i_glide_hbond>  (86) 
-0.101151

>  <r_i_glide_metal>  (86) 
-0

>  <r_i_glide_rewards>  (86) 
-1.48388

>  <r_i_glide_evdw>  (86) 
-18.631

>  <r_i_glide_ecoul>  (86) 
-5.83156

>  <r_i_glide_erotb>  (86) 
0

>  <r_i_glide_esite>  (86) 
-0.0363907

>  <r_i_glide_emodel>  (86) 
-30.7349

>  <r_i_glide_energy>  (86) 
-24.4626

>  <r_i_glide_einternal>  (86) 
0.124333

>  <r_i_glide_intrahb_reward>  (86) 
-0

>  <i_i_glide_confnum>  (86) 
1

>  <i_i_glide_posenum>  (86) 
3

>  <r_i_glide_eff_state_penalty>  (86) 
0

>  <ligand_id>  (86) 
21

>  <original_smiles>  (86) 
CCN1C(=O)C2(CCn3cccc32)N2C1=NC1CCCC12

>  <smiles>  (86) 
[H]c1c([H])c2n(c1[H])C([H])([H])C([H])([H])C21C(=O)N(C([H])([H])C([H])([H])[H])C2=NC3([H])C([H])([H])C([H])([H])C([H])([H])C3([H])N21

$$$$
21:1:2
     RDKit          3D

 41 45  0  0  1  0  0  0  0  0999 V2000
   -1.1582    1.4995    2.0981 C   0  0  0  0  0  0  0  0  0  0  0  0
   -0.5660    1.3771    3.5051 C   0  0  0  0  0  0  0  0  0  0  0  0
    0.6682    0.5781    3.4947 N   0  0  0  0  0  0  0  0  0  0  0  0
    1.8914    1.0063    3.0760 C   0  0  0  0  0  0  0  0  0  0  0  0
    2.1805    2.0751    2.5616 O   0  0  0  0  0  0  0  0  0  0  0  0
    2.9191   -0.0971    3.3811 C   0  0  2  0  0  0  0  0  0  0  0  0
    3.9954    0.3505    4.4332 C   0  0  0  0  0  0  0  0  0  0  0  0
    5.3626    0.0560    3.7647 C   0  0  0  0  0  0  0  0  0  0  0  0
    5.0266   -0.3917    2.4404 N   0  0  0  0  0  0  0  0  0  0  0  0
    5.7708   -0.7854    1.3446 C   0  0  0  0  0  0  0  0  0  0  0  0
    4.8770   -1.0761    0.3456 C   0  0  0  0  0  0  0  0  0  0  0  0
    3.5556   -0.8799    0.8723 C   0  0  0  0  0  0  0  0  0  0  0  0
    3.6995   -0.4824    2.1661 C   0  0  0  0  0  0  0  0  0  0  0  0
    2.0418   -1.1408    3.8481 N   0  0  0  0  0  0  0  0  0  0  0  0
    0.7723   -0.6943    4.0500 C   0  0  0  0  0  0  0  0  0  0  0  0
   -0.0363   -1.4480    4.7107 N   0  0  0  0  0  0  0  0  0  0  0  0
    0.8048   -2.5912    5.1228 C   0  0  1  0  0  0  0  0  0  0  0  0
    0.5451   -3.8592    4.3124 C   0  0  0  0  0  0  0  0  0  0  0  0
    1.9078   -4.5601    4.2384 C   0  0  0  0  0  0  0  0  0  0  0  0
    2.9468   -3.4390    4.1621 C   0  0  0  0  0  0  0  0  0  0  0  0
    2.2547   -2.2187    4.7777 C   0  0  1  0  0  0  0  0  0  0  0  0
   -2.0298    2.1517    2.1006 H   0  0  0  0  0  0  0  0  0  0  0  0
   -1.4637    0.5364    1.7063 H   0  0  0  0  0  0  0  0  0  0  0  0
   -0.4373    1.9185    1.3996 H   0  0  0  0  0  0  0  0  0  0  0  0
   -0.3381    2.3759    3.8755 H   0  0  0  0  0  0  0  0  0  0  0  0
   -1.3154    0.9824    4.1956 H   0  0  0  0  0  0  0  0  0  0  0  0
    3.8983    1.4136    4.6887 H   0  0  0  0  0  0  0  0  0  0  0  0
    3.9580   -0.2218    5.3741 H   0  0  0  0  0  0  0  0  0  0  0  0
    6.0097    0.9336    3.7277 H   0  0  0  0  0  0  0  0  0  0  0  0
    5.8482   -0.7697    4.2879 H   0  0  0  0  0  0  0  0  0  0  0  0
    6.8563   -0.8037    1.3930 H   0  0  0  0  0  0  0  0  0  0  0  0
    5.1440   -1.3973   -0.6537 H   0  0  0  0  0  0  0  0  0  0  0  0
    2.6180   -1.0194    0.3416 H   0  0  0  0  0  0  0  0  0  0  0  0
    0.7435   -2.7840    6.1962 H   0  0  0  0  0  0  0  0  0  0  0  0
   -0.2249   -4.4895    4.7625 H   0  0  0  0  0  0  0  0  0  0  0  0
    0.2379   -3.5696    3.3082 H   0  0  0  0  0  0  0  0  0  0  0  0
    2.0796   -5.1323    5.1523 H   0  0  0  0  0  0  0  0  0  0  0  0
    1.9851   -5.2464    3.3932 H   0  0  0  0  0  0  0  0  0  0  0  0
    3.8454   -3.6916    4.7225 H   0  0  0  0  0  0  0  0  0  0  0  0
    3.2711   -3.2603    3.1361 H   0  0  0  0  0  0  0  0  0  0  0  0
    2.7589   -1.9158    5.6996 H   0  0  0  0  0  0  0  0  0  0  0  0
  1  2  1  0
  1 22  1  0
  1 23  1  0
  1 24  1  0
  2  3  1  0
  2 25  1  0
  2 26  1  0
  3 15  1  0
  3  4  1  0
  4  5  2  0
  4  6  1  0
  6 13  1  0
  6  7  1  1
  6 14  1  0
  7  8  1  0
  7 27  1  0
  7 28  1  0
  8  9  1  0
  8 29  1  0
  8 30  1  0
  9 13  1  0
  9 10  1  0
 10 11  2  0
 10 31  1  0
 11 12  1  0
 11 32  1  0
 12 13  2  0
 12 33  1  0
 14 21  1  0
 14 15  1  0
 15 16  2  0
 16 17  1  0
 17 21  1  0
 17 18  1  0
 17 34  1  1
 18 19  1  0
 18 35  1  0
 18 36  1  0
 19 20  1  0
 19 37  1  0
 19 38  1  0
 20 21  1  0
 20 39  1  0
 20 40  1  0
 21 41  1  1
M  END
>  <i_m_ct_stereo_status>  (87) 
1

>  <s_m_source_file>  (87) 
/var/tmp/pbs.5076255.sched01/tmpd0mq1ayv/02wja6gfv.sdf

>  <i_m_source_file_index>  (87) 
33

>  <i_lp_mmshare_version>  (87) 
48012

>  <i_f3d_flags>  (87) 
0

>  <s_epik_input>  (87) 
W0NIMl0xW0NIMl1bQ0gyXVtDQEBIXTJbQ0BIXTFOPUMoTihDMz1PKVtDSDJdW0NIM10pTjJbQ0BAXTM0YzVuKFtDSDJdW0NIMl00KVtjSF1bY0hdW2NIXTU=

>  <s_epik_cmdline>  (87) 
J2VwaWtfcHl0aG9uJywgJy1waHQnLCAnMi4wJywgJy1waCcsICc3LjAnLCAnLXRuJywgJzgnLCAnLW1hJywgJzIwMCcsICctaW1hZScsICc8aW5maWxlLm1hZT4nLCAnLW9tYWUnLCAnPG91dGZpbGUubWFlPic=

>  <r_lp_tautomer_probability>  (87) 
1

>  <r_epik_Ionization_Penalty>  (87) 
0.965976

>  <r_epik_Ionization_Penalty_Charging>  (87) 
0

>  <r_epik_Ionization_Penalty_Neutral>  (87) 
0.965976

>  <r_epik_State_Penalty>  (87) 
1.01153

>  <r_epik_Charging_Adjusted_Penalty>  (87) 
1.01153

>  <i_epik_Tot_Q>  (87) 
0

>  <i_epik_Tot_abs_Q>  (87) 
0

>  <s_epik_Chemistry_Notes>  (87) 
This compound has an imine and may undergo hydrolysis.

>  <s_lp_Force_Field>  (87) 
OPLS3e

>  <r_lp_Energy>  (87) 
29.0057

>  <b_lp_Chiralities_Consistent>  (87) 
1

>  <s_lp_Variant>  (87) 
21:0-2

>  <s_i_glide_gridfile>  (87) 
pfpi4k_grid

>  <i_i_glide_lignum>  (87) 
33

>  <i_i_glide_rotatable_bonds>  (87) 
1

>  <r_i_docking_score>  (87) 
-2.93113

>  <r_i_glide_ligand_efficiency>  (87) 
-0.139578

>  <r_i_glide_ligand_efficiency_sa>  (87) 
-0.385084

>  <r_i_glide_ligand_efficiency_ln>  (87) 
-0.724716

>  <r_i_glide_gscore>  (87) 
-2.93113

>  <r_i_glide_lipo>  (87) 
-0.287465

>  <r_i_glide_hbond>  (87) 
0

>  <r_i_glide_metal>  (87) 
-0

>  <r_i_glide_rewards>  (87) 
-1.65706

>  <r_i_glide_evdw>  (87) 
-20.2077

>  <r_i_glide_ecoul>  (87) 
0.328043

>  <r_i_glide_erotb>  (87) 
0

>  <r_i_glide_esite>  (87) 
-0.0254316

>  <r_i_glide_emodel>  (87) 
-24.7998

>  <r_i_glide_energy>  (87) 
-19.8796

>  <r_i_glide_einternal>  (87) 
0.0856465

>  <r_i_glide_intrahb_reward>  (87) 
-0

>  <i_i_glide_confnum>  (87) 
2

>  <i_i_glide_posenum>  (87) 
5

>  <r_i_glide_eff_state_penalty>  (87) 
0

>  <ligand_id>  (87) 
21

>  <original_smiles>  (87) 
CCN1C(=O)C2(CCn3cccc32)N2C1=NC1CCCC12

>  <smiles>  (87) 
[H]c1c([H])c2n(c1[H])C([H])([H])C([H])([H])C21C(=O)N(C([H])([H])C([H])([H])[H])C2=NC3([H])C([H])([H])C([H])([H])C([H])([H])C3([H])N21

$$$$
22:0:0
     RDKit          3D

 46 49  0  0  1  0  0  0  0  0999 V2000
    3.6273   -4.6889    3.7984 C   0  0  0  0  0  0  0  0  0  0  0  0
    2.9594   -3.5834    2.9468 C   0  0  2  0  0  0  0  0  0  0  0  0
    3.0728   -3.9269    1.4554 C   0  0  0  0  0  0  0  0  0  0  0  0
    2.3388   -4.8131    1.0166 O   0  0  0  0  0  0  0  0  0  0  0  0
    3.9386   -3.2256    0.6834 N   0  0  0  0  0  0  0  0  0  0  0  0
    3.9678   -3.4313   -0.7891 C   0  0  1  0  0  0  0  0  0  0  0  0
    2.7751   -2.7834   -1.5189 C   0  0  0  0  0  0  0  0  0  0  0  0
    2.7754   -3.0542   -3.0349 C   0  0  0  0  0  0  0  0  0  0  0  0
    4.1407   -2.7744   -3.6899 C   0  0  0  0  0  0  0  0  0  0  0  0
    5.3138   -3.3866   -2.9036 C   0  0  0  0  0  0  0  0  0  0  0  0
    5.2666   -2.9136   -1.4443 C   0  0  2  0  0  0  0  0  0  0  0  0
    6.4675   -3.3182   -0.5918 C   0  0  0  0  0  0  0  0  0  0  0  0
    6.3807   -2.6484    0.7958 C   0  0  0  0  0  0  0  0  0  0  0  0
    4.9349   -2.2639    1.2236 C   0  0  2  0  0  0  0  0  0  0  0  0
    4.8626   -2.0019    2.7612 C   0  0  1  0  0  0  0  0  0  0  0  0
    5.0934   -0.5339    3.1262 C   0  0  0  0  0  0  0  0  0  0  0  0
    3.6986    0.1115    3.0401 C   0  0  0  0  0  0  0  0  0  0  0  0
    2.7074   -1.0607    2.9639 C   0  0  0  0  0  0  0  0  0  0  0  0
    3.5177   -2.2557    3.2928 N   0  0  1  0  0  0  0  0  0  0  0  0
    3.1539   -5.6578    3.6281 H   0  0  0  0  0  0  0  0  0  0  0  0
    3.5534   -4.4760    4.8680 H   0  0  0  0  0  0  0  0  0  0  0  0
    4.6879   -4.8055    3.5583 H   0  0  0  0  0  0  0  0  0  0  0  0
    1.8982   -3.5777    3.1972 H   0  0  0  0  0  0  0  0  0  0  0  0
    3.9227   -4.5105   -0.9578 H   0  0  0  0  0  0  0  0  0  0  0  0
    1.8310   -3.1323   -1.1015 H   0  0  0  0  0  0  0  0  0  0  0  0
    2.8015   -1.7048   -1.3594 H   0  0  0  0  0  0  0  0  0  0  0  0
    2.4888   -4.0900   -3.2186 H   0  0  0  0  0  0  0  0  0  0  0  0
    1.9995   -2.4634   -3.5212 H   0  0  0  0  0  0  0  0  0  0  0  0
    4.1323   -3.1662   -4.7071 H   0  0  0  0  0  0  0  0  0  0  0  0
    4.2860   -1.6942   -3.7628 H   0  0  0  0  0  0  0  0  0  0  0  0
    5.2482   -4.4752   -2.9492 H   0  0  0  0  0  0  0  0  0  0  0  0
    6.2579   -3.1034   -3.3689 H   0  0  0  0  0  0  0  0  0  0  0  0
    5.2537   -1.8216   -1.4682 H   0  0  0  0  0  0  0  0  0  0  0  0
    6.4606   -4.4011   -0.4622 H   0  0  0  0  0  0  0  0  0  0  0  0
    7.4068   -3.0561   -1.0832 H   0  0  0  0  0  0  0  0  0  0  0  0
    6.8466   -3.3156    1.5257 H   0  0  0  0  0  0  0  0  0  0  0  0
    6.9854   -1.7396    0.7981 H   0  0  0  0  0  0  0  0  0  0  0  0
    4.6829   -1.3225    0.7288 H   0  0  0  0  0  0  0  0  0  0  0  0
    5.5753   -2.6350    3.2941 H   0  0  0  0  0  0  0  0  0  0  0  0
    5.4458   -0.4636    4.1568 H   0  0  0  0  0  0  0  0  0  0  0  0
    5.8311   -0.0448    2.4899 H   0  0  0  0  0  0  0  0  0  0  0  0
    3.5130    0.7399    3.9135 H   0  0  0  0  0  0  0  0  0  0  0  0
    3.6119    0.7409    2.1542 H   0  0  0  0  0  0  0  0  0  0  0  0
    1.8658   -0.9381    3.6481 H   0  0  0  0  0  0  0  0  0  0  0  0
    2.3121   -1.1313    1.9472 H   0  0  0  0  0  0  0  0  0  0  0  0
    3.6048   -2.2474    4.2991 H   0  0  0  0  0  0  0  0  0  0  0  0
  1  2  1  0
  1 20  1  0
  1 21  1  0
  1 22  1  0
  2 19  1  0
  2  3  1  0
  2 23  1  1
  3  4  2  0
  3  5  1  0
  5 14  1  0
  5  6  1  0
  6 11  1  0
  6  7  1  0
  6 24  1  1
  7  8  1  0
  7 25  1  0
  7 26  1  0
  8  9  1  0
  8 27  1  0
  8 28  1  0
  9 10  1  0
  9 29  1  0
  9 30  1  0
 10 11  1  0
 10 31  1  0
 10 32  1  0
 11 12  1  0
 11 33  1  6
 12 13  1  0
 12 34  1  0
 12 35  1  0
 13 14  1  0
 13 36  1  0
 13 37  1  0
 14 15  1  0
 14 38  1  6
 15 19  1  0
 15 16  1  0
 15 39  1  1
 16 17  1  0
 16 40  1  0
 16 41  1  0
 17 18  1  0
 17 42  1  0
 17 43  1  0
 18 19  1  0
 18 44  1  0
 18 45  1  0
 19 46  1  1
M  CHG  1  19   1
M  END
>  <i_m_ct_stereo_status>  (88) 
1

>  <s_m_source_file>  (88) 
/var/tmp/pbs.5076255.sched01/tmpd0mq1ayv/02wja6gfv.sdf

>  <i_m_source_file_index>  (88) 
34

>  <i_lp_mmshare_version>  (88) 
48012

>  <i_f3d_flags>  (88) 
0

>  <s_epik_input>  (88) 
Tz1DMVtDQEBIXShbQ0gzXSlOKFtDSDJdW0NIMl1bQ0gyXTIpW0NASF0yW0NASF0zW0NIMl1bQ0gyXVtDQEhdKFtDQEhdNE4xMylbQ0gyXVtDSDJdW0NIMl1bQ0gyXTQ=

>  <s_epik_cmdline>  (88) 
J2VwaWtfcHl0aG9uJywgJy1waHQnLCAnMi4wJywgJy1waCcsICc3LjAnLCAnLXRuJywgJzgnLCAnLW1hJywgJzIwMCcsICctaW1hZScsICc8aW5maWxlLm1hZT4nLCAnLW9tYWUnLCAnPG91dGZpbGUubWFlPic=

>  <r_epik_Ionization_Penalty>  (88) 
0.0326204

>  <r_epik_Ionization_Penalty_Charging>  (88) 
0.0326204

>  <r_epik_Ionization_Penalty_Neutral>  (88) 
1.09062e-13

>  <r_epik_State_Penalty>  (88) 
0.0270329

>  <r_epik_Charging_Adjusted_Penalty>  (88) 
0.0596533

>  <i_epik_Tot_Q>  (88) 
1

>  <i_epik_Tot_abs_Q>  (88) 
1

>  <s_lp_Force_Field>  (88) 
OPLS3e

>  <r_lp_Energy>  (88) 
61.7046

>  <b_lp_Chiralities_Consistent>  (88) 
1

>  <s_lp_Variant>  (88) 
22:0-1

>  <s_i_glide_gridfile>  (88) 
pfpi4k_grid

>  <i_i_glide_lignum>  (88) 
34

>  <i_i_glide_rotatable_bonds>  (88) 
0

>  <r_i_docking_score>  (88) 
-4.12394

>  <r_i_glide_ligand_efficiency>  (88) 
-0.217049

>  <r_i_glide_ligand_efficiency_sa>  (88) 
-0.579175

>  <r_i_glide_ligand_efficiency_ln>  (88) 
-1.04551

>  <r_i_glide_gscore>  (88) 
-4.12394

>  <r_i_glide_lipo>  (88) 
-0.948277

>  <r_i_glide_hbond>  (88) 
-0.00220885

>  <r_i_glide_metal>  (88) 
-0

>  <r_i_glide_rewards>  (88) 
-1.6175

>  <r_i_glide_evdw>  (88) 
-22.1049

>  <r_i_glide_ecoul>  (88) 
-2.99916

>  <r_i_glide_erotb>  (88) 
0

>  <r_i_glide_esite>  (88) 
-0.000831254

>  <r_i_glide_emodel>  (88) 
-30.9369

>  <r_i_glide_energy>  (88) 
-25.104

>  <r_i_glide_einternal>  (88) 
0

>  <r_i_glide_intrahb_reward>  (88) 
-0

>  <i_i_glide_confnum>  (88) 
1

>  <i_i_glide_posenum>  (88) 
16

>  <r_i_glide_eff_state_penalty>  (88) 
0

>  <ligand_id>  (88) 
22

>  <original_smiles>  (88) 
CC1C(=O)N2C3CCCCC3CCC2C2CCCN12

>  <smiles>  (88) 
[H]C([H])([H])C1([H])C(=O)N2C3([H])C([H])([H])C([H])([H])C([H])([H])C([H])([H])C3([H])C([H])([H])C([H])([H])C2([H])C2([H])C([H])([H])C([H])([H])C([H])([H])[N+]12[H]

$$$$
22:0:1
     RDKit          3D

 46 49  0  0  1  0  0  0  0  0999 V2000
    4.0046   -3.2364   -2.5827 C   0  0  0  0  0  0  0  0  0  0  0  0
    4.3913   -3.8585   -1.2203 C   0  0  2  0  0  0  0  0  0  0  0  0
    3.3658   -3.4813   -0.1475 C   0  0  0  0  0  0  0  0  0  0  0  0
    2.2780   -4.0550   -0.1701 O   0  0  0  0  0  0  0  0  0  0  0  0
    3.7150   -2.5810    0.8023 N   0  0  0  0  0  0  0  0  0  0  0  0
    2.8068   -2.3031    1.9409 C   0  0  1  0  0  0  0  0  0  0  0  0
    2.7913   -3.4271    3.0027 C   0  0  0  0  0  0  0  0  0  0  0  0
    1.7675   -3.1289    4.1195 C   0  0  0  0  0  0  0  0  0  0  0  0
    1.9104   -1.7114    4.7148 C   0  0  0  0  0  0  0  0  0  0  0  0
    1.9878   -0.6256    3.6278 C   0  0  0  0  0  0  0  0  0  0  0  0
    3.1186   -0.9617    2.6462 C   0  0  2  0  0  0  0  0  0  0  0  0
    3.4023    0.1134    1.6009 C   0  0  0  0  0  0  0  0  0  0  0  0
    4.6591   -0.2635    0.7895 C   0  0  0  0  0  0  0  0  0  0  0  0
    4.9658   -1.7845    0.7606 C   0  0  2  0  0  0  0  0  0  0  0  0
    5.9564   -2.1242   -0.3967 C   0  0  1  0  0  0  0  0  0  0  0  0
    7.4236   -2.1119    0.0508 C   0  0  0  0  0  0  0  0  0  0  0  0
    7.6835   -3.5313    0.5765 C   0  0  0  0  0  0  0  0  0  0  0  0
    6.4756   -4.3617    0.1235 C   0  0  0  0  0  0  0  0  0  0  0  0
    5.7840   -3.5030   -0.8634 N   0  0  1  0  0  0  0  0  0  0  0  0
    3.0227   -3.5898   -2.8973 H   0  0  0  0  0  0  0  0  0  0  0  0
    4.7121   -3.5189   -3.3644 H   0  0  0  0  0  0  0  0  0  0  0  0
    3.9565   -2.1464   -2.5394 H   0  0  0  0  0  0  0  0  0  0  0  0
    4.3665   -4.9378   -1.3132 H   0  0  0  0  0  0  0  0  0  0  0  0
    1.8024   -2.2116    1.5227 H   0  0  0  0  0  0  0  0  0  0  0  0
    2.5471   -4.3868    2.5450 H   0  0  0  0  0  0  0  0  0  0  0  0
    3.7864   -3.5436    3.4340 H   0  0  0  0  0  0  0  0  0  0  0  0
    0.7588   -3.2507    3.7217 H   0  0  0  0  0  0  0  0  0  0  0  0
    1.8731   -3.8662    4.9171 H   0  0  0  0  0  0  0  0  0  0  0  0
    1.0730   -1.5090    5.3845 H   0  0  0  0  0  0  0  0  0  0  0  0
    2.8116   -1.6632    5.3275 H   0  0  0  0  0  0  0  0  0  0  0  0
    1.0352   -0.5624    3.0991 H   0  0  0  0  0  0  0  0  0  0  0  0
    2.1572    0.3491    4.0895 H   0  0  0  0  0  0  0  0  0  0  0  0
    4.0281   -1.0681    3.2412 H   0  0  0  0  0  0  0  0  0  0  0  0
    2.5460    0.1978    0.9286 H   0  0  0  0  0  0  0  0  0  0  0  0
    3.5309    1.0904    2.0712 H   0  0  0  0  0  0  0  0  0  0  0  0
    4.5447    0.1387   -0.2185 H   0  0  0  0  0  0  0  0  0  0  0  0
    5.5336    0.2326    1.2085 H   0  0  0  0  0  0  0  0  0  0  0  0
    5.4684   -2.0399    1.6968 H   0  0  0  0  0  0  0  0  0  0  0  0
    5.8067   -1.4531   -1.2449 H   0  0  0  0  0  0  0  0  0  0  0  0
    8.0721   -1.9543   -0.8129 H   0  0  0  0  0  0  0  0  0  0  0  0
    7.6437   -1.3318    0.7822 H   0  0  0  0  0  0  0  0  0  0  0  0
    8.6228   -3.9206    0.1791 H   0  0  0  0  0  0  0  0  0  0  0  0
    7.7503   -3.5408    1.6625 H   0  0  0  0  0  0  0  0  0  0  0  0
    6.7638   -5.3222   -0.2977 H   0  0  0  0  0  0  0  0  0  0  0  0
    5.8337   -4.5660    0.9825 H   0  0  0  0  0  0  0  0  0  0  0  0
    6.3138   -3.5968   -1.7199 H   0  0  0  0  0  0  0  0  0  0  0  0
  1  2  1  0
  1 20  1  0
  1 21  1  0
  1 22  1  0
  2 19  1  0
  2  3  1  0
  2 23  1  6
  3  4  2  0
  3  5  1  0
  5 14  1  0
  5  6  1  0
  6 11  1  0
  6  7  1  0
  6 24  1  6
  7  8  1  0
  7 25  1  0
  7 26  1  0
  8  9  1  0
  8 27  1  0
  8 28  1  0
  9 10  1  0
  9 29  1  0
  9 30  1  0
 10 11  1  0
 10 31  1  0
 10 32  1  0
 11 12  1  0
 11 33  1  1
 12 13  1  0
 12 34  1  0
 12 35  1  0
 13 14  1  0
 13 36  1  0
 13 37  1  0
 14 15  1  0
 14 38  1  1
 15 19  1  0
 15 16  1  0
 15 39  1  6
 16 17  1  0
 16 40  1  0
 16 41  1  0
 17 18  1  0
 17 42  1  0
 17 43  1  0
 18 19  1  0
 18 44  1  0
 18 45  1  0
 19 46  1  6
M  CHG  1  19   1
M  END
>  <i_m_ct_stereo_status>  (89) 
1

>  <s_m_source_file>  (89) 
/var/tmp/pbs.5076255.sched01/tmpd0mq1ayv/02wja6gfv.sdf

>  <i_m_source_file_index>  (89) 
34

>  <i_lp_mmshare_version>  (89) 
48012

>  <i_f3d_flags>  (89) 
0

>  <s_epik_input>  (89) 
Tz1DMVtDQEBIXShbQ0gzXSlOKFtDSDJdW0NIMl1bQ0gyXTIpW0NASF0yW0NASF0zW0NIMl1bQ0gyXVtDQEhdKFtDQEhdNE4xMylbQ0gyXVtDSDJdW0NIMl1bQ0gyXTQ=

>  <s_epik_cmdline>  (89) 
J2VwaWtfcHl0aG9uJywgJy1waHQnLCAnMi4wJywgJy1waCcsICc3LjAnLCAnLXRuJywgJzgnLCAnLW1hJywgJzIwMCcsICctaW1hZScsICc8aW5maWxlLm1hZT4nLCAnLW9tYWUnLCAnPG91dGZpbGUubWFlPic=

>  <r_epik_Ionization_Penalty>  (89) 
0.0326204

>  <r_epik_Ionization_Penalty_Charging>  (89) 
0.0326204

>  <r_epik_Ionization_Penalty_Neutral>  (89) 
1.09062e-13

>  <r_epik_State_Penalty>  (89) 
0.0270329

>  <r_epik_Charging_Adjusted_Penalty>  (89) 
0.0596533

>  <i_epik_Tot_Q>  (89) 
1

>  <i_epik_Tot_abs_Q>  (89) 
1

>  <s_lp_Force_Field>  (89) 
OPLS3e

>  <r_lp_Energy>  (89) 
61.7046

>  <b_lp_Chiralities_Consistent>  (89) 
1

>  <s_lp_Variant>  (89) 
22:0-1

>  <s_i_glide_gridfile>  (89) 
pfpi4k_grid

>  <i_i_glide_lignum>  (89) 
34

>  <i_i_glide_rotatable_bonds>  (89) 
0

>  <r_i_docking_score>  (89) 
-3.4029

>  <r_i_glide_ligand_efficiency>  (89) 
-0.1791

>  <r_i_glide_ligand_efficiency_sa>  (89) 
-0.477911

>  <r_i_glide_ligand_efficiency_ln>  (89) 
-0.862709

>  <r_i_glide_gscore>  (89) 
-3.4029

>  <r_i_glide_lipo>  (89) 
-0.478831

>  <r_i_glide_hbond>  (89) 
0

>  <r_i_glide_metal>  (89) 
-0

>  <r_i_glide_rewards>  (89) 
-1.63218

>  <r_i_glide_evdw>  (89) 
-20.2767

>  <r_i_glide_ecoul>  (89) 
-1.76513

>  <r_i_glide_erotb>  (89) 
0

>  <r_i_glide_esite>  (89) 
-0.0132882

>  <r_i_glide_emodel>  (89) 
-26.8258

>  <r_i_glide_energy>  (89) 
-22.0419

>  <r_i_glide_einternal>  (89) 
0

>  <r_i_glide_intrahb_reward>  (89) 
-0

>  <i_i_glide_confnum>  (89) 
2

>  <i_i_glide_posenum>  (89) 
8

>  <r_i_glide_eff_state_penalty>  (89) 
0

>  <ligand_id>  (89) 
22

>  <original_smiles>  (89) 
CC1C(=O)N2C3CCCCC3CCC2C2CCCN12

>  <smiles>  (89) 
[H]C([H])([H])C1([H])C(=O)N2C3([H])C([H])([H])C([H])([H])C([H])([H])C([H])([H])C3([H])C([H])([H])C([H])([H])C2([H])C2([H])C([H])([H])C([H])([H])C([H])([H])[N+]12[H]

$$$$
22:0:2
     RDKit          3D

 46 49  0  0  1  0  0  0  0  0999 V2000
    4.8102   -2.5362    3.5367 C   0  0  0  0  0  0  0  0  0  0  0  0
    5.6785   -2.5978    2.2646 C   0  0  2  0  0  0  0  0  0  0  0  0
    4.9420   -2.0133    1.0717 C   0  0  0  0  0  0  0  0  0  0  0  0
    4.8368   -0.7996    1.0152 O   0  0  0  0  0  0  0  0  0  0  0  0
    4.4797   -2.8568    0.1144 N   0  0  0  0  0  0  0  0  0  0  0  0
    3.8805   -2.3097   -1.1155 C   0  0  1  0  0  0  0  0  0  0  0  0
    4.9216   -1.7472   -2.0970 C   0  0  0  0  0  0  0  0  0  0  0  0
    4.2266   -1.1269   -3.3239 C   0  0  0  0  0  0  0  0  0  0  0  0
    3.2259   -2.0708   -3.9942 C   0  0  0  0  0  0  0  0  0  0  0  0
    2.2762   -2.7041   -3.0002 C   0  0  0  0  0  0  0  0  0  0  0  0
    3.0417   -3.3632   -1.8619 C   0  0  2  0  0  0  0  0  0  0  0  0
    2.1632   -4.0936   -0.8556 C   0  0  0  0  0  0  0  0  0  0  0  0
    3.0434   -4.9047    0.1136 C   0  0  0  0  0  0  0  0  0  0  0  0
    4.4782   -4.3320    0.2510 C   0  0  2  0  0  0  0  0  0  0  0  0
    5.1625   -4.9058    1.5206 C   0  0  1  0  0  0  0  0  0  0  0  0
    5.9844   -6.1699    1.2527 C   0  0  0  0  0  0  0  0  0  0  0  0
    7.3810   -5.6468    0.8762 C   0  0  0  0  0  0  0  0  0  0  0  0
    7.3747   -4.1578    1.2061 C   0  0  0  0  0  0  0  0  0  0  0  0
    6.1643   -3.9777    2.0441 N   0  0  1  0  0  0  0  0  0  0  0  0
    4.5344   -1.5081    3.7699 H   0  0  0  0  0  0  0  0  0  0  0  0
    5.3333   -2.9322    4.4122 H   0  0  0  0  0  0  0  0  0  0  0  0
    3.8797   -3.0981    3.4327 H   0  0  0  0  0  0  0  0  0  0  0  0
    6.5375   -1.9564    2.4246 H   0  0  0  0  0  0  0  0  0  0  0  0
    3.2043   -1.5046   -0.8129 H   0  0  0  0  0  0  0  0  0  0  0  0
    5.5346   -0.9857   -1.6148 H   0  0  0  0  0  0  0  0  0  0  0  0
    5.5962   -2.5413   -2.4221 H   0  0  0  0  0  0  0  0  0  0  0  0
    3.7346   -0.1924   -3.0385 H   0  0  0  0  0  0  0  0  0  0  0  0
    4.9686   -0.8703   -4.0762 H   0  0  0  0  0  0  0  0  0  0  0  0
    2.6507   -1.4771   -4.7040 H   0  0  0  0  0  0  0  0  0  0  0  0
    3.7372   -2.8624   -4.5363 H   0  0  0  0  0  0  0  0  0  0  0  0
    1.7174   -1.8837   -2.5864 H   0  0  0  0  0  0  0  0  0  0  0  0
    1.5851   -3.3886   -3.4979 H   0  0  0  0  0  0  0  0  0  0  0  0
    3.7152   -4.0812   -2.3233 H   0  0  0  0  0  0  0  0  0  0  0  0
    1.5935   -3.3415   -0.3154 H   0  0  0  0  0  0  0  0  0  0  0  0
    1.4424   -4.7478   -1.3603 H   0  0  0  0  0  0  0  0  0  0  0  0
    2.5325   -4.9835    1.0781 H   0  0  0  0  0  0  0  0  0  0  0  0
    3.1361   -5.9300   -0.2540 H   0  0  0  0  0  0  0  0  0  0  0  0
    5.0528   -4.6817   -0.6071 H   0  0  0  0  0  0  0  0  0  0  0  0
    4.4258   -5.1094    2.3004 H   0  0  0  0  0  0  0  0  0  0  0  0
    6.0844   -6.7492    2.1757 H   0  0  0  0  0  0  0  0  0  0  0  0
    5.5359   -6.8135    0.4901 H   0  0  0  0  0  0  0  0  0  0  0  0
    8.1656   -6.1973    1.4028 H   0  0  0  0  0  0  0  0  0  0  0  0
    7.5791   -5.7704   -0.1825 H   0  0  0  0  0  0  0  0  0  0  0  0
    8.3000   -3.8673    1.6804 H   0  0  0  0  0  0  0  0  0  0  0  0
    7.2978   -3.5833    0.2881 H   0  0  0  0  0  0  0  0  0  0  0  0
    6.4149   -4.3358    2.9504 H   0  0  0  0  0  0  0  0  0  0  0  0
  1  2  1  0
  1 20  1  0
  1 21  1  0
  1 22  1  0
  2 19  1  0
  2  3  1  0
  2 23  1  1
  3  4  2  0
  3  5  1  0
  5 14  1  0
  5  6  1  0
  6 11  1  0
  6  7  1  0
  6 24  1  1
  7  8  1  0
  7 25  1  0
  7 26  1  0
  8  9  1  0
  8 27  1  0
  8 28  1  0
  9 10  1  0
  9 29  1  0
  9 30  1  0
 10 11  1  0
 10 31  1  0
 10 32  1  0
 11 12  1  0
 11 33  1  6
 12 13  1  0
 12 34  1  0
 12 35  1  0
 13 14  1  0
 13 36  1  0
 13 37  1  0
 14 15  1  0
 14 38  1  6
 15 19  1  0
 15 16  1  0
 15 39  1  1
 16 17  1  0
 16 40  1  0
 16 41  1  0
 17 18  1  0
 17 42  1  0
 17 43  1  0
 18 19  1  0
 18 44  1  0
 18 45  1  0
 19 46  1  1
M  CHG  1  19   1
M  END
>  <i_m_ct_stereo_status>  (90) 
1

>  <s_m_source_file>  (90) 
/var/tmp/pbs.5076255.sched01/tmpd0mq1ayv/02wja6gfv.sdf

>  <i_m_source_file_index>  (90) 
34

>  <i_lp_mmshare_version>  (90) 
48012

>  <i_f3d_flags>  (90) 
0

>  <s_epik_input>  (90) 
Tz1DMVtDQEBIXShbQ0gzXSlOKFtDSDJdW0NIMl1bQ0gyXTIpW0NASF0yW0NASF0zW0NIMl1bQ0gyXVtDQEhdKFtDQEhdNE4xMylbQ0gyXVtDSDJdW0NIMl1bQ0gyXTQ=

>  <s_epik_cmdline>  (90) 
J2VwaWtfcHl0aG9uJywgJy1waHQnLCAnMi4wJywgJy1waCcsICc3LjAnLCAnLXRuJywgJzgnLCAnLW1hJywgJzIwMCcsICctaW1hZScsICc8aW5maWxlLm1hZT4nLCAnLW9tYWUnLCAnPG91dGZpbGUubWFlPic=

>  <r_epik_Ionization_Penalty>  (90) 
0.0326204

>  <r_epik_Ionization_Penalty_Charging>  (90) 
0.0326204

>  <r_epik_Ionization_Penalty_Neutral>  (90) 
1.09062e-13

>  <r_epik_State_Penalty>  (90) 
0.0270329

>  <r_epik_Charging_Adjusted_Penalty>  (90) 
0.0596533

>  <i_epik_Tot_Q>  (90) 
1

>  <i_epik_Tot_abs_Q>  (90) 
1

>  <s_lp_Force_Field>  (90) 
OPLS3e

>  <r_lp_Energy>  (90) 
61.7046

>  <b_lp_Chiralities_Consistent>  (90) 
1

>  <s_lp_Variant>  (90) 
22:0-1

>  <s_i_glide_gridfile>  (90) 
pfpi4k_grid

>  <i_i_glide_lignum>  (90) 
34

>  <i_i_glide_rotatable_bonds>  (90) 
0

>  <r_i_docking_score>  (90) 
-3.38492

>  <r_i_glide_ligand_efficiency>  (90) 
-0.178154

>  <r_i_glide_ligand_efficiency_sa>  (90) 
-0.475386

>  <r_i_glide_ligand_efficiency_ln>  (90) 
-0.85815

>  <r_i_glide_gscore>  (90) 
-3.38492

>  <r_i_glide_lipo>  (90) 
-0.749996

>  <r_i_glide_hbond>  (90) 
0

>  <r_i_glide_metal>  (90) 
-0

>  <r_i_glide_rewards>  (90) 
-1.67184

>  <r_i_glide_evdw>  (90) 
-16.4606

>  <r_i_glide_ecoul>  (90) 
-0.933684

>  <r_i_glide_erotb>  (90) 
0

>  <r_i_glide_esite>  (90) 
0

>  <r_i_glide_emodel>  (90) 
-21.7531

>  <r_i_glide_energy>  (90) 
-17.3943

>  <r_i_glide_einternal>  (90) 
0

>  <r_i_glide_intrahb_reward>  (90) 
-0

>  <i_i_glide_confnum>  (90) 
1

>  <i_i_glide_posenum>  (90) 
1

>  <r_i_glide_eff_state_penalty>  (90) 
0

>  <ligand_id>  (90) 
22

>  <original_smiles>  (90) 
CC1C(=O)N2C3CCCCC3CCC2C2CCCN12

>  <smiles>  (90) 
[H]C([H])([H])C1([H])C(=O)N2C3([H])C([H])([H])C([H])([H])C([H])([H])C([H])([H])C3([H])C([H])([H])C([H])([H])C2([H])C2([H])C([H])([H])C([H])([H])C([H])([H])[N+]12[H]

$$$$
22:1:0
     RDKit          3D

 45 48  0  0  1  0  0  0  0  0999 V2000
    1.9965    8.4643    7.5239 C   0  0  0  0  0  0  0  0  0  0  0  0
    1.7788    8.1555    6.0290 C   0  0  2  0  0  0  0  0  0  0  0  0
    0.9235    6.8847    5.8564 C   0  0  0  0  0  0  0  0  0  0  0  0
   -0.2499    6.9289    6.2309 O   0  0  0  0  0  0  0  0  0  0  0  0
    1.4671    5.7701    5.2935 N   0  0  0  0  0  0  0  0  0  0  0  0
    0.6101    4.6048    4.9684 C   0  0  1  0  0  0  0  0  0  0  0  0
   -0.3545    4.8560    3.7905 C   0  0  0  0  0  0  0  0  0  0  0  0
   -1.3019    3.6586    3.5583 C   0  0  0  0  0  0  0  0  0  0  0  0
   -0.5561    2.3108    3.4527 C   0  0  0  0  0  0  0  0  0  0  0  0
    0.4551    2.1187    4.5953 C   0  0  0  0  0  0  0  0  0  0  0  0
    1.4126    3.3227    4.6477 C   0  0  2  0  0  0  0  0  0  0  0  0
    2.5620    3.1772    5.6341 C   0  0  0  0  0  0  0  0  0  0  0  0
    3.5426    4.3412    5.4433 C   0  0  0  0  0  0  0  0  0  0  0  0
    2.9026    5.6699    4.9432 C   0  0  2  0  0  0  0  0  0  0  0  0
    3.7697    6.8642    5.4240 C   0  0  1  0  0  0  0  0  0  0  0  0
    4.9891    7.1248    4.5369 C   0  0  0  0  0  0  0  0  0  0  0  0
    4.5263    8.1623    3.5114 C   0  0  0  0  0  0  0  0  0  0  0  0
    3.1102    8.5486    3.9512 C   0  0  0  0  0  0  0  0  0  0  0  0
    3.0840    8.1442    5.3514 N   0  0  0  0  0  0  0  0  0  0  0  0
    1.0540    8.6075    8.0554 H   0  0  0  0  0  0  0  0  0  0  0  0
    2.5808    9.3796    7.6378 H   0  0  0  0  0  0  0  0  0  0  0  0
    2.5436    7.6629    8.0256 H   0  0  0  0  0  0  0  0  0  0  0  0
    1.1847    8.9721    5.6090 H   0  0  0  0  0  0  0  0  0  0  0  0
    0.0180    4.3961    5.8615 H   0  0  0  0  0  0  0  0  0  0  0  0
   -0.9541    5.7438    3.9640 H   0  0  0  0  0  0  0  0  0  0  0  0
    0.2158    5.0596    2.8846 H   0  0  0  0  0  0  0  0  0  0  0  0
   -2.0335    3.6070    4.3668 H   0  0  0  0  0  0  0  0  0  0  0  0
   -1.8662    3.8160    2.6376 H   0  0  0  0  0  0  0  0  0  0  0  0
   -1.2771    1.4887    3.4431 H   0  0  0  0  0  0  0  0  0  0  0  0
   -0.0265    2.2694    2.4994 H   0  0  0  0  0  0  0  0  0  0  0  0
   -0.0760    2.0092    5.5419 H   0  0  0  0  0  0  0  0  0  0  0  0
    1.0107    1.1898    4.4422 H   0  0  0  0  0  0  0  0  0  0  0  0
    1.8584    3.4167    3.6572 H   0  0  0  0  0  0  0  0  0  0  0  0
    2.1777    3.1799    6.6545 H   0  0  0  0  0  0  0  0  0  0  0  0
    3.0799    2.2248    5.4923 H   0  0  0  0  0  0  0  0  0  0  0  0
    4.0901    4.4791    6.3743 H   0  0  0  0  0  0  0  0  0  0  0  0
    4.2852    4.0508    4.7022 H   0  0  0  0  0  0  0  0  0  0  0  0
    2.9103    5.6496    3.8489 H   0  0  0  0  0  0  0  0  0  0  0  0
    4.0829    6.7088    6.4561 H   0  0  0  0  0  0  0  0  0  0  0  0
    5.7872    7.5612    5.1394 H   0  0  0  0  0  0  0  0  0  0  0  0
    5.3778    6.2158    4.0789 H   0  0  0  0  0  0  0  0  0  0  0  0
    5.1878    9.0322    3.5436 H   0  0  0  0  0  0  0  0  0  0  0  0
    4.5397    7.7605    2.4959 H   0  0  0  0  0  0  0  0  0  0  0  0
    2.9184    9.6186    3.8213 H   0  0  0  0  0  0  0  0  0  0  0  0
    2.3629    8.0022    3.3715 H   0  0  0  0  0  0  0  0  0  0  0  0
  1  2  1  0
  1 20  1  0
  1 21  1  0
  1 22  1  0
  2 19  1  0
  2  3  1  0
  2 23  1  6
  3  4  2  0
  3  5  1  0
  5 14  1  0
  5  6  1  0
  6 11  1  0
  6  7  1  0
  6 24  1  1
  7  8  1  0
  7 25  1  0
  7 26  1  0
  8  9  1  0
  8 27  1  0
  8 28  1  0
  9 10  1  0
  9 29  1  0
  9 30  1  0
 10 11  1  0
 10 31  1  0
 10 32  1  0
 11 12  1  0
 11 33  1  6
 12 13  1  0
 12 34  1  0
 12 35  1  0
 13 14  1  0
 13 36  1  0
 13 37  1  0
 14 15  1  0
 14 38  1  6
 15 19  1  0
 15 16  1  0
 15 39  1  1
 16 17  1  0
 16 40  1  0
 16 41  1  0
 17 18  1  0
 17 42  1  0
 17 43  1  0
 18 19  1  0
 18 44  1  0
 18 45  1  0
M  END
>  <i_m_ct_stereo_status>  (91) 
1

>  <s_m_source_file>  (91) 
/var/tmp/pbs.5076255.sched01/tmpd0mq1ayv/02wja6gfv.sdf

>  <i_m_source_file_index>  (91) 
35

>  <i_lp_mmshare_version>  (91) 
48012

>  <i_f3d_flags>  (91) 
0

>  <s_epik_input>  (91) 
Tz1DMVtDQEBIXShbQ0gzXSlOKFtDSDJdW0NIMl1bQ0gyXTIpW0NASF0yW0NASF0zW0NIMl1bQ0gyXVtDQEhdKFtDQEhdNE4xMylbQ0gyXVtDSDJdW0NIMl1bQ0gyXTQ=

>  <s_epik_cmdline>  (91) 
J2VwaWtfcHl0aG9uJywgJy1waHQnLCAnMi4wJywgJy1waCcsICc3LjAnLCAnLXRuJywgJzgnLCAnLW1hJywgJzIwMCcsICctaW1hZScsICc8aW5maWxlLm1hZT4nLCAnLW9tYWUnLCAnPG91dGZpbGUubWFlPic=

>  <r_epik_Ionization_Penalty>  (91) 
1.73408

>  <r_epik_Ionization_Penalty_Charging>  (91) 
0

>  <r_epik_Ionization_Penalty_Neutral>  (91) 
1.73408

>  <r_epik_State_Penalty>  (91) 
1.84263

>  <r_epik_Charging_Adjusted_Penalty>  (91) 
1.84263

>  <i_epik_Tot_Q>  (91) 
0

>  <i_epik_Tot_abs_Q>  (91) 
0

>  <s_lp_Force_Field>  (91) 
OPLS3e

>  <r_lp_Energy>  (91) 
45.66

>  <b_lp_Chiralities_Consistent>  (91) 
1

>  <s_lp_Variant>  (91) 
22:0-2

>  <s_i_glide_gridfile>  (91) 
pfpi4k_grid

>  <i_i_glide_lignum>  (91) 
35

>  <i_i_glide_rotatable_bonds>  (91) 
0

>  <r_i_docking_score>  (91) 
-3.0673

>  <r_i_glide_ligand_efficiency>  (91) 
-0.161437

>  <r_i_glide_ligand_efficiency_sa>  (91) 
-0.430778

>  <r_i_glide_ligand_efficiency_ln>  (91) 
-0.777626

>  <r_i_glide_gscore>  (91) 
-3.0673

>  <r_i_glide_lipo>  (91) 
-0.188836

>  <r_i_glide_hbond>  (91) 
-0.0260329

>  <r_i_glide_metal>  (91) 
-0

>  <r_i_glide_rewards>  (91) 
-1.62007

>  <r_i_glide_evdw>  (91) 
-18.2692

>  <r_i_glide_ecoul>  (91) 
-1.95317

>  <r_i_glide_erotb>  (91) 
0

>  <r_i_glide_esite>  (91) 
-0.0259307

>  <r_i_glide_emodel>  (91) 
-24.0947

>  <r_i_glide_energy>  (91) 
-20.2223

>  <r_i_glide_einternal>  (91) 
0

>  <r_i_glide_intrahb_reward>  (91) 
-0

>  <i_i_glide_confnum>  (91) 
1

>  <i_i_glide_posenum>  (91) 
2

>  <r_i_glide_eff_state_penalty>  (91) 
0

>  <ligand_id>  (91) 
22

>  <original_smiles>  (91) 
CC1C(=O)N2C3CCCCC3CCC2C2CCCN12

>  <smiles>  (91) 
[H]C([H])([H])C1([H])C(=O)N2C([H])(C([H])([H])C([H])([H])C3([H])C([H])([H])C([H])([H])C([H])([H])C([H])([H])C23[H])C2([H])N1C([H])([H])C([H])([H])C2([H])[H]

$$$$
22:1:1
     RDKit          3D

 45 48  0  0  1  0  0  0  0  0999 V2000
    2.4965    5.7487    3.7541 C   0  0  0  0  0  0  0  0  0  0  0  0
    1.4556    4.6115    3.7297 C   0  0  2  0  0  0  0  0  0  0  0  0
    0.5576    4.6703    4.9855 C   0  0  0  0  0  0  0  0  0  0  0  0
   -0.1974    5.6365    5.1078 O   0  0  0  0  0  0  0  0  0  0  0  0
    0.6116    3.6704    5.9005 N   0  0  0  0  0  0  0  0  0  0  0  0
   -0.3699    3.6218    7.0162 C   0  0  1  0  0  0  0  0  0  0  0  0
   -1.8041    3.2707    6.5588 C   0  0  0  0  0  0  0  0  0  0  0  0
   -2.8060    3.3347    7.7328 C   0  0  0  0  0  0  0  0  0  0  0  0
   -2.3429    2.5479    8.9765 C   0  0  0  0  0  0  0  0  0  0  0  0
   -0.8885    2.8600    9.3597 C   0  0  0  0  0  0  0  0  0  0  0  0
    0.0219    2.6374    8.1406 C   0  0  2  0  0  0  0  0  0  0  0  0
    1.5121    2.7498    8.4344 C   0  0  0  0  0  0  0  0  0  0  0  0
    2.3073    2.3083    7.1964 C   0  0  0  0  0  0  0  0  0  0  0  0
    1.6001    2.5694    5.8336 C   0  0  2  0  0  0  0  0  0  0  0  0
    2.6737    2.7276    4.7220 C   0  0  1  0  0  0  0  0  0  0  0  0
    3.2069    1.3908    4.1991 C   0  0  0  0  0  0  0  0  0  0  0  0
    2.3408    1.0609    2.9829 C   0  0  0  0  0  0  0  0  0  0  0  0
    1.4414    2.2875    2.7875 C   0  0  0  0  0  0  0  0  0  0  0  0
    2.1606    3.3357    3.5080 N   0  0  0  0  0  0  0  0  0  0  0  0
    2.0232    6.7326    3.7885 H   0  0  0  0  0  0  0  0  0  0  0  0
    3.1125    5.7127    2.8544 H   0  0  0  0  0  0  0  0  0  0  0  0
    3.1670    5.6676    4.6128 H   0  0  0  0  0  0  0  0  0  0  0  0
    0.8014    4.7953    2.8808 H   0  0  0  0  0  0  0  0  0  0  0  0
   -0.3846    4.6203    7.4597 H   0  0  0  0  0  0  0  0  0  0  0  0
   -2.1405    3.9503    5.7753 H   0  0  0  0  0  0  0  0  0  0  0  0
   -1.8165    2.2763    6.1160 H   0  0  0  0  0  0  0  0  0  0  0  0
   -2.9658    4.3780    8.0127 H   0  0  0  0  0  0  0  0  0  0  0  0
   -3.7749    2.9488    7.4107 H   0  0  0  0  0  0  0  0  0  0  0  0
   -3.0062    2.7623    9.8202 H   0  0  0  0  0  0  0  0  0  0  0  0
   -2.4290    1.4820    8.7746 H   0  0  0  0  0  0  0  0  0  0  0  0
   -0.8131    3.8903    9.7131 H   0  0  0  0  0  0  0  0  0  0  0  0
   -0.5859    2.2247   10.1964 H   0  0  0  0  0  0  0  0  0  0  0  0
   -0.1484    1.6148    7.7990 H   0  0  0  0  0  0  0  0  0  0  0  0
    1.7608    3.7815    8.6849 H   0  0  0  0  0  0  0  0  0  0  0  0
    1.7887    2.1385    9.2975 H   0  0  0  0  0  0  0  0  0  0  0  0
    3.2878    2.7788    7.2402 H   0  0  0  0  0  0  0  0  0  0  0  0
    2.4945    1.2371    7.2643 H   0  0  0  0  0  0  0  0  0  0  0  0
    0.9980    1.6858    5.6020 H   0  0  0  0  0  0  0  0  0  0  0  0
    3.4972    3.3459    5.0822 H   0  0  0  0  0  0  0  0  0  0  0  0
    4.2366    1.5213    3.8663 H   0  0  0  0  0  0  0  0  0  0  0  0
    3.2050    0.6055    4.9541 H   0  0  0  0  0  0  0  0  0  0  0  0
    2.9716    0.9108    2.1041 H   0  0  0  0  0  0  0  0  0  0  0  0
    1.7556    0.1528    3.1397 H   0  0  0  0  0  0  0  0  0  0  0  0
    1.3062    2.5320    1.7310 H   0  0  0  0  0  0  0  0  0  0  0  0
    0.4607    2.1117    3.2275 H   0  0  0  0  0  0  0  0  0  0  0  0
  1  2  1  0
  1 20  1  0
  1 21  1  0
  1 22  1  0
  2 19  1  0
  2  3  1  0
  2 23  1  6
  3  4  2  0
  3  5  1  0
  5 14  1  0
  5  6  1  0
  6 11  1  0
  6  7  1  0
  6 24  1  1
  7  8  1  0
  7 25  1  0
  7 26  1  0
  8  9  1  0
  8 27  1  0
  8 28  1  0
  9 10  1  0
  9 29  1  0
  9 30  1  0
 10 11  1  0
 10 31  1  0
 10 32  1  0
 11 12  1  0
 11 33  1  6
 12 13  1  0
 12 34  1  0
 12 35  1  0
 13 14  1  0
 13 36  1  0
 13 37  1  0
 14 15  1  0
 14 38  1  6
 15 19  1  0
 15 16  1  0
 15 39  1  1
 16 17  1  0
 16 40  1  0
 16 41  1  0
 17 18  1  0
 17 42  1  0
 17 43  1  0
 18 19  1  0
 18 44  1  0
 18 45  1  0
M  END
>  <i_m_ct_stereo_status>  (92) 
1

>  <s_m_source_file>  (92) 
/var/tmp/pbs.5076255.sched01/tmpd0mq1ayv/02wja6gfv.sdf

>  <i_m_source_file_index>  (92) 
35

>  <i_lp_mmshare_version>  (92) 
48012

>  <i_f3d_flags>  (92) 
0

>  <s_epik_input>  (92) 
Tz1DMVtDQEBIXShbQ0gzXSlOKFtDSDJdW0NIMl1bQ0gyXTIpW0NASF0yW0NASF0zW0NIMl1bQ0gyXVtDQEhdKFtDQEhdNE4xMylbQ0gyXVtDSDJdW0NIMl1bQ0gyXTQ=

>  <s_epik_cmdline>  (92) 
J2VwaWtfcHl0aG9uJywgJy1waHQnLCAnMi4wJywgJy1waCcsICc3LjAnLCAnLXRuJywgJzgnLCAnLW1hJywgJzIwMCcsICctaW1hZScsICc8aW5maWxlLm1hZT4nLCAnLW9tYWUnLCAnPG91dGZpbGUubWFlPic=

>  <r_epik_Ionization_Penalty>  (92) 
1.73408

>  <r_epik_Ionization_Penalty_Charging>  (92) 
0

>  <r_epik_Ionization_Penalty_Neutral>  (92) 
1.73408

>  <r_epik_State_Penalty>  (92) 
1.84263

>  <r_epik_Charging_Adjusted_Penalty>  (92) 
1.84263

>  <i_epik_Tot_Q>  (92) 
0

>  <i_epik_Tot_abs_Q>  (92) 
0

>  <s_lp_Force_Field>  (92) 
OPLS3e

>  <r_lp_Energy>  (92) 
45.66

>  <b_lp_Chiralities_Consistent>  (92) 
1

>  <s_lp_Variant>  (92) 
22:0-2

>  <s_i_glide_gridfile>  (92) 
pfpi4k_grid

>  <i_i_glide_lignum>  (92) 
35

>  <i_i_glide_rotatable_bonds>  (92) 
0

>  <r_i_docking_score>  (92) 
-2.9522

>  <r_i_glide_ligand_efficiency>  (92) 
-0.155379

>  <r_i_glide_ligand_efficiency_sa>  (92) 
-0.414614

>  <r_i_glide_ligand_efficiency_ln>  (92) 
-0.748447

>  <r_i_glide_gscore>  (92) 
-2.9522

>  <r_i_glide_lipo>  (92) 
-0.195792

>  <r_i_glide_hbond>  (92) 
0

>  <r_i_glide_metal>  (92) 
-0

>  <r_i_glide_rewards>  (92) 
-1.62007

>  <r_i_glide_evdw>  (92) 
-18.4151

>  <r_i_glide_ecoul>  (92) 
-1.27523

>  <r_i_glide_erotb>  (92) 
0

>  <r_i_glide_esite>  (92) 
-0.0243063

>  <r_i_glide_emodel>  (92) 
-23.4025

>  <r_i_glide_energy>  (92) 
-19.6903

>  <r_i_glide_einternal>  (92) 
0

>  <r_i_glide_intrahb_reward>  (92) 
-0

>  <i_i_glide_confnum>  (92) 
1

>  <i_i_glide_posenum>  (92) 
1

>  <r_i_glide_eff_state_penalty>  (92) 
0

>  <ligand_id>  (92) 
22

>  <original_smiles>  (92) 
CC1C(=O)N2C3CCCCC3CCC2C2CCCN12

>  <smiles>  (92) 
[H]C([H])([H])C1([H])C(=O)N2C([H])(C([H])([H])C([H])([H])C3([H])C([H])([H])C([H])([H])C([H])([H])C([H])([H])C23[H])C2([H])N1C([H])([H])C([H])([H])C2([H])[H]

$$$$
22:1:2
     RDKit          3D

 45 48  0  0  1  0  0  0  0  0999 V2000
    5.3784   -0.4332    4.1019 C   0  0  0  0  0  0  0  0  0  0  0  0
    4.3247   -0.1126    3.0270 C   0  0  2  0  0  0  0  0  0  0  0  0
    3.1659    0.6992    3.6353 C   0  0  0  0  0  0  0  0  0  0  0  0
    3.4132    1.8245    4.0757 O   0  0  0  0  0  0  0  0  0  0  0  0
    1.9215    0.1670    3.6807 N   0  0  0  0  0  0  0  0  0  0  0  0
    0.7727    1.0093    4.0895 C   0  0  1  0  0  0  0  0  0  0  0  0
    0.3834    2.0716    3.0376 C   0  0  0  0  0  0  0  0  0  0  0  0
   -0.7470    2.9888    3.5533 C   0  0  0  0  0  0  0  0  0  0  0  0
   -1.9510    2.2117    4.1232 C   0  0  0  0  0  0  0  0  0  0  0  0
   -1.5212    1.1105    5.1074 C   0  0  0  0  0  0  0  0  0  0  0  0
   -0.4901    0.1948    4.4339 C   0  0  2  0  0  0  0  0  0  0  0  0
   -0.1101   -1.0356    5.2471 C   0  0  0  0  0  0  0  0  0  0  0  0
    0.7647   -1.9618    4.3880 C   0  0  0  0  0  0  0  0  0  0  0  0
    1.6379   -1.2398    3.3200 C   0  0  2  0  0  0  0  0  0  0  0  0
    2.9014   -2.0983    3.0241 C   0  0  1  0  0  0  0  0  0  0  0  0
    2.6457   -3.2430    2.0426 C   0  0  0  0  0  0  0  0  0  0  0  0
    2.9996   -2.6758    0.6667 C   0  0  0  0  0  0  0  0  0  0  0  0
    3.5626   -1.2748    0.9415 C   0  0  0  0  0  0  0  0  0  0  0  0
    3.9555   -1.3658    2.3466 N   0  0  0  0  0  0  0  0  0  0  0  0
    5.7953    0.4692    4.5532 H   0  0  0  0  0  0  0  0  0  0  0  0
    6.2005   -0.9829    3.6464 H   0  0  0  0  0  0  0  0  0  0  0  0
    4.9687   -1.0517    4.9062 H   0  0  0  0  0  0  0  0  0  0  0  0
    4.8035    0.5330    2.2913 H   0  0  0  0  0  0  0  0  0  0  0  0
    1.0750    1.5310    5.0013 H   0  0  0  0  0  0  0  0  0  0  0  0
    1.2374    2.6968    2.7712 H   0  0  0  0  0  0  0  0  0  0  0  0
    0.0737    1.5852    2.1136 H   0  0  0  0  0  0  0  0  0  0  0  0
   -0.3481    3.6543    4.3208 H   0  0  0  0  0  0  0  0  0  0  0  0
   -1.0923    3.6309    2.7405 H   0  0  0  0  0  0  0  0  0  0  0  0
   -2.6444    2.9034    4.6087 H   0  0  0  0  0  0  0  0  0  0  0  0
   -2.4993    1.7558    3.2992 H   0  0  0  0  0  0  0  0  0  0  0  0
   -1.1046    1.5660    6.0076 H   0  0  0  0  0  0  0  0  0  0  0  0
   -2.3922    0.5332    5.4232 H   0  0  0  0  0  0  0  0  0  0  0  0
   -0.9412   -0.1695    3.5100 H   0  0  0  0  0  0  0  0  0  0  0  0
    0.4399   -0.7301    6.1382 H   0  0  0  0  0  0  0  0  0  0  0  0
   -0.9986   -1.5714    5.5888 H   0  0  0  0  0  0  0  0  0  0  0  0
    1.3690   -2.5705    5.0588 H   0  0  0  0  0  0  0  0  0  0  0  0
    0.1201   -2.6597    3.8555 H   0  0  0  0  0  0  0  0  0  0  0  0
    1.0480   -1.1620    2.4012 H   0  0  0  0  0  0  0  0  0  0  0  0
    3.3133   -2.4906    3.9553 H   0  0  0  0  0  0  0  0  0  0  0  0
    3.3200   -4.0717    2.2627 H   0  0  0  0  0  0  0  0  0  0  0  0
    1.6277   -3.6218    2.1030 H   0  0  0  0  0  0  0  0  0  0  0  0
    3.7446   -3.3038    0.1754 H   0  0  0  0  0  0  0  0  0  0  0  0
    2.1245   -2.6423    0.0173 H   0  0  0  0  0  0  0  0  0  0  0  0
    4.4049   -1.0386    0.2874 H   0  0  0  0  0  0  0  0  0  0  0  0
    2.7905   -0.5188    0.7941 H   0  0  0  0  0  0  0  0  0  0  0  0
  1  2  1  0
  1 20  1  0
  1 21  1  0
  1 22  1  0
  2 19  1  0
  2  3  1  0
  2 23  1  6
  3  4  2  0
  3  5  1  0
  5 14  1  0
  5  6  1  0
  6 11  1  0
  6  7  1  0
  6 24  1  1
  7  8  1  0
  7 25  1  0
  7 26  1  0
  8  9  1  0
  8 27  1  0
  8 28  1  0
  9 10  1  0
  9 29  1  0
  9 30  1  0
 10 11  1  0
 10 31  1  0
 10 32  1  0
 11 12  1  0
 11 33  1  6
 12 13  1  0
 12 34  1  0
 12 35  1  0
 13 14  1  0
 13 36  1  0
 13 37  1  0
 14 15  1  0
 14 38  1  6
 15 19  1  0
 15 16  1  0
 15 39  1  1
 16 17  1  0
 16 40  1  0
 16 41  1  0
 17 18  1  0
 17 42  1  0
 17 43  1  0
 18 19  1  0
 18 44  1  0
 18 45  1  0
M  END
>  <i_m_ct_stereo_status>  (93) 
1

>  <s_m_source_file>  (93) 
/var/tmp/pbs.5076255.sched01/tmpd0mq1ayv/02wja6gfv.sdf

>  <i_m_source_file_index>  (93) 
35

>  <i_lp_mmshare_version>  (93) 
48012

>  <i_f3d_flags>  (93) 
0

>  <s_epik_input>  (93) 
Tz1DMVtDQEBIXShbQ0gzXSlOKFtDSDJdW0NIMl1bQ0gyXTIpW0NASF0yW0NASF0zW0NIMl1bQ0gyXVtDQEhdKFtDQEhdNE4xMylbQ0gyXVtDSDJdW0NIMl1bQ0gyXTQ=

>  <s_epik_cmdline>  (93) 
J2VwaWtfcHl0aG9uJywgJy1waHQnLCAnMi4wJywgJy1waCcsICc3LjAnLCAnLXRuJywgJzgnLCAnLW1hJywgJzIwMCcsICctaW1hZScsICc8aW5maWxlLm1hZT4nLCAnLW9tYWUnLCAnPG91dGZpbGUubWFlPic=

>  <r_epik_Ionization_Penalty>  (93) 
1.73408

>  <r_epik_Ionization_Penalty_Charging>  (93) 
0

>  <r_epik_Ionization_Penalty_Neutral>  (93) 
1.73408

>  <r_epik_State_Penalty>  (93) 
1.84263

>  <r_epik_Charging_Adjusted_Penalty>  (93) 
1.84263

>  <i_epik_Tot_Q>  (93) 
0

>  <i_epik_Tot_abs_Q>  (93) 
0

>  <s_lp_Force_Field>  (93) 
OPLS3e

>  <r_lp_Energy>  (93) 
45.66

>  <b_lp_Chiralities_Consistent>  (93) 
1

>  <s_lp_Variant>  (93) 
22:0-2

>  <s_i_glide_gridfile>  (93) 
pfpi4k_grid

>  <i_i_glide_lignum>  (93) 
35

>  <i_i_glide_rotatable_bonds>  (93) 
0

>  <r_i_docking_score>  (93) 
-2.78564

>  <r_i_glide_ligand_efficiency>  (93) 
-0.146612

>  <r_i_glide_ligand_efficiency_sa>  (93) 
-0.391221

>  <r_i_glide_ligand_efficiency_ln>  (93) 
-0.706219

>  <r_i_glide_gscore>  (93) 
-2.78564

>  <r_i_glide_lipo>  (93) 
-0.139713

>  <r_i_glide_hbond>  (93) 
0

>  <r_i_glide_metal>  (93) 
-0

>  <r_i_glide_rewards>  (93) 
-1.62007

>  <r_i_glide_evdw>  (93) 
-18.6302

>  <r_i_glide_ecoul>  (93) 
-0.588373

>  <r_i_glide_erotb>  (93) 
0

>  <r_i_glide_esite>  (93) 
-0.00609511

>  <r_i_glide_emodel>  (93) 
-22.6019

>  <r_i_glide_energy>  (93) 
-19.2185

>  <r_i_glide_einternal>  (93) 
0

>  <r_i_glide_intrahb_reward>  (93) 
-0

>  <i_i_glide_confnum>  (93) 
1

>  <i_i_glide_posenum>  (93) 
4

>  <r_i_glide_eff_state_penalty>  (93) 
0

>  <ligand_id>  (93) 
22

>  <original_smiles>  (93) 
CC1C(=O)N2C3CCCCC3CCC2C2CCCN12

>  <smiles>  (93) 
[H]C([H])([H])C1([H])C(=O)N2C([H])(C([H])([H])C([H])([H])C3([H])C([H])([H])C([H])([H])C([H])([H])C([H])([H])C23[H])C2([H])N1C([H])([H])C([H])([H])C2([H])[H]

$$$$
23:0:0
     RDKit          3D

 70 76  0  0  1  0  0  0  0  0999 V2000
    7.7524  -12.1235    3.7141 C   0  0  0  0  0  0  0  0  0  0  0  0
    6.7963  -10.9968    4.0373 C   0  0  0  0  0  0  0  0  0  0  0  0
    6.7442  -10.4451    5.2577 C   0  0  0  0  0  0  0  0  0  0  0  0
    5.8025   -9.3225    5.6281 C   0  0  2  0  0  0  0  0  0  0  0  0
    4.8168   -9.8427    6.7139 C   0  0  0  0  0  0  0  0  0  0  0  0
    3.3611   -9.3439    6.7965 C   0  0  0  0  0  0  0  0  0  0  0  0
    2.2586   -9.8830    5.8326 C   0  0  1  0  0  0  0  0  0  0  0  0
    1.0241   -8.9353    5.8509 C   0  0  0  0  0  0  0  0  0  0  0  0
    0.4015   -8.8046    7.2370 C   0  0  0  0  0  0  0  0  0  0  0  0
    0.4197   -8.2517    4.8419 C   0  0  0  0  0  0  0  0  0  0  0  0
    0.8268   -8.1595    3.4328 C   0  0  0  0  0  0  0  0  0  0  0  0
    0.0326   -8.1444    2.4886 O   0  0  0  0  0  0  0  0  0  0  0  0
    2.1396   -8.1628    3.2945 O   0  0  0  0  0  0  0  0  0  0  0  0
    2.7266   -9.1269    2.4607 C   0  0  2  0  0  0  0  0  0  0  0  0
    3.3056  -10.2258    3.3440 C   0  0  2  0  0  0  0  0  0  0  0  0
    2.5747  -10.8321    4.5895 C   0  0  0  0  0  0  0  0  0  0  0  0
    3.3915  -12.0712    5.0409 C   0  0  0  0  0  0  0  0  0  0  0  0
    1.2323  -11.4589    4.1169 C   0  0  0  0  0  0  0  0  0  0  0  0
    4.7271   -9.5592    3.2512 C   0  0  2  0  0  0  0  0  0  0  0  0
    5.9037  -10.5300    2.8937 C   0  0  0  0  0  0  0  0  0  0  0  0
    5.2960   -8.5703    4.3317 C   0  0  1  0  0  0  0  0  0  0  0  0
    4.3418   -7.6480    4.8027 O   0  0  0  0  0  0  0  0  0  0  0  0
    6.3609   -7.6543    3.6325 C   0  0  0  0  0  0  0  0  0  0  0  0
    7.4257   -7.5659    4.2959 O   0  0  0  0  0  0  0  0  0  0  0  0
    5.9829   -7.0450    2.4206 C   0  0  0  0  0  0  0  0  0  0  0  0
    6.8538   -6.0691    1.7125 C   0  0  0  0  0  0  0  0  0  0  0  0
    8.0738   -6.0784    1.8142 O   0  0  0  0  0  0  0  0  0  0  0  0
    6.1950   -5.0400    0.8656 C   0  0  0  0  0  0  0  0  0  0  0  0
    6.8251   -3.7883    0.6579 C   0  0  0  0  0  0  0  0  0  0  0  0
    6.1709   -2.7763   -0.0729 C   0  0  0  0  0  0  0  0  0  0  0  0
    4.8820   -3.0061   -0.5920 C   0  0  0  0  0  0  0  0  0  0  0  0
    4.2594   -4.2616   -0.4080 C   0  0  0  0  0  0  0  0  0  0  0  0
    4.9218   -5.2799    0.3143 C   0  0  0  0  0  0  0  0  0  0  0  0
    4.3060   -6.6613    0.4485 C   0  0  0  0  0  0  0  0  0  0  0  0
    4.5884   -7.3152    1.8245 C   0  0  1  0  0  0  0  0  0  0  0  0
    4.1584   -8.8066    1.9931 C   0  0  2  0  0  0  0  0  0  0  0  0
    4.4496   -9.4478    0.7702 O   0  0  0  0  0  0  0  0  0  0  0  0
    8.3948  -11.8416    2.8832 H   0  0  0  0  0  0  0  0  0  0  0  0
    7.2148  -13.0332    3.4419 H   0  0  0  0  0  0  0  0  0  0  0  0
    8.3963  -12.3493    4.5623 H   0  0  0  0  0  0  0  0  0  0  0  0
    7.3926  -10.7923    6.0446 H   0  0  0  0  0  0  0  0  0  0  0  0
    6.4010   -8.6074    6.1915 H   0  0  0  0  0  0  0  0  0  0  0  0
    4.8559  -10.9214    6.8171 H   0  0  0  0  0  0  0  0  0  0  0  0
    5.2728   -9.5348    7.6567 H   0  0  0  0  0  0  0  0  0  0  0  0
    3.0446   -9.6314    7.8005 H   0  0  0  0  0  0  0  0  0  0  0  0
    3.3346   -8.2567    6.8652 H   0  0  0  0  0  0  0  0  0  0  0  0
    1.8328  -10.6493    6.4780 H   0  0  0  0  0  0  0  0  0  0  0  0
    1.0781   -8.3149    7.9364 H   0  0  0  0  0  0  0  0  0  0  0  0
    0.1223   -9.7785    7.6370 H   0  0  0  0  0  0  0  0  0  0  0  0
   -0.5045   -8.2099    7.2120 H   0  0  0  0  0  0  0  0  0  0  0  0
   -0.4742   -7.6893    5.0791 H   0  0  0  0  0  0  0  0  0  0  0  0
    2.0847   -9.5121    1.6609 H   0  0  0  0  0  0  0  0  0  0  0  0
    3.3833  -11.0493    2.6411 H   0  0  0  0  0  0  0  0  0  0  0  0
    3.2479  -12.9232    4.3812 H   0  0  0  0  0  0  0  0  0  0  0  0
    3.1122  -12.4049    6.0385 H   0  0  0  0  0  0  0  0  0  0  0  0
    4.4589  -11.9048    5.0309 H   0  0  0  0  0  0  0  0  0  0  0  0
    1.3923  -12.1945    3.3289 H   0  0  0  0  0  0  0  0  0  0  0  0
    0.5166  -10.7516    3.7142 H   0  0  0  0  0  0  0  0  0  0  0  0
    0.7287  -11.9818    4.9307 H   0  0  0  0  0  0  0  0  0  0  0  0
    6.5722  -10.0476    2.1791 H   0  0  0  0  0  0  0  0  0  0  0  0
    5.5279  -11.4186    2.3896 H   0  0  0  0  0  0  0  0  0  0  0  0
    3.9033   -7.3027    4.0371 H   0  0  0  0  0  0  0  0  0  0  0  0
    7.8020   -3.5970    1.0754 H   0  0  0  0  0  0  0  0  0  0  0  0
    6.6510   -1.8144   -0.2133 H   0  0  0  0  0  0  0  0  0  0  0  0
    4.3651   -2.2276   -1.1417 H   0  0  0  0  0  0  0  0  0  0  0  0
    3.2739   -4.4437   -0.8264 H   0  0  0  0  0  0  0  0  0  0  0  0
    3.2384   -6.6358    0.2369 H   0  0  0  0  0  0  0  0  0  0  0  0
    4.7639   -7.2531   -0.3397 H   0  0  0  0  0  0  0  0  0  0  0  0
    3.9573   -6.7055    2.4613 H   0  0  0  0  0  0  0  0  0  0  0  0
    4.2447  -10.3841    0.8475 H   0  0  0  0  0  0  0  0  0  0  0  0
  1  2  1  0
  1 38  1  0
  1 39  1  0
  1 40  1  0
  2 20  1  0
  2  3  2  0
  3  4  1  0
  3 41  1  0
  4 21  1  0
  4  5  1  0
  4 42  1  1
  5  6  1  0
  5 43  1  0
  5 44  1  0
  6  7  1  0
  6 45  1  0
  6 46  1  0
  7 16  1  0
  7  8  1  0
  7 47  1  1
  8  9  1  0
  8 10  2  3
  9 48  1  0
  9 49  1  0
  9 50  1  0
 10 11  1  0
 10 51  1  0
 11 12  2  0
 11 13  1  0
 13 14  1  0
 14 36  1  0
 14 15  1  0
 14 52  1  6
 15 16  1  0
 15 19  1  0
 15 53  1  6
 16 17  1  0
 16 18  1  0
 17 54  1  0
 17 55  1  0
 17 56  1  0
 18 57  1  0
 18 58  1  0
 18 59  1  0
 19 36  1  0
 19 20  1  6
 19 21  1  0
 20 60  1  0
 20 61  1  0
 21 22  1  1
 21 23  1  0
 22 62  1  0
 23 24  1  0
 23 25  2  0
 25 35  1  0
 25 26  1  0
 26 27  2  0
 26 28  1  0
 28 33  2  0
 28 29  1  0
 29 30  2  0
 29 63  1  0
 30 31  1  0
 30 64  1  0
 31 32  2  0
 31 65  1  0
 32 33  1  0
 32 66  1  0
 33 34  1  0
 34 35  1  0
 34 67  1  0
 34 68  1  0
 35 36  1  0
 35 69  1  1
 36 37  1  6
 37 70  1  0
M  CHG  1  24  -1
M  END
>  <i_m_ct_stereo_status>  (94) 
1

>  <s_m_source_file>  (94) 
/var/tmp/pbs.5076255.sched01/tmpd0mq1ayv/02wja6gfv.sdf

>  <i_m_source_file_index>  (94) 
36

>  <i_lp_mmshare_version>  (94) 
48012

>  <i_f3d_flags>  (94) 
1

>  <s_epik_input>  (94) 
Tz1DKE8xKS9bQ0hdPUMoW0NIM10pXFtDQEBIXShDMihbQ0gzXSlbQ0gzXSlbQ0gyXVtDSDJdW0NAQEhdKFtDSF09QyhbQ0gzXSlbQ0gyXTMpW0NAQF00KFtPSF0pQyg9TylbQ0BIXShbQ0BASF01W0NAXTYoW09IXSlbQ0BIXTFbQ0BIXTJbQ0BdMzQ2KUMoPU8pYzdjKFtDSDJdNSlbY0hdW2NIXVtjSF1bY0hdNw==

>  <s_epik_cmdline>  (94) 
J2VwaWtfcHl0aG9uJywgJy1waHQnLCAnMi4wJywgJy1waCcsICc3LjAnLCAnLXRuJywgJzgnLCAnLW1hJywgJzIwMCcsICctaW1hZScsICc8aW5maWxlLm1hZT4nLCAnLW9tYWUnLCAnPG91dGZpbGUubWFlPic=

>  <r_epik_Ionization_Penalty>  (94) 
0.0110488

>  <r_epik_Ionization_Penalty_Charging>  (94) 
0.0104173

>  <r_epik_Ionization_Penalty_Neutral>  (94) 
0.000631514

>  <r_epik_State_Penalty>  (94) 
0.0201617

>  <r_epik_Charging_Adjusted_Penalty>  (94) 
0.030579

>  <i_epik_Tot_Q>  (94) 
-1

>  <i_epik_Tot_abs_Q>  (94) 
1

>  <s_epik_Chemistry_Notes>  (94) 
This compound has an ester and may undergo hydrolysis at high or low pH.

>  <s_lp_Force_Field>  (94) 
OPLS3e

>  <r_lp_Energy>  (94) 
129.804

>  <b_lp_Chiralities_Consistent>  (94) 
1

>  <s_lp_Variant>  (94) 
23:0-1

>  <s_i_glide_gridfile>  (94) 
pfpi4k_grid

>  <i_i_glide_lignum>  (94) 
36

>  <i_i_glide_rotatable_bonds>  (94) 
2

>  <r_i_docking_score>  (94) 
-3.60712

>  <r_i_glide_ligand_efficiency>  (94) 
-0.0974897

>  <r_i_glide_ligand_efficiency_sa>  (94) 
-0.324857

>  <r_i_glide_ligand_efficiency_ln>  (94) 
-0.7823

>  <r_i_glide_gscore>  (94) 
-3.60712

>  <r_i_glide_lipo>  (94) 
-0.699183

>  <r_i_glide_hbond>  (94) 
-0.16

>  <r_i_glide_metal>  (94) 
-0

>  <r_i_glide_rewards>  (94) 
-0.596818

>  <r_i_glide_evdw>  (94) 
-33.239

>  <r_i_glide_ecoul>  (94) 
-3.12466

>  <r_i_glide_erotb>  (94) 
0

>  <r_i_glide_esite>  (94) 
-0.0204693

>  <r_i_glide_emodel>  (94) 
-51.0544

>  <r_i_glide_energy>  (94) 
-36.3637

>  <r_i_glide_einternal>  (94) 
0.0894237

>  <r_i_glide_intrahb_reward>  (94) 
-0.5

>  <i_i_glide_confnum>  (94) 
1

>  <i_i_glide_posenum>  (94) 
4

>  <r_i_glide_eff_state_penalty>  (94) 
0

>  <ligand_id>  (94) 
23

>  <original_smiles>  (94) 
CC1=CC2CCC3C(C)=CC(=O)OC4C(C3(C)C)C3(C1)C2(O)C(=O)C1C(=O)c2ccccc2CC1C43O

>  <smiles>  (94) 
[H]OC12C([O-])=C3C(=O)c4c([H])c([H])c([H])c([H])c4C([H])([H])C3([H])C3(O[H])C4([H])OC(=O)C([H])=C(C([H])([H])[H])C5([H])C([H])([H])C([H])([H])C1([H])C([H])=C(C([H])([H])[H])C([H])([H])C23C4([H])C5(C([H])([H])[H])C([H])([H])[H]

$$$$
23:0:1
     RDKit          3D

 70 76  0  0  1  0  0  0  0  0999 V2000
    7.5893  -12.3507    3.3257 C   0  0  0  0  0  0  0  0  0  0  0  0
    6.7128  -11.1820    3.7275 C   0  0  0  0  0  0  0  0  0  0  0  0
    6.7605  -10.6537    4.9577 C   0  0  0  0  0  0  0  0  0  0  0  0
    5.8998   -9.4940    5.4077 C   0  0  2  0  0  0  0  0  0  0  0  0
    4.9605   -9.9929    6.5462 C   0  0  0  0  0  0  0  0  0  0  0  0
    3.5396   -9.4259    6.7288 C   0  0  0  0  0  0  0  0  0  0  0  0
    2.3520   -9.8892    5.8238 C   0  0  1  0  0  0  0  0  0  0  0  0
    1.1705   -8.8784    5.9369 C   0  0  0  0  0  0  0  0  0  0  0  0
    0.6390   -8.7443    7.3611 C   0  0  0  0  0  0  0  0  0  0  0  0
    0.5369   -8.1490    4.9778 C   0  0  0  0  0  0  0  0  0  0  0  0
    0.8558   -8.0543    3.5473 C   0  0  0  0  0  0  0  0  0  0  0  0
    0.0016   -7.9846    2.6582 O   0  0  0  0  0  0  0  0  0  0  0  0
    2.1507   -8.1213    3.3237 O   0  0  0  0  0  0  0  0  0  0  0  0
    2.6499   -9.0896    2.4397 C   0  0  2  0  0  0  0  0  0  0  0  0
    3.2285  -10.2344    3.2651 C   0  0  2  0  0  0  0  0  0  0  0  0
    2.5434  -10.8263    4.5447 C   0  0  0  0  0  0  0  0  0  0  0  0
    3.3253  -12.1111    4.9214 C   0  0  0  0  0  0  0  0  0  0  0  0
    1.1466  -11.3859    4.1466 C   0  0  0  0  0  0  0  0  0  0  0  0
    4.6717   -9.6306    3.0952 C   0  0  2  0  0  0  0  0  0  0  0  0
    5.7802  -10.6440    2.6497 C   0  0  0  0  0  0  0  0  0  0  0  0
    5.3487   -8.6937    4.1566 C   0  0  1  0  0  0  0  0  0  0  0  0
    4.4647   -7.7403    4.6933 O   0  0  0  0  0  0  0  0  0  0  0  0
    6.4102   -7.8077    3.4121 C   0  0  0  0  0  0  0  0  0  0  0  0
    7.5078   -7.7714    4.0238 O   0  0  0  0  0  0  0  0  0  0  0  0
    5.9986   -7.1610    2.2369 C   0  0  0  0  0  0  0  0  0  0  0  0
    6.8663   -6.2100    1.4936 C   0  0  0  0  0  0  0  0  0  0  0  0
    8.0895   -6.2752    1.5194 O   0  0  0  0  0  0  0  0  0  0  0  0
    6.2051   -5.1325    0.7157 C   0  0  0  0  0  0  0  0  0  0  0  0
    6.8818   -3.9085    0.4905 C   0  0  0  0  0  0  0  0  0  0  0  0
    6.2331   -2.8513   -0.1792 C   0  0  0  0  0  0  0  0  0  0  0  0
    4.9042   -3.0095   -0.6205 C   0  0  0  0  0  0  0  0  0  0  0  0
    4.2349   -4.2369   -0.4207 C   0  0  0  0  0  0  0  0  0  0  0  0
    4.8913   -5.3006    0.2388 C   0  0  0  0  0  0  0  0  0  0  0  0
    4.2190   -6.6556    0.3812 C   0  0  0  0  0  0  0  0  0  0  0  0
    4.5567   -7.3519    1.7259 C   0  0  1  0  0  0  0  0  0  0  0  0
    4.0684   -8.8248    1.8907 C   0  0  2  0  0  0  0  0  0  0  0  0
    4.2651   -9.4501    0.6363 O   0  0  0  0  0  0  0  0  0  0  0  0
    8.1989  -12.0820    2.4698 H   0  0  0  0  0  0  0  0  0  0  0  0
    6.9900  -13.2244    3.0642 H   0  0  0  0  0  0  0  0  0  0  0  0
    8.2672  -12.6297    4.1316 H   0  0  0  0  0  0  0  0  0  0  0  0
    7.4394  -11.0540    5.6925 H   0  0  0  0  0  0  0  0  0  0  0  0
    6.5752   -8.8284    5.9481 H   0  0  0  0  0  0  0  0  0  0  0  0
    4.9534  -11.0748    6.6214 H   0  0  0  0  0  0  0  0  0  0  0  0
    5.4897   -9.7336    7.4650 H   0  0  0  0  0  0  0  0  0  0  0  0
    3.2713   -9.7245    7.7429 H   0  0  0  0  0  0  0  0  0  0  0  0
    3.5704   -8.3413    6.8270 H   0  0  0  0  0  0  0  0  0  0  0  0
    1.9239  -10.6462    6.4771 H   0  0  0  0  0  0  0  0  0  0  0  0
    1.3854   -8.3166    8.0278 H   0  0  0  0  0  0  0  0  0  0  0  0
    0.3319   -9.7122    7.7580 H   0  0  0  0  0  0  0  0  0  0  0  0
   -0.2234   -8.0850    7.4121 H   0  0  0  0  0  0  0  0  0  0  0  0
   -0.3119   -7.5488    5.2821 H   0  0  0  0  0  0  0  0  0  0  0  0
    1.9425   -9.4197    1.6735 H   0  0  0  0  0  0  0  0  0  0  0  0
    3.2209  -11.0482    2.5438 H   0  0  0  0  0  0  0  0  0  0  0  0
    3.1021  -12.9396    4.2559 H   0  0  0  0  0  0  0  0  0  0  0  0
    3.0892  -12.4568    5.9258 H   0  0  0  0  0  0  0  0  0  0  0  0
    4.3975  -11.9966    4.8461 H   0  0  0  0  0  0  0  0  0  0  0  0
    1.2213  -12.1106    3.3371 H   0  0  0  0  0  0  0  0  0  0  0  0
    0.4433  -10.6367    3.8037 H   0  0  0  0  0  0  0  0  0  0  0  0
    0.6695  -11.8970    4.9823 H   0  0  0  0  0  0  0  0  0  0  0  0
    6.4261  -10.1805    1.9031 H   0  0  0  0  0  0  0  0  0  0  0  0
    5.3376  -11.5032    2.1535 H   0  0  0  0  0  0  0  0  0  0  0  0
    4.9459   -7.2691    5.3595 H   0  0  0  0  0  0  0  0  0  0  0  0
    7.8900   -3.7712    0.8465 H   0  0  0  0  0  0  0  0  0  0  0  0
    6.7517   -1.9112   -0.3332 H   0  0  0  0  0  0  0  0  0  0  0  0
    4.3951   -2.1943   -1.1229 H   0  0  0  0  0  0  0  0  0  0  0  0
    3.2186   -4.3627   -0.7824 H   0  0  0  0  0  0  0  0  0  0  0  0
    3.1395   -6.5689    0.2436 H   0  0  0  0  0  0  0  0  0  0  0  0
    4.5944   -7.2466   -0.4549 H   0  0  0  0  0  0  0  0  0  0  0  0
    3.9981   -6.7361    2.4240 H   0  0  0  0  0  0  0  0  0  0  0  0
    4.2158  -10.4022    0.7426 H   0  0  0  0  0  0  0  0  0  0  0  0
  1  2  1  0
  1 38  1  0
  1 39  1  0
  1 40  1  0
  2 20  1  0
  2  3  2  0
  3  4  1  0
  3 41  1  0
  4 21  1  0
  4  5  1  0
  4 42  1  1
  5  6  1  0
  5 43  1  0
  5 44  1  0
  6  7  1  0
  6 45  1  0
  6 46  1  0
  7 16  1  0
  7  8  1  0
  7 47  1  1
  8  9  1  0
  8 10  2  3
  9 48  1  0
  9 49  1  0
  9 50  1  0
 10 11  1  0
 10 51  1  0
 11 12  2  0
 11 13  1  0
 13 14  1  0
 14 36  1  0
 14 15  1  0
 14 52  1  6
 15 16  1  0
 15 19  1  0
 15 53  1  6
 16 17  1  0
 16 18  1  0
 17 54  1  0
 17 55  1  0
 17 56  1  0
 18 57  1  0
 18 58  1  0
 18 59  1  0
 19 36  1  0
 19 20  1  6
 19 21  1  0
 20 60  1  0
 20 61  1  0
 21 22  1  1
 21 23  1  0
 22 62  1  0
 23 24  1  0
 23 25  2  0
 25 35  1  0
 25 26  1  0
 26 27  2  0
 26 28  1  0
 28 33  2  0
 28 29  1  0
 29 30  2  0
 29 63  1  0
 30 31  1  0
 30 64  1  0
 31 32  2  0
 31 65  1  0
 32 33  1  0
 32 66  1  0
 33 34  1  0
 34 35  1  0
 34 67  1  0
 34 68  1  0
 35 36  1  0
 35 69  1  1
 36 37  1  6
 37 70  1  0
M  CHG  1  24  -1
M  END
>  <i_m_ct_stereo_status>  (95) 
1

>  <s_m_source_file>  (95) 
/var/tmp/pbs.5076255.sched01/tmpd0mq1ayv/02wja6gfv.sdf

>  <i_m_source_file_index>  (95) 
36

>  <i_lp_mmshare_version>  (95) 
48012

>  <i_f3d_flags>  (95) 
1

>  <s_epik_input>  (95) 
Tz1DKE8xKS9bQ0hdPUMoW0NIM10pXFtDQEBIXShDMihbQ0gzXSlbQ0gzXSlbQ0gyXVtDSDJdW0NAQEhdKFtDSF09QyhbQ0gzXSlbQ0gyXTMpW0NAQF00KFtPSF0pQyg9TylbQ0BIXShbQ0BASF01W0NAXTYoW09IXSlbQ0BIXTFbQ0BIXTJbQ0BdMzQ2KUMoPU8pYzdjKFtDSDJdNSlbY0hdW2NIXVtjSF1bY0hdNw==

>  <s_epik_cmdline>  (95) 
J2VwaWtfcHl0aG9uJywgJy1waHQnLCAnMi4wJywgJy1waCcsICc3LjAnLCAnLXRuJywgJzgnLCAnLW1hJywgJzIwMCcsICctaW1hZScsICc8aW5maWxlLm1hZT4nLCAnLW9tYWUnLCAnPG91dGZpbGUubWFlPic=

>  <r_epik_Ionization_Penalty>  (95) 
0.0110488

>  <r_epik_Ionization_Penalty_Charging>  (95) 
0.0104173

>  <r_epik_Ionization_Penalty_Neutral>  (95) 
0.000631514

>  <r_epik_State_Penalty>  (95) 
0.0201617

>  <r_epik_Charging_Adjusted_Penalty>  (95) 
0.030579

>  <i_epik_Tot_Q>  (95) 
-1

>  <i_epik_Tot_abs_Q>  (95) 
1

>  <s_epik_Chemistry_Notes>  (95) 
This compound has an ester and may undergo hydrolysis at high or low pH.

>  <s_lp_Force_Field>  (95) 
OPLS3e

>  <r_lp_Energy>  (95) 
129.804

>  <b_lp_Chiralities_Consistent>  (95) 
1

>  <s_lp_Variant>  (95) 
23:0-1

>  <s_i_glide_gridfile>  (95) 
pfpi4k_grid

>  <i_i_glide_lignum>  (95) 
36

>  <i_i_glide_rotatable_bonds>  (95) 
2

>  <r_i_docking_score>  (95) 
-3.29182

>  <r_i_glide_ligand_efficiency>  (95) 
-0.0889682

>  <r_i_glide_ligand_efficiency_sa>  (95) 
-0.296462

>  <r_i_glide_ligand_efficiency_ln>  (95) 
-0.713919

>  <r_i_glide_gscore>  (95) 
-3.29182

>  <r_i_glide_lipo>  (95) 
-0.773156

>  <r_i_glide_hbond>  (95) 
-0.16

>  <r_i_glide_metal>  (95) 
-0

>  <r_i_glide_rewards>  (95) 
-0.11698

>  <r_i_glide_evdw>  (95) 
-34.1062

>  <r_i_glide_ecoul>  (95) 
-3.44165

>  <r_i_glide_erotb>  (95) 
0

>  <r_i_glide_esite>  (95) 
-0.0201296

>  <r_i_glide_emodel>  (95) 
-46.3138

>  <r_i_glide_energy>  (95) 
-37.5478

>  <r_i_glide_einternal>  (95) 
0.131327

>  <r_i_glide_intrahb_reward>  (95) 
-0

>  <i_i_glide_confnum>  (95) 
2

>  <i_i_glide_posenum>  (95) 
15

>  <r_i_glide_eff_state_penalty>  (95) 
0

>  <ligand_id>  (95) 
23

>  <original_smiles>  (95) 
CC1=CC2CCC3C(C)=CC(=O)OC4C(C3(C)C)C3(C1)C2(O)C(=O)C1C(=O)c2ccccc2CC1C43O

>  <smiles>  (95) 
[H]OC12C([O-])=C3C(=O)c4c([H])c([H])c([H])c([H])c4C([H])([H])C3([H])C3(O[H])C4([H])OC(=O)C([H])=C(C([H])([H])[H])C5([H])C([H])([H])C([H])([H])C1([H])C([H])=C(C([H])([H])[H])C([H])([H])C23C4([H])C5(C([H])([H])[H])C([H])([H])[H]

$$$$
23:0:2
     RDKit          3D

 70 76  0  0  1  0  0  0  0  0999 V2000
    7.4777  -12.0988    3.2987 C   0  0  0  0  0  0  0  0  0  0  0  0
    6.6358  -10.9096    3.7115 C   0  0  0  0  0  0  0  0  0  0  0  0
    6.7114  -10.3874    4.9433 C   0  0  0  0  0  0  0  0  0  0  0  0
    5.8881   -9.2048    5.4052 C   0  0  2  0  0  0  0  0  0  0  0  0
    4.9469   -9.6853    6.5508 C   0  0  0  0  0  0  0  0  0  0  0  0
    3.5432   -9.0834    6.7523 C   0  0  0  0  0  0  0  0  0  0  0  0
    2.3302   -9.5268    5.8685 C   0  0  1  0  0  0  0  0  0  0  0  0
    1.1789   -8.4777    5.9904 C   0  0  0  0  0  0  0  0  0  0  0  0
    0.6645   -8.3247    7.4197 C   0  0  0  0  0  0  0  0  0  0  0  0
    0.5569   -7.7283    5.0394 C   0  0  0  0  0  0  0  0  0  0  0  0
    0.8649   -7.6322    3.6082 C   0  0  0  0  0  0  0  0  0  0  0  0
    0.0070   -7.5294    2.7263 O   0  0  0  0  0  0  0  0  0  0  0  0
    2.1579   -7.7377    3.3792 O   0  0  0  0  0  0  0  0  0  0  0  0
    2.6189   -8.7063    2.4756 C   0  0  2  0  0  0  0  0  0  0  0  0
    3.1760   -9.8689    3.2906 C   0  0  2  0  0  0  0  0  0  0  0  0
    2.4888  -10.4547    4.5765 C   0  0  0  0  0  0  0  0  0  0  0  0
    3.2377  -11.7660    4.9393 C   0  0  0  0  0  0  0  0  0  0  0  0
    1.0745  -10.9751    4.1909 C   0  0  0  0  0  0  0  0  0  0  0  0
    4.6329   -9.2976    3.1090 C   0  0  2  0  0  0  0  0  0  0  0  0
    5.7052  -10.3429    2.6449 C   0  0  0  0  0  0  0  0  0  0  0  0
    5.3509   -8.3822    4.1640 C   0  0  1  0  0  0  0  0  0  0  0  0
    4.5013   -7.4097    4.7202 O   0  0  0  0  0  0  0  0  0  0  0  0
    6.4273   -7.5272    3.4068 C   0  0  0  0  0  0  0  0  0  0  0  0
    7.5374   -7.5392    3.9958 O   0  0  0  0  0  0  0  0  0  0  0  0
    6.0153   -6.8627    2.2398 C   0  0  0  0  0  0  0  0  0  0  0  0
    6.8980   -5.9346    1.4899 C   0  0  0  0  0  0  0  0  0  0  0  0
    8.1195   -6.0322    1.5025 O   0  0  0  0  0  0  0  0  0  0  0  0
    6.2568   -4.8391    0.7205 C   0  0  0  0  0  0  0  0  0  0  0  0
    6.9613   -3.6308    0.4957 C   0  0  0  0  0  0  0  0  0  0  0  0
    6.3317   -2.5546   -0.1605 C   0  0  0  0  0  0  0  0  0  0  0  0
    4.9957   -2.6774   -0.5916 C   0  0  0  0  0  0  0  0  0  0  0  0
    4.2978   -3.8898   -0.3942 C   0  0  0  0  0  0  0  0  0  0  0  0
    4.9341   -4.9714    0.2554 C   0  0  0  0  0  0  0  0  0  0  0  0
    4.2306   -6.3068    0.4007 C   0  0  0  0  0  0  0  0  0  0  0  0
    4.5608   -7.0076    1.7489 C   0  0  1  0  0  0  0  0  0  0  0  0
    4.0374   -8.4635    1.9163 C   0  0  2  0  0  0  0  0  0  0  0  0
    4.2136   -9.0620    0.6517 O   0  0  0  0  0  0  0  0  0  0  0  0
    8.0793  -11.8408    2.4350 H   0  0  0  0  0  0  0  0  0  0  0  0
    6.8546  -12.9564    3.0412 H   0  0  0  0  0  0  0  0  0  0  0  0
    8.1598  -12.3961    4.0944 H   0  0  0  0  0  0  0  0  0  0  0  0
    7.3901  -10.8051    5.6702 H   0  0  0  0  0  0  0  0  0  0  0  0
    6.5824   -8.5559    5.9392 H   0  0  0  0  0  0  0  0  0  0  0  0
    4.9133  -10.7676    6.6248 H   0  0  0  0  0  0  0  0  0  0  0  0
    5.4916   -9.4412    7.4647 H   0  0  0  0  0  0  0  0  0  0  0  0
    3.2824   -9.3774    7.7693 H   0  0  0  0  0  0  0  0  0  0  0  0
    3.6015   -8.0002    6.8617 H   0  0  0  0  0  0  0  0  0  0  0  0
    1.8933  -10.2760    6.5256 H   0  0  0  0  0  0  0  0  0  0  0  0
    1.4366   -7.9242    8.0789 H   0  0  0  0  0  0  0  0  0  0  0  0
    0.3371   -9.2867    7.8190 H   0  0  0  0  0  0  0  0  0  0  0  0
   -0.1824   -7.6415    7.4784 H   0  0  0  0  0  0  0  0  0  0  0  0
   -0.2674   -7.1006    5.3548 H   0  0  0  0  0  0  0  0  0  0  0  0
    1.8954   -9.0147    1.7156 H   0  0  0  0  0  0  0  0  0  0  0  0
    3.1408  -10.6783    2.5662 H   0  0  0  0  0  0  0  0  0  0  0  0
    2.9825  -12.5867    4.2714 H   0  0  0  0  0  0  0  0  0  0  0  0
    3.0168  -12.1134    5.9488 H   0  0  0  0  0  0  0  0  0  0  0  0
    4.3108  -11.6738    4.8496 H   0  0  0  0  0  0  0  0  0  0  0  0
    1.1229  -11.6983    3.3778 H   0  0  0  0  0  0  0  0  0  0  0  0
    0.3891  -10.2057    3.8573 H   0  0  0  0  0  0  0  0  0  0  0  0
    0.5922  -11.4766    5.0301 H   0  0  0  0  0  0  0  0  0  0  0  0
    6.3581   -9.8959    1.8933 H   0  0  0  0  0  0  0  0  0  0  0  0
    5.2328  -11.1879    2.1498 H   0  0  0  0  0  0  0  0  0  0  0  0
    3.7553   -7.8711    5.0818 H   0  0  0  0  0  0  0  0  0  0  0  0
    7.9754   -3.5206    0.8442 H   0  0  0  0  0  0  0  0  0  0  0  0
    6.8718   -1.6268   -0.3098 H   0  0  0  0  0  0  0  0  0  0  0  0
    4.5021   -1.8452   -1.0822 H   0  0  0  0  0  0  0  0  0  0  0  0
    3.2736   -3.9871   -0.7440 H   0  0  0  0  0  0  0  0  0  0  0  0
    3.1523   -6.2048    0.2647 H   0  0  0  0  0  0  0  0  0  0  0  0
    4.5931   -6.9015   -0.4392 H   0  0  0  0  0  0  0  0  0  0  0  0
    4.0257   -6.3803    2.4547 H   0  0  0  0  0  0  0  0  0  0  0  0
    4.1189  -10.0044    0.7594 H   0  0  0  0  0  0  0  0  0  0  0  0
  1  2  1  0
  1 38  1  0
  1 39  1  0
  1 40  1  0
  2 20  1  0
  2  3  2  0
  3  4  1  0
  3 41  1  0
  4 21  1  0
  4  5  1  0
  4 42  1  1
  5  6  1  0
  5 43  1  0
  5 44  1  0
  6  7  1  0
  6 45  1  0
  6 46  1  0
  7 16  1  0
  7  8  1  0
  7 47  1  1
  8  9  1  0
  8 10  2  3
  9 48  1  0
  9 49  1  0
  9 50  1  0
 10 11  1  0
 10 51  1  0
 11 12  2  0
 11 13  1  0
 13 14  1  0
 14 36  1  0
 14 15  1  0
 14 52  1  6
 15 16  1  0
 15 19  1  0
 15 53  1  6
 16 17  1  0
 16 18  1  0
 17 54  1  0
 17 55  1  0
 17 56  1  0
 18 57  1  0
 18 58  1  0
 18 59  1  0
 19 36  1  0
 19 20  1  6
 19 21  1  0
 20 60  1  0
 20 61  1  0
 21 22  1  1
 21 23  1  0
 22 62  1  0
 23 24  1  0
 23 25  2  0
 25 35  1  0
 25 26  1  0
 26 27  2  0
 26 28  1  0
 28 33  2  0
 28 29  1  0
 29 30  2  0
 29 63  1  0
 30 31  1  0
 30 64  1  0
 31 32  2  0
 31 65  1  0
 32 33  1  0
 32 66  1  0
 33 34  1  0
 34 35  1  0
 34 67  1  0
 34 68  1  0
 35 36  1  0
 35 69  1  1
 36 37  1  6
 37 70  1  0
M  CHG  1  24  -1
M  END
>  <i_m_ct_stereo_status>  (96) 
1

>  <s_m_source_file>  (96) 
/var/tmp/pbs.5076255.sched01/tmpd0mq1ayv/02wja6gfv.sdf

>  <i_m_source_file_index>  (96) 
36

>  <i_lp_mmshare_version>  (96) 
48012

>  <i_f3d_flags>  (96) 
1

>  <s_epik_input>  (96) 
Tz1DKE8xKS9bQ0hdPUMoW0NIM10pXFtDQEBIXShDMihbQ0gzXSlbQ0gzXSlbQ0gyXVtDSDJdW0NAQEhdKFtDSF09QyhbQ0gzXSlbQ0gyXTMpW0NAQF00KFtPSF0pQyg9TylbQ0BIXShbQ0BASF01W0NAXTYoW09IXSlbQ0BIXTFbQ0BIXTJbQ0BdMzQ2KUMoPU8pYzdjKFtDSDJdNSlbY0hdW2NIXVtjSF1bY0hdNw==

>  <s_epik_cmdline>  (96) 
J2VwaWtfcHl0aG9uJywgJy1waHQnLCAnMi4wJywgJy1waCcsICc3LjAnLCAnLXRuJywgJzgnLCAnLW1hJywgJzIwMCcsICctaW1hZScsICc8aW5maWxlLm1hZT4nLCAnLW9tYWUnLCAnPG91dGZpbGUubWFlPic=

>  <r_epik_Ionization_Penalty>  (96) 
0.0110488

>  <r_epik_Ionization_Penalty_Charging>  (96) 
0.0104173

>  <r_epik_Ionization_Penalty_Neutral>  (96) 
0.000631514

>  <r_epik_State_Penalty>  (96) 
0.0201617

>  <r_epik_Charging_Adjusted_Penalty>  (96) 
0.030579

>  <i_epik_Tot_Q>  (96) 
-1

>  <i_epik_Tot_abs_Q>  (96) 
1

>  <s_epik_Chemistry_Notes>  (96) 
This compound has an ester and may undergo hydrolysis at high or low pH.

>  <s_lp_Force_Field>  (96) 
OPLS3e

>  <r_lp_Energy>  (96) 
129.804

>  <b_lp_Chiralities_Consistent>  (96) 
1

>  <s_lp_Variant>  (96) 
23:0-1

>  <s_i_glide_gridfile>  (96) 
pfpi4k_grid

>  <i_i_glide_lignum>  (96) 
36

>  <i_i_glide_rotatable_bonds>  (96) 
2

>  <r_i_docking_score>  (96) 
-2.95321

>  <r_i_glide_ligand_efficiency>  (96) 
-0.0798164

>  <r_i_glide_ligand_efficiency_sa>  (96) 
-0.265966

>  <r_i_glide_ligand_efficiency_ln>  (96) 
-0.640482

>  <r_i_glide_gscore>  (96) 
-2.95321

>  <r_i_glide_lipo>  (96) 
-0.597449

>  <r_i_glide_hbond>  (96) 
-0.117572

>  <r_i_glide_metal>  (96) 
-0

>  <r_i_glide_rewards>  (96) 
-0.119077

>  <r_i_glide_evdw>  (96) 
-35.8987

>  <r_i_glide_ecoul>  (96) 
-2.02309

>  <r_i_glide_erotb>  (96) 
0

>  <r_i_glide_esite>  (96) 
-0.0207107

>  <r_i_glide_emodel>  (96) 
-45.7219

>  <r_i_glide_energy>  (96) 
-37.9218

>  <r_i_glide_einternal>  (96) 
0.232093

>  <r_i_glide_intrahb_reward>  (96) 
-0

>  <i_i_glide_confnum>  (96) 
2

>  <i_i_glide_posenum>  (96) 
33

>  <r_i_glide_eff_state_penalty>  (96) 
0

>  <ligand_id>  (96) 
23

>  <original_smiles>  (96) 
CC1=CC2CCC3C(C)=CC(=O)OC4C(C3(C)C)C3(C1)C2(O)C(=O)C1C(=O)c2ccccc2CC1C43O

>  <smiles>  (96) 
[H]OC12C([O-])=C3C(=O)c4c([H])c([H])c([H])c([H])c4C([H])([H])C3([H])C3(O[H])C4([H])OC(=O)C([H])=C(C([H])([H])[H])C5([H])C([H])([H])C([H])([H])C1([H])C([H])=C(C([H])([H])[H])C([H])([H])C23C4([H])C5(C([H])([H])[H])C([H])([H])[H]

$$$$
23:3:0
     RDKit          3D

 71 77  0  0  1  0  0  0  0  0999 V2000
   -1.1143   -8.6223    3.0137 C   0  0  0  0  0  0  0  0  0  0  0  0
    0.1457   -8.1888    3.7369 C   0  0  0  0  0  0  0  0  0  0  0  0
    0.7792   -8.9806    4.5986 C   0  0  0  0  0  0  0  0  0  0  0  0
    2.0247   -8.5477    5.3222 C   0  0  2  0  0  0  0  0  0  0  0  0
    1.6282   -8.3487    6.8750 C   0  0  0  0  0  0  0  0  0  0  0  0
    0.7592   -7.1639    7.5536 C   0  0  0  0  0  0  0  0  0  0  0  0
    1.1863   -5.6092    7.8381 C   0  0  2  0  0  0  0  0  0  0  0  0
    0.0389   -4.5565    7.5930 C   0  0  0  0  0  0  0  0  0  0  0  0
   -1.3596   -5.0497    7.2491 C   0  0  0  0  0  0  0  0  0  0  0  0
    0.3482   -3.2551    7.3711 C   0  0  0  0  0  0  0  0  0  0  0  0
    0.1769   -2.6423    6.0133 C   0  0  0  0  0  0  0  0  0  0  0  0
   -0.7077   -1.8248    5.7707 O   0  0  0  0  0  0  0  0  0  0  0  0
    1.2307   -2.9205    5.1110 O   0  0  0  0  0  0  0  0  0  0  0  0
    1.3850   -4.2450    4.5755 C   0  0  2  0  0  0  0  0  0  0  0  0
    1.6676   -5.4049    5.5000 C   0  0  2  0  0  0  0  0  0  0  0  0
    2.4145   -5.2401    6.9352 C   0  0  0  0  0  0  0  0  0  0  0  0
    3.2198   -3.8862    7.0860 C   0  0  0  0  0  0  0  0  0  0  0  0
    3.5928   -6.0606    7.5868 C   0  0  0  0  0  0  0  0  0  0  0  0
    1.9196   -6.2455    4.2440 C   0  0  2  0  0  0  0  0  0  0  0  0
    0.6763   -6.8087    3.4115 C   0  0  0  0  0  0  0  0  0  0  0  0
    2.8473   -7.4425    4.5143 C   0  0  1  0  0  0  0  0  0  0  0  0
    3.9941   -7.3206    5.2984 O   0  0  0  0  0  0  0  0  0  0  0  0
    3.5367   -7.6007    3.1517 C   0  0  0  0  0  0  0  0  0  0  0  0
    3.4739   -8.6475    2.5117 O   0  0  0  0  0  0  0  0  0  0  0  0
    4.3956   -6.3238    2.7510 C   0  0  1  0  0  0  0  0  0  0  0  0
    4.5668   -6.1628    1.2173 C   0  0  0  0  0  0  0  0  0  0  0  0
    4.6170   -7.1505    0.4858 O   0  0  0  0  0  0  0  0  0  0  0  0
    4.7397   -4.7784    0.6744 C   0  0  0  0  0  0  0  0  0  0  0  0
    4.8723   -4.6142   -0.7224 C   0  0  0  0  0  0  0  0  0  0  0  0
    4.9680   -3.3317   -1.2994 C   0  0  0  0  0  0  0  0  0  0  0  0
    4.9389   -2.1908   -0.4786 C   0  0  0  0  0  0  0  0  0  0  0  0
    4.8378   -2.3388    0.9164 C   0  0  0  0  0  0  0  0  0  0  0  0
    4.7444   -3.6247    1.4980 C   0  0  0  0  0  0  0  0  0  0  0  0
    4.6581   -3.7269    3.0048 C   0  0  0  0  0  0  0  0  0  0  0  0
    3.9475   -4.9907    3.5054 C   0  0  1  0  0  0  0  0  0  0  0  0
    2.4065   -4.9125    3.5718 C   0  0  2  0  0  0  0  0  0  0  0  0
    1.9836   -4.6996    2.2391 O   0  0  0  0  0  0  0  0  0  0  0  0
   -0.9773   -8.5791    1.9329 H   0  0  0  0  0  0  0  0  0  0  0  0
   -1.9553   -7.9882    3.2918 H   0  0  0  0  0  0  0  0  0  0  0  0
   -1.3700   -9.6499    3.2761 H   0  0  0  0  0  0  0  0  0  0  0  0
    0.3968   -9.9660    4.8259 H   0  0  0  0  0  0  0  0  0  0  0  0
    2.6432   -9.4474    5.2926 H   0  0  0  0  0  0  0  0  0  0  0  0
    0.9774   -9.2060    7.0498 H   0  0  0  0  0  0  0  0  0  0  0  0
    2.4335   -8.6950    7.5116 H   0  0  0  0  0  0  0  0  0  0  0  0
   -0.1815   -7.2203    7.0122 H   0  0  0  0  0  0  0  0  0  0  0  0
    0.4864   -7.5464    8.5372 H   0  0  0  0  0  0  0  0  0  0  0  0
    1.4641   -5.5154    8.8870 H   0  0  0  0  0  0  0  0  0  0  0  0
   -1.7154   -5.6849    8.0593 H   0  0  0  0  0  0  0  0  0  0  0  0
   -1.4166   -5.5916    6.3063 H   0  0  0  0  0  0  0  0  0  0  0  0
   -2.0609   -4.2176    7.1849 H   0  0  0  0  0  0  0  0  0  0  0  0
    1.2293   -2.8840    7.8456 H   0  0  0  0  0  0  0  0  0  0  0  0
    0.4030   -4.3649    4.1229 H   0  0  0  0  0  0  0  0  0  0  0  0
    0.6677   -5.7832    5.6280 H   0  0  0  0  0  0  0  0  0  0  0  0
    4.1793   -3.9343    6.5724 H   0  0  0  0  0  0  0  0  0  0  0  0
    3.4268   -3.6606    8.1345 H   0  0  0  0  0  0  0  0  0  0  0  0
    2.8435   -2.9673    6.6748 H   0  0  0  0  0  0  0  0  0  0  0  0
    4.5707   -5.8835    7.1391 H   0  0  0  0  0  0  0  0  0  0  0  0
    3.5302   -7.1190    7.6744 H   0  0  0  0  0  0  0  0  0  0  0  0
    3.7108   -5.7672    8.6316 H   0  0  0  0  0  0  0  0  0  0  0  0
    0.9371   -6.8890    2.3551 H   0  0  0  0  0  0  0  0  0  0  0  0
   -0.1827   -6.1422    3.4425 H   0  0  0  0  0  0  0  0  0  0  0  0
    4.4047   -8.1709    5.3435 H   0  0  0  0  0  0  0  0  0  0  0  0
    5.3998   -6.5418    3.1016 H   0  0  0  0  0  0  0  0  0  0  0  0
    4.8828   -5.4718   -1.3772 H   0  0  0  0  0  0  0  0  0  0  0  0
    5.0436   -3.2295   -2.3706 H   0  0  0  0  0  0  0  0  0  0  0  0
    4.9822   -1.2013   -0.9167 H   0  0  0  0  0  0  0  0  0  0  0  0
    4.8204   -1.4603    1.5442 H   0  0  0  0  0  0  0  0  0  0  0  0
    5.6899   -3.7604    3.3628 H   0  0  0  0  0  0  0  0  0  0  0  0
    4.2100   -2.8313    3.4374 H   0  0  0  0  0  0  0  0  0  0  0  0
    4.3064   -5.0470    4.5310 H   0  0  0  0  0  0  0  0  0  0  0  0
    2.3210   -3.8542    1.9802 H   0  0  0  0  0  0  0  0  0  0  0  0
  1  2  1  0
  1 38  1  0
  1 39  1  0
  1 40  1  0
  2 20  1  0
  2  3  2  0
  3  4  1  0
  3 41  1  0
  4 21  1  0
  4  5  1  0
  4 42  1  1
  5  6  1  0
  5 43  1  0
  5 44  1  0
  6  7  1  0
  6 45  1  0
  6 46  1  0
  7 16  1  0
  7  8  1  0
  7 47  1  1
  8  9  1  0
  8 10  2  3
  9 48  1  0
  9 49  1  0
  9 50  1  0
 10 11  1  0
 10 51  1  0
 11 12  2  0
 11 13  1  0
 13 14  1  0
 14 36  1  0
 14 15  1  0
 14 52  1  6
 15 16  1  0
 15 19  1  0
 15 53  1  1
 16 17  1  0
 16 18  1  0
 17 54  1  0
 17 55  1  0
 17 56  1  0
 18 57  1  0
 18 58  1  0
 18 59  1  0
 19 36  1  0
 19 20  1  6
 19 21  1  0
 20 60  1  0
 20 61  1  0
 21 22  1  1
 21 23  1  0
 22 62  1  0
 23 24  2  0
 23 25  1  0
 25 35  1  0
 25 26  1  0
 25 63  1  1
 26 27  2  0
 26 28  1  0
 28 33  2  0
 28 29  1  0
 29 30  2  0
 29 64  1  0
 30 31  1  0
 30 65  1  0
 31 32  2  0
 31 66  1  0
 32 33  1  0
 32 67  1  0
 33 34  1  0
 34 35  1  0
 34 68  1  0
 34 69  1  0
 35 36  1  0
 35 70  1  1
 36 37  1  6
 37 71  1  0
M  END
>  <i_m_ct_stereo_status>  (97) 
1

>  <s_m_source_file>  (97) 
/var/tmp/pbs.5076255.sched01/tmpd0mq1ayv/02wja6gfv.sdf

>  <i_m_source_file_index>  (97) 
39

>  <i_lp_mmshare_version>  (97) 
48012

>  <i_f3d_flags>  (97) 
3

>  <s_epik_input>  (97) 
Tz1DKE8xKS9bQ0hdPUMoW0NIM10pXFtDQEBIXShDMihbQ0gzXSlbQ0gzXSlbQ0gyXVtDSDJdW0NAQEhdKFtDSF09QyhbQ0gzXSlbQ0gyXTMpW0NAQF00KFtPSF0pQyg9TylbQ0BIXShbQ0BASF01W0NAXTYoW09IXSlbQ0BIXTFbQ0BIXTJbQ0BdMzQ2KUMoPU8pYzdjKFtDSDJdNSlbY0hdW2NIXVtjSF1bY0hdNw==

>  <s_epik_cmdline>  (97) 
J2VwaWtfcHl0aG9uJywgJy1waHQnLCAnMi4wJywgJy1waCcsICc3LjAnLCAnLXRuJywgJzgnLCAnLW1hJywgJzIwMCcsICctaW1hZScsICc8aW5maWxlLm1hZT4nLCAnLW9tYWUnLCAnPG91dGZpbGUubWFlPic=

>  <r_epik_Ionization_Penalty>  (97) 
0.534472

>  <r_epik_Ionization_Penalty_Charging>  (97) 
0

>  <r_epik_Ionization_Penalty_Neutral>  (97) 
0.534472

>  <r_epik_State_Penalty>  (97) 
2.30681

>  <r_epik_Charging_Adjusted_Penalty>  (97) 
2.30681

>  <i_epik_Tot_Q>  (97) 
0

>  <i_epik_Tot_abs_Q>  (97) 
0

>  <s_epik_Chemistry_Notes>  (97) 
This compound has an ester and may undergo hydrolysis at high or low pH.

>  <s_lp_Force_Field>  (97) 
OPLS3e

>  <r_lp_Energy>  (97) 
254.329

>  <b_lp_Chiralities_Consistent>  (97) 
0

>  <s_lp_Variant>  (97) 
23:0-4

>  <s_i_glide_gridfile>  (97) 
pfpi4k_grid

>  <i_i_glide_lignum>  (97) 
39

>  <i_i_glide_rotatable_bonds>  (97) 
2

>  <r_i_docking_score>  (97) 
-2.13799

>  <r_i_glide_ligand_efficiency>  (97) 
-0.0577834

>  <r_i_glide_ligand_efficiency_sa>  (97) 
-0.192547

>  <r_i_glide_ligand_efficiency_ln>  (97) 
-0.463679

>  <r_i_glide_gscore>  (97) 
-2.13799

>  <r_i_glide_lipo>  (97) 
-0.235941

>  <r_i_glide_hbond>  (97) 
0

>  <r_i_glide_metal>  (97) 
-0

>  <r_i_glide_rewards>  (97) 
-0.106111

>  <r_i_glide_evdw>  (97) 
-30.7153

>  <r_i_glide_ecoul>  (97) 
-1.63485

>  <r_i_glide_erotb>  (97) 
0

>  <r_i_glide_esite>  (97) 
-0.01494

>  <r_i_glide_emodel>  (97) 
-35.7686

>  <r_i_glide_energy>  (97) 
-32.3502

>  <r_i_glide_einternal>  (97) 
2.16943

>  <r_i_glide_intrahb_reward>  (97) 
-0

>  <i_i_glide_confnum>  (97) 
1

>  <i_i_glide_posenum>  (97) 
22

>  <r_i_glide_eff_state_penalty>  (97) 
0

>  <ligand_id>  (97) 
23

>  <original_smiles>  (97) 
CC1=CC2CCC3C(C)=CC(=O)OC4C(C3(C)C)C3(C1)C2(O)C(=O)C1C(=O)c2ccccc2CC1C43O

>  <smiles>  (97) 
[H]OC12C(=O)C3([H])C(=O)c4c([H])c([H])c([H])c([H])c4C([H])([H])C3([H])C3(O[H])C4([H])OC(=O)C([H])=C(C([H])([H])[H])C5([H])C([H])([H])C([H])([H])C1([H])C([H])=C(C([H])([H])[H])C([H])([H])C23C4([H])C5(C([H])([H])[H])C([H])([H])[H]

$$$$
23:3:1
     RDKit          3D

 71 77  0  0  1  0  0  0  0  0999 V2000
   -1.1075   -8.6247    3.0106 C   0  0  0  0  0  0  0  0  0  0  0  0
    0.1530   -8.1906    3.7345 C   0  0  0  0  0  0  0  0  0  0  0  0
    0.7847   -8.9813    4.5950 C   0  0  0  0  0  0  0  0  0  0  0  0
    2.0305   -8.5474    5.3184 C   0  0  2  0  0  0  0  0  0  0  0  0
    1.6323   -8.3486    6.8712 C   0  0  0  0  0  0  0  0  0  0  0  0
    0.7598   -7.1665    7.5491 C   0  0  0  0  0  0  0  0  0  0  0  0
    1.1868   -5.6121    7.8359 C   0  0  2  0  0  0  0  0  0  0  0  0
    0.0398   -4.5572    7.5905 C   0  0  0  0  0  0  0  0  0  0  0  0
   -1.3583   -5.0503    7.2445 C   0  0  0  0  0  0  0  0  0  0  0  0
    0.3468   -3.2567    7.3685 C   0  0  0  0  0  0  0  0  0  0  0  0
    0.1778   -2.6438    6.0115 C   0  0  0  0  0  0  0  0  0  0  0  0
   -0.7118   -1.8287    5.7672 O   0  0  0  0  0  0  0  0  0  0  0  0
    1.2319   -2.9197    5.1095 O   0  0  0  0  0  0  0  0  0  0  0  0
    1.3872   -4.2452    4.5741 C   0  0  2  0  0  0  0  0  0  0  0  0
    1.6691   -5.4058    5.4984 C   0  0  2  0  0  0  0  0  0  0  0  0
    2.4154   -5.2422    6.9335 C   0  0  0  0  0  0  0  0  0  0  0  0
    3.2198   -3.8884    7.0877 C   0  0  0  0  0  0  0  0  0  0  0  0
    3.5947   -6.0679    7.5835 C   0  0  0  0  0  0  0  0  0  0  0  0
    1.9240   -6.2465    4.2427 C   0  0  2  0  0  0  0  0  0  0  0  0
    0.6792   -6.8094    3.4086 C   0  0  0  0  0  0  0  0  0  0  0  0
    2.8547   -7.4426    4.5113 C   0  0  1  0  0  0  0  0  0  0  0  0
    4.0001   -7.3197    5.2956 O   0  0  0  0  0  0  0  0  0  0  0  0
    3.5431   -7.5969    3.1497 C   0  0  0  0  0  0  0  0  0  0  0  0
    3.4718   -8.6428    2.5042 O   0  0  0  0  0  0  0  0  0  0  0  0
    4.4026   -6.3213    2.7513 C   0  0  1  0  0  0  0  0  0  0  0  0
    4.5763   -6.1594    1.2190 C   0  0  0  0  0  0  0  0  0  0  0  0
    4.6217   -7.1451    0.4883 O   0  0  0  0  0  0  0  0  0  0  0  0
    4.7485   -4.7759    0.6767 C   0  0  0  0  0  0  0  0  0  0  0  0
    4.8835   -4.6086   -0.7189 C   0  0  0  0  0  0  0  0  0  0  0  0
    4.9790   -3.3278   -1.2942 C   0  0  0  0  0  0  0  0  0  0  0  0
    4.9480   -2.1855   -0.4751 C   0  0  0  0  0  0  0  0  0  0  0  0
    4.8434   -2.3375    0.9215 C   0  0  0  0  0  0  0  0  0  0  0  0
    4.7504   -3.6206    1.5004 C   0  0  0  0  0  0  0  0  0  0  0  0
    4.6612   -3.7246    3.0087 C   0  0  0  0  0  0  0  0  0  0  0  0
    3.9506   -4.9878    3.5069 C   0  0  1  0  0  0  0  0  0  0  0  0
    2.4092   -4.9112    3.5721 C   0  0  2  0  0  0  0  0  0  0  0  0
    1.9878   -4.6999    2.2381 O   0  0  0  0  0  0  0  0  0  0  0  0
   -0.9703   -8.5823    1.9289 H   0  0  0  0  0  0  0  0  0  0  0  0
   -1.9494   -7.9911    3.2888 H   0  0  0  0  0  0  0  0  0  0  0  0
   -1.3629   -9.6534    3.2751 H   0  0  0  0  0  0  0  0  0  0  0  0
    0.4056   -9.9687    4.8231 H   0  0  0  0  0  0  0  0  0  0  0  0
    2.6541   -9.4422    5.2885 H   0  0  0  0  0  0  0  0  0  0  0  0
    0.9813   -9.2060    7.0431 H   0  0  0  0  0  0  0  0  0  0  0  0
    2.4342   -8.6983    7.5097 H   0  0  0  0  0  0  0  0  0  0  0  0
   -0.1818   -7.2210    7.0062 H   0  0  0  0  0  0  0  0  0  0  0  0
    0.4845   -7.5488    8.5320 H   0  0  0  0  0  0  0  0  0  0  0  0
    1.4619   -5.5191    8.8858 H   0  0  0  0  0  0  0  0  0  0  0  0
   -1.7174   -5.6836    8.0554 H   0  0  0  0  0  0  0  0  0  0  0  0
   -1.4150   -5.5922    6.3007 H   0  0  0  0  0  0  0  0  0  0  0  0
   -2.0582   -4.2176    7.1780 H   0  0  0  0  0  0  0  0  0  0  0  0
    1.2295   -2.8857    7.8438 H   0  0  0  0  0  0  0  0  0  0  0  0
    0.4035   -4.3656    4.1207 H   0  0  0  0  0  0  0  0  0  0  0  0
    0.6684   -5.7831    5.6260 H   0  0  0  0  0  0  0  0  0  0  0  0
    4.1819   -3.9333    6.5779 H   0  0  0  0  0  0  0  0  0  0  0  0
    3.4220   -3.6617    8.1372 H   0  0  0  0  0  0  0  0  0  0  0  0
    2.8430   -2.9705    6.6745 H   0  0  0  0  0  0  0  0  0  0  0  0
    4.5786   -5.8852    7.1453 H   0  0  0  0  0  0  0  0  0  0  0  0
    3.5296   -7.1243    7.6998 H   0  0  0  0  0  0  0  0  0  0  0  0
    3.7071   -5.7638    8.6267 H   0  0  0  0  0  0  0  0  0  0  0  0
    0.9443   -6.8908    2.3532 H   0  0  0  0  0  0  0  0  0  0  0  0
   -0.1809   -6.1453    3.4389 H   0  0  0  0  0  0  0  0  0  0  0  0
    3.7244   -7.1617    6.1837 H   0  0  0  0  0  0  0  0  0  0  0  0
    5.4064   -6.5399    3.1072 H   0  0  0  0  0  0  0  0  0  0  0  0
    4.8953   -5.4654   -1.3747 H   0  0  0  0  0  0  0  0  0  0  0  0
    5.0570   -3.2228   -2.3652 H   0  0  0  0  0  0  0  0  0  0  0  0
    4.9905   -1.1962   -0.9106 H   0  0  0  0  0  0  0  0  0  0  0  0
    4.8240   -1.4564    1.5492 H   0  0  0  0  0  0  0  0  0  0  0  0
    5.6921   -3.7583    3.3663 H   0  0  0  0  0  0  0  0  0  0  0  0
    4.2118   -2.8281    3.4397 H   0  0  0  0  0  0  0  0  0  0  0  0
    4.3113   -5.0428    4.5329 H   0  0  0  0  0  0  0  0  0  0  0  0
    2.3089   -3.8487    1.9846 H   0  0  0  0  0  0  0  0  0  0  0  0
  1  2  1  0
  1 38  1  0
  1 39  1  0
  1 40  1  0
  2 20  1  0
  2  3  2  0
  3  4  1  0
  3 41  1  0
  4 21  1  0
  4  5  1  0
  4 42  1  1
  5  6  1  0
  5 43  1  0
  5 44  1  0
  6  7  1  0
  6 45  1  0
  6 46  1  0
  7 16  1  0
  7  8  1  0
  7 47  1  1
  8  9  1  0
  8 10  2  3
  9 48  1  0
  9 49  1  0
  9 50  1  0
 10 11  1  0
 10 51  1  0
 11 12  2  0
 11 13  1  0
 13 14  1  0
 14 36  1  0
 14 15  1  0
 14 52  1  6
 15 16  1  0
 15 19  1  0
 15 53  1  1
 16 17  1  0
 16 18  1  0
 17 54  1  0
 17 55  1  0
 17 56  1  0
 18 57  1  0
 18 58  1  0
 18 59  1  0
 19 36  1  0
 19 20  1  6
 19 21  1  0
 20 60  1  0
 20 61  1  0
 21 22  1  1
 21 23  1  0
 22 62  1  0
 23 24  2  0
 23 25  1  0
 25 35  1  0
 25 26  1  0
 25 63  1  1
 26 27  2  0
 26 28  1  0
 28 33  2  0
 28 29  1  0
 29 30  2  0
 29 64  1  0
 30 31  1  0
 30 65  1  0
 31 32  2  0
 31 66  1  0
 32 33  1  0
 32 67  1  0
 33 34  1  0
 34 35  1  0
 34 68  1  0
 34 69  1  0
 35 36  1  0
 35 70  1  1
 36 37  1  6
 37 71  1  0
M  END
>  <i_m_ct_stereo_status>  (98) 
1

>  <s_m_source_file>  (98) 
/var/tmp/pbs.5076255.sched01/tmpd0mq1ayv/02wja6gfv.sdf

>  <i_m_source_file_index>  (98) 
39

>  <i_lp_mmshare_version>  (98) 
48012

>  <i_f3d_flags>  (98) 
3

>  <s_epik_input>  (98) 
Tz1DKE8xKS9bQ0hdPUMoW0NIM10pXFtDQEBIXShDMihbQ0gzXSlbQ0gzXSlbQ0gyXVtDSDJdW0NAQEhdKFtDSF09QyhbQ0gzXSlbQ0gyXTMpW0NAQF00KFtPSF0pQyg9TylbQ0BIXShbQ0BASF01W0NAXTYoW09IXSlbQ0BIXTFbQ0BIXTJbQ0BdMzQ2KUMoPU8pYzdjKFtDSDJdNSlbY0hdW2NIXVtjSF1bY0hdNw==

>  <s_epik_cmdline>  (98) 
J2VwaWtfcHl0aG9uJywgJy1waHQnLCAnMi4wJywgJy1waCcsICc3LjAnLCAnLXRuJywgJzgnLCAnLW1hJywgJzIwMCcsICctaW1hZScsICc8aW5maWxlLm1hZT4nLCAnLW9tYWUnLCAnPG91dGZpbGUubWFlPic=

>  <r_epik_Ionization_Penalty>  (98) 
0.534472

>  <r_epik_Ionization_Penalty_Charging>  (98) 
0

>  <r_epik_Ionization_Penalty_Neutral>  (98) 
0.534472

>  <r_epik_State_Penalty>  (98) 
2.30681

>  <r_epik_Charging_Adjusted_Penalty>  (98) 
2.30681

>  <i_epik_Tot_Q>  (98) 
0

>  <i_epik_Tot_abs_Q>  (98) 
0

>  <s_epik_Chemistry_Notes>  (98) 
This compound has an ester and may undergo hydrolysis at high or low pH.

>  <s_lp_Force_Field>  (98) 
OPLS3e

>  <r_lp_Energy>  (98) 
254.329

>  <b_lp_Chiralities_Consistent>  (98) 
0

>  <s_lp_Variant>  (98) 
23:0-4

>  <s_i_glide_gridfile>  (98) 
pfpi4k_grid

>  <i_i_glide_lignum>  (98) 
39

>  <i_i_glide_rotatable_bonds>  (98) 
2

>  <r_i_docking_score>  (98) 
-2.12454

>  <r_i_glide_ligand_efficiency>  (98) 
-0.0574199

>  <r_i_glide_ligand_efficiency_sa>  (98) 
-0.191336

>  <r_i_glide_ligand_efficiency_ln>  (98) 
-0.460763

>  <r_i_glide_gscore>  (98) 
-2.12454

>  <r_i_glide_lipo>  (98) 
-0.237314

>  <r_i_glide_hbond>  (98) 
0

>  <r_i_glide_metal>  (98) 
-0

>  <r_i_glide_rewards>  (98) 
-0.105957

>  <r_i_glide_evdw>  (98) 
-30.7408

>  <r_i_glide_ecoul>  (98) 
-1.52888

>  <r_i_glide_erotb>  (98) 
0

>  <r_i_glide_esite>  (98) 
-0.014893

>  <r_i_glide_emodel>  (98) 
-36.4891

>  <r_i_glide_energy>  (98) 
-32.2697

>  <r_i_glide_einternal>  (98) 
0.568841

>  <r_i_glide_intrahb_reward>  (98) 
-0

>  <i_i_glide_confnum>  (98) 
2

>  <i_i_glide_posenum>  (98) 
33

>  <r_i_glide_eff_state_penalty>  (98) 
0

>  <ligand_id>  (98) 
23

>  <original_smiles>  (98) 
CC1=CC2CCC3C(C)=CC(=O)OC4C(C3(C)C)C3(C1)C2(O)C(=O)C1C(=O)c2ccccc2CC1C43O

>  <smiles>  (98) 
[H]OC12C(=O)C3([H])C(=O)c4c([H])c([H])c([H])c([H])c4C([H])([H])C3([H])C3(O[H])C4([H])OC(=O)C([H])=C(C([H])([H])[H])C5([H])C([H])([H])C([H])([H])C1([H])C([H])=C(C([H])([H])[H])C([H])([H])C23C4([H])C5(C([H])([H])[H])C([H])([H])[H]

$$$$
23:3:2
     RDKit          3D

 71 77  0  0  1  0  0  0  0  0999 V2000
   -2.9035    3.3486    2.8835 C   0  0  0  0  0  0  0  0  0  0  0  0
   -1.9277    2.9578    3.9723 C   0  0  0  0  0  0  0  0  0  0  0  0
   -2.3111    2.7680    5.2275 C   0  0  0  0  0  0  0  0  0  0  0  0
   -1.3572    2.3610    6.3124 C   0  0  2  0  0  0  0  0  0  0  0  0
   -1.2196    3.6265    7.3052 C   0  0  0  0  0  0  0  0  0  0  0  0
   -0.4546    5.0261    7.0477 C   0  0  0  0  0  0  0  0  0  0  0  0
    1.1535    5.3225    7.0318 C   0  0  2  0  0  0  0  0  0  0  0  0
    1.6167    6.3546    5.9340 C   0  0  0  0  0  0  0  0  0  0  0  0
    0.5604    7.0660    5.0963 C   0  0  0  0  0  0  0  0  0  0  0  0
    2.9059    6.3754    5.5185 C   0  0  0  0  0  0  0  0  0  0  0  0
    3.3022    5.8776    4.1594 C   0  0  0  0  0  0  0  0  0  0  0  0
    3.7299    6.6220    3.2817 O   0  0  0  0  0  0  0  0  0  0  0  0
    3.3991    4.4743    4.0623 O   0  0  0  0  0  0  0  0  0  0  0  0
    2.2162    3.6662    4.0824 C   0  0  2  0  0  0  0  0  0  0  0  0
    1.3552    3.6502    5.3241 C   0  0  2  0  0  0  0  0  0  0  0  0
    1.9251    3.9722    6.8137 C   0  0  0  0  0  0  0  0  0  0  0  0
    3.4980    3.8521    6.9452 C   0  0  0  0  0  0  0  0  0  0  0  0
    1.7117    3.2206    8.1887 C   0  0  0  0  0  0  0  0  0  0  0  0
    0.6001    2.4762    4.6916 C   0  0  2  0  0  0  0  0  0  0  0  0
   -0.4875    2.7636    3.5559 C   0  0  0  0  0  0  0  0  0  0  0  0
   -0.0819    1.5828    5.7438 C   0  0  1  0  0  0  0  0  0  0  0  0
    0.5499    1.2090    6.9271 O   0  0  0  0  0  0  0  0  0  0  0  0
   -0.0508    0.2188    5.0439 C   0  0  0  0  0  0  0  0  0  0  0  0
   -1.0794   -0.4292    4.8377 O   0  0  0  0  0  0  0  0  0  0  0  0
    1.4352   -0.2843    4.7755 C   0  0  1  0  0  0  0  0  0  0  0  0
    1.5425   -1.2772    3.5941 C   0  0  0  0  0  0  0  0  0  0  0  0
    0.6220   -2.0648    3.3689 O   0  0  0  0  0  0  0  0  0  0  0  0
    2.8173   -1.3180    2.8139 C   0  0  0  0  0  0  0  0  0  0  0  0
    2.9092   -2.1890    1.7005 C   0  0  0  0  0  0  0  0  0  0  0  0
    4.0712   -2.2261    0.9073 C   0  0  0  0  0  0  0  0  0  0  0  0
    5.1618   -1.3959    1.2178 C   0  0  0  0  0  0  0  0  0  0  0  0
    5.0971   -0.5476    2.3380 C   0  0  0  0  0  0  0  0  0  0  0  0
    3.9329   -0.5044    3.1383 C   0  0  0  0  0  0  0  0  0  0  0  0
    3.9184    0.4220    4.3347 C   0  0  0  0  0  0  0  0  0  0  0  0
    2.5176    0.8891    4.7498 C   0  0  1  0  0  0  0  0  0  0  0  0
    1.9586    2.1104    3.9914 C   0  0  2  0  0  0  0  0  0  0  0  0
    1.8735    1.6997    2.6402 O   0  0  0  0  0  0  0  0  0  0  0  0
   -2.8844    2.6137    2.0799 H   0  0  0  0  0  0  0  0  0  0  0  0
   -2.6495    4.3282    2.4788 H   0  0  0  0  0  0  0  0  0  0  0  0
   -3.9250    3.3833    3.2680 H   0  0  0  0  0  0  0  0  0  0  0  0
   -3.3433    2.9127    5.5151 H   0  0  0  0  0  0  0  0  0  0  0  0
   -1.9189    1.6109    6.8710 H   0  0  0  0  0  0  0  0  0  0  0  0
   -2.2510    3.9712    7.3688 H   0  0  0  0  0  0  0  0  0  0  0  0
   -1.1566    3.2934    8.3333 H   0  0  0  0  0  0  0  0  0  0  0  0
   -0.9321    5.4064    6.1501 H   0  0  0  0  0  0  0  0  0  0  0  0
   -0.8334    5.7005    7.8161 H   0  0  0  0  0  0  0  0  0  0  0  0
    1.4368    5.7590    7.9903 H   0  0  0  0  0  0  0  0  0  0  0  0
   -0.1060    7.6272    5.7509 H   0  0  0  0  0  0  0  0  0  0  0  0
   -0.0199    6.4018    4.4581 H   0  0  0  0  0  0  0  0  0  0  0  0
    1.0329    7.7991    4.4390 H   0  0  0  0  0  0  0  0  0  0  0  0
    3.6460    6.0983    6.2393 H   0  0  0  0  0  0  0  0  0  0  0  0
    1.6697    4.1204    3.2541 H   0  0  0  0  0  0  0  0  0  0  0  0
    0.6120    4.3727    5.0323 H   0  0  0  0  0  0  0  0  0  0  0  0
    3.8149    2.8140    7.0374 H   0  0  0  0  0  0  0  0  0  0  0  0
    3.8690    4.3823    7.8258 H   0  0  0  0  0  0  0  0  0  0  0  0
    4.1483    4.1651    6.1484 H   0  0  0  0  0  0  0  0  0  0  0  0
    2.2502    2.2761    8.2844 H   0  0  0  0  0  0  0  0  0  0  0  0
    0.7370    3.0311    8.5687 H   0  0  0  0  0  0  0  0  0  0  0  0
    2.1147    3.8387    8.9950 H   0  0  0  0  0  0  0  0  0  0  0  0
   -0.5424    1.9221    2.8625 H   0  0  0  0  0  0  0  0  0  0  0  0
   -0.2368    3.6236    2.9361 H   0  0  0  0  0  0  0  0  0  0  0  0
    0.7443    1.9961    7.4141 H   0  0  0  0  0  0  0  0  0  0  0  0
    1.6804   -0.8962    5.6396 H   0  0  0  0  0  0  0  0  0  0  0  0
    2.0810   -2.8280    1.4377 H   0  0  0  0  0  0  0  0  0  0  0  0
    4.1197   -2.8839    0.0526 H   0  0  0  0  0  0  0  0  0  0  0  0
    6.0476   -1.3986    0.5975 H   0  0  0  0  0  0  0  0  0  0  0  0
    5.9356    0.0875    2.5788 H   0  0  0  0  0  0  0  0  0  0  0  0
    4.3353   -0.1515    5.1638 H   0  0  0  0  0  0  0  0  0  0  0  0
    4.5795    1.2765    4.1838 H   0  0  0  0  0  0  0  0  0  0  0  0
    2.6904    1.2044    5.7766 H   0  0  0  0  0  0  0  0  0  0  0  0
    1.4442    2.3957    2.1567 H   0  0  0  0  0  0  0  0  0  0  0  0
  1  2  1  0
  1 38  1  0
  1 39  1  0
  1 40  1  0
  2 20  1  0
  2  3  2  0
  3  4  1  0
  3 41  1  0
  4 21  1  0
  4  5  1  0
  4 42  1  1
  5  6  1  0
  5 43  1  0
  5 44  1  0
  6  7  1  0
  6 45  1  0
  6 46  1  0
  7 16  1  0
  7  8  1  0
  7 47  1  1
  8  9  1  0
  8 10  2  3
  9 48  1  0
  9 49  1  0
  9 50  1  0
 10 11  1  0
 10 51  1  0
 11 12  2  0
 11 13  1  0
 13 14  1  0
 14 36  1  0
 14 15  1  0
 14 52  1  6
 15 16  1  0
 15 19  1  0
 15 53  1  6
 16 17  1  0
 16 18  1  0
 17 54  1  0
 17 55  1  0
 17 56  1  0
 18 57  1  0
 18 58  1  0
 18 59  1  0
 19 36  1  0
 19 20  1  6
 19 21  1  0
 20 60  1  0
 20 61  1  0
 21 22  1  1
 21 23  1  0
 22 62  1  0
 23 24  2  0
 23 25  1  0
 25 35  1  0
 25 26  1  0
 25 63  1  1
 26 27  2  0
 26 28  1  0
 28 33  2  0
 28 29  1  0
 29 30  2  0
 29 64  1  0
 30 31  1  0
 30 65  1  0
 31 32  2  0
 31 66  1  0
 32 33  1  0
 32 67  1  0
 33 34  1  0
 34 35  1  0
 34 68  1  0
 34 69  1  0
 35 36  1  0
 35 70  1  1
 36 37  1  6
 37 71  1  0
M  END
>  <i_m_ct_stereo_status>  (99) 
1

>  <s_m_source_file>  (99) 
/var/tmp/pbs.5076255.sched01/tmpd0mq1ayv/02wja6gfv.sdf

>  <i_m_source_file_index>  (99) 
39

>  <i_lp_mmshare_version>  (99) 
48012

>  <i_f3d_flags>  (99) 
3

>  <s_epik_input>  (99) 
Tz1DKE8xKS9bQ0hdPUMoW0NIM10pXFtDQEBIXShDMihbQ0gzXSlbQ0gzXSlbQ0gyXVtDSDJdW0NAQEhdKFtDSF09QyhbQ0gzXSlbQ0gyXTMpW0NAQF00KFtPSF0pQyg9TylbQ0BIXShbQ0BASF01W0NAXTYoW09IXSlbQ0BIXTFbQ0BIXTJbQ0BdMzQ2KUMoPU8pYzdjKFtDSDJdNSlbY0hdW2NIXVtjSF1bY0hdNw==

>  <s_epik_cmdline>  (99) 
J2VwaWtfcHl0aG9uJywgJy1waHQnLCAnMi4wJywgJy1waCcsICc3LjAnLCAnLXRuJywgJzgnLCAnLW1hJywgJzIwMCcsICctaW1hZScsICc8aW5maWxlLm1hZT4nLCAnLW9tYWUnLCAnPG91dGZpbGUubWFlPic=

>  <r_epik_Ionization_Penalty>  (99) 
0.534472

>  <r_epik_Ionization_Penalty_Charging>  (99) 
0

>  <r_epik_Ionization_Penalty_Neutral>  (99) 
0.534472

>  <r_epik_State_Penalty>  (99) 
2.30681

>  <r_epik_Charging_Adjusted_Penalty>  (99) 
2.30681

>  <i_epik_Tot_Q>  (99) 
0

>  <i_epik_Tot_abs_Q>  (99) 
0

>  <s_epik_Chemistry_Notes>  (99) 
This compound has an ester and may undergo hydrolysis at high or low pH.

>  <s_lp_Force_Field>  (99) 
OPLS3e

>  <r_lp_Energy>  (99) 
254.329

>  <b_lp_Chiralities_Consistent>  (99) 
0

>  <s_lp_Variant>  (99) 
23:0-4

>  <s_i_glide_gridfile>  (99) 
pfpi4k_grid

>  <i_i_glide_lignum>  (99) 
39

>  <i_i_glide_rotatable_bonds>  (99) 
2

>  <r_i_docking_score>  (99) 
-1.67777

>  <r_i_glide_ligand_efficiency>  (99) 
-0.045345

>  <r_i_glide_ligand_efficiency_sa>  (99) 
-0.1511

>  <r_i_glide_ligand_efficiency_ln>  (99) 
-0.363868

>  <r_i_glide_gscore>  (99) 
-1.67777

>  <r_i_glide_lipo>  (99) 
-0.278935

>  <r_i_glide_hbond>  (99) 
0

>  <r_i_glide_metal>  (99) 
-0

>  <r_i_glide_rewards>  (99) 
-0.0165402

>  <r_i_glide_evdw>  (99) 
-34.0899

>  <r_i_glide_ecoul>  (99) 
2.25782

>  <r_i_glide_erotb>  (99) 
0

>  <r_i_glide_esite>  (99) 
-0.0164713

>  <r_i_glide_emodel>  (99) 
-35.2362

>  <r_i_glide_energy>  (99) 
-31.832

>  <r_i_glide_einternal>  (99) 
0.0149658

>  <r_i_glide_intrahb_reward>  (99) 
-0

>  <i_i_glide_confnum>  (99) 
2

>  <i_i_glide_posenum>  (99) 
8

>  <r_i_glide_eff_state_penalty>  (99) 
0

>  <ligand_id>  (99) 
23

>  <original_smiles>  (99) 
CC1=CC2CCC3C(C)=CC(=O)OC4C(C3(C)C)C3(C1)C2(O)C(=O)C1C(=O)c2ccccc2CC1C43O

>  <smiles>  (99) 
[H]OC12C(=O)C3([H])C(=O)c4c([H])c([H])c([H])c([H])c4C([H])([H])C3([H])C3(O[H])C4([H])OC(=O)C([H])=C(C([H])([H])[H])C5([H])C([H])([H])C([H])([H])C1([H])C([H])=C(C([H])([H])[H])C([H])([H])C23C4([H])C5(C([H])([H])[H])C([H])([H])[H]

$$$$
23:4:0
     RDKit          3D

 71 77  0  0  1  0  0  0  0  0999 V2000
    6.7600  -12.0970    3.8758 C   0  0  0  0  0  0  0  0  0  0  0  0
    6.0374  -10.7755    4.0546 C   0  0  0  0  0  0  0  0  0  0  0  0
    5.9131  -10.1886    5.2544 C   0  0  0  0  0  0  0  0  0  0  0  0
    5.2419   -8.8494    5.4797 C   0  0  2  0  0  0  0  0  0  0  0  0
    4.2006   -8.8930    6.6254 C   0  0  0  0  0  0  0  0  0  0  0  0
    3.0244   -9.8742    6.5425 C   0  0  0  0  0  0  0  0  0  0  0  0
    1.8699   -9.6823    5.4989 C   0  0  1  0  0  0  0  0  0  0  0  0
    1.0582   -8.3511    5.6467 C   0  0  0  0  0  0  0  0  0  0  0  0
    0.7855   -7.9668    7.0954 C   0  0  0  0  0  0  0  0  0  0  0  0
    0.4751   -7.5552    4.7048 C   0  0  0  0  0  0  0  0  0  0  0  0
    0.5765   -7.6576    3.2458 C   0  0  0  0  0  0  0  0  0  0  0  0
   -0.3849   -7.7927    2.4874 O   0  0  0  0  0  0  0  0  0  0  0  0
    1.8339   -7.5910    2.8536 O   0  0  0  0  0  0  0  0  0  0  0  0
    2.3876   -8.6275    2.0814 C   0  0  2  0  0  0  0  0  0  0  0  0
    2.8706   -9.7709    2.9755 C   0  0  2  0  0  0  0  0  0  0  0  0
    2.0325  -10.4458    4.1160 C   0  0  0  0  0  0  0  0  0  0  0  0
    2.6673  -11.8388    4.3773 C   0  0  0  0  0  0  0  0  0  0  0  0
    0.6186  -10.8278    3.5851 C   0  0  0  0  0  0  0  0  0  0  0  0
    4.3055   -9.1271    3.0218 C   0  0  2  0  0  0  0  0  0  0  0  0
    5.4625  -10.1500    2.7958 C   0  0  0  0  0  0  0  0  0  0  0  0
    4.8132   -8.1390    4.1437 C   0  0  1  0  0  0  0  0  0  0  0  0
    3.8528   -7.1977    4.5633 O   0  0  0  0  0  0  0  0  0  0  0  0
    5.8908   -7.2626    3.4647 C   0  0  0  0  0  0  0  0  0  0  0  0
    7.0187   -7.1336    4.1826 O   0  0  0  0  0  0  0  0  0  0  0  0
    5.6818   -6.6652    2.2617 C   0  0  0  0  0  0  0  0  0  0  0  0
    6.6564   -5.7025    1.6779 C   0  0  0  0  0  0  0  0  0  0  0  0
    7.8464   -5.7081    1.9965 O   0  0  0  0  0  0  0  0  0  0  0  0
    6.1126   -4.6777    0.7418 C   0  0  0  0  0  0  0  0  0  0  0  0
    6.7778   -3.4412    0.5752 C   0  0  0  0  0  0  0  0  0  0  0  0
    6.2217   -2.4341   -0.2384 C   0  0  0  0  0  0  0  0  0  0  0  0
    4.9966   -2.6529   -0.8929 C   0  0  0  0  0  0  0  0  0  0  0  0
    4.3403   -3.8904   -0.7528 C   0  0  0  0  0  0  0  0  0  0  0  0
    4.9012   -4.9049    0.0547 C   0  0  0  0  0  0  0  0  0  0  0  0
    4.2414   -6.2653    0.1359 C   0  0  0  0  0  0  0  0  0  0  0  0
    4.3478   -6.8891    1.5468 C   0  0  1  0  0  0  0  0  0  0  0  0
    3.8669   -8.3707    1.7043 C   0  0  2  0  0  0  0  0  0  0  0  0
    4.2453   -9.0409    0.5126 O   0  0  0  0  0  0  0  0  0  0  0  0
    7.5680  -11.9998    3.1505 H   0  0  0  0  0  0  0  0  0  0  0  0
    6.0700  -12.8662    3.5262 H   0  0  0  0  0  0  0  0  0  0  0  0
    7.1872  -12.4344    4.8196 H   0  0  0  0  0  0  0  0  0  0  0  0
    6.3252  -10.6640    6.1328 H   0  0  0  0  0  0  0  0  0  0  0  0
    6.0193   -8.2531    5.9494 H   0  0  0  0  0  0  0  0  0  0  0  0
    4.7569   -9.1814    7.5183 H   0  0  0  0  0  0  0  0  0  0  0  0
    3.8468   -7.8922    6.8746 H   0  0  0  0  0  0  0  0  0  0  0  0
    3.4302  -10.8796    6.5346 H   0  0  0  0  0  0  0  0  0  0  0  0
    2.5636   -9.8543    7.5279 H   0  0  0  0  0  0  0  0  0  0  0  0
    1.1307  -10.3352    5.9658 H   0  0  0  0  0  0  0  0  0  0  0  0
    0.3799   -8.8139    7.6487 H   0  0  0  0  0  0  0  0  0  0  0  0
    0.0648   -7.1532    7.1779 H   0  0  0  0  0  0  0  0  0  0  0  0
    1.6940   -7.6304    7.5947 H   0  0  0  0  0  0  0  0  0  0  0  0
   -0.1246   -6.7229    5.0476 H   0  0  0  0  0  0  0  0  0  0  0  0
    1.7609   -8.9497    1.2460 H   0  0  0  0  0  0  0  0  0  0  0  0
    2.9660  -10.5677    2.2390 H   0  0  0  0  0  0  0  0  0  0  0  0
    2.6053  -12.4753    3.4963 H   0  0  0  0  0  0  0  0  0  0  0  0
    2.1693  -12.3653    5.1926 H   0  0  0  0  0  0  0  0  0  0  0  0
    3.7200  -11.7929    4.6275 H   0  0  0  0  0  0  0  0  0  0  0  0
    0.5973  -10.9207    2.5004 H   0  0  0  0  0  0  0  0  0  0  0  0
   -0.1633  -10.1269    3.8686 H   0  0  0  0  0  0  0  0  0  0  0  0
    0.2688  -11.7804    3.9857 H   0  0  0  0  0  0  0  0  0  0  0  0
    6.2909   -9.6774    2.2663 H   0  0  0  0  0  0  0  0  0  0  0  0
    5.1373  -10.9667    2.1468 H   0  0  0  0  0  0  0  0  0  0  0  0
    3.4235   -6.8604    3.7917 H   0  0  0  0  0  0  0  0  0  0  0  0
    7.7082   -3.2479    1.0875 H   0  0  0  0  0  0  0  0  0  0  0  0
    6.7237   -1.4830   -0.3376 H   0  0  0  0  0  0  0  0  0  0  0  0
    4.5548   -1.8799   -1.5066 H   0  0  0  0  0  0  0  0  0  0  0  0
    3.4071   -4.0655   -1.2708 H   0  0  0  0  0  0  0  0  0  0  0  0
    3.1979   -6.2223   -0.1808 H   0  0  0  0  0  0  0  0  0  0  0  0
    4.7617   -6.8845   -0.5992 H   0  0  0  0  0  0  0  0  0  0  0  0
    3.6868   -6.2466    2.1217 H   0  0  0  0  0  0  0  0  0  0  0  0
    4.1202   -9.9792    0.6490 H   0  0  0  0  0  0  0  0  0  0  0  0
    7.6102   -6.5864    3.6772 H   0  0  0  0  0  0  0  0  0  0  0  0
  1  2  1  0
  1 38  1  0
  1 39  1  0
  1 40  1  0
  2 20  1  0
  2  3  2  0
  3  4  1  0
  3 41  1  0
  4 21  1  0
  4  5  1  0
  4 42  1  1
  5  6  1  0
  5 43  1  0
  5 44  1  0
  6  7  1  0
  6 45  1  0
  6 46  1  0
  7 16  1  0
  7  8  1  0
  7 47  1  1
  8  9  1  0
  8 10  2  3
  9 48  1  0
  9 49  1  0
  9 50  1  0
 10 11  1  0
 10 51  1  0
 11 12  2  0
 11 13  1  0
 13 14  1  0
 14 36  1  0
 14 15  1  0
 14 52  1  6
 15 16  1  0
 15 19  1  0
 15 53  1  6
 16 17  1  0
 16 18  1  0
 17 54  1  0
 17 55  1  0
 17 56  1  0
 18 57  1  0
 18 58  1  0
 18 59  1  0
 19 36  1  0
 19 20  1  6
 19 21  1  0
 20 60  1  0
 20 61  1  0
 21 22  1  1
 21 23  1  0
 22 62  1  0
 23 24  1  0
 23 25  2  0
 24 71  1  0
 25 35  1  0
 25 26  1  0
 26 27  2  0
 26 28  1  0
 28 33  2  0
 28 29  1  0
 29 30  2  0
 29 63  1  0
 30 31  1  0
 30 64  1  0
 31 32  2  0
 31 65  1  0
 32 33  1  0
 32 66  1  0
 33 34  1  0
 34 35  1  0
 34 67  1  0
 34 68  1  0
 35 36  1  0
 35 69  1  1
 36 37  1  6
 37 70  1  0
M  END
>  <i_m_ct_stereo_status>  (100) 
1

>  <s_m_source_file>  (100) 
/var/tmp/pbs.5076255.sched01/tmpd0mq1ayv/02wja6gfv.sdf

>  <i_m_source_file_index>  (100) 
40

>  <i_lp_mmshare_version>  (100) 
48012

>  <i_f3d_flags>  (100) 
1

>  <s_epik_input>  (100) 
Tz1DKE8xKS9bQ0hdPUMoW0NIM10pXFtDQEBIXShDMihbQ0gzXSlbQ0gzXSlbQ0gyXVtDSDJdW0NAQEhdKFtDSF09QyhbQ0gzXSlbQ0gyXTMpW0NAQF00KFtPSF0pQyg9TylbQ0BIXShbQ0BASF01W0NAXTYoW09IXSlbQ0BIXTFbQ0BIXTJbQ0BdMzQ2KUMoPU8pYzdjKFtDSDJdNSlbY0hdW2NIXVtjSF1bY0hdNw==

>  <s_epik_cmdline>  (100) 
J2VwaWtfcHl0aG9uJywgJy1waHQnLCAnMi4wJywgJy1waCcsICc3LjAnLCAnLXRuJywgJzgnLCAnLW1hJywgJzIwMCcsICctaW1hZScsICc8aW5maWxlLm1hZT4nLCAnLW9tYWUnLCAnPG91dGZpbGUubWFlPic=

>  <r_epik_Ionization_Penalty>  (100) 
2.39936

>  <r_epik_Ionization_Penalty_Charging>  (100) 
0

>  <r_epik_Ionization_Penalty_Neutral>  (100) 
2.39936

>  <r_epik_State_Penalty>  (100) 
2.56935

>  <r_epik_Charging_Adjusted_Penalty>  (100) 
2.56935

>  <i_epik_Tot_Q>  (100) 
0

>  <i_epik_Tot_abs_Q>  (100) 
0

>  <s_epik_Chemistry_Notes>  (100) 
This compound has an ester and may undergo hydrolysis at high or low pH.

>  <s_lp_Force_Field>  (100) 
OPLS3e

>  <r_lp_Energy>  (100) 
120.216

>  <b_lp_Chiralities_Consistent>  (100) 
1

>  <s_lp_Variant>  (100) 
23:0-5

>  <s_i_glide_gridfile>  (100) 
pfpi4k_grid

>  <i_i_glide_lignum>  (100) 
40

>  <i_i_glide_rotatable_bonds>  (100) 
3

>  <r_i_docking_score>  (100) 
-3.96204

>  <r_i_glide_ligand_efficiency>  (100) 
-0.107082

>  <r_i_glide_ligand_efficiency_sa>  (100) 
-0.356822

>  <r_i_glide_ligand_efficiency_ln>  (100) 
-0.859275

>  <r_i_glide_gscore>  (100) 
-3.96204

>  <r_i_glide_lipo>  (100) 
-0.410612

>  <r_i_glide_hbond>  (100) 
-0.116883

>  <r_i_glide_metal>  (100) 
-0

>  <r_i_glide_rewards>  (100) 
-1.10073

>  <r_i_glide_evdw>  (100) 
-36.2471

>  <r_i_glide_ecoul>  (100) 
-3.27474

>  <r_i_glide_erotb>  (100) 
0

>  <r_i_glide_esite>  (100) 
-0.0302478

>  <r_i_glide_emodel>  (100) 
-59.8303

>  <r_i_glide_energy>  (100) 
-39.5219

>  <r_i_glide_einternal>  (100) 
0.137943

>  <r_i_glide_intrahb_reward>  (100) 
-1

>  <i_i_glide_confnum>  (100) 
1

>  <i_i_glide_posenum>  (100) 
23

>  <r_i_glide_eff_state_penalty>  (100) 
0

>  <ligand_id>  (100) 
23

>  <original_smiles>  (100) 
CC1=CC2CCC3C(C)=CC(=O)OC4C(C3(C)C)C3(C1)C2(O)C(=O)C1C(=O)c2ccccc2CC1C43O

>  <smiles>  (100) 
[H]OC1=C2C(=O)c3c([H])c([H])c([H])c([H])c3C([H])([H])C2([H])C2(O[H])C3([H])OC(=O)C([H])=C(C([H])([H])[H])C4([H])C([H])([H])C([H])([H])C5([H])C([H])=C(C([H])([H])[H])C([H])([H])C2(C15O[H])C3([H])C4(C([H])([H])[H])C([H])([H])[H]

$$$$
23:4:1
     RDKit          3D

 71 77  0  0  1  0  0  0  0  0999 V2000
    7.1280  -12.0676    3.6767 C   0  0  0  0  0  0  0  0  0  0  0  0
    6.3660  -10.7802    3.9205 C   0  0  0  0  0  0  0  0  0  0  0  0
    6.2774  -10.2255    5.1404 C   0  0  0  0  0  0  0  0  0  0  0  0
    5.5669   -8.9201    5.4291 C   0  0  2  0  0  0  0  0  0  0  0  0
    4.5867   -9.0305    6.6279 C   0  0  0  0  0  0  0  0  0  0  0  0
    3.4471  -10.0559    6.5718 C   0  0  0  0  0  0  0  0  0  0  0  0
    2.2377   -9.8830    5.5895 C   0  0  1  0  0  0  0  0  0  0  0  0
    1.3805   -8.5886    5.8084 C   0  0  0  0  0  0  0  0  0  0  0  0
    1.1645   -8.2518    7.2794 C   0  0  0  0  0  0  0  0  0  0  0  0
    0.7196   -7.8002    4.9175 C   0  0  0  0  0  0  0  0  0  0  0  0
    0.7467   -7.8723    3.4531 C   0  0  0  0  0  0  0  0  0  0  0  0
   -0.2423   -8.0418    2.7408 O   0  0  0  0  0  0  0  0  0  0  0  0
    1.9769   -7.7496    3.0038 O   0  0  0  0  0  0  0  0  0  0  0  0
    2.5369   -8.7384    2.1784 C   0  0  2  0  0  0  0  0  0  0  0  0
    3.1109   -9.8807    3.0209 C   0  0  2  0  0  0  0  0  0  0  0  0
    2.3570  -10.6128    4.1831 C   0  0  0  0  0  0  0  0  0  0  0  0
    3.0578  -11.9845    4.3828 C   0  0  0  0  0  0  0  0  0  0  0  0
    0.9316  -11.0390    3.7150 C   0  0  0  0  0  0  0  0  0  0  0  0
    4.5218   -9.1815    3.0124 C   0  0  2  0  0  0  0  0  0  0  0  0
    5.7068  -10.1500    2.7060 C   0  0  0  0  0  0  0  0  0  0  0  0
    5.0464   -8.1975    4.1318 C   0  0  1  0  0  0  0  0  0  0  0  0
    4.0604   -7.3148    4.6124 O   0  0  0  0  0  0  0  0  0  0  0  0
    6.0537   -7.2585    3.4270 C   0  0  0  0  0  0  0  0  0  0  0  0
    7.2078   -7.0994    4.0930 O   0  0  0  0  0  0  0  0  0  0  0  0
    5.7604   -6.6436    2.2527 C   0  0  0  0  0  0  0  0  0  0  0  0
    6.6650   -5.6298    1.6431 C   0  0  0  0  0  0  0  0  0  0  0  0
    7.8697   -5.5953    1.8984 O   0  0  0  0  0  0  0  0  0  0  0  0
    6.0406   -4.6074    0.7558 C   0  0  0  0  0  0  0  0  0  0  0  0
    6.6447   -3.3420    0.5859 C   0  0  0  0  0  0  0  0  0  0  0  0
    6.0094   -2.3406   -0.1767 C   0  0  0  0  0  0  0  0  0  0  0  0
    4.7616   -2.5947   -0.7743 C   0  0  0  0  0  0  0  0  0  0  0  0
    4.1647   -3.8635   -0.6356 C   0  0  0  0  0  0  0  0  0  0  0  0
    4.8052   -4.8702    0.1188 C   0  0  0  0  0  0  0  0  0  0  0  0
    4.2087   -6.2600    0.2041 C   0  0  0  0  0  0  0  0  0  0  0  0
    4.4041   -6.9090    1.5955 C   0  0  1  0  0  0  0  0  0  0  0  0
    3.9878   -8.4117    1.7399 C   0  0  2  0  0  0  0  0  0  0  0  0
    4.3315   -9.0384    0.5140 O   0  0  0  0  0  0  0  0  0  0  0  0
    7.8957  -11.9228    2.9158 H   0  0  0  0  0  0  0  0  0  0  0  0
    6.4531  -12.8594    3.3451 H   0  0  0  0  0  0  0  0  0  0  0  0
    7.6172  -12.4080    4.5907 H   0  0  0  0  0  0  0  0  0  0  0  0
    6.7527  -10.7056    5.9828 H   0  0  0  0  0  0  0  0  0  0  0  0
    6.3439   -8.3043    5.8770 H   0  0  0  0  0  0  0  0  0  0  0  0
    5.1989   -9.3194    7.4839 H   0  0  0  0  0  0  0  0  0  0  0  0
    4.2104   -8.0530    6.9237 H   0  0  0  0  0  0  0  0  0  0  0  0
    3.8920  -11.0446    6.5187 H   0  0  0  0  0  0  0  0  0  0  0  0
    3.0326  -10.0806    7.5797 H   0  0  0  0  0  0  0  0  0  0  0  0
    1.5472  -10.5738    6.0754 H   0  0  0  0  0  0  0  0  0  0  0  0
    0.8209   -9.1281    7.8290 H   0  0  0  0  0  0  0  0  0  0  0  0
    0.4133   -7.4723    7.4170 H   0  0  0  0  0  0  0  0  0  0  0  0
    2.0803   -7.8898    7.7451 H   0  0  0  0  0  0  0  0  0  0  0  0
    0.1045   -6.9987    5.3050 H   0  0  0  0  0  0  0  0  0  0  0  0
    1.8849   -9.0579    1.3611 H   0  0  0  0  0  0  0  0  0  0  0  0
    3.2000  -10.6588    2.2595 H   0  0  0  0  0  0  0  0  0  0  0  0
    2.9716  -12.6134    3.4963 H   0  0  0  0  0  0  0  0  0  0  0  0
    2.6198  -12.5462    5.2091 H   0  0  0  0  0  0  0  0  0  0  0  0
    4.1188  -11.9047    4.5783 H   0  0  0  0  0  0  0  0  0  0  0  0
    0.8603  -11.1036    2.6293 H   0  0  0  0  0  0  0  0  0  0  0  0
    0.1405  -10.3770    4.0541 H   0  0  0  0  0  0  0  0  0  0  0  0
    0.6408  -12.0160    4.1038 H   0  0  0  0  0  0  0  0  0  0  0  0
    6.4901   -9.6319    2.1490 H   0  0  0  0  0  0  0  0  0  0  0  0
    5.3853  -10.9643    2.0537 H   0  0  0  0  0  0  0  0  0  0  0  0
    3.3501   -7.8464    4.9390 H   0  0  0  0  0  0  0  0  0  0  0  0
    7.5888   -3.1222    1.0579 H   0  0  0  0  0  0  0  0  0  0  0  0
    6.4654   -1.3689   -0.2825 H   0  0  0  0  0  0  0  0  0  0  0  0
    4.2604   -1.8259   -1.3456 H   0  0  0  0  0  0  0  0  0  0  0  0
    3.2138   -4.0631   -1.1119 H   0  0  0  0  0  0  0  0  0  0  0  0
    3.1504   -6.2466   -0.0605 H   0  0  0  0  0  0  0  0  0  0  0  0
    4.7135   -6.8401   -0.5700 H   0  0  0  0  0  0  0  0  0  0  0  0
    3.7458   -6.3119    2.2243 H   0  0  0  0  0  0  0  0  0  0  0  0
    4.2082   -9.9793    0.6180 H   0  0  0  0  0  0  0  0  0  0  0  0
    7.7490   -6.5180    3.5758 H   0  0  0  0  0  0  0  0  0  0  0  0
  1  2  1  0
  1 38  1  0
  1 39  1  0
  1 40  1  0
  2 20  1  0
  2  3  2  0
  3  4  1  0
  3 41  1  0
  4 21  1  0
  4  5  1  0
  4 42  1  1
  5  6  1  0
  5 43  1  0
  5 44  1  0
  6  7  1  0
  6 45  1  0
  6 46  1  0
  7 16  1  0
  7  8  1  0
  7 47  1  1
  8  9  1  0
  8 10  2  3
  9 48  1  0
  9 49  1  0
  9 50  1  0
 10 11  1  0
 10 51  1  0
 11 12  2  0
 11 13  1  0
 13 14  1  0
 14 36  1  0
 14 15  1  0
 14 52  1  6
 15 16  1  0
 15 19  1  0
 15 53  1  6
 16 17  1  0
 16 18  1  0
 17 54  1  0
 17 55  1  0
 17 56  1  0
 18 57  1  0
 18 58  1  0
 18 59  1  0
 19 36  1  0
 19 20  1  6
 19 21  1  0
 20 60  1  0
 20 61  1  0
 21 22  1  1
 21 23  1  0
 22 62  1  0
 23 24  1  0
 23 25  2  0
 24 71  1  0
 25 35  1  0
 25 26  1  0
 26 27  2  0
 26 28  1  0
 28 33  2  0
 28 29  1  0
 29 30  2  0
 29 63  1  0
 30 31  1  0
 30 64  1  0
 31 32  2  0
 31 65  1  0
 32 33  1  0
 32 66  1  0
 33 34  1  0
 34 35  1  0
 34 67  1  0
 34 68  1  0
 35 36  1  0
 35 69  1  1
 36 37  1  6
 37 70  1  0
M  END
>  <i_m_ct_stereo_status>  (101) 
1

>  <s_m_source_file>  (101) 
/var/tmp/pbs.5076255.sched01/tmpd0mq1ayv/02wja6gfv.sdf

>  <i_m_source_file_index>  (101) 
40

>  <i_lp_mmshare_version>  (101) 
48012

>  <i_f3d_flags>  (101) 
1

>  <s_epik_input>  (101) 
Tz1DKE8xKS9bQ0hdPUMoW0NIM10pXFtDQEBIXShDMihbQ0gzXSlbQ0gzXSlbQ0gyXVtDSDJdW0NAQEhdKFtDSF09QyhbQ0gzXSlbQ0gyXTMpW0NAQF00KFtPSF0pQyg9TylbQ0BIXShbQ0BASF01W0NAXTYoW09IXSlbQ0BIXTFbQ0BIXTJbQ0BdMzQ2KUMoPU8pYzdjKFtDSDJdNSlbY0hdW2NIXVtjSF1bY0hdNw==

>  <s_epik_cmdline>  (101) 
J2VwaWtfcHl0aG9uJywgJy1waHQnLCAnMi4wJywgJy1waCcsICc3LjAnLCAnLXRuJywgJzgnLCAnLW1hJywgJzIwMCcsICctaW1hZScsICc8aW5maWxlLm1hZT4nLCAnLW9tYWUnLCAnPG91dGZpbGUubWFlPic=

>  <r_epik_Ionization_Penalty>  (101) 
2.39936

>  <r_epik_Ionization_Penalty_Charging>  (101) 
0

>  <r_epik_Ionization_Penalty_Neutral>  (101) 
2.39936

>  <r_epik_State_Penalty>  (101) 
2.56935

>  <r_epik_Charging_Adjusted_Penalty>  (101) 
2.56935

>  <i_epik_Tot_Q>  (101) 
0

>  <i_epik_Tot_abs_Q>  (101) 
0

>  <s_epik_Chemistry_Notes>  (101) 
This compound has an ester and may undergo hydrolysis at high or low pH.

>  <s_lp_Force_Field>  (101) 
OPLS3e

>  <r_lp_Energy>  (101) 
120.216

>  <b_lp_Chiralities_Consistent>  (101) 
1

>  <s_lp_Variant>  (101) 
23:0-5

>  <s_i_glide_gridfile>  (101) 
pfpi4k_grid

>  <i_i_glide_lignum>  (101) 
40

>  <i_i_glide_rotatable_bonds>  (101) 
3

>  <r_i_docking_score>  (101) 
-3.5502

>  <r_i_glide_ligand_efficiency>  (101) 
-0.0959514

>  <r_i_glide_ligand_efficiency_sa>  (101) 
-0.319731

>  <r_i_glide_ligand_efficiency_ln>  (101) 
-0.769956

>  <r_i_glide_gscore>  (101) 
-3.5502

>  <r_i_glide_lipo>  (101) 
-0.520289

>  <r_i_glide_hbond>  (101) 
-0.117727

>  <r_i_glide_metal>  (101) 
-0

>  <r_i_glide_rewards>  (101) 
-0.603992

>  <r_i_glide_evdw>  (101) 
-35.9977

>  <r_i_glide_ecoul>  (101) 
-3.23445

>  <r_i_glide_erotb>  (101) 
0

>  <r_i_glide_esite>  (101) 
-0.0231443

>  <r_i_glide_emodel>  (101) 
-53.4341

>  <r_i_glide_energy>  (101) 
-39.2321

>  <r_i_glide_einternal>  (101) 
0.174339

>  <r_i_glide_intrahb_reward>  (101) 
-0.5

>  <i_i_glide_confnum>  (101) 
2

>  <i_i_glide_posenum>  (101) 
5

>  <r_i_glide_eff_state_penalty>  (101) 
0

>  <ligand_id>  (101) 
23

>  <original_smiles>  (101) 
CC1=CC2CCC3C(C)=CC(=O)OC4C(C3(C)C)C3(C1)C2(O)C(=O)C1C(=O)c2ccccc2CC1C43O

>  <smiles>  (101) 
[H]OC1=C2C(=O)c3c([H])c([H])c([H])c([H])c3C([H])([H])C2([H])C2(O[H])C3([H])OC(=O)C([H])=C(C([H])([H])[H])C4([H])C([H])([H])C([H])([H])C5([H])C([H])=C(C([H])([H])[H])C([H])([H])C2(C15O[H])C3([H])C4(C([H])([H])[H])C([H])([H])[H]

$$$$
23:4:2
     RDKit          3D

 71 77  0  0  1  0  0  0  0  0999 V2000
    7.1249  -12.0750    3.6818 C   0  0  0  0  0  0  0  0  0  0  0  0
    6.3622  -10.7866    3.9255 C   0  0  0  0  0  0  0  0  0  0  0  0
    6.2695  -10.2331    5.1450 C   0  0  0  0  0  0  0  0  0  0  0  0
    5.5566   -8.9290    5.4333 C   0  0  2  0  0  0  0  0  0  0  0  0
    4.5732   -9.0426    6.6285 C   0  0  0  0  0  0  0  0  0  0  0  0
    3.4356  -10.0707    6.5680 C   0  0  0  0  0  0  0  0  0  0  0  0
    2.2280   -9.8980    5.5834 C   0  0  1  0  0  0  0  0  0  0  0  0
    1.3703   -8.6039    5.7999 C   0  0  0  0  0  0  0  0  0  0  0  0
    1.1480   -8.2678    7.2710 C   0  0  0  0  0  0  0  0  0  0  0  0
    0.7132   -7.8145    4.9070 C   0  0  0  0  0  0  0  0  0  0  0  0
    0.7419   -7.8844    3.4417 C   0  0  0  0  0  0  0  0  0  0  0  0
   -0.2478   -8.0542    2.7297 O   0  0  0  0  0  0  0  0  0  0  0  0
    1.9670   -7.7519    2.9857 O   0  0  0  0  0  0  0  0  0  0  0  0
    2.5361   -8.7467    2.1727 C   0  0  2  0  0  0  0  0  0  0  0  0
    3.1088   -9.8877    3.0183 C   0  0  2  0  0  0  0  0  0  0  0  0
    2.3526  -10.6244    4.1760 C   0  0  0  0  0  0  0  0  0  0  0  0
    3.0547  -11.9958    4.3755 C   0  0  0  0  0  0  0  0  0  0  0  0
    0.9289  -11.0513    3.7028 C   0  0  0  0  0  0  0  0  0  0  0  0
    4.5183   -9.1906    3.0116 C   0  0  2  0  0  0  0  0  0  0  0  0
    5.7064  -10.1555    2.7099 C   0  0  0  0  0  0  0  0  0  0  0  0
    5.0360   -8.2076    4.1343 C   0  0  1  0  0  0  0  0  0  0  0  0
    4.0461   -7.3231    4.6040 O   0  0  0  0  0  0  0  0  0  0  0  0
    6.0462   -7.2644    3.4361 C   0  0  0  0  0  0  0  0  0  0  0  0
    7.1965   -7.1005    4.1074 O   0  0  0  0  0  0  0  0  0  0  0  0
    5.7593   -6.6509    2.2590 C   0  0  0  0  0  0  0  0  0  0  0  0
    6.6662   -5.6363    1.6525 C   0  0  0  0  0  0  0  0  0  0  0  0
    7.8696   -5.6008    1.9135 O   0  0  0  0  0  0  0  0  0  0  0  0
    6.0438   -4.6127    0.7652 C   0  0  0  0  0  0  0  0  0  0  0  0
    6.6468   -3.3465    0.5991 C   0  0  0  0  0  0  0  0  0  0  0  0
    6.0129   -2.3444   -0.1640 C   0  0  0  0  0  0  0  0  0  0  0  0
    4.7672   -2.5989   -0.7658 C   0  0  0  0  0  0  0  0  0  0  0  0
    4.1703   -3.8682   -0.6306 C   0  0  0  0  0  0  0  0  0  0  0  0
    4.8100   -4.8746    0.1243 C   0  0  0  0  0  0  0  0  0  0  0  0
    4.2132   -6.2637    0.2070 C   0  0  0  0  0  0  0  0  0  0  0  0
    4.4058   -6.9153    1.5974 C   0  0  1  0  0  0  0  0  0  0  0  0
    3.9882   -8.4177    1.7411 C   0  0  2  0  0  0  0  0  0  0  0  0
    4.3380   -9.0417    0.5145 O   0  0  0  0  0  0  0  0  0  0  0  0
    7.8950  -11.9298    2.9233 H   0  0  0  0  0  0  0  0  0  0  0  0
    6.4514  -12.8670    3.3471 H   0  0  0  0  0  0  0  0  0  0  0  0
    7.6115  -12.4167    4.5963 H   0  0  0  0  0  0  0  0  0  0  0  0
    6.7409  -10.7158    5.9878 H   0  0  0  0  0  0  0  0  0  0  0  0
    6.3359   -8.3171    5.8855 H   0  0  0  0  0  0  0  0  0  0  0  0
    5.1828   -9.3322    7.4860 H   0  0  0  0  0  0  0  0  0  0  0  0
    4.1898   -8.0677    6.9220 H   0  0  0  0  0  0  0  0  0  0  0  0
    3.8812  -11.0591    6.5156 H   0  0  0  0  0  0  0  0  0  0  0  0
    3.0178  -10.0959    7.5745 H   0  0  0  0  0  0  0  0  0  0  0  0
    1.5363  -10.5896    6.0660 H   0  0  0  0  0  0  0  0  0  0  0  0
    0.8035   -9.1447    7.8187 H   0  0  0  0  0  0  0  0  0  0  0  0
    0.3963   -7.4887    7.4065 H   0  0  0  0  0  0  0  0  0  0  0  0
    2.0626   -7.9061    7.7391 H   0  0  0  0  0  0  0  0  0  0  0  0
    0.0971   -7.0142    5.2947 H   0  0  0  0  0  0  0  0  0  0  0  0
    1.8900   -9.0698    1.3534 H   0  0  0  0  0  0  0  0  0  0  0  0
    3.2028  -10.6635    2.2559 H   0  0  0  0  0  0  0  0  0  0  0  0
    2.9708  -12.6234    3.4881 H   0  0  0  0  0  0  0  0  0  0  0  0
    2.6172  -12.5592    5.2010 H   0  0  0  0  0  0  0  0  0  0  0  0
    4.1149  -11.9144    4.5735 H   0  0  0  0  0  0  0  0  0  0  0  0
    0.8609  -11.1138    2.6167 H   0  0  0  0  0  0  0  0  0  0  0  0
    0.1365  -10.3899    4.0401 H   0  0  0  0  0  0  0  0  0  0  0  0
    0.6374  -12.0290    4.0892 H   0  0  0  0  0  0  0  0  0  0  0  0
    6.4911   -9.6380    2.1542 H   0  0  0  0  0  0  0  0  0  0  0  0
    5.3857  -10.9693    2.0571 H   0  0  0  0  0  0  0  0  0  0  0  0
    4.4175   -6.8258    5.3146 H   0  0  0  0  0  0  0  0  0  0  0  0
    7.5894   -3.1274    1.0745 H   0  0  0  0  0  0  0  0  0  0  0  0
    6.4687   -1.3727   -0.2673 H   0  0  0  0  0  0  0  0  0  0  0  0
    4.2670   -1.8298   -1.3378 H   0  0  0  0  0  0  0  0  0  0  0  0
    3.2207   -4.0680   -1.1096 H   0  0  0  0  0  0  0  0  0  0  0  0
    3.1553   -6.2442   -0.0598 H   0  0  0  0  0  0  0  0  0  0  0  0
    4.7194   -6.8431   -0.5669 H   0  0  0  0  0  0  0  0  0  0  0  0
    3.7453   -6.3186    2.2245 H   0  0  0  0  0  0  0  0  0  0  0  0
    4.2090   -9.9825    0.6152 H   0  0  0  0  0  0  0  0  0  0  0  0
    7.7480   -6.5294    3.5863 H   0  0  0  0  0  0  0  0  0  0  0  0
  1  2  1  0
  1 38  1  0
  1 39  1  0
  1 40  1  0
  2 20  1  0
  2  3  2  0
  3  4  1  0
  3 41  1  0
  4 21  1  0
  4  5  1  0
  4 42  1  1
  5  6  1  0
  5 43  1  0
  5 44  1  0
  6  7  1  0
  6 45  1  0
  6 46  1  0
  7 16  1  0
  7  8  1  0
  7 47  1  1
  8  9  1  0
  8 10  2  3
  9 48  1  0
  9 49  1  0
  9 50  1  0
 10 11  1  0
 10 51  1  0
 11 12  2  0
 11 13  1  0
 13 14  1  0
 14 36  1  0
 14 15  1  0
 14 52  1  6
 15 16  1  0
 15 19  1  0
 15 53  1  6
 16 17  1  0
 16 18  1  0
 17 54  1  0
 17 55  1  0
 17 56  1  0
 18 57  1  0
 18 58  1  0
 18 59  1  0
 19 36  1  0
 19 20  1  6
 19 21  1  0
 20 60  1  0
 20 61  1  0
 21 22  1  1
 21 23  1  0
 22 62  1  0
 23 24  1  0
 23 25  2  0
 24 71  1  0
 25 35  1  0
 25 26  1  0
 26 27  2  0
 26 28  1  0
 28 33  2  0
 28 29  1  0
 29 30  2  0
 29 63  1  0
 30 31  1  0
 30 64  1  0
 31 32  2  0
 31 65  1  0
 32 33  1  0
 32 66  1  0
 33 34  1  0
 34 35  1  0
 34 67  1  0
 34 68  1  0
 35 36  1  0
 35 69  1  1
 36 37  1  6
 37 70  1  0
M  END
>  <i_m_ct_stereo_status>  (102) 
1

>  <s_m_source_file>  (102) 
/var/tmp/pbs.5076255.sched01/tmpd0mq1ayv/02wja6gfv.sdf

>  <i_m_source_file_index>  (102) 
40

>  <i_lp_mmshare_version>  (102) 
48012

>  <i_f3d_flags>  (102) 
1

>  <s_epik_input>  (102) 
Tz1DKE8xKS9bQ0hdPUMoW0NIM10pXFtDQEBIXShDMihbQ0gzXSlbQ0gzXSlbQ0gyXVtDSDJdW0NAQEhdKFtDSF09QyhbQ0gzXSlbQ0gyXTMpW0NAQF00KFtPSF0pQyg9TylbQ0BIXShbQ0BASF01W0NAXTYoW09IXSlbQ0BIXTFbQ0BIXTJbQ0BdMzQ2KUMoPU8pYzdjKFtDSDJdNSlbY0hdW2NIXVtjSF1bY0hdNw==

>  <s_epik_cmdline>  (102) 
J2VwaWtfcHl0aG9uJywgJy1waHQnLCAnMi4wJywgJy1waCcsICc3LjAnLCAnLXRuJywgJzgnLCAnLW1hJywgJzIwMCcsICctaW1hZScsICc8aW5maWxlLm1hZT4nLCAnLW9tYWUnLCAnPG91dGZpbGUubWFlPic=

>  <r_epik_Ionization_Penalty>  (102) 
2.39936

>  <r_epik_Ionization_Penalty_Charging>  (102) 
0

>  <r_epik_Ionization_Penalty_Neutral>  (102) 
2.39936

>  <r_epik_State_Penalty>  (102) 
2.56935

>  <r_epik_Charging_Adjusted_Penalty>  (102) 
2.56935

>  <i_epik_Tot_Q>  (102) 
0

>  <i_epik_Tot_abs_Q>  (102) 
0

>  <s_epik_Chemistry_Notes>  (102) 
This compound has an ester and may undergo hydrolysis at high or low pH.

>  <s_lp_Force_Field>  (102) 
OPLS3e

>  <r_lp_Energy>  (102) 
120.216

>  <b_lp_Chiralities_Consistent>  (102) 
1

>  <s_lp_Variant>  (102) 
23:0-5

>  <s_i_glide_gridfile>  (102) 
pfpi4k_grid

>  <i_i_glide_lignum>  (102) 
40

>  <i_i_glide_rotatable_bonds>  (102) 
3

>  <r_i_docking_score>  (102) 
-3.52266

>  <r_i_glide_ligand_efficiency>  (102) 
-0.0952071

>  <r_i_glide_ligand_efficiency_sa>  (102) 
-0.317251

>  <r_i_glide_ligand_efficiency_ln>  (102) 
-0.763983

>  <r_i_glide_gscore>  (102) 
-3.52266

>  <r_i_glide_lipo>  (102) 
-0.524778

>  <r_i_glide_hbond>  (102) 
-0.119129

>  <r_i_glide_metal>  (102) 
-0

>  <r_i_glide_rewards>  (102) 
-0.603186

>  <r_i_glide_evdw>  (102) 
-35.9947

>  <r_i_glide_ecoul>  (102) 
-3.01736

>  <r_i_glide_erotb>  (102) 
0

>  <r_i_glide_esite>  (102) 
-0.0232296

>  <r_i_glide_emodel>  (102) 
-53.2026

>  <r_i_glide_energy>  (102) 
-39.012

>  <r_i_glide_einternal>  (102) 
0.0392543

>  <r_i_glide_intrahb_reward>  (102) 
-0.5

>  <i_i_glide_confnum>  (102) 
2

>  <i_i_glide_posenum>  (102) 
29

>  <r_i_glide_eff_state_penalty>  (102) 
0

>  <ligand_id>  (102) 
23

>  <original_smiles>  (102) 
CC1=CC2CCC3C(C)=CC(=O)OC4C(C3(C)C)C3(C1)C2(O)C(=O)C1C(=O)c2ccccc2CC1C43O

>  <smiles>  (102) 
[H]OC1=C2C(=O)c3c([H])c([H])c([H])c([H])c3C([H])([H])C2([H])C2(O[H])C3([H])OC(=O)C([H])=C(C([H])([H])[H])C4([H])C([H])([H])C([H])([H])C5([H])C([H])=C(C([H])([H])[H])C([H])([H])C2(C15O[H])C3([H])C4(C([H])([H])[H])C([H])([H])[H]

$$$$
24:0:0
     RDKit          3D

 37 41  0  0  1  0  0  0  0  0999 V2000
   -7.4975   -4.8371   -6.0924 C   0  0  0  0  0  0  0  0  0  0  0  0
   -7.6984   -5.9753   -6.9743 N   0  0  0  0  0  0  0  0  0  0  0  0
   -8.8227   -6.2419   -7.7176 C   0  0  0  0  0  0  0  0  0  0  0  0
   -8.7496   -7.4164   -8.3357 C   0  0  0  0  0  0  0  0  0  0  0  0
   -7.4261   -8.0972   -8.0490 C   0  0  2  0  0  0  0  0  0  0  0  0
   -6.6628   -8.5372   -9.3131 C   0  0  0  0  0  0  0  0  0  0  0  0
   -6.9392  -10.0369   -9.0090 C   0  0  1  0  0  0  0  0  0  0  0  0
   -5.8645  -10.9671   -8.7200 O   0  0  0  0  0  0  0  0  0  0  0  0
   -5.4621  -10.7489   -7.4257 C   0  0  0  0  0  0  0  0  0  0  0  0
   -4.2501  -11.1094   -6.8017 C   0  0  0  0  0  0  0  0  0  0  0  0
   -3.3969  -11.9768   -7.4138 O   0  0  0  0  0  0  0  0  0  0  0  0
   -3.8753  -10.4786   -5.5848 C   0  0  0  0  0  0  0  0  0  0  0  0
   -4.6359   -9.4094   -5.0620 C   0  0  0  0  0  0  0  0  0  0  0  0
   -5.8593   -9.0675   -5.6718 C   0  0  0  0  0  0  0  0  0  0  0  0
   -6.2637   -9.8507   -6.7662 C   0  0  0  0  0  0  0  0  0  0  0  0
   -7.4514   -9.5741   -7.6460 C   0  0  1  0  0  0  0  0  0  0  0  0
   -8.7340  -10.2395   -7.1268 C   0  0  0  0  0  0  0  0  0  0  0  0
   -9.7286  -10.3780   -8.1303 O   0  0  0  0  0  0  0  0  0  0  0  0
   -6.5811   -7.7346   -5.6222 C   0  0  0  0  0  0  0  0  0  0  0  0
   -6.7818   -7.1156   -7.0246 C   0  0  2  0  0  0  0  0  0  0  0  0
   -8.0269   -3.9560   -6.4612 H   0  0  0  0  0  0  0  0  0  0  0  0
   -6.4406   -4.5864   -6.0041 H   0  0  0  0  0  0  0  0  0  0  0  0
   -7.8841   -5.0734   -5.1010 H   0  0  0  0  0  0  0  0  0  0  0  0
   -9.6519   -5.5466   -7.7116 H   0  0  0  0  0  0  0  0  0  0  0  0
   -9.5465   -7.8333   -8.9343 H   0  0  0  0  0  0  0  0  0  0  0  0
   -7.1194   -8.1931  -10.2449 H   0  0  0  0  0  0  0  0  0  0  0  0
   -5.6172   -8.2503   -9.2239 H   0  0  0  0  0  0  0  0  0  0  0  0
   -7.7075  -10.4517   -9.6619 H   0  0  0  0  0  0  0  0  0  0  0  0
   -2.5346  -11.9496   -7.0187 H   0  0  0  0  0  0  0  0  0  0  0  0
   -2.9344  -10.7229   -5.1084 H   0  0  0  0  0  0  0  0  0  0  0  0
   -4.2558   -8.8190   -4.2374 H   0  0  0  0  0  0  0  0  0  0  0  0
   -8.5391  -11.2467   -6.7496 H   0  0  0  0  0  0  0  0  0  0  0  0
   -9.1296   -9.6672   -6.3198 H   0  0  0  0  0  0  0  0  0  0  0  0
  -10.0392   -9.5128   -8.3629 H   0  0  0  0  0  0  0  0  0  0  0  0
   -7.5405   -7.8699   -5.1744 H   0  0  0  0  0  0  0  0  0  0  0  0
   -6.0525   -7.0430   -4.9632 H   0  0  0  0  0  0  0  0  0  0  0  0
   -5.7990   -6.8220   -7.3686 H   0  0  0  0  0  0  0  0  0  0  0  0
  1  2  1  0
  1 21  1  0
  1 22  1  0
  1 23  1  0
  2 20  1  0
  2  3  1  0
  3  4  2  0
  3 24  1  0
  4  5  1  0
  4 25  1  0
  5 16  1  0
  5 20  1  0
  5  6  1  6
  6  7  1  0
  6 26  1  0
  6 27  1  0
  7 16  1  0
  7  8  1  0
  7 28  1  6
  8  9  1  0
  9 15  2  0
  9 10  1  0
 10 11  1  0
 10 12  2  0
 11 29  1  0
 12 13  1  0
 12 30  1  0
 13 14  2  0
 13 31  1  0
 14 15  1  0
 14 19  1  0
 15 16  1  0
 16 17  1  1
 17 18  1  0
 17 32  1  0
 17 33  1  0
 18 34  1  0
 19 20  1  0
 19 35  1  0
 19 36  1  0
 20 37  1  6
M  END
>  <i_m_ct_stereo_status>  (103) 
1

>  <s_m_source_file>  (103) 
/var/tmp/pbs.5076255.sched01/tmpd0mq1ayv/02wja6gfv.sdf

>  <i_m_source_file_index>  (103) 
42

>  <i_lp_mmshare_version>  (103) 
48012

>  <i_f3d_flags>  (103) 
0

>  <s_epik_input>  (103) 
W0NIXTE9W0NIXU4oW0NIM10pW0NASF0yW0NIMl1jKFtjSF1bY0hdYzNbT0hdKWM0YzNPW0NASF0oW0NIMl01KVtDQEBdNChbQ0BAXTEyNSlbQ0gyXVtPSF0=

>  <s_epik_cmdline>  (103) 
J2VwaWtfcHl0aG9uJywgJy1waHQnLCAnMi4wJywgJy1waCcsICc3LjAnLCAnLXRuJywgJzgnLCAnLW1hJywgJzIwMCcsICctaW1hZScsICc8aW5maWxlLm1hZT4nLCAnLW9tYWUnLCAnPG91dGZpbGUubWFlPic=

>  <r_lp_tautomer_probability>  (103) 
1

>  <r_epik_Ionization_Penalty>  (103) 
0.00153577

>  <r_epik_Ionization_Penalty_Charging>  (103) 
9.57519e-07

>  <r_epik_Ionization_Penalty_Neutral>  (103) 
0.00153481

>  <r_epik_State_Penalty>  (103) 
-0

>  <r_epik_Charging_Adjusted_Penalty>  (103) 
9.57519e-07

>  <i_epik_Tot_Q>  (103) 
0

>  <i_epik_Tot_abs_Q>  (103) 
0

>  <s_epik_Chemistry_Notes>  (103) 
This compound has an imine and may undergo hydrolysis.

>  <s_lp_Force_Field>  (103) 
OPLS3e

>  <r_lp_Energy>  (103) 
52.0826

>  <b_lp_Chiralities_Consistent>  (103) 
1

>  <s_lp_Variant>  (103) 
24:0-1

>  <s_i_glide_gridfile>  (103) 
pfpi4k_grid

>  <i_i_glide_lignum>  (103) 
42

>  <i_i_glide_rotatable_bonds>  (103) 
3

>  <r_i_docking_score>  (103) 
-5.45415

>  <r_i_glide_ligand_efficiency>  (103) 
-0.272707

>  <r_i_glide_ligand_efficiency_sa>  (103) 
-0.740241

>  <r_i_glide_ligand_efficiency_ln>  (103) 
-1.36499

>  <r_i_glide_gscore>  (103) 
-5.45415

>  <r_i_glide_lipo>  (103) 
-2.19396

>  <r_i_glide_hbond>  (103) 
0

>  <r_i_glide_metal>  (103) 
-0

>  <r_i_glide_rewards>  (103) 
-2.22458

>  <r_i_glide_evdw>  (103) 
-15.2875

>  <r_i_glide_ecoul>  (103) 
-3.42954

>  <r_i_glide_erotb>  (103) 
0.243198

>  <r_i_glide_esite>  (103) 
0

>  <r_i_glide_emodel>  (103) 
-26.9625

>  <r_i_glide_energy>  (103) 
-18.717

>  <r_i_glide_einternal>  (103) 
2.64275

>  <r_i_glide_intrahb_reward>  (103) 
-0

>  <i_i_glide_confnum>  (103) 
5

>  <i_i_glide_posenum>  (103) 
35

>  <r_i_glide_eff_state_penalty>  (103) 
0

>  <ligand_id>  (103) 
24

>  <original_smiles>  (103) 
CN1C=CC23CC4Oc5c(O)ccc(c5C42CO)CC13

>  <smiles>  (103) 
[H]Oc1c([H])c([H])c2c3c1OC1([H])C([H])([H])C4(C([H])=C([H])N(C([H])([H])[H])C4([H])C2([H])[H])C31C([H])([H])O[H]

$$$$
24:0:1
     RDKit          3D

 37 41  0  0  1  0  0  0  0  0999 V2000
   -7.1402   -4.9980   -5.9038 C   0  0  0  0  0  0  0  0  0  0  0  0
   -7.4989   -6.0800   -6.8091 N   0  0  0  0  0  0  0  0  0  0  0  0
   -8.7081   -6.2392   -7.4444 C   0  0  0  0  0  0  0  0  0  0  0  0
   -8.7928   -7.4012   -8.0835 C   0  0  0  0  0  0  0  0  0  0  0  0
   -7.5068   -8.1853   -7.9519 C   0  0  2  0  0  0  0  0  0  0  0  0
   -6.9064   -8.6205   -9.3042 C   0  0  0  0  0  0  0  0  0  0  0  0
   -7.2692  -10.1009   -9.0135 C   0  0  1  0  0  0  0  0  0  0  0  0
   -6.2149  -11.0901   -8.8825 O   0  0  0  0  0  0  0  0  0  0  0  0
   -5.6784  -10.9620   -7.6241 C   0  0  0  0  0  0  0  0  0  0  0  0
   -4.4493  -11.4381   -7.1185 C   0  0  0  0  0  0  0  0  0  0  0  0
   -3.7275  -12.3561   -7.8184 O   0  0  0  0  0  0  0  0  0  0  0  0
   -3.9336  -10.8986   -5.9144 C   0  0  0  0  0  0  0  0  0  0  0  0
   -4.5737   -9.8095   -5.2748 C   0  0  0  0  0  0  0  0  0  0  0  0
   -5.8162   -9.3595   -5.7614 C   0  0  0  0  0  0  0  0  0  0  0  0
   -6.3623  -10.0563   -6.8454 C   0  0  0  0  0  0  0  0  0  0  0  0
   -7.6051   -9.6706   -7.5828 C   0  0  1  0  0  0  0  0  0  0  0  0
   -8.8847  -10.2437   -6.9513 C   0  0  0  0  0  0  0  0  0  0  0  0
   -8.9890  -11.6408   -7.1354 O   0  0  0  0  0  0  0  0  0  0  0  0
   -6.4513   -7.9918   -5.5938 C   0  0  0  0  0  0  0  0  0  0  0  0
   -6.6965   -7.2928   -6.9603 C   0  0  2  0  0  0  0  0  0  0  0  0
   -7.6356   -4.0695   -6.1906 H   0  0  0  0  0  0  0  0  0  0  0  0
   -6.0666   -4.8222   -5.9158 H   0  0  0  0  0  0  0  0  0  0  0  0
   -7.4395   -5.2360   -4.8827 H   0  0  0  0  0  0  0  0  0  0  0  0
   -9.4780   -5.4879   -7.3307 H   0  0  0  0  0  0  0  0  0  0  0  0
   -9.6736   -7.7602   -8.5995 H   0  0  0  0  0  0  0  0  0  0  0  0
   -7.4211   -8.2152  -10.1737 H   0  0  0  0  0  0  0  0  0  0  0  0
   -5.8346   -8.4245   -9.3331 H   0  0  0  0  0  0  0  0  0  0  0  0
   -8.1412  -10.4366   -9.5825 H   0  0  0  0  0  0  0  0  0  0  0  0
   -3.0055  -12.6874   -7.3023 H   0  0  0  0  0  0  0  0  0  0  0  0
   -2.9769  -11.2256   -5.5380 H   0  0  0  0  0  0  0  0  0  0  0  0
   -4.0701   -9.2780   -4.4790 H   0  0  0  0  0  0  0  0  0  0  0  0
   -8.9297  -10.0290   -5.8893 H   0  0  0  0  0  0  0  0  0  0  0  0
   -9.7740   -9.7981   -7.4008 H   0  0  0  0  0  0  0  0  0  0  0  0
   -9.1388  -11.8074   -8.0561 H   0  0  0  0  0  0  0  0  0  0  0  0
   -7.3825   -8.0961   -5.0645 H   0  0  0  0  0  0  0  0  0  0  0  0
   -5.8176   -7.3637   -4.9664 H   0  0  0  0  0  0  0  0  0  0  0  0
   -5.7310   -7.0503   -7.3950 H   0  0  0  0  0  0  0  0  0  0  0  0
  1  2  1  0
  1 21  1  0
  1 22  1  0
  1 23  1  0
  2 20  1  0
  2  3  1  0
  3  4  2  0
  3 24  1  0
  4  5  1  0
  4 25  1  0
  5 16  1  0
  5 20  1  0
  5  6  1  6
  6  7  1  0
  6 26  1  0
  6 27  1  0
  7 16  1  0
  7  8  1  0
  7 28  1  6
  8  9  1  0
  9 15  2  0
  9 10  1  0
 10 11  1  0
 10 12  2  0
 11 29  1  0
 12 13  1  0
 12 30  1  0
 13 14  2  0
 13 31  1  0
 14 15  1  0
 14 19  1  0
 15 16  1  0
 16 17  1  1
 17 18  1  0
 17 32  1  0
 17 33  1  0
 18 34  1  0
 19 20  1  0
 19 35  1  0
 19 36  1  0
 20 37  1  6
M  END
>  <i_m_ct_stereo_status>  (104) 
1

>  <s_m_source_file>  (104) 
/var/tmp/pbs.5076255.sched01/tmpd0mq1ayv/02wja6gfv.sdf

>  <i_m_source_file_index>  (104) 
42

>  <i_lp_mmshare_version>  (104) 
48012

>  <i_f3d_flags>  (104) 
0

>  <s_epik_input>  (104) 
W0NIXTE9W0NIXU4oW0NIM10pW0NASF0yW0NIMl1jKFtjSF1bY0hdYzNbT0hdKWM0YzNPW0NASF0oW0NIMl01KVtDQEBdNChbQ0BAXTEyNSlbQ0gyXVtPSF0=

>  <s_epik_cmdline>  (104) 
J2VwaWtfcHl0aG9uJywgJy1waHQnLCAnMi4wJywgJy1waCcsICc3LjAnLCAnLXRuJywgJzgnLCAnLW1hJywgJzIwMCcsICctaW1hZScsICc8aW5maWxlLm1hZT4nLCAnLW9tYWUnLCAnPG91dGZpbGUubWFlPic=

>  <r_lp_tautomer_probability>  (104) 
1

>  <r_epik_Ionization_Penalty>  (104) 
0.00153577

>  <r_epik_Ionization_Penalty_Charging>  (104) 
9.57519e-07

>  <r_epik_Ionization_Penalty_Neutral>  (104) 
0.00153481

>  <r_epik_State_Penalty>  (104) 
-0

>  <r_epik_Charging_Adjusted_Penalty>  (104) 
9.57519e-07

>  <i_epik_Tot_Q>  (104) 
0

>  <i_epik_Tot_abs_Q>  (104) 
0

>  <s_epik_Chemistry_Notes>  (104) 
This compound has an imine and may undergo hydrolysis.

>  <s_lp_Force_Field>  (104) 
OPLS3e

>  <r_lp_Energy>  (104) 
52.0826

>  <b_lp_Chiralities_Consistent>  (104) 
1

>  <s_lp_Variant>  (104) 
24:0-1

>  <s_i_glide_gridfile>  (104) 
pfpi4k_grid

>  <i_i_glide_lignum>  (104) 
42

>  <i_i_glide_rotatable_bonds>  (104) 
3

>  <r_i_docking_score>  (104) 
-5.43459

>  <r_i_glide_ligand_efficiency>  (104) 
-0.271729

>  <r_i_glide_ligand_efficiency_sa>  (104) 
-0.737587

>  <r_i_glide_ligand_efficiency_ln>  (104) 
-1.3601

>  <r_i_glide_gscore>  (104) 
-5.43459

>  <r_i_glide_lipo>  (104) 
-2.04181

>  <r_i_glide_hbond>  (104) 
0

>  <r_i_glide_metal>  (104) 
-0

>  <r_i_glide_rewards>  (104) 
-2.14639

>  <r_i_glide_evdw>  (104) 
-21.1756

>  <r_i_glide_ecoul>  (104) 
-2.87212

>  <r_i_glide_erotb>  (104) 
0.243198

>  <r_i_glide_esite>  (104) 
0

>  <r_i_glide_emodel>  (104) 
-33.3548

>  <r_i_glide_energy>  (104) 
-24.0477

>  <r_i_glide_einternal>  (104) 
0.937891

>  <r_i_glide_intrahb_reward>  (104) 
-0

>  <i_i_glide_confnum>  (104) 
2

>  <i_i_glide_posenum>  (104) 
3

>  <r_i_glide_eff_state_penalty>  (104) 
0

>  <ligand_id>  (104) 
24

>  <original_smiles>  (104) 
CN1C=CC23CC4Oc5c(O)ccc(c5C42CO)CC13

>  <smiles>  (104) 
[H]Oc1c([H])c([H])c2c3c1OC1([H])C([H])([H])C4(C([H])=C([H])N(C([H])([H])[H])C4([H])C2([H])[H])C31C([H])([H])O[H]

$$$$
24:0:2
     RDKit          3D

 37 41  0  0  1  0  0  0  0  0999 V2000
    0.1470    2.3766    8.8430 C   0  0  0  0  0  0  0  0  0  0  0  0
    0.4158    2.9946    7.5559 N   0  0  0  0  0  0  0  0  0  0  0  0
    0.1490    4.2995    7.2178 C   0  0  0  0  0  0  0  0  0  0  0  0
    0.3899    4.5415    5.9331 C   0  0  0  0  0  0  0  0  0  0  0  0
    0.9055    3.2995    5.2329 C   0  0  2  0  0  0  0  0  0  0  0  0
    2.2323    3.5145    4.4586 C   0  0  0  0  0  0  0  0  0  0  0  0
    1.4983    3.3970    3.1012 C   0  0  1  0  0  0  0  0  0  0  0  0
    1.8375    2.2994    2.2125 O   0  0  0  0  0  0  0  0  0  0  0  0
    1.1822    1.1854    2.6680 C   0  0  0  0  0  0  0  0  0  0  0  0
    1.4254   -0.1728    2.3613 C   0  0  0  0  0  0  0  0  0  0  0  0
    2.2034   -0.5037    1.2886 O   0  0  0  0  0  0  0  0  0  0  0  0
    0.9123   -1.1819    3.2122 C   0  0  0  0  0  0  0  0  0  0  0  0
    0.2198   -0.8503    4.3998 C   0  0  0  0  0  0  0  0  0  0  0  0
   -0.0745    0.5016    4.6798 C   0  0  0  0  0  0  0  0  0  0  0  0
    0.3321    1.4468    3.7215 C   0  0  0  0  0  0  0  0  0  0  0  0
    0.2601    2.9446    3.8930 C   0  0  1  0  0  0  0  0  0  0  0  0
   -1.1185    3.5162    3.4936 C   0  0  0  0  0  0  0  0  0  0  0  0
   -1.0842    4.9105    3.2813 O   0  0  0  0  0  0  0  0  0  0  0  0
   -0.3023    1.1602    6.0350 C   0  0  0  0  0  0  0  0  0  0  0  0
    0.7817    2.2365    6.3617 C   0  0  2  0  0  0  0  0  0  0  0  0
    0.2584    3.0935    9.6593 H   0  0  0  0  0  0  0  0  0  0  0  0
    0.8282    1.5469    9.0268 H   0  0  0  0  0  0  0  0  0  0  0  0
   -0.8750    2.0010    8.8636 H   0  0  0  0  0  0  0  0  0  0  0  0
   -0.2432    4.9842    7.9654 H   0  0  0  0  0  0  0  0  0  0  0  0
    0.2061    5.4914    5.4448 H   0  0  0  0  0  0  0  0  0  0  0  0
    2.6783    4.5034    4.6158 H   0  0  0  0  0  0  0  0  0  0  0  0
    2.9513    2.7085    4.6249 H   0  0  0  0  0  0  0  0  0  0  0  0
    1.4136    4.3595    2.6004 H   0  0  0  0  0  0  0  0  0  0  0  0
    1.6699   -0.6508    0.5082 H   0  0  0  0  0  0  0  0  0  0  0  0
    1.1363   -2.2101    2.9937 H   0  0  0  0  0  0  0  0  0  0  0  0
    0.0066   -1.6218    5.1273 H   0  0  0  0  0  0  0  0  0  0  0  0
   -1.4667    3.0747    2.5575 H   0  0  0  0  0  0  0  0  0  0  0  0
   -1.8695    3.3029    4.2523 H   0  0  0  0  0  0  0  0  0  0  0  0
   -0.6022    5.0398    2.4587 H   0  0  0  0  0  0  0  0  0  0  0  0
   -1.3037    1.6017    6.0566 H   0  0  0  0  0  0  0  0  0  0  0  0
   -0.2777    0.3957    6.8088 H   0  0  0  0  0  0  0  0  0  0  0  0
    1.7442    1.7601    6.5393 H   0  0  0  0  0  0  0  0  0  0  0  0
  1  2  1  0
  1 21  1  0
  1 22  1  0
  1 23  1  0
  2 20  1  0
  2  3  1  0
  3  4  2  0
  3 24  1  0
  4  5  1  0
  4 25  1  0
  5 16  1  0
  5 20  1  0
  5  6  1  6
  6  7  1  0
  6 26  1  0
  6 27  1  0
  7 16  1  0
  7  8  1  0
  7 28  1  6
  8  9  1  0
  9 15  2  0
  9 10  1  0
 10 11  1  0
 10 12  2  0
 11 29  1  0
 12 13  1  0
 12 30  1  0
 13 14  2  0
 13 31  1  0
 14 15  1  0
 14 19  1  0
 15 16  1  0
 16 17  1  6
 17 18  1  0
 17 32  1  0
 17 33  1  0
 18 34  1  0
 19 20  1  0
 19 35  1  0
 19 36  1  0
 20 37  1  1
M  END
>  <i_m_ct_stereo_status>  (105) 
1

>  <s_m_source_file>  (105) 
/var/tmp/pbs.5076255.sched01/tmpd0mq1ayv/02wja6gfv.sdf

>  <i_m_source_file_index>  (105) 
42

>  <i_lp_mmshare_version>  (105) 
48012

>  <i_f3d_flags>  (105) 
0

>  <s_epik_input>  (105) 
W0NIXTE9W0NIXU4oW0NIM10pW0NASF0yW0NIMl1jKFtjSF1bY0hdYzNbT0hdKWM0YzNPW0NASF0oW0NIMl01KVtDQEBdNChbQ0BAXTEyNSlbQ0gyXVtPSF0=

>  <s_epik_cmdline>  (105) 
J2VwaWtfcHl0aG9uJywgJy1waHQnLCAnMi4wJywgJy1waCcsICc3LjAnLCAnLXRuJywgJzgnLCAnLW1hJywgJzIwMCcsICctaW1hZScsICc8aW5maWxlLm1hZT4nLCAnLW9tYWUnLCAnPG91dGZpbGUubWFlPic=

>  <r_lp_tautomer_probability>  (105) 
1

>  <r_epik_Ionization_Penalty>  (105) 
0.00153577

>  <r_epik_Ionization_Penalty_Charging>  (105) 
9.57519e-07

>  <r_epik_Ionization_Penalty_Neutral>  (105) 
0.00153481

>  <r_epik_State_Penalty>  (105) 
-0

>  <r_epik_Charging_Adjusted_Penalty>  (105) 
9.57519e-07

>  <i_epik_Tot_Q>  (105) 
0

>  <i_epik_Tot_abs_Q>  (105) 
0

>  <s_epik_Chemistry_Notes>  (105) 
This compound has an imine and may undergo hydrolysis.

>  <s_lp_Force_Field>  (105) 
OPLS3e

>  <r_lp_Energy>  (105) 
52.0826

>  <b_lp_Chiralities_Consistent>  (105) 
1

>  <s_lp_Variant>  (105) 
24:0-1

>  <s_i_glide_gridfile>  (105) 
pfpi4k_grid

>  <i_i_glide_lignum>  (105) 
42

>  <i_i_glide_rotatable_bonds>  (105) 
3

>  <r_i_docking_score>  (105) 
-3.76508

>  <r_i_glide_ligand_efficiency>  (105) 
-0.188254

>  <r_i_glide_ligand_efficiency_sa>  (105) 
-0.511

>  <r_i_glide_ligand_efficiency_ln>  (105) 
-0.942276

>  <r_i_glide_gscore>  (105) 
-3.76508

>  <r_i_glide_lipo>  (105) 
0

>  <r_i_glide_hbond>  (105) 
-0.295114

>  <r_i_glide_metal>  (105) 
-0

>  <r_i_glide_rewards>  (105) 
-1.55924

>  <r_i_glide_evdw>  (105) 
-13.4809

>  <r_i_glide_ecoul>  (105) 
-9.86585

>  <r_i_glide_erotb>  (105) 
0.243198

>  <r_i_glide_esite>  (105) 
0

>  <r_i_glide_emodel>  (105) 
-26.93

>  <r_i_glide_energy>  (105) 
-23.3468

>  <r_i_glide_einternal>  (105) 
5.96106

>  <r_i_glide_intrahb_reward>  (105) 
-0

>  <i_i_glide_confnum>  (105) 
2

>  <i_i_glide_posenum>  (105) 
31

>  <r_i_glide_eff_state_penalty>  (105) 
0

>  <ligand_id>  (105) 
24

>  <original_smiles>  (105) 
CN1C=CC23CC4Oc5c(O)ccc(c5C42CO)CC13

>  <smiles>  (105) 
[H]Oc1c([H])c([H])c2c3c1OC1([H])C([H])([H])C4(C([H])=C([H])N(C([H])([H])[H])C4([H])C2([H])[H])C31C([H])([H])O[H]

$$$$
25:0:0
     RDKit          3D

 54 59  0  0  1  0  0  0  0  0999 V2000
    4.3803   -5.8221    0.0450 C   0  0  0  0  0  0  0  0  0  0  0  0
    3.5596   -6.3530    1.2016 C   0  0  2  0  0  0  0  0  0  0  0  0
    2.1805   -6.5671    0.9141 O   0  0  0  0  0  0  0  0  0  0  0  0
    2.4991   -5.4530    1.7846 C   0  0  1  0  0  0  0  0  0  0  0  0
    2.1396   -5.5630    3.2384 C   0  0  1  0  0  0  0  0  0  0  0  0
    1.7275   -4.2730    3.6500 O   0  0  0  0  0  0  0  0  0  0  0  0
    1.0186   -6.5557    3.5682 C   0  0  2  0  0  0  0  0  0  0  0  0
   -0.2670   -5.9565    3.6890 O   0  0  0  0  0  0  0  0  0  0  0  0
    0.2647   -6.6147    4.8491 C   0  0  1  0  0  0  0  0  0  0  0  0
    0.3434   -8.1125    4.8523 C   0  0  2  0  0  0  0  0  0  0  0  0
   -0.9881   -8.6020    4.9871 O   0  0  0  0  0  0  0  0  0  0  0  0
    1.1477   -8.5325    6.1166 C   0  0  1  0  0  0  0  0  0  0  0  0
    0.4753   -8.1713    7.3123 O   0  0  0  0  0  0  0  0  0  0  0  0
    1.4400  -10.0211    6.2317 C   0  0  0  0  0  0  0  0  0  0  0  0
    2.5254  -10.4312    5.2488 C   0  0  0  0  0  0  0  0  0  0  0  0
    3.6678  -10.6190    5.6671 O   0  0  0  0  0  0  0  0  0  0  0  0
    2.1826  -10.5153    3.7414 C   0  0  0  0  0  0  0  0  0  0  0  0
    3.1375  -11.6138    3.1678 C   0  0  0  0  0  0  0  0  0  0  0  0
    0.8032  -11.2302    3.5822 C   0  0  0  0  0  0  0  0  0  0  0  0
    2.2669   -9.0405    3.0412 C   0  0  2  0  0  0  0  0  0  0  0  0
    2.2215   -9.3814    1.6601 O   0  0  0  0  0  0  0  0  0  0  0  0
    3.6928   -8.3632    3.1353 C   0  0  1  0  0  0  0  0  0  0  0  0
    3.8226   -7.7707    4.4062 O   0  0  0  0  0  0  0  0  0  0  0  0
    4.9883   -9.1536    2.7585 C   0  0  0  0  0  0  0  0  0  0  0  0
    5.4180   -7.9507    1.9386 C   0  0  0  0  0  0  0  0  0  0  0  0
    4.1971   -7.4371    1.9979 C   0  0  0  0  0  0  0  0  0  0  0  0
    0.9733   -8.1115    3.3927 C   0  0  2  0  0  0  0  0  0  0  0  0
   -0.1033   -8.3360    2.3015 C   0  0  0  0  0  0  0  0  0  0  0  0
    5.3275   -5.3970    0.3972 H   0  0  0  0  0  0  0  0  0  0  0  0
    3.8302   -5.0388   -0.4813 H   0  0  0  0  0  0  0  0  0  0  0  0
    4.6037   -6.6225   -0.6655 H   0  0  0  0  0  0  0  0  0  0  0  0
    2.3615   -4.4766    1.3221 H   0  0  0  0  0  0  0  0  0  0  0  0
    3.0235   -5.7428    3.8178 H   0  0  0  0  0  0  0  0  0  0  0  0
    2.4090   -3.6698    3.4137 H   0  0  0  0  0  0  0  0  0  0  0  0
    0.5694   -6.0300    5.7255 H   0  0  0  0  0  0  0  0  0  0  0  0
   -0.9453   -9.5498    5.0456 H   0  0  0  0  0  0  0  0  0  0  0  0
    2.1046   -7.9990    6.2035 H   0  0  0  0  0  0  0  0  0  0  0  0
    0.9766   -8.4691    8.0599 H   0  0  0  0  0  0  0  0  0  0  0  0
    1.8315  -10.2495    7.2257 H   0  0  0  0  0  0  0  0  0  0  0  0
    0.5382  -10.6271    6.1258 H   0  0  0  0  0  0  0  0  0  0  0  0
    3.0356  -11.6896    2.0864 H   0  0  0  0  0  0  0  0  0  0  0  0
    2.9045  -12.6077    3.5624 H   0  0  0  0  0  0  0  0  0  0  0  0
    4.1914  -11.4971    3.4227 H   0  0  0  0  0  0  0  0  0  0  0  0
    0.6100  -11.4977    2.5433 H   0  0  0  0  0  0  0  0  0  0  0  0
   -0.0376  -10.6478    3.9340 H   0  0  0  0  0  0  0  0  0  0  0  0
    0.7712  -12.1641    4.1526 H   0  0  0  0  0  0  0  0  0  0  0  0
    1.4079   -9.8298    1.4755 H   0  0  0  0  0  0  0  0  0  0  0  0
    3.8857   -8.4746    5.0349 H   0  0  0  0  0  0  0  0  0  0  0  0
    5.5912   -9.4370    3.6196 H   0  0  0  0  0  0  0  0  0  0  0  0
    4.8230  -10.0140    2.1140 H   0  0  0  0  0  0  0  0  0  0  0  0
    6.2976   -7.7111    1.3320 H   0  0  0  0  0  0  0  0  0  0  0  0
   -0.3079   -9.3918    2.1271 H   0  0  0  0  0  0  0  0  0  0  0  0
    0.1929   -7.8806    1.3559 H   0  0  0  0  0  0  0  0  0  0  0  0
   -1.0443   -7.8768    2.5964 H   0  0  0  0  0  0  0  0  0  0  0  0
  2  1  1  6
  1 29  1  0
  1 30  1  0
  1 31  1  0
  2  4  1  0
  2 26  1  0
  2  3  1  0
  3  4  1  0
  4  5  1  0
  4 32  1  6
  5  6  1  0
  5  7  1  0
  5 33  1  1
  6 34  1  0
  7  9  1  0
  7 27  1  0
  7  8  1  6
  8  9  1  0
  9 10  1  0
  9 35  1  1
 10 27  1  0
 10 11  1  6
 10 12  1  0
 11 36  1  0
 12 13  1  0
 12 14  1  0
 12 37  1  6
 13 38  1  0
 14 15  1  0
 14 39  1  0
 14 40  1  0
 15 16  2  0
 15 17  1  0
 17 18  1  0
 17 19  1  0
 17 20  1  0
 18 41  1  0
 18 42  1  0
 18 43  1  0
 19 44  1  0
 19 45  1  0
 19 46  1  0
 20 21  1  6
 20 22  1  0
 20 27  1  0
 21 47  1  0
 22 26  1  0
 22 23  1  1
 22 24  1  0
 23 48  1  0
 24 25  1  0
 24 49  1  0
 24 50  1  0
 25 26  2  0
 25 51  1  0
 27 28  1  6
 28 52  1  0
 28 53  1  0
 28 54  1  0
M  END
>  <i_m_ct_stereo_status>  (106) 
1

>  <s_m_source_file>  (106) 
/var/tmp/pbs.5076255.sched01/tmpd0mq1ayv/02wja6gfv.sdf

>  <i_m_source_file_index>  (106) 
43

>  <i_lp_mmshare_version>  (106) 
48012

>  <i_f3d_flags>  (106) 
0

>  <s_epik_input>  (106) 
W09IXVtDQEBIXTFbQ0BIXShPMilbQ0BAXTIoW0NIM10pQyg9W0NIXVtDSDJdMylbQ0BAXTMoW09IXSlbQ0BdKFtPSF0pKFtDQEBdNChbQ0gzXSlbQ0BAXTUoW0NAQEhdKFtDQEBdMTQ2KU82KVtPSF0pQyhbQ0gzXSkoW0NIM10pQyg9TylbQ0gyXVtDQEBIXTVbT0hd

>  <s_epik_cmdline>  (106) 
J2VwaWtfcHl0aG9uJywgJy1waHQnLCAnMi4wJywgJy1waCcsICc3LjAnLCAnLXRuJywgJzgnLCAnLW1hJywgJzIwMCcsICctaW1hZScsICc8aW5maWxlLm1hZT4nLCAnLW9tYWUnLCAnPG91dGZpbGUubWFlPic=

>  <r_lp_tautomer_probability>  (106) 
1

>  <r_epik_Ionization_Penalty>  (106) 
9.10859e-07

>  <r_epik_Ionization_Penalty_Charging>  (106) 
0

>  <r_epik_Ionization_Penalty_Neutral>  (106) 
9.10859e-07

>  <r_epik_State_Penalty>  (106) 
-0

>  <r_epik_Charging_Adjusted_Penalty>  (106) 
0

>  <i_epik_Tot_Q>  (106) 
0

>  <i_epik_Tot_abs_Q>  (106) 
0

>  <s_lp_Force_Field>  (106) 
OPLS3e

>  <r_lp_Energy>  (106) 
63.4846

>  <b_lp_Chiralities_Consistent>  (106) 
1

>  <s_lp_Variant>  (106) 
25:0-1

>  <s_i_glide_gridfile>  (106) 
pfpi4k_grid

>  <i_i_glide_lignum>  (106) 
43

>  <i_i_glide_rotatable_bonds>  (106) 
5

>  <r_i_docking_score>  (106) 
-3.2136

>  <r_i_glide_ligand_efficiency>  (106) 
-0.114771

>  <r_i_glide_ligand_efficiency_sa>  (106) 
-0.348514

>  <r_i_glide_ligand_efficiency_ln>  (106) 
-0.741793

>  <r_i_glide_gscore>  (106) 
-3.2136

>  <r_i_glide_lipo>  (106) 
-0.280775

>  <r_i_glide_hbond>  (106) 
-0.0769454

>  <r_i_glide_metal>  (106) 
-0

>  <r_i_glide_rewards>  (106) 
-0.719893

>  <r_i_glide_evdw>  (106) 
-19.4788

>  <r_i_glide_ecoul>  (106) 
-7.41767

>  <r_i_glide_erotb>  (106) 
0

>  <r_i_glide_esite>  (106) 
-0.0493983

>  <r_i_glide_emodel>  (106) 
-33.4007

>  <r_i_glide_energy>  (106) 
-26.8964

>  <r_i_glide_einternal>  (106) 
0.712203

>  <r_i_glide_intrahb_reward>  (106) 
-0

>  <i_i_glide_confnum>  (106) 
1

>  <i_i_glide_posenum>  (106) 
34

>  <r_i_glide_eff_state_penalty>  (106) 
0

>  <ligand_id>  (106) 
25

>  <original_smiles>  (106) 
CC12OC1C(O)C13OC1C1(O)C(O)CC(=O)C(C)(C)C(O)(C4(O)CC=C24)C13C

>  <smiles>  (106) 
[H]OC1([H])C([H])([H])C(=O)C(C([H])([H])[H])(C([H])([H])[H])C2(O[H])C3(O[H])C(=C([H])C3([H])[H])C3(C([H])([H])[H])OC3([H])C([H])(O[H])C34OC3([H])C1(O[H])C42C([H])([H])[H]

$$$$
25:0:1
     RDKit          3D

 54 59  0  0  1  0  0  0  0  0999 V2000
    3.3552   -2.0268   -4.6445 C   0  0  0  0  0  0  0  0  0  0  0  0
    3.4725   -2.5495   -3.2349 C   0  0  2  0  0  0  0  0  0  0  0  0
    4.0424   -3.8319   -3.1635 O   0  0  0  0  0  0  0  0  0  0  0  0
    2.6613   -3.7046   -2.8553 C   0  0  1  0  0  0  0  0  0  0  0  0
    2.2116   -3.8721   -1.4337 C   0  0  1  0  0  0  0  0  0  0  0  0
    1.0008   -4.5872   -1.4983 O   0  0  0  0  0  0  0  0  0  0  0  0
    3.1345   -4.6428   -0.4580 C   0  0  2  0  0  0  0  0  0  0  0  0
    2.7195   -5.9915   -0.2233 O   0  0  0  0  0  0  0  0  0  0  0  0
    2.8165   -5.1880    0.9086 C   0  0  1  0  0  0  0  0  0  0  0  0
    4.1633   -4.7662    1.4156 C   0  0  2  0  0  0  0  0  0  0  0  0
    4.7786   -5.9049    2.0005 O   0  0  0  0  0  0  0  0  0  0  0  0
    3.9324   -3.7593    2.5412 C   0  0  1  0  0  0  0  0  0  0  0  0
    3.2537   -4.3784    3.6213 O   0  0  0  0  0  0  0  0  0  0  0  0
    5.1993   -3.1190    3.0900 C   0  0  0  0  0  0  0  0  0  0  0  0
    5.7840   -2.1046    2.1170 C   0  0  0  0  0  0  0  0  0  0  0  0
    5.7010   -0.9026    2.4001 O   0  0  0  0  0  0  0  0  0  0  0  0
    6.4889   -2.5927    0.8311 C   0  0  0  0  0  0  0  0  0  0  0  0
    7.5515   -1.4895    0.4804 C   0  0  0  0  0  0  0  0  0  0  0  0
    7.4053   -3.8097    1.1755 C   0  0  0  0  0  0  0  0  0  0  0  0
    5.3993   -2.9593   -0.3254 C   0  0  2  0  0  0  0  0  0  0  0  0
    6.2512   -3.1061   -1.4619 O   0  0  0  0  0  0  0  0  0  0  0  0
    4.4775   -1.7665   -0.7727 C   0  0  1  0  0  0  0  0  0  0  0  0
    3.4120   -1.6213    0.1452 O   0  0  0  0  0  0  0  0  0  0  0  0
    5.1237   -0.4201   -1.0704 C   0  0  0  0  0  0  0  0  0  0  0  0
    4.3033   -0.3134   -2.3358 C   0  0  0  0  0  0  0  0  0  0  0  0
    3.9919   -1.5981   -2.2309 C   0  0  0  0  0  0  0  0  0  0  0  0
    4.6134   -4.3479   -0.0392 C   0  0  2  0  0  0  0  0  0  0  0  0
    5.3796   -5.4696   -0.7027 C   0  0  0  0  0  0  0  0  0  0  0  0
    2.5905   -1.2558   -4.7208 H   0  0  0  0  0  0  0  0  0  0  0  0
    3.0043   -2.9065   -5.1577 H   0  0  0  0  0  0  0  0  0  0  0  0
    4.3198   -1.6321   -5.0181 H   0  0  0  0  0  0  0  0  0  0  0  0
    2.0007   -4.1166   -3.6147 H   0  0  0  0  0  0  0  0  0  0  0  0
    1.9117   -2.8970   -1.0602 H   0  0  0  0  0  0  0  0  0  0  0  0
    0.6624   -4.5984   -2.4248 H   0  0  0  0  0  0  0  0  0  0  0  0
    1.8911   -5.0883    1.4610 H   0  0  0  0  0  0  0  0  0  0  0  0
    4.5905   -6.6338    1.4293 H   0  0  0  0  0  0  0  0  0  0  0  0
    3.2702   -2.9747    2.1908 H   0  0  0  0  0  0  0  0  0  0  0  0
    3.8175   -5.0622    3.9493 H   0  0  0  0  0  0  0  0  0  0  0  0
    4.9468   -2.5904    4.0074 H   0  0  0  0  0  0  0  0  0  0  0  0
    5.9359   -3.8712    3.3717 H   0  0  0  0  0  0  0  0  0  0  0  0
    8.0730   -1.6902   -0.4521 H   0  0  0  0  0  0  0  0  0  0  0  0
    8.3460   -1.4231    1.2192 H   0  0  0  0  0  0  0  0  0  0  0  0
    7.1673   -0.4718    0.4770 H   0  0  0  0  0  0  0  0  0  0  0  0
    8.0829   -4.0477    0.3570 H   0  0  0  0  0  0  0  0  0  0  0  0
    6.8834   -4.7057    1.4809 H   0  0  0  0  0  0  0  0  0  0  0  0
    8.0679   -3.6568    2.0056 H   0  0  0  0  0  0  0  0  0  0  0  0
    5.7231   -3.4343   -2.1752 H   0  0  0  0  0  0  0  0  0  0  0  0
    2.6886   -1.2292   -0.3233 H   0  0  0  0  0  0  0  0  0  0  0  0
    4.9155    0.1747   -0.1967 H   0  0  0  0  0  0  0  0  0  0  0  0
    6.1744   -0.4954   -1.3061 H   0  0  0  0  0  0  0  0  0  0  0  0
    4.1986    0.4305   -3.1205 H   0  0  0  0  0  0  0  0  0  0  0  0
    6.4054   -5.4839   -0.3227 H   0  0  0  0  0  0  0  0  0  0  0  0
    5.3191   -5.3871   -1.7832 H   0  0  0  0  0  0  0  0  0  0  0  0
    5.0227   -6.4658   -0.4865 H   0  0  0  0  0  0  0  0  0  0  0  0
  2  1  1  6
  1 29  1  0
  1 30  1  0
  1 31  1  0
  2  4  1  0
  2 26  1  0
  2  3  1  0
  3  4  1  0
  4  5  1  0
  4 32  1  6
  5  6  1  0
  5  7  1  0
  5 33  1  1
  6 34  1  0
  7  9  1  0
  7 27  1  0
  7  8  1  6
  8  9  1  0
  9 10  1  0
  9 35  1  1
 10 27  1  0
 10 11  1  1
 10 12  1  0
 11 36  1  0
 12 13  1  0
 12 14  1  0
 12 37  1  6
 13 38  1  0
 14 15  1  0
 14 39  1  0
 14 40  1  0
 15 16  2  0
 15 17  1  0
 17 18  1  0
 17 19  1  0
 17 20  1  0
 18 41  1  0
 18 42  1  0
 18 43  1  0
 19 44  1  0
 19 45  1  0
 19 46  1  0
 20 21  1  6
 20 22  1  0
 20 27  1  0
 21 47  1  0
 22 26  1  0
 22 23  1  1
 22 24  1  0
 23 48  1  0
 24 25  1  0
 24 49  1  0
 24 50  1  0
 25 26  2  0
 25 51  1  0
 27 28  1  6
 28 52  1  0
 28 53  1  0
 28 54  1  0
M  END
>  <i_m_ct_stereo_status>  (107) 
1

>  <s_m_source_file>  (107) 
/var/tmp/pbs.5076255.sched01/tmpd0mq1ayv/02wja6gfv.sdf

>  <i_m_source_file_index>  (107) 
43

>  <i_lp_mmshare_version>  (107) 
48012

>  <i_f3d_flags>  (107) 
0

>  <s_epik_input>  (107) 
W09IXVtDQEBIXTFbQ0BIXShPMilbQ0BAXTIoW0NIM10pQyg9W0NIXVtDSDJdMylbQ0BAXTMoW09IXSlbQ0BdKFtPSF0pKFtDQEBdNChbQ0gzXSlbQ0BAXTUoW0NAQEhdKFtDQEBdMTQ2KU82KVtPSF0pQyhbQ0gzXSkoW0NIM10pQyg9TylbQ0gyXVtDQEBIXTVbT0hd

>  <s_epik_cmdline>  (107) 
J2VwaWtfcHl0aG9uJywgJy1waHQnLCAnMi4wJywgJy1waCcsICc3LjAnLCAnLXRuJywgJzgnLCAnLW1hJywgJzIwMCcsICctaW1hZScsICc8aW5maWxlLm1hZT4nLCAnLW9tYWUnLCAnPG91dGZpbGUubWFlPic=

>  <r_lp_tautomer_probability>  (107) 
1

>  <r_epik_Ionization_Penalty>  (107) 
9.10859e-07

>  <r_epik_Ionization_Penalty_Charging>  (107) 
0

>  <r_epik_Ionization_Penalty_Neutral>  (107) 
9.10859e-07

>  <r_epik_State_Penalty>  (107) 
-0

>  <r_epik_Charging_Adjusted_Penalty>  (107) 
0

>  <i_epik_Tot_Q>  (107) 
0

>  <i_epik_Tot_abs_Q>  (107) 
0

>  <s_lp_Force_Field>  (107) 
OPLS3e

>  <r_lp_Energy>  (107) 
63.4846

>  <b_lp_Chiralities_Consistent>  (107) 
1

>  <s_lp_Variant>  (107) 
25:0-1

>  <s_i_glide_gridfile>  (107) 
pfpi4k_grid

>  <i_i_glide_lignum>  (107) 
43

>  <i_i_glide_rotatable_bonds>  (107) 
5

>  <r_i_docking_score>  (107) 
-2.92233

>  <r_i_glide_ligand_efficiency>  (107) 
-0.104369

>  <r_i_glide_ligand_efficiency_sa>  (107) 
-0.316925

>  <r_i_glide_ligand_efficiency_ln>  (107) 
-0.674559

>  <r_i_glide_gscore>  (107) 
-2.92233

>  <r_i_glide_lipo>  (107) 
-0.53477

>  <r_i_glide_hbond>  (107) 
0

>  <r_i_glide_metal>  (107) 
-0

>  <r_i_glide_rewards>  (107) 
-1.35758

>  <r_i_glide_evdw>  (107) 
8.09133

>  <r_i_glide_ecoul>  (107) 
-9.56362

>  <r_i_glide_erotb>  (107) 
0

>  <r_i_glide_esite>  (107) 
0

>  <r_i_glide_emodel>  (107) 
-9.83145

>  <r_i_glide_energy>  (107) 
-1.47229

>  <r_i_glide_einternal>  (107) 
2.09755

>  <r_i_glide_intrahb_reward>  (107) 
-0.5

>  <i_i_glide_confnum>  (107) 
2

>  <i_i_glide_posenum>  (107) 
2

>  <r_i_glide_eff_state_penalty>  (107) 
0

>  <ligand_id>  (107) 
25

>  <original_smiles>  (107) 
CC12OC1C(O)C13OC1C1(O)C(O)CC(=O)C(C)(C)C(O)(C4(O)CC=C24)C13C

>  <smiles>  (107) 
[H]OC1([H])C([H])([H])C(=O)C(C([H])([H])[H])(C([H])([H])[H])C2(O[H])C3(O[H])C(=C([H])C3([H])[H])C3(C([H])([H])[H])OC3([H])C([H])(O[H])C34OC3([H])C1(O[H])C42C([H])([H])[H]

$$$$
25:0:2
     RDKit          3D

 54 59  0  0  1  0  0  0  0  0999 V2000
    5.0072   -2.6041   -2.5479 C   0  0  0  0  0  0  0  0  0  0  0  0
    4.7026   -2.9800   -1.1073 C   0  0  2  0  0  0  0  0  0  0  0  0
    3.4563   -3.6043   -0.8982 O   0  0  0  0  0  0  0  0  0  0  0  0
    3.5768   -2.2460   -0.4239 C   0  0  1  0  0  0  0  0  0  0  0  0
    3.6174   -2.0012    1.0581 C   0  0  1  0  0  0  0  0  0  0  0  0
    2.9907   -0.7577    1.2763 O   0  0  0  0  0  0  0  0  0  0  0  0
    2.9459   -3.0883    1.9129 C   0  0  2  0  0  0  0  0  0  0  0  0
    1.6283   -2.7673    2.3729 O   0  0  0  0  0  0  0  0  0  0  0  0
    2.6342   -2.9579    3.3711 C   0  0  1  0  0  0  0  0  0  0  0  0
    3.1550   -4.3422    3.6204 C   0  0  2  0  0  0  0  0  0  0  0  0
    2.1255   -5.0650    4.2687 O   0  0  0  0  0  0  0  0  0  0  0  0
    4.3299   -4.2340    4.6225 C   0  0  1  0  0  0  0  0  0  0  0  0
    3.8881   -3.7419    5.8745 O   0  0  0  0  0  0  0  0  0  0  0  0
    5.0645   -5.5376    4.9364 C   0  0  0  0  0  0  0  0  0  0  0  0
    5.9456   -5.9561    3.7662 C   0  0  0  0  0  0  0  0  0  0  0  0
    7.1661   -5.8439    3.8656 O   0  0  0  0  0  0  0  0  0  0  0  0
    5.2885   -6.4946    2.4690 C   0  0  0  0  0  0  0  0  0  0  0  0
    6.3597   -7.4686    1.8483 C   0  0  0  0  0  0  0  0  0  0  0  0
    4.1903   -7.5228    2.8846 C   0  0  0  0  0  0  0  0  0  0  0  0
    4.7442   -5.2807    1.5131 C   0  0  2  0  0  0  0  0  0  0  0  0
    4.4745   -5.9784    0.2951 O   0  0  0  0  0  0  0  0  0  0  0  0
    5.8818   -4.2900    1.0461 C   0  0  1  0  0  0  0  0  0  0  0  0
    6.0948   -3.3728    2.0845 O   0  0  0  0  0  0  0  0  0  0  0  0
    7.2308   -4.8098    0.4752 C   0  0  0  0  0  0  0  0  0  0  0  0
    7.0915   -3.7780   -0.6425 C   0  0  0  0  0  0  0  0  0  0  0  0
    5.8086   -3.5968   -0.3346 C   0  0  0  0  0  0  0  0  0  0  0  0
    3.3556   -4.6055    2.0739 C   0  0  2  0  0  0  0  0  0  0  0  0
    2.1737   -5.3760    1.4366 C   0  0  0  0  0  0  0  0  0  0  0  0
    5.8243   -1.8794   -2.5917 H   0  0  0  0  0  0  0  0  0  0  0  0
    4.1286   -2.1485   -3.0192 H   0  0  0  0  0  0  0  0  0  0  0  0
    5.2805   -3.4912   -3.1214 H   0  0  0  0  0  0  0  0  0  0  0  0
    3.0507   -1.5055   -1.0162 H   0  0  0  0  0  0  0  0  0  0  0  0
    4.6280   -1.8107    1.3697 H   0  0  0  0  0  0  0  0  0  0  0  0
    2.1729   -0.7938    0.8019 H   0  0  0  0  0  0  0  0  0  0  0  0
    2.9730   -2.1083    3.9781 H   0  0  0  0  0  0  0  0  0  0  0  0
    2.4969   -5.9085    4.4821 H   0  0  0  0  0  0  0  0  0  0  0  0
    5.0826   -3.5007    4.3187 H   0  0  0  0  0  0  0  0  0  0  0  0
    3.5066   -2.8806    5.7629 H   0  0  0  0  0  0  0  0  0  0  0  0
    5.7359   -5.3941    5.7859 H   0  0  0  0  0  0  0  0  0  0  0  0
    4.3891   -6.3368    5.2393 H   0  0  0  0  0  0  0  0  0  0  0  0
    6.0627   -7.8569    0.8799 H   0  0  0  0  0  0  0  0  0  0  0  0
    6.5136   -8.3538    2.4788 H   0  0  0  0  0  0  0  0  0  0  0  0
    7.3688   -7.0574    1.7643 H   0  0  0  0  0  0  0  0  0  0  0  0
    3.8418   -8.0905    2.0207 H   0  0  0  0  0  0  0  0  0  0  0  0
    3.3279   -7.0732    3.3591 H   0  0  0  0  0  0  0  0  0  0  0  0
    4.5747   -8.2557    3.6022 H   0  0  0  0  0  0  0  0  0  0  0  0
    4.1240   -5.3549   -0.3301 H   0  0  0  0  0  0  0  0  0  0  0  0
    6.4937   -3.8387    2.7973 H   0  0  0  0  0  0  0  0  0  0  0  0
    8.0780   -4.7149    1.1565 H   0  0  0  0  0  0  0  0  0  0  0  0
    7.1790   -5.8172    0.0739 H   0  0  0  0  0  0  0  0  0  0  0  0
    7.6885   -3.5027   -1.5197 H   0  0  0  0  0  0  0  0  0  0  0  0
    2.2767   -6.4551    1.5204 H   0  0  0  0  0  0  0  0  0  0  0  0
    2.0750   -5.1371    0.3753 H   0  0  0  0  0  0  0  0  0  0  0  0
    1.2490   -5.0938    1.9286 H   0  0  0  0  0  0  0  0  0  0  0  0
  2  1  1  6
  1 29  1  0
  1 30  1  0
  1 31  1  0
  2  4  1  0
  2 26  1  0
  2  3  1  0
  3  4  1  0
  4  5  1  0
  4 32  1  6
  5  6  1  0
  5  7  1  0
  5 33  1  1
  6 34  1  0
  7  9  1  0
  7 27  1  0
  7  8  1  6
  8  9  1  0
  9 10  1  0
  9 35  1  1
 10 27  1  0
 10 11  1  1
 10 12  1  0
 11 36  1  0
 12 13  1  0
 12 14  1  0
 12 37  1  6
 13 38  1  0
 14 15  1  0
 14 39  1  0
 14 40  1  0
 15 16  2  0
 15 17  1  0
 17 18  1  0
 17 19  1  0
 17 20  1  0
 18 41  1  0
 18 42  1  0
 18 43  1  0
 19 44  1  0
 19 45  1  0
 19 46  1  0
 20 21  1  6
 20 22  1  0
 20 27  1  0
 21 47  1  0
 22 26  1  0
 22 23  1  1
 22 24  1  0
 23 48  1  0
 24 25  1  0
 24 49  1  0
 24 50  1  0
 25 26  2  0
 25 51  1  0
 27 28  1  6
 28 52  1  0
 28 53  1  0
 28 54  1  0
M  END
>  <i_m_ct_stereo_status>  (108) 
1

>  <s_m_source_file>  (108) 
/var/tmp/pbs.5076255.sched01/tmpd0mq1ayv/02wja6gfv.sdf

>  <i_m_source_file_index>  (108) 
43

>  <i_lp_mmshare_version>  (108) 
48012

>  <i_f3d_flags>  (108) 
0

>  <s_epik_input>  (108) 
W09IXVtDQEBIXTFbQ0BIXShPMilbQ0BAXTIoW0NIM10pQyg9W0NIXVtDSDJdMylbQ0BAXTMoW09IXSlbQ0BdKFtPSF0pKFtDQEBdNChbQ0gzXSlbQ0BAXTUoW0NAQEhdKFtDQEBdMTQ2KU82KVtPSF0pQyhbQ0gzXSkoW0NIM10pQyg9TylbQ0gyXVtDQEBIXTVbT0hd

>  <s_epik_cmdline>  (108) 
J2VwaWtfcHl0aG9uJywgJy1waHQnLCAnMi4wJywgJy1waCcsICc3LjAnLCAnLXRuJywgJzgnLCAnLW1hJywgJzIwMCcsICctaW1hZScsICc8aW5maWxlLm1hZT4nLCAnLW9tYWUnLCAnPG91dGZpbGUubWFlPic=

>  <r_lp_tautomer_probability>  (108) 
1

>  <r_epik_Ionization_Penalty>  (108) 
9.10859e-07

>  <r_epik_Ionization_Penalty_Charging>  (108) 
0

>  <r_epik_Ionization_Penalty_Neutral>  (108) 
9.10859e-07

>  <r_epik_State_Penalty>  (108) 
-0

>  <r_epik_Charging_Adjusted_Penalty>  (108) 
0

>  <i_epik_Tot_Q>  (108) 
0

>  <i_epik_Tot_abs_Q>  (108) 
0

>  <s_lp_Force_Field>  (108) 
OPLS3e

>  <r_lp_Energy>  (108) 
63.4846

>  <b_lp_Chiralities_Consistent>  (108) 
1

>  <s_lp_Variant>  (108) 
25:0-1

>  <s_i_glide_gridfile>  (108) 
pfpi4k_grid

>  <i_i_glide_lignum>  (108) 
43

>  <i_i_glide_rotatable_bonds>  (108) 
5

>  <r_i_docking_score>  (108) 
-2.53156

>  <r_i_glide_ligand_efficiency>  (108) 
-0.0904128

>  <r_i_glide_ligand_efficiency_sa>  (108) 
-0.274546

>  <r_i_glide_ligand_efficiency_ln>  (108) 
-0.584358

>  <r_i_glide_gscore>  (108) 
-2.53156

>  <r_i_glide_lipo>  (108) 
-0.637871

>  <r_i_glide_hbond>  (108) 
0

>  <r_i_glide_metal>  (108) 
-0

>  <r_i_glide_rewards>  (108) 
-1.22204

>  <r_i_glide_evdw>  (108) 
-14.6128

>  <r_i_glide_ecoul>  (108) 
0.393301

>  <r_i_glide_erotb>  (108) 
0

>  <r_i_glide_esite>  (108) 
0

>  <r_i_glide_emodel>  (108) 
-23.9679

>  <r_i_glide_energy>  (108) 
-14.2195

>  <r_i_glide_einternal>  (108) 
0.803

>  <r_i_glide_intrahb_reward>  (108) 
-0.5

>  <i_i_glide_confnum>  (108) 
1

>  <i_i_glide_posenum>  (108) 
4

>  <r_i_glide_eff_state_penalty>  (108) 
0

>  <ligand_id>  (108) 
25

>  <original_smiles>  (108) 
CC12OC1C(O)C13OC1C1(O)C(O)CC(=O)C(C)(C)C(O)(C4(O)CC=C24)C13C

>  <smiles>  (108) 
[H]OC1([H])C([H])([H])C(=O)C(C([H])([H])[H])(C([H])([H])[H])C2(O[H])C3(O[H])C(=C([H])C3([H])[H])C3(C([H])([H])[H])OC3([H])C([H])(O[H])C34OC3([H])C1(O[H])C42C([H])([H])[H]

$$$$
26:0:0
     RDKit          3D

 19 21  0  0  1  0  0  0  0  0999 V2000
    5.9266   -0.8889    2.0172 C   0  0  0  0  0  0  0  0  0  0  0  0
    4.9187   -1.6480    1.3127 N   0  0  0  0  0  0  0  0  0  0  0  0
    4.0033   -2.5041    1.8645 N   0  0  0  0  0  0  0  0  0  0  0  0
    3.2566   -3.0113    0.8871 N   0  0  0  0  0  0  0  0  0  0  0  0
    3.6831   -2.4954   -0.2380 C   0  0  0  0  0  0  0  0  0  0  0  0
    4.7251   -1.6485   -0.0011 C   0  0  0  0  0  0  0  0  0  0  0  0
    5.2404   -1.0618   -1.1743 N   0  0  0  0  0  0  0  0  0  0  0  0
    4.4154   -1.5975   -2.1160 C   0  0  0  0  0  0  0  0  0  0  0  0
    4.3009   -1.4670   -3.5297 C   0  0  0  0  0  0  0  0  0  0  0  0
    3.4216   -2.1384   -4.3176 N   0  0  0  0  0  0  0  0  0  0  0  0
    2.5431   -2.9601   -3.7125 C   0  0  0  0  0  0  0  0  0  0  0  0
    2.5454   -3.1345   -2.3235 C   0  0  0  0  0  0  0  0  0  0  0  0
    3.4865   -2.4735   -1.5412 N   0  0  0  0  0  0  0  0  0  0  0  0
    6.5243   -0.2898    1.3272 H   0  0  0  0  0  0  0  0  0  0  0  0
    6.5770   -1.5830    2.5371 H   0  0  0  0  0  0  0  0  0  0  0  0
    5.4479   -0.2483    2.7555 H   0  0  0  0  0  0  0  0  0  0  0  0
    4.9715   -0.8208   -4.0649 H   0  0  0  0  0  0  0  0  0  0  0  0
    1.8175   -3.4754   -4.3394 H   0  0  0  0  0  0  0  0  0  0  0  0
    1.8471   -3.7994   -1.8350 H   0  0  0  0  0  0  0  0  0  0  0  0
  1  2  1  0
  1 14  1  0
  1 15  1  0
  1 16  1  0
  2  6  1  0
  2  3  1  0
  3  4  2  0
  4  5  1  0
  5 13  1  0
  5  6  2  0
  6  7  1  0
  7  8  2  0
  8 13  1  0
  8  9  1  0
  9 10  2  0
  9 17  1  0
 10 11  1  0
 11 12  2  0
 11 18  1  0
 12 13  1  0
 12 19  1  0
M  END
>  <i_m_ct_stereo_status>  (109) 
1

>  <s_m_source_file>  (109) 
/var/tmp/pbs.5076255.sched01/tmpd0mq1ayv/02wja6gfv.sdf

>  <i_m_source_file_index>  (109) 
44

>  <i_lp_mmshare_version>  (109) 
48012

>  <i_f3d_flags>  (109) 
0

>  <s_epik_input>  (109) 
bjFubihbQ0gzXSljKGMxMiluYzNuMltjSF1bY0hdbltjSF0z

>  <s_epik_cmdline>  (109) 
J2VwaWtfcHl0aG9uJywgJy1waHQnLCAnMi4wJywgJy1waCcsICc3LjAnLCAnLXRuJywgJzgnLCAnLW1hJywgJzIwMCcsICctaW1hZScsICc8aW5maWxlLm1hZT4nLCAnLW9tYWUnLCAnPG91dGZpbGUubWFlPic=

>  <r_lp_tautomer_probability>  (109) 
1

>  <r_epik_Ionization_Penalty>  (109) 
1.70909e-08

>  <r_epik_Ionization_Penalty_Charging>  (109) 
3.01162e-09

>  <r_epik_Ionization_Penalty_Neutral>  (109) 
1.40792e-08

>  <r_epik_State_Penalty>  (109) 
-0

>  <r_epik_Charging_Adjusted_Penalty>  (109) 
3.01162e-09

>  <i_epik_Tot_Q>  (109) 
0

>  <i_epik_Tot_abs_Q>  (109) 
0

>  <s_lp_Force_Field>  (109) 
OPLS3e

>  <r_lp_Energy>  (109) 
14.7199

>  <b_lp_Chiralities_Consistent>  (109) 
1

>  <s_lp_Variant>  (109) 
26:0-1

>  <s_i_glide_gridfile>  (109) 
pfpi4k_grid

>  <i_i_glide_lignum>  (109) 
44

>  <i_i_glide_rotatable_bonds>  (109) 
0

>  <r_i_docking_score>  (109) 
-4.95422

>  <r_i_glide_ligand_efficiency>  (109) 
-0.381093

>  <r_i_glide_ligand_efficiency_sa>  (109) 
-0.896078

>  <r_i_glide_ligand_efficiency_ln>  (109) 
-1.3897

>  <r_i_glide_gscore>  (109) 
-4.95422

>  <r_i_glide_lipo>  (109) 
-0.512897

>  <r_i_glide_hbond>  (109) 
-0.32

>  <r_i_glide_metal>  (109) 
-0

>  <r_i_glide_rewards>  (109) 
-2.29593

>  <r_i_glide_evdw>  (109) 
-18.7656

>  <r_i_glide_ecoul>  (109) 
-5.03216

>  <r_i_glide_erotb>  (109) 
0

>  <r_i_glide_esite>  (109) 
-0.132285

>  <r_i_glide_emodel>  (109) 
-31.8396

>  <r_i_glide_energy>  (109) 
-23.7978

>  <r_i_glide_einternal>  (109) 
0

>  <r_i_glide_intrahb_reward>  (109) 
-0

>  <i_i_glide_confnum>  (109) 
2

>  <i_i_glide_posenum>  (109) 
24

>  <r_i_glide_eff_state_penalty>  (109) 
0

>  <ligand_id>  (109) 
26

>  <original_smiles>  (109) 
Cn1nnc2c1nc1cnccn12

>  <smiles>  (109) 
[H]c1nc([H])c2nc3c(nnn3C([H])([H])[H])n2c1[H]

$$$$
26:0:1
     RDKit          3D

 19 21  0  0  1  0  0  0  0  0999 V2000
    5.8193   -4.8664    2.4658 C   0  0  0  0  0  0  0  0  0  0  0  0
    4.7019   -4.4905    1.6201 N   0  0  0  0  0  0  0  0  0  0  0  0
    3.3828   -4.4776    1.9792 N   0  0  0  0  0  0  0  0  0  0  0  0
    2.6636   -4.0773    0.9345 N   0  0  0  0  0  0  0  0  0  0  0  0
    3.4942   -3.8326   -0.0492 C   0  0  0  0  0  0  0  0  0  0  0  0
    4.7730   -4.0888    0.3526 C   0  0  0  0  0  0  0  0  0  0  0  0
    5.7200   -3.8560   -0.6591 N   0  0  0  0  0  0  0  0  0  0  0  0
    4.9260   -3.4548   -1.6857 C   0  0  0  0  0  0  0  0  0  0  0  0
    5.1762   -3.0613   -3.0323 C   0  0  0  0  0  0  0  0  0  0  0  0
    4.2186   -2.6714   -3.9200 N   0  0  0  0  0  0  0  0  0  0  0  0
    2.9319   -2.6735   -3.5109 C   0  0  0  0  0  0  0  0  0  0  0  0
    2.5852   -3.0539   -2.2020 C   0  0  0  0  0  0  0  0  0  0  0  0
    3.5787   -3.4351   -1.3083 N   0  0  0  0  0  0  0  0  0  0  0  0
    6.7716   -4.7922    1.9357 H   0  0  0  0  0  0  0  0  0  0  0  0
    5.6759   -5.8924    2.8091 H   0  0  0  0  0  0  0  0  0  0  0  0
    5.8343   -4.2166    3.3431 H   0  0  0  0  0  0  0  0  0  0  0  0
    6.1862   -3.0625   -3.4129 H   0  0  0  0  0  0  0  0  0  0  0  0
    2.1661   -2.3837   -4.2237 H   0  0  0  0  0  0  0  0  0  0  0  0
    1.5634   -3.0602   -1.8648 H   0  0  0  0  0  0  0  0  0  0  0  0
  1  2  1  0
  1 14  1  0
  1 15  1  0
  1 16  1  0
  2  6  1  0
  2  3  1  0
  3  4  2  0
  4  5  1  0
  5 13  1  0
  5  6  2  0
  6  7  1  0
  7  8  2  0
  8 13  1  0
  8  9  1  0
  9 10  2  0
  9 17  1  0
 10 11  1  0
 11 12  2  0
 11 18  1  0
 12 13  1  0
 12 19  1  0
M  END
>  <i_m_ct_stereo_status>  (110) 
1

>  <s_m_source_file>  (110) 
/var/tmp/pbs.5076255.sched01/tmpd0mq1ayv/02wja6gfv.sdf

>  <i_m_source_file_index>  (110) 
44

>  <i_lp_mmshare_version>  (110) 
48012

>  <i_f3d_flags>  (110) 
0

>  <s_epik_input>  (110) 
bjFubihbQ0gzXSljKGMxMiluYzNuMltjSF1bY0hdbltjSF0z

>  <s_epik_cmdline>  (110) 
J2VwaWtfcHl0aG9uJywgJy1waHQnLCAnMi4wJywgJy1waCcsICc3LjAnLCAnLXRuJywgJzgnLCAnLW1hJywgJzIwMCcsICctaW1hZScsICc8aW5maWxlLm1hZT4nLCAnLW9tYWUnLCAnPG91dGZpbGUubWFlPic=

>  <r_lp_tautomer_probability>  (110) 
1

>  <r_epik_Ionization_Penalty>  (110) 
1.70909e-08

>  <r_epik_Ionization_Penalty_Charging>  (110) 
3.01162e-09

>  <r_epik_Ionization_Penalty_Neutral>  (110) 
1.40792e-08

>  <r_epik_State_Penalty>  (110) 
-0

>  <r_epik_Charging_Adjusted_Penalty>  (110) 
3.01162e-09

>  <i_epik_Tot_Q>  (110) 
0

>  <i_epik_Tot_abs_Q>  (110) 
0

>  <s_lp_Force_Field>  (110) 
OPLS3e

>  <r_lp_Energy>  (110) 
14.7199

>  <b_lp_Chiralities_Consistent>  (110) 
1

>  <s_lp_Variant>  (110) 
26:0-1

>  <s_i_glide_gridfile>  (110) 
pfpi4k_grid

>  <i_i_glide_lignum>  (110) 
44

>  <i_i_glide_rotatable_bonds>  (110) 
0

>  <r_i_docking_score>  (110) 
-4.64507

>  <r_i_glide_ligand_efficiency>  (110) 
-0.357313

>  <r_i_glide_ligand_efficiency_sa>  (110) 
-0.840162

>  <r_i_glide_ligand_efficiency_ln>  (110) 
-1.30298

>  <r_i_glide_gscore>  (110) 
-4.64507

>  <r_i_glide_lipo>  (110) 
-0.440271

>  <r_i_glide_hbond>  (110) 
-0.150889

>  <r_i_glide_metal>  (110) 
-0

>  <r_i_glide_rewards>  (110) 
-2.41785

>  <r_i_glide_evdw>  (110) 
-18.7633

>  <r_i_glide_ecoul>  (110) 
-4.46344

>  <r_i_glide_erotb>  (110) 
0

>  <r_i_glide_esite>  (110) 
-0.0283793

>  <r_i_glide_emodel>  (110) 
-30.7878

>  <r_i_glide_energy>  (110) 
-23.2267

>  <r_i_glide_einternal>  (110) 
0

>  <r_i_glide_intrahb_reward>  (110) 
-0

>  <i_i_glide_confnum>  (110) 
2

>  <i_i_glide_posenum>  (110) 
3

>  <r_i_glide_eff_state_penalty>  (110) 
0

>  <ligand_id>  (110) 
26

>  <original_smiles>  (110) 
Cn1nnc2c1nc1cnccn12

>  <smiles>  (110) 
[H]c1nc([H])c2nc3c(nnn3C([H])([H])[H])n2c1[H]

$$$$
26:0:2
     RDKit          3D

 19 21  0  0  1  0  0  0  0  0999 V2000
    0.2746   -9.5667    3.1977 C   0  0  0  0  0  0  0  0  0  0  0  0
    0.5276   -8.3744    2.4058 N   0  0  0  0  0  0  0  0  0  0  0  0
   -0.4223   -7.5604    1.8572 N   0  0  0  0  0  0  0  0  0  0  0  0
    0.1955   -6.5864    1.1858 N   0  0  0  0  0  0  0  0  0  0  0  0
    1.4878   -6.7672    1.3151 C   0  0  0  0  0  0  0  0  0  0  0  0
    1.7178   -7.8830    2.0684 C   0  0  0  0  0  0  0  0  0  0  0  0
    3.0857   -8.1467    2.2334 N   0  0  0  0  0  0  0  0  0  0  0  0
    3.6533   -7.1220    1.5461 C   0  0  0  0  0  0  0  0  0  0  0  0
    5.0061   -6.7411    1.2813 C   0  0  0  0  0  0  0  0  0  0  0  0
    5.3795   -5.6541    0.5503 N   0  0  0  0  0  0  0  0  0  0  0  0
    4.4015   -4.8750    0.0356 C   0  0  0  0  0  0  0  0  0  0  0  0
    3.0408   -5.1693    0.2409 C   0  0  0  0  0  0  0  0  0  0  0  0
    2.6805   -6.2813    0.9933 N   0  0  0  0  0  0  0  0  0  0  0  0
    1.2055  -10.0451    3.5124 H   0  0  0  0  0  0  0  0  0  0  0  0
   -0.3106  -10.2709    2.6043 H   0  0  0  0  0  0  0  0  0  0  0  0
   -0.3134   -9.2977    4.0774 H   0  0  0  0  0  0  0  0  0  0  0  0
    5.8208   -7.3327    1.6682 H   0  0  0  0  0  0  0  0  0  0  0  0
    4.6933   -4.0124   -0.5571 H   0  0  0  0  0  0  0  0  0  0  0  0
    2.2576   -4.5658   -0.1787 H   0  0  0  0  0  0  0  0  0  0  0  0
  1  2  1  0
  1 14  1  0
  1 15  1  0
  1 16  1  0
  2  6  1  0
  2  3  1  0
  3  4  2  0
  4  5  1  0
  5 13  1  0
  5  6  2  0
  6  7  1  0
  7  8  2  0
  8 13  1  0
  8  9  1  0
  9 10  2  0
  9 17  1  0
 10 11  1  0
 11 12  2  0
 11 18  1  0
 12 13  1  0
 12 19  1  0
M  END
>  <i_m_ct_stereo_status>  (111) 
1

>  <s_m_source_file>  (111) 
/var/tmp/pbs.5076255.sched01/tmpd0mq1ayv/02wja6gfv.sdf

>  <i_m_source_file_index>  (111) 
44

>  <i_lp_mmshare_version>  (111) 
48012

>  <i_f3d_flags>  (111) 
0

>  <s_epik_input>  (111) 
bjFubihbQ0gzXSljKGMxMiluYzNuMltjSF1bY0hdbltjSF0z

>  <s_epik_cmdline>  (111) 
J2VwaWtfcHl0aG9uJywgJy1waHQnLCAnMi4wJywgJy1waCcsICc3LjAnLCAnLXRuJywgJzgnLCAnLW1hJywgJzIwMCcsICctaW1hZScsICc8aW5maWxlLm1hZT4nLCAnLW9tYWUnLCAnPG91dGZpbGUubWFlPic=

>  <r_lp_tautomer_probability>  (111) 
1

>  <r_epik_Ionization_Penalty>  (111) 
1.70909e-08

>  <r_epik_Ionization_Penalty_Charging>  (111) 
3.01162e-09

>  <r_epik_Ionization_Penalty_Neutral>  (111) 
1.40792e-08

>  <r_epik_State_Penalty>  (111) 
-0

>  <r_epik_Charging_Adjusted_Penalty>  (111) 
3.01162e-09

>  <i_epik_Tot_Q>  (111) 
0

>  <i_epik_Tot_abs_Q>  (111) 
0

>  <s_lp_Force_Field>  (111) 
OPLS3e

>  <r_lp_Energy>  (111) 
14.7199

>  <b_lp_Chiralities_Consistent>  (111) 
1

>  <s_lp_Variant>  (111) 
26:0-1

>  <s_i_glide_gridfile>  (111) 
pfpi4k_grid

>  <i_i_glide_lignum>  (111) 
44

>  <i_i_glide_rotatable_bonds>  (111) 
0

>  <r_i_docking_score>  (111) 
-4.44588

>  <r_i_glide_ligand_efficiency>  (111) 
-0.341991

>  <r_i_glide_ligand_efficiency_sa>  (111) 
-0.804135

>  <r_i_glide_ligand_efficiency_ln>  (111) 
-1.24711

>  <r_i_glide_gscore>  (111) 
-4.44588

>  <r_i_glide_lipo>  (111) 
-0.0877403

>  <r_i_glide_hbond>  (111) 
0

>  <r_i_glide_metal>  (111) 
-0

>  <r_i_glide_rewards>  (111) 
-2.30775

>  <r_i_glide_evdw>  (111) 
-16.876

>  <r_i_glide_ecoul>  (111) 
-6.00355

>  <r_i_glide_erotb>  (111) 
0

>  <r_i_glide_esite>  (111) 
-0.306063

>  <r_i_glide_emodel>  (111) 
-30.1017

>  <r_i_glide_energy>  (111) 
-22.8795

>  <r_i_glide_einternal>  (111) 
0

>  <r_i_glide_intrahb_reward>  (111) 
-0

>  <i_i_glide_confnum>  (111) 
2

>  <i_i_glide_posenum>  (111) 
4

>  <r_i_glide_eff_state_penalty>  (111) 
0

>  <ligand_id>  (111) 
26

>  <original_smiles>  (111) 
Cn1nnc2c1nc1cnccn12

>  <smiles>  (111) 
[H]c1nc([H])c2nc3c(nnn3C([H])([H])[H])n2c1[H]

$$$$
27:0:0
     RDKit          3D

 38 40  0  0  1  0  0  0  0  0999 V2000
   -2.8091    3.7282    2.8701 C   0  0  0  0  0  0  0  0  0  0  0  0
   -1.9464    2.6586    3.2110 O   0  0  0  0  0  0  0  0  0  0  0  0
   -0.7148    2.9354    3.7063 C   0  0  0  0  0  0  0  0  0  0  0  0
   -0.3455    4.0673    4.0137 O   0  0  0  0  0  0  0  0  0  0  0  0
    0.0907    1.7186    3.9050 C   0  0  0  0  0  0  0  0  0  0  0  0
    1.4074    1.6497    3.5808 C   0  0  0  0  0  0  0  0  0  0  0  0
    2.1987    2.8000    2.9521 C   0  0  0  0  0  0  0  0  0  0  0  0
    2.1762    0.5061    3.8479 N   0  0  0  0  0  0  0  0  0  0  0  0
    1.6389   -0.6062    4.1915 C   0  0  0  0  0  0  0  0  0  0  0  0
    2.5156   -1.8452    4.4666 C   0  0  0  0  0  0  0  0  0  0  0  0
    1.7502   -3.1623    4.2370 C   0  0  0  0  0  0  0  0  0  0  0  0
    0.5072   -3.3043    5.1181 C   0  0  0  0  0  0  0  0  0  0  0  0
   -0.2932   -2.0015    5.2271 C   0  0  0  0  0  0  0  0  0  0  0  0
   -1.2586   -1.9577    5.9883 O   0  0  0  0  0  0  0  0  0  0  0  0
    0.1182   -0.8039    4.3325 C   0  0  1  0  0  0  0  0  0  0  0  0
   -0.5848    0.5527    4.6137 C   0  0  1  0  0  0  0  0  0  0  0  0
   -0.6704    0.8483    6.1074 C   0  0  0  0  0  0  0  0  0  0  0  0
   -1.7736    1.3889    6.8311 C   0  0  0  0  0  0  0  0  0  0  0  0
   -1.3816    1.4607    8.1365 C   0  0  0  0  0  0  0  0  0  0  0  0
   -0.1290    1.0060    8.2918 O   0  0  0  0  0  0  0  0  0  0  0  0
    0.3035    0.6585    7.0475 C   0  0  0  0  0  0  0  0  0  0  0  0
   -3.7636    3.3469    2.5145 H   0  0  0  0  0  0  0  0  0  0  0  0
   -2.3500    4.3305    2.0873 H   0  0  0  0  0  0  0  0  0  0  0  0
   -2.9780    4.3704    3.7372 H   0  0  0  0  0  0  0  0  0  0  0  0
    1.5592    3.6004    2.5559 H   0  0  0  0  0  0  0  0  0  0  0  0
    2.8359    2.4138    2.1284 H   0  0  0  0  0  0  0  0  0  0  0  0
    2.8767    3.2405    3.6839 H   0  0  0  0  0  0  0  0  0  0  0  0
    3.3884   -1.8123    3.8202 H   0  0  0  0  0  0  0  0  0  0  0  0
    2.8795   -1.7867    5.4885 H   0  0  0  0  0  0  0  0  0  0  0  0
    1.4651   -3.2418    3.1886 H   0  0  0  0  0  0  0  0  0  0  0  0
    2.4191   -4.0068    4.4333 H   0  0  0  0  0  0  0  0  0  0  0  0
   -0.1606   -4.0817    4.7247 H   0  0  0  0  0  0  0  0  0  0  0  0
    0.7857   -3.6003    6.1230 H   0  0  0  0  0  0  0  0  0  0  0  0
   -0.1956   -1.0941    3.3251 H   0  0  0  0  0  0  0  0  0  0  0  0
   -1.6050    0.4357    4.2638 H   0  0  0  0  0  0  0  0  0  0  0  0
   -2.7398    1.6739    6.4374 H   0  0  0  0  0  0  0  0  0  0  0  0
   -1.8740    1.7773    9.0477 H   0  0  0  0  0  0  0  0  0  0  0  0
    1.3145    0.2714    7.0069 H   0  0  0  0  0  0  0  0  0  0  0  0
  1  2  1  0
  1 22  1  0
  1 23  1  0
  1 24  1  0
  2  3  1  0
  3  4  2  0
  3  5  1  0
  5 16  1  0
  5  6  2  0
  6  7  1  0
  6  8  1  0
  7 25  1  0
  7 26  1  0
  7 27  1  0
  8  9  2  0
  9 15  1  0
  9 10  1  0
 10 11  1  0
 10 28  1  0
 10 29  1  0
 11 12  1  0
 11 30  1  0
 11 31  1  0
 12 13  1  0
 12 32  1  0
 12 33  1  0
 13 14  2  0
 13 15  1  0
 15 16  1  0
 15 34  1  6
 16 17  1  0
 16 35  1  6
 17 21  2  0
 17 18  1  0
 18 19  2  0
 18 36  1  0
 19 20  1  0
 19 37  1  0
 20 21  1  0
 21 38  1  0
M  END
>  <i_m_ct_stereo_status>  (112) 
1

>  <s_m_source_file>  (112) 
/var/tmp/pbs.5076255.sched01/tmp6h9xbnrx/445q66801d.sdf

>  <i_m_source_file_index>  (112) 
1

>  <i_lp_mmshare_version>  (112) 
48012

>  <i_f3d_flags>  (112) 
0

>  <s_epik_input>  (112) 
W2NIXTFvW2NIXVtjSF1jMVtDQEBIXShDKD1DKE49MilbQ0gzXSlDKD1PKU9bQ0gzXSlbQ0BASF0oQzIzKUMoPU8pW0NIMl1bQ0gyXVtDSDJdMw==

>  <s_epik_cmdline>  (112) 
J2VwaWtfcHl0aG9uJywgJy1waHQnLCAnMi4wJywgJy1waCcsICc3LjAnLCAnLXRuJywgJzgnLCAnLW1hJywgJzIwMCcsICctaW1hZScsICc8aW5maWxlLm1hZT4nLCAnLW9tYWUnLCAnPG91dGZpbGUubWFlPic=

>  <r_lp_tautomer_probability>  (112) 
0.499981

>  <r_epik_Ionization_Penalty>  (112) 
3.46663e-10

>  <r_epik_Ionization_Penalty_Charging>  (112) 
0

>  <r_epik_Ionization_Penalty_Neutral>  (112) 
3.46663e-10

>  <r_epik_State_Penalty>  (112) 
0.41068

>  <r_epik_Charging_Adjusted_Penalty>  (112) 
0.41068

>  <i_epik_Tot_Q>  (112) 
0

>  <i_epik_Tot_abs_Q>  (112) 
0

>  <s_epik_Chemistry_Notes>  (112) 
This compound has an ester and may undergo hydrolysis at high or low pH. This compound has an imine and may undergo hydrolysis.

>  <s_lp_Force_Field>  (112) 
OPLS3e

>  <r_lp_Energy>  (112) 
23.9697

>  <b_lp_Chiralities_Consistent>  (112) 
1

>  <s_lp_Variant>  (112) 
27:0-1

>  <s_i_glide_gridfile>  (112) 
pfpi4k_grid

>  <i_i_glide_lignum>  (112) 
1

>  <i_i_glide_rotatable_bonds>  (112) 
3

>  <r_i_docking_score>  (112) 
-2.70242

>  <r_i_glide_ligand_efficiency>  (112) 
-0.128687

>  <r_i_glide_ligand_efficiency_sa>  (112) 
-0.355037

>  <r_i_glide_ligand_efficiency_ln>  (112) 
-0.668168

>  <r_i_glide_gscore>  (112) 
-2.70242

>  <r_i_glide_lipo>  (112) 
-0.00982869

>  <r_i_glide_hbond>  (112) 
0

>  <r_i_glide_metal>  (112) 
-0

>  <r_i_glide_rewards>  (112) 
-1.45016

>  <r_i_glide_evdw>  (112) 
-21.2156

>  <r_i_glide_ecoul>  (112) 
-3.63966

>  <r_i_glide_erotb>  (112) 
0.440337

>  <r_i_glide_esite>  (112) 
-0.0760449

>  <r_i_glide_emodel>  (112) 
-28.4455

>  <r_i_glide_energy>  (112) 
-24.8553

>  <r_i_glide_einternal>  (112) 
1.44539

>  <r_i_glide_intrahb_reward>  (112) 
-0

>  <i_i_glide_confnum>  (112) 
1

>  <i_i_glide_posenum>  (112) 
25

>  <r_i_glide_eff_state_penalty>  (112) 
0

>  <ligand_id>  (112) 
27

>  <original_smiles>  (112) 
COC(=O)C1=C(C)N=C2CCCC(=O)C2C1c1ccoc1

>  <smiles>  (112) 
[H]c1oc([H])c(C2([H])C(C(=O)OC([H])([H])[H])=C(C([H])([H])[H])N=C3C([H])([H])C([H])([H])C([H])([H])C(=O)C32[H])c1[H]

$$$$
27:0:1
     RDKit          3D

 38 40  0  0  1  0  0  0  0  0999 V2000
   -0.2312   -2.3455    5.1097 C   0  0  0  0  0  0  0  0  0  0  0  0
    0.0790   -1.0583    4.6240 O   0  0  0  0  0  0  0  0  0  0  0  0
    0.2469   -0.0388    5.4856 C   0  0  0  0  0  0  0  0  0  0  0  0
   -0.0430   -0.0890    6.6875 O   0  0  0  0  0  0  0  0  0  0  0  0
    0.8376    1.1387    4.8146 C   0  0  0  0  0  0  0  0  0  0  0  0
    1.8122    1.0455    3.8716 C   0  0  0  0  0  0  0  0  0  0  0  0
    2.4393   -0.2644    3.3971 C   0  0  0  0  0  0  0  0  0  0  0  0
    2.3114    2.1838    3.2118 N   0  0  0  0  0  0  0  0  0  0  0  0
    2.0550    3.3720    3.6085 C   0  0  0  0  0  0  0  0  0  0  0  0
    2.6306    4.5811    2.8757 C   0  0  0  0  0  0  0  0  0  0  0  0
    2.7895    5.8148    3.7785 C   0  0  0  0  0  0  0  0  0  0  0  0
    1.4608    6.2699    4.4032 C   0  0  0  0  0  0  0  0  0  0  0  0
    0.5858    5.1056    4.8605 C   0  0  0  0  0  0  0  0  0  0  0  0
   -0.5674    5.3420    5.2567 O   0  0  0  0  0  0  0  0  0  0  0  0
    1.2013    3.6730    4.8601 C   0  0  1  0  0  0  0  0  0  0  0  0
    0.2461    2.4870    5.1773 C   0  0  1  0  0  0  0  0  0  0  0  0
   -1.0861    2.6598    4.4692 C   0  0  0  0  0  0  0  0  0  0  0  0
   -1.3045    2.7526    3.0638 C   0  0  0  0  0  0  0  0  0  0  0  0
   -2.6376    2.9498    2.8878 C   0  0  0  0  0  0  0  0  0  0  0  0
   -3.2854    2.9874    4.0774 O   0  0  0  0  0  0  0  0  0  0  0  0
   -2.3325    2.7764    5.0241 C   0  0  0  0  0  0  0  0  0  0  0  0
   -0.2442   -3.0503    4.2778 H   0  0  0  0  0  0  0  0  0  0  0  0
   -1.2103   -2.4069    5.6174 H   0  0  0  0  0  0  0  0  0  0  0  0
    0.5422   -2.6785    5.8101 H   0  0  0  0  0  0  0  0  0  0  0  0
    2.2104   -1.1002    4.0608 H   0  0  0  0  0  0  0  0  0  0  0  0
    3.5391   -0.1616    3.2937 H   0  0  0  0  0  0  0  0  0  0  0  0
    2.0614   -0.5283    2.3971 H   0  0  0  0  0  0  0  0  0  0  0  0
    3.6008    4.3240    2.4421 H   0  0  0  0  0  0  0  0  0  0  0  0
    1.9792    4.8199    2.0340 H   0  0  0  0  0  0  0  0  0  0  0  0
    3.5070    5.6002    4.5687 H   0  0  0  0  0  0  0  0  0  0  0  0
    3.2054    6.6423    3.2049 H   0  0  0  0  0  0  0  0  0  0  0  0
    1.6422    6.9231    5.2587 H   0  0  0  0  0  0  0  0  0  0  0  0
    0.8858    6.8402    3.6781 H   0  0  0  0  0  0  0  0  0  0  0  0
    1.9274    3.6879    5.6670 H   0  0  0  0  0  0  0  0  0  0  0  0
    0.0532    2.5208    6.2467 H   0  0  0  0  0  0  0  0  0  0  0  0
   -0.5577    2.7249    2.2891 H   0  0  0  0  0  0  0  0  0  0  0  0
   -3.2584    3.0788    2.0095 H   0  0  0  0  0  0  0  0  0  0  0  0
   -2.6981    2.7765    6.0545 H   0  0  0  0  0  0  0  0  0  0  0  0
  1  2  1  0
  1 22  1  0
  1 23  1  0
  1 24  1  0
  2  3  1  0
  3  4  2  0
  3  5  1  0
  5 16  1  0
  5  6  2  0
  6  7  1  0
  6  8  1  0
  7 25  1  0
  7 26  1  0
  7 27  1  0
  8  9  2  0
  9 15  1  0
  9 10  1  0
 10 11  1  0
 10 28  1  0
 10 29  1  0
 11 12  1  0
 11 30  1  0
 11 31  1  0
 12 13  1  0
 12 32  1  0
 12 33  1  0
 13 14  2  0
 13 15  1  0
 15 16  1  0
 15 34  1  1
 16 17  1  0
 16 35  1  1
 17 21  2  0
 17 18  1  0
 18 19  2  0
 18 36  1  0
 19 20  1  0
 19 37  1  0
 20 21  1  0
 21 38  1  0
M  END
>  <i_m_ct_stereo_status>  (113) 
1

>  <s_m_source_file>  (113) 
/var/tmp/pbs.5076255.sched01/tmp6h9xbnrx/445q66801d.sdf

>  <i_m_source_file_index>  (113) 
1

>  <i_lp_mmshare_version>  (113) 
48012

>  <i_f3d_flags>  (113) 
0

>  <s_epik_input>  (113) 
W2NIXTFvW2NIXVtjSF1jMVtDQEBIXShDKD1DKE49MilbQ0gzXSlDKD1PKU9bQ0gzXSlbQ0BASF0oQzIzKUMoPU8pW0NIMl1bQ0gyXVtDSDJdMw==

>  <s_epik_cmdline>  (113) 
J2VwaWtfcHl0aG9uJywgJy1waHQnLCAnMi4wJywgJy1waCcsICc3LjAnLCAnLXRuJywgJzgnLCAnLW1hJywgJzIwMCcsICctaW1hZScsICc8aW5maWxlLm1hZT4nLCAnLW9tYWUnLCAnPG91dGZpbGUubWFlPic=

>  <r_lp_tautomer_probability>  (113) 
0.499981

>  <r_epik_Ionization_Penalty>  (113) 
3.46663e-10

>  <r_epik_Ionization_Penalty_Charging>  (113) 
0

>  <r_epik_Ionization_Penalty_Neutral>  (113) 
3.46663e-10

>  <r_epik_State_Penalty>  (113) 
0.41068

>  <r_epik_Charging_Adjusted_Penalty>  (113) 
0.41068

>  <i_epik_Tot_Q>  (113) 
0

>  <i_epik_Tot_abs_Q>  (113) 
0

>  <s_epik_Chemistry_Notes>  (113) 
This compound has an ester and may undergo hydrolysis at high or low pH. This compound has an imine and may undergo hydrolysis.

>  <s_lp_Force_Field>  (113) 
OPLS3e

>  <r_lp_Energy>  (113) 
23.9697

>  <b_lp_Chiralities_Consistent>  (113) 
1

>  <s_lp_Variant>  (113) 
27:0-1

>  <s_i_glide_gridfile>  (113) 
pfpi4k_grid

>  <i_i_glide_lignum>  (113) 
1

>  <i_i_glide_rotatable_bonds>  (113) 
3

>  <r_i_docking_score>  (113) 
-2.66301

>  <r_i_glide_ligand_efficiency>  (113) 
-0.12681

>  <r_i_glide_ligand_efficiency_sa>  (113) 
-0.34986

>  <r_i_glide_ligand_efficiency_ln>  (113) 
-0.658425

>  <r_i_glide_gscore>  (113) 
-2.66301

>  <r_i_glide_lipo>  (113) 
-0.0152832

>  <r_i_glide_hbond>  (113) 
0

>  <r_i_glide_metal>  (113) 
-0

>  <r_i_glide_rewards>  (113) 
-1.45016

>  <r_i_glide_evdw>  (113) 
-22.0492

>  <r_i_glide_ecoul>  (113) 
-3.08084

>  <r_i_glide_erotb>  (113) 
0.440337

>  <r_i_glide_esite>  (113) 
-0.0733246

>  <r_i_glide_emodel>  (113) 
-28.5667

>  <r_i_glide_energy>  (113) 
-25.1301

>  <r_i_glide_einternal>  (113) 
0.282415

>  <r_i_glide_intrahb_reward>  (113) 
-0

>  <i_i_glide_confnum>  (113) 
3

>  <i_i_glide_posenum>  (113) 
27

>  <r_i_glide_eff_state_penalty>  (113) 
0

>  <ligand_id>  (113) 
27

>  <original_smiles>  (113) 
COC(=O)C1=C(C)N=C2CCCC(=O)C2C1c1ccoc1

>  <smiles>  (113) 
[H]c1oc([H])c(C2([H])C(C(=O)OC([H])([H])[H])=C(C([H])([H])[H])N=C3C([H])([H])C([H])([H])C([H])([H])C(=O)C32[H])c1[H]

$$$$
27:0:2
     RDKit          3D

 38 40  0  0  1  0  0  0  0  0999 V2000
    2.0933    1.3247    2.0697 C   0  0  0  0  0  0  0  0  0  0  0  0
    1.3074    1.6119    3.2115 O   0  0  0  0  0  0  0  0  0  0  0  0
   -0.0360    1.5732    3.1100 C   0  0  0  0  0  0  0  0  0  0  0  0
   -0.6382    1.1923    2.1064 O   0  0  0  0  0  0  0  0  0  0  0  0
   -0.7034    1.9585    4.3760 C   0  0  0  0  0  0  0  0  0  0  0  0
   -1.8464    2.7008    4.4148 C   0  0  0  0  0  0  0  0  0  0  0  0
   -2.5563    3.2795    3.1905 C   0  0  0  0  0  0  0  0  0  0  0  0
   -2.5011    2.9592    5.6316 N   0  0  0  0  0  0  0  0  0  0  0  0
   -1.9717    2.7161    6.7704 C   0  0  0  0  0  0  0  0  0  0  0  0
   -2.7184    3.0319    8.0673 C   0  0  0  0  0  0  0  0  0  0  0  0
   -1.7697    3.3057    9.2511 C   0  0  0  0  0  0  0  0  0  0  0  0
   -0.8370    2.1274    9.5602 C   0  0  0  0  0  0  0  0  0  0  0  0
   -0.3010    1.4587    8.2967 C   0  0  0  0  0  0  0  0  0  0  0  0
    0.3388    0.4149    8.4136 O   0  0  0  0  0  0  0  0  0  0  0  0
   -0.5551    2.1393    6.9244 C   0  0  1  0  0  0  0  0  0  0  0  0
   -0.1314    1.3390    5.6558 C   0  0  1  0  0  0  0  0  0  0  0  0
   -0.5414   -0.1201    5.7269 C   0  0  0  0  0  0  0  0  0  0  0  0
    0.3094   -1.2504    5.9639 C   0  0  0  0  0  0  0  0  0  0  0  0
   -0.4911   -2.3339    5.9952 C   0  0  0  0  0  0  0  0  0  0  0  0
   -1.7849   -1.9959    5.7578 O   0  0  0  0  0  0  0  0  0  0  0  0
   -1.7759   -0.6434    5.5882 C   0  0  0  0  0  0  0  0  0  0  0  0
    3.1588    1.3455    2.3163 H   0  0  0  0  0  0  0  0  0  0  0  0
    1.8967    2.0757    1.3012 H   0  0  0  0  0  0  0  0  0  0  0  0
    1.8456    0.3438    1.6540 H   0  0  0  0  0  0  0  0  0  0  0  0
   -1.9508    3.2865    2.2804 H   0  0  0  0  0  0  0  0  0  0  0  0
   -2.8759    4.3058    3.3780 H   0  0  0  0  0  0  0  0  0  0  0  0
   -3.4610    2.7036    2.9810 H   0  0  0  0  0  0  0  0  0  0  0  0
   -3.3611    3.8986    7.9190 H   0  0  0  0  0  0  0  0  0  0  0  0
   -3.3720    2.1942    8.2973 H   0  0  0  0  0  0  0  0  0  0  0  0
   -1.1695    4.1942    9.0461 H   0  0  0  0  0  0  0  0  0  0  0  0
   -2.3540    3.5287   10.1478 H   0  0  0  0  0  0  0  0  0  0  0  0
    0.0074    2.4516   10.1693 H   0  0  0  0  0  0  0  0  0  0  0  0
   -1.3698    1.3641   10.1286 H   0  0  0  0  0  0  0  0  0  0  0  0
    0.0926    3.0157    6.9351 H   0  0  0  0  0  0  0  0  0  0  0  0
    0.9567    1.3750    5.6281 H   0  0  0  0  0  0  0  0  0  0  0  0
    1.3749   -1.2339    6.1314 H   0  0  0  0  0  0  0  0  0  0  0  0
   -0.3209   -3.3944    6.1845 H   0  0  0  0  0  0  0  0  0  0  0  0
   -2.7575   -0.2099    5.4061 H   0  0  0  0  0  0  0  0  0  0  0  0
  1  2  1  0
  1 22  1  0
  1 23  1  0
  1 24  1  0
  2  3  1  0
  3  4  2  0
  3  5  1  0
  5 16  1  0
  5  6  2  0
  6  7  1  0
  6  8  1  0
  7 25  1  0
  7 26  1  0
  7 27  1  0
  8  9  2  0
  9 15  1  0
  9 10  1  0
 10 11  1  0
 10 28  1  0
 10 29  1  0
 11 12  1  0
 11 30  1  0
 11 31  1  0
 12 13  1  0
 12 32  1  0
 12 33  1  0
 13 14  2  0
 13 15  1  0
 15 16  1  0
 15 34  1  1
 16 17  1  0
 16 35  1  6
 17 21  2  0
 17 18  1  0
 18 19  2  0
 18 36  1  0
 19 20  1  0
 19 37  1  0
 20 21  1  0
 21 38  1  0
M  END
>  <i_m_ct_stereo_status>  (114) 
1

>  <s_m_source_file>  (114) 
/var/tmp/pbs.5076255.sched01/tmp6h9xbnrx/445q66801d.sdf

>  <i_m_source_file_index>  (114) 
1

>  <i_lp_mmshare_version>  (114) 
48012

>  <i_f3d_flags>  (114) 
0

>  <s_epik_input>  (114) 
W2NIXTFvW2NIXVtjSF1jMVtDQEBIXShDKD1DKE49MilbQ0gzXSlDKD1PKU9bQ0gzXSlbQ0BASF0oQzIzKUMoPU8pW0NIMl1bQ0gyXVtDSDJdMw==

>  <s_epik_cmdline>  (114) 
J2VwaWtfcHl0aG9uJywgJy1waHQnLCAnMi4wJywgJy1waCcsICc3LjAnLCAnLXRuJywgJzgnLCAnLW1hJywgJzIwMCcsICctaW1hZScsICc8aW5maWxlLm1hZT4nLCAnLW9tYWUnLCAnPG91dGZpbGUubWFlPic=

>  <r_lp_tautomer_probability>  (114) 
0.499981

>  <r_epik_Ionization_Penalty>  (114) 
3.46663e-10

>  <r_epik_Ionization_Penalty_Charging>  (114) 
0

>  <r_epik_Ionization_Penalty_Neutral>  (114) 
3.46663e-10

>  <r_epik_State_Penalty>  (114) 
0.41068

>  <r_epik_Charging_Adjusted_Penalty>  (114) 
0.41068

>  <i_epik_Tot_Q>  (114) 
0

>  <i_epik_Tot_abs_Q>  (114) 
0

>  <s_epik_Chemistry_Notes>  (114) 
This compound has an ester and may undergo hydrolysis at high or low pH. This compound has an imine and may undergo hydrolysis.

>  <s_lp_Force_Field>  (114) 
OPLS3e

>  <r_lp_Energy>  (114) 
23.9697

>  <b_lp_Chiralities_Consistent>  (114) 
1

>  <s_lp_Variant>  (114) 
27:0-1

>  <s_i_glide_gridfile>  (114) 
pfpi4k_grid

>  <i_i_glide_lignum>  (114) 
1

>  <i_i_glide_rotatable_bonds>  (114) 
3

>  <r_i_docking_score>  (114) 
-2.66043

>  <r_i_glide_ligand_efficiency>  (114) 
-0.126687

>  <r_i_glide_ligand_efficiency_sa>  (114) 
-0.34952

>  <r_i_glide_ligand_efficiency_ln>  (114) 
-0.657785

>  <r_i_glide_gscore>  (114) 
-2.66043

>  <r_i_glide_lipo>  (114) 
-0.110904

>  <r_i_glide_hbond>  (114) 
0

>  <r_i_glide_metal>  (114) 
-0

>  <r_i_glide_rewards>  (114) 
-1.54591

>  <r_i_glide_evdw>  (114) 
-25.8078

>  <r_i_glide_ecoul>  (114) 
-0.617578

>  <r_i_glide_erotb>  (114) 
0.440337

>  <r_i_glide_esite>  (114) 
-0.0609189

>  <r_i_glide_emodel>  (114) 
-30.0149

>  <r_i_glide_energy>  (114) 
-26.4254

>  <r_i_glide_einternal>  (114) 
1.28686

>  <r_i_glide_intrahb_reward>  (114) 
-0

>  <i_i_glide_confnum>  (114) 
1

>  <i_i_glide_posenum>  (114) 
10

>  <r_i_glide_eff_state_penalty>  (114) 
0

>  <ligand_id>  (114) 
27

>  <original_smiles>  (114) 
COC(=O)C1=C(C)N=C2CCCC(=O)C2C1c1ccoc1

>  <smiles>  (114) 
[H]c1oc([H])c(C2([H])C(C(=O)OC([H])([H])[H])=C(C([H])([H])[H])N=C3C([H])([H])C([H])([H])C([H])([H])C(=O)C32[H])c1[H]

$$$$
27:1:0
     RDKit          3D

 38 40  0  0  1  0  0  0  0  0999 V2000
   -2.1477   -9.4689    2.5745 C   0  0  0  0  0  0  0  0  0  0  0  0
   -1.5871   -8.2272    2.2149 O   0  0  0  0  0  0  0  0  0  0  0  0
   -0.4659   -7.7596    2.7912 C   0  0  0  0  0  0  0  0  0  0  0  0
    0.0133   -6.6739    2.4497 O   0  0  0  0  0  0  0  0  0  0  0  0
    0.1672   -8.6503    3.9017 C   0  0  1  0  0  0  0  0  0  0  0  0
    1.5603   -9.2326    3.5404 C   0  0  0  0  0  0  0  0  0  0  0  0
    1.7732   -9.7100    2.1191 C   0  0  0  0  0  0  0  0  0  0  0  0
    2.4897   -9.4278    4.3847 N   0  0  0  0  0  0  0  0  0  0  0  0
    2.3148   -9.1630    5.7438 C   0  0  0  0  0  0  0  0  0  0  0  0
    3.4159   -9.0838    6.5004 C   0  0  0  0  0  0  0  0  0  0  0  0
    3.3918   -8.7347    7.9726 C   0  0  0  0  0  0  0  0  0  0  0  0
    2.1360   -7.9289    8.3612 C   0  0  0  0  0  0  0  0  0  0  0  0
    0.8560   -8.5237    7.7741 C   0  0  0  0  0  0  0  0  0  0  0  0
   -0.1728   -8.6232    8.4506 O   0  0  0  0  0  0  0  0  0  0  0  0
    0.8971   -8.9431    6.2915 C   0  0  1  0  0  0  0  0  0  0  0  0
    0.1033   -8.0354    5.3340 C   0  0  1  0  0  0  0  0  0  0  0  0
    0.4608   -6.5528    5.4487 C   0  0  0  0  0  0  0  0  0  0  0  0
    1.6032   -5.8903    4.9055 C   0  0  0  0  0  0  0  0  0  0  0  0
    1.4946   -4.5718    5.2405 C   0  0  0  0  0  0  0  0  0  0  0  0
    0.3660   -4.3485    5.9646 O   0  0  0  0  0  0  0  0  0  0  0  0
   -0.2385   -5.5637    6.0870 C   0  0  0  0  0  0  0  0  0  0  0  0
   -3.0177   -9.6575    1.9774 H   0  0  0  0  0  0  0  0  0  0  0  0
   -2.4326   -9.4624    3.6372 H   0  0  0  0  0  0  0  0  0  0  0  0
   -1.4181  -10.2658    2.3864 H   0  0  0  0  0  0  0  0  0  0  0  0
    0.9877  -10.4086    1.8519 H   0  0  0  0  0  0  0  0  0  0  0  0
    2.7231  -10.2397    2.0247 H   0  0  0  0  0  0  0  0  0  0  0  0
    1.7748   -8.8962    1.4003 H   0  0  0  0  0  0  0  0  0  0  0  0
    4.3837   -9.2720    6.0532 H   0  0  0  0  0  0  0  0  0  0  0  0
   -0.4388   -9.5500    4.0080 H   0  0  0  0  0  0  0  0  0  0  0  0
    4.2841   -8.1486    8.1928 H   0  0  0  0  0  0  0  0  0  0  0  0
    3.4561   -9.6636    8.5410 H   0  0  0  0  0  0  0  0  0  0  0  0
    2.0516   -7.8585    9.4446 H   0  0  0  0  0  0  0  0  0  0  0  0
    2.2262   -6.9128    7.9738 H   0  0  0  0  0  0  0  0  0  0  0  0
    0.4241   -9.9264    6.2619 H   0  0  0  0  0  0  0  0  0  0  0  0
   -0.9420   -8.0976    5.6259 H   0  0  0  0  0  0  0  0  0  0  0  0
    2.3957   -6.3329    4.3192 H   0  0  0  0  0  0  0  0  0  0  0  0
    2.0992   -3.7002    5.0365 H   0  0  0  0  0  0  0  0  0  0  0  0
   -1.1670   -5.5419    6.6426 H   0  0  0  0  0  0  0  0  0  0  0  0
  1  2  1  0
  1 22  1  0
  1 23  1  0
  1 24  1  0
  2  3  1  0
  3  4  2  0
  3  5  1  0
  5 16  1  0
  5 29  1  1
  5  6  1  0
  6  7  1  0
  6  8  2  0
  7 25  1  0
  7 26  1  0
  7 27  1  0
  8  9  1  0
  9 15  1  0
  9 10  2  0
 10 11  1  0
 10 28  1  0
 11 12  1  0
 11 30  1  0
 11 31  1  0
 12 13  1  0
 12 32  1  0
 12 33  1  0
 13 14  2  0
 13 15  1  0
 15 16  1  0
 15 34  1  1
 16 17  1  0
 16 35  1  1
 17 21  2  0
 17 18  1  0
 18 19  2  0
 18 36  1  0
 19 20  1  0
 19 37  1  0
 20 21  1  0
 21 38  1  0
M  END
>  <i_m_ct_stereo_status>  (115) 
1

>  <s_m_source_file>  (115) 
/var/tmp/pbs.5076255.sched01/tmp6h9xbnrx/445q66801d.sdf

>  <i_m_source_file_index>  (115) 
2

>  <i_lp_mmshare_version>  (115) 
48012

>  <i_f3d_flags>  (115) 
0

>  <s_epik_input>  (115) 
W2NIXTFvW2NIXVtjSF1jMVtDQEBIXShDKD1DKE49MilbQ0gzXSlDKD1PKU9bQ0gzXSlbQ0BASF0oQzIzKUMoPU8pW0NIMl1bQ0gyXVtDSDJdMw==

>  <s_epik_cmdline>  (115) 
J2VwaWtfcHl0aG9uJywgJy1waHQnLCAnMi4wJywgJy1waCcsICc3LjAnLCAnLXRuJywgJzgnLCAnLW1hJywgJzIwMCcsICctaW1hZScsICc8aW5maWxlLm1hZT4nLCAnLW9tYWUnLCAnPG91dGZpbGUubWFlPic=

>  <r_lp_tautomer_probability>  (115) 
0.499981

>  <r_epik_Ionization_Penalty>  (115) 
2.83155e-11

>  <r_epik_Ionization_Penalty_Charging>  (115) 
0

>  <r_epik_Ionization_Penalty_Neutral>  (115) 
2.83155e-11

>  <r_epik_State_Penalty>  (115) 
0.41068

>  <r_epik_Charging_Adjusted_Penalty>  (115) 
0.41068

>  <i_epik_Tot_Q>  (115) 
0

>  <i_epik_Tot_abs_Q>  (115) 
0

>  <s_epik_Chemistry_Notes>  (115) 
This compound has an ester and may undergo hydrolysis at high or low pH. This compound has an imine and may undergo hydrolysis.

>  <s_lp_Force_Field>  (115) 
OPLS3e

>  <r_lp_Energy>  (115) 
12.0799

>  <b_lp_Chiralities_Consistent>  (115) 
1

>  <s_lp_Variant>  (115) 
27:0-2

>  <s_i_glide_gridfile>  (115) 
pfpi4k_grid

>  <i_i_glide_lignum>  (115) 
2

>  <i_i_glide_rotatable_bonds>  (115) 
3

>  <r_i_docking_score>  (115) 
-3.08855

>  <r_i_glide_ligand_efficiency>  (115) 
-0.147074

>  <r_i_glide_ligand_efficiency_sa>  (115) 
-0.405766

>  <r_i_glide_ligand_efficiency_ln>  (115) 
-0.763638

>  <r_i_glide_gscore>  (115) 
-3.08855

>  <r_i_glide_lipo>  (115) 
-0.226514

>  <r_i_glide_hbond>  (115) 
-0.134232

>  <r_i_glide_metal>  (115) 
-0

>  <r_i_glide_rewards>  (115) 
-1.45016

>  <r_i_glide_evdw>  (115) 
-20.1849

>  <r_i_glide_ecoul>  (115) 
-3.96231

>  <r_i_glide_erotb>  (115) 
0.440337

>  <r_i_glide_esite>  (115) 
-0.114394

>  <r_i_glide_emodel>  (115) 
-25.9985

>  <r_i_glide_energy>  (115) 
-24.1472

>  <r_i_glide_einternal>  (115) 
7.11996

>  <r_i_glide_intrahb_reward>  (115) 
-0

>  <i_i_glide_confnum>  (115) 
4

>  <i_i_glide_posenum>  (115) 
27

>  <r_i_glide_eff_state_penalty>  (115) 
0

>  <ligand_id>  (115) 
27

>  <original_smiles>  (115) 
COC(=O)C1=C(C)N=C2CCCC(=O)C2C1c1ccoc1

>  <smiles>  (115) 
[H]C1=C2N=C(C([H])([H])[H])C([H])(C(=O)OC([H])([H])[H])C([H])(c3c([H])oc([H])c3[H])C2([H])C(=O)C([H])([H])C1([H])[H]

$$$$
27:1:1
     RDKit          3D

 38 40  0  0  1  0  0  0  0  0999 V2000
    1.4807    0.5634    1.4282 C   0  0  0  0  0  0  0  0  0  0  0  0
    1.1162    1.4013    2.5116 O   0  0  0  0  0  0  0  0  0  0  0  0
   -0.1833    1.5319    2.8235 C   0  0  0  0  0  0  0  0  0  0  0  0
   -1.1014    0.9462    2.2557 O   0  0  0  0  0  0  0  0  0  0  0  0
   -0.4057    2.4650    4.0368 C   0  0  1  0  0  0  0  0  0  0  0  0
   -1.8055    3.1354    4.1197 C   0  0  0  0  0  0  0  0  0  0  0  0
   -2.4290    3.6562    2.8409 C   0  0  0  0  0  0  0  0  0  0  0  0
   -2.4303    3.3446    5.2122 N   0  0  0  0  0  0  0  0  0  0  0  0
   -1.8900    3.0179    6.4526 C   0  0  0  0  0  0  0  0  0  0  0  0
   -2.7232    2.9599    7.5091 C   0  0  0  0  0  0  0  0  0  0  0  0
   -2.2832    2.5896    8.9088 C   0  0  0  0  0  0  0  0  0  0  0  0
   -1.0121    1.7221    8.9032 C   0  0  0  0  0  0  0  0  0  0  0  0
    0.0558    2.2729    7.9558 C   0  0  0  0  0  0  0  0  0  0  0  0
    1.2364    2.3271    8.2926 O   0  0  0  0  0  0  0  0  0  0  0  0
   -0.3929    2.7304    6.5550 C   0  0  1  0  0  0  0  0  0  0  0  0
    0.0488    1.8214    5.3879 C   0  0  1  0  0  0  0  0  0  0  0  0
   -0.3678    0.3662    5.5790 C   0  0  0  0  0  0  0  0  0  0  0  0
    0.4362   -0.6962    6.0875 C   0  0  0  0  0  0  0  0  0  0  0  0
   -0.3377   -1.8196    6.0661 C   0  0  0  0  0  0  0  0  0  0  0  0
   -1.5825   -1.5399    5.5972 O   0  0  0  0  0  0  0  0  0  0  0  0
   -1.5757   -0.2170    5.2937 C   0  0  0  0  0  0  0  0  0  0  0  0
    2.5605    0.5702    1.2910 H   0  0  0  0  0  0  0  0  0  0  0  0
    1.0160    0.9228    0.5109 H   0  0  0  0  0  0  0  0  0  0  0  0
    1.1689   -0.4673    1.6003 H   0  0  0  0  0  0  0  0  0  0  0  0
   -1.7565    4.3503    2.3433 H   0  0  0  0  0  0  0  0  0  0  0  0
   -3.3497    4.1915    3.0565 H   0  0  0  0  0  0  0  0  0  0  0  0
   -2.6936    2.8528    2.1588 H   0  0  0  0  0  0  0  0  0  0  0  0
   -3.7732    3.1905    7.3930 H   0  0  0  0  0  0  0  0  0  0  0  0
    0.2704    3.3045    3.8651 H   0  0  0  0  0  0  0  0  0  0  0  0
   -3.0992    2.0554    9.3976 H   0  0  0  0  0  0  0  0  0  0  0  0
   -2.1303    3.5080    9.4791 H   0  0  0  0  0  0  0  0  0  0  0  0
   -0.6108    1.6316    9.9114 H   0  0  0  0  0  0  0  0  0  0  0  0
   -1.2561    0.7170    8.5603 H   0  0  0  0  0  0  0  0  0  0  0  0
    0.0886    3.6980    6.4029 H   0  0  0  0  0  0  0  0  0  0  0  0
    1.1405    1.8032    5.3787 H   0  0  0  0  0  0  0  0  0  0  0  0
    1.4624   -0.6500    6.4243 H   0  0  0  0  0  0  0  0  0  0  0  0
   -0.1606   -2.8521    6.3360 H   0  0  0  0  0  0  0  0  0  0  0  0
   -2.5020    0.1481    4.8757 H   0  0  0  0  0  0  0  0  0  0  0  0
  1  2  1  0
  1 22  1  0
  1 23  1  0
  1 24  1  0
  2  3  1  0
  3  4  2  0
  3  5  1  0
  5 16  1  0
  5 29  1  6
  5  6  1  0
  6  7  1  0
  6  8  2  0
  7 25  1  0
  7 26  1  0
  7 27  1  0
  8  9  1  0
  9 15  1  0
  9 10  2  0
 10 11  1  0
 10 28  1  0
 11 12  1  0
 11 30  1  0
 11 31  1  0
 12 13  1  0
 12 32  1  0
 12 33  1  0
 13 14  2  0
 13 15  1  0
 15 16  1  0
 15 34  1  6
 16 17  1  0
 16 35  1  6
 17 21  2  0
 17 18  1  0
 18 19  2  0
 18 36  1  0
 19 20  1  0
 19 37  1  0
 20 21  1  0
 21 38  1  0
M  END
>  <i_m_ct_stereo_status>  (116) 
1

>  <s_m_source_file>  (116) 
/var/tmp/pbs.5076255.sched01/tmp6h9xbnrx/445q66801d.sdf

>  <i_m_source_file_index>  (116) 
2

>  <i_lp_mmshare_version>  (116) 
48012

>  <i_f3d_flags>  (116) 
0

>  <s_epik_input>  (116) 
W2NIXTFvW2NIXVtjSF1jMVtDQEBIXShDKD1DKE49MilbQ0gzXSlDKD1PKU9bQ0gzXSlbQ0BASF0oQzIzKUMoPU8pW0NIMl1bQ0gyXVtDSDJdMw==

>  <s_epik_cmdline>  (116) 
J2VwaWtfcHl0aG9uJywgJy1waHQnLCAnMi4wJywgJy1waCcsICc3LjAnLCAnLXRuJywgJzgnLCAnLW1hJywgJzIwMCcsICctaW1hZScsICc8aW5maWxlLm1hZT4nLCAnLW9tYWUnLCAnPG91dGZpbGUubWFlPic=

>  <r_lp_tautomer_probability>  (116) 
0.499981

>  <r_epik_Ionization_Penalty>  (116) 
2.83155e-11

>  <r_epik_Ionization_Penalty_Charging>  (116) 
0

>  <r_epik_Ionization_Penalty_Neutral>  (116) 
2.83155e-11

>  <r_epik_State_Penalty>  (116) 
0.41068

>  <r_epik_Charging_Adjusted_Penalty>  (116) 
0.41068

>  <i_epik_Tot_Q>  (116) 
0

>  <i_epik_Tot_abs_Q>  (116) 
0

>  <s_epik_Chemistry_Notes>  (116) 
This compound has an ester and may undergo hydrolysis at high or low pH. This compound has an imine and may undergo hydrolysis.

>  <s_lp_Force_Field>  (116) 
OPLS3e

>  <r_lp_Energy>  (116) 
12.0799

>  <b_lp_Chiralities_Consistent>  (116) 
1

>  <s_lp_Variant>  (116) 
27:0-2

>  <s_i_glide_gridfile>  (116) 
pfpi4k_grid

>  <i_i_glide_lignum>  (116) 
2

>  <i_i_glide_rotatable_bonds>  (116) 
3

>  <r_i_docking_score>  (116) 
-2.70334

>  <r_i_glide_ligand_efficiency>  (116) 
-0.128731

>  <r_i_glide_ligand_efficiency_sa>  (116) 
-0.355158

>  <r_i_glide_ligand_efficiency_ln>  (116) 
-0.668396

>  <r_i_glide_gscore>  (116) 
-2.70334

>  <r_i_glide_lipo>  (116) 
-0.221155

>  <r_i_glide_hbond>  (116) 
0

>  <r_i_glide_metal>  (116) 
-0

>  <r_i_glide_rewards>  (116) 
-1.45016

>  <r_i_glide_evdw>  (116) 
-23.4969

>  <r_i_glide_ecoul>  (116) 
-1.37939

>  <r_i_glide_erotb>  (116) 
0.440337

>  <r_i_glide_esite>  (116) 
-0.0906131

>  <r_i_glide_emodel>  (116) 
-29.5605

>  <r_i_glide_energy>  (116) 
-24.8763

>  <r_i_glide_einternal>  (116) 
0.23185

>  <r_i_glide_intrahb_reward>  (116) 
-0

>  <i_i_glide_confnum>  (116) 
4

>  <i_i_glide_posenum>  (116) 
37

>  <r_i_glide_eff_state_penalty>  (116) 
0

>  <ligand_id>  (116) 
27

>  <original_smiles>  (116) 
COC(=O)C1=C(C)N=C2CCCC(=O)C2C1c1ccoc1

>  <smiles>  (116) 
[H]C1=C2N=C(C([H])([H])[H])C([H])(C(=O)OC([H])([H])[H])C([H])(c3c([H])oc([H])c3[H])C2([H])C(=O)C([H])([H])C1([H])[H]

$$$$
27:1:2
     RDKit          3D

 38 40  0  0  1  0  0  0  0  0999 V2000
    2.0669    2.2947    2.5706 C   0  0  0  0  0  0  0  0  0  0  0  0
    0.9983    1.4727    2.1224 O   0  0  0  0  0  0  0  0  0  0  0  0
   -0.2684    1.5765    2.6086 C   0  0  0  0  0  0  0  0  0  0  0  0
   -1.2165    0.9584    2.1268 O   0  0  0  0  0  0  0  0  0  0  0  0
   -0.4409    2.4729    3.8673 C   0  0  1  0  0  0  0  0  0  0  0  0
   -1.8309    3.1594    4.0142 C   0  0  0  0  0  0  0  0  0  0  0  0
   -2.4654    3.7478    2.7671 C   0  0  0  0  0  0  0  0  0  0  0  0
   -2.4179    3.3508    5.1241 N   0  0  0  0  0  0  0  0  0  0  0  0
   -1.8350    2.9883    6.3360 C   0  0  0  0  0  0  0  0  0  0  0  0
   -2.6292    2.9323    7.4195 C   0  0  0  0  0  0  0  0  0  0  0  0
   -2.1438    2.4892    8.7861 C   0  0  0  0  0  0  0  0  0  0  0  0
   -0.9011    1.5782    8.7059 C   0  0  0  0  0  0  0  0  0  0  0  0
    0.1487    2.1274    7.7456 C   0  0  0  0  0  0  0  0  0  0  0  0
    1.3478    2.1249    8.0306 O   0  0  0  0  0  0  0  0  0  0  0  0
   -0.3462    2.6482    6.3818 C   0  0  1  0  0  0  0  0  0  0  0  0
    0.0251    1.7555    5.1852 C   0  0  1  0  0  0  0  0  0  0  0  0
   -0.4347    0.3055    5.3411 C   0  0  0  0  0  0  0  0  0  0  0  0
    0.3499   -0.8074    5.7579 C   0  0  0  0  0  0  0  0  0  0  0  0
   -0.4636   -1.9019    5.7265 C   0  0  0  0  0  0  0  0  0  0  0  0
   -1.7197   -1.5609    5.3218 O   0  0  0  0  0  0  0  0  0  0  0  0
   -1.6709   -0.2253    5.0797 C   0  0  0  0  0  0  0  0  0  0  0  0
    2.9838    2.0257    2.0465 H   0  0  0  0  0  0  0  0  0  0  0  0
    2.2333    2.1808    3.6419 H   0  0  0  0  0  0  0  0  0  0  0  0
    1.8411    3.3391    2.3347 H   0  0  0  0  0  0  0  0  0  0  0  0
   -1.7768    4.4208    2.2646 H   0  0  0  0  0  0  0  0  0  0  0  0
   -3.3530    4.3282    3.0063 H   0  0  0  0  0  0  0  0  0  0  0  0
   -2.7733    2.9723    2.0737 H   0  0  0  0  0  0  0  0  0  0  0  0
   -3.6733    3.1998    7.3407 H   0  0  0  0  0  0  0  0  0  0  0  0
    0.2191    3.3344    3.7413 H   0  0  0  0  0  0  0  0  0  0  0  0
   -2.9620    1.9543    9.2761 H   0  0  0  0  0  0  0  0  0  0  0  0
   -1.9354    3.3813    9.3823 H   0  0  0  0  0  0  0  0  0  0  0  0
   -0.4649    1.4397    9.6947 H   0  0  0  0  0  0  0  0  0  0  0  0
   -1.1875    0.5937    8.3333 H   0  0  0  0  0  0  0  0  0  0  0  0
    0.1774    3.5920    6.2303 H   0  0  0  0  0  0  0  0  0  0  0  0
    1.1115    1.6851    5.1680 H   0  0  0  0  0  0  0  0  0  0  0  0
    1.3936   -0.8040    6.0366 H   0  0  0  0  0  0  0  0  0  0  0  0
   -0.3123   -2.9473    5.9469 H   0  0  0  0  0  0  0  0  0  0  0  0
   -2.5904    0.2018    4.6977 H   0  0  0  0  0  0  0  0  0  0  0  0
  1  2  1  0
  1 22  1  0
  1 23  1  0
  1 24  1  0
  2  3  1  0
  3  4  2  0
  3  5  1  0
  5 16  1  0
  5 29  1  6
  5  6  1  0
  6  7  1  0
  6  8  2  0
  7 25  1  0
  7 26  1  0
  7 27  1  0
  8  9  1  0
  9 15  1  0
  9 10  2  0
 10 11  1  0
 10 28  1  0
 11 12  1  0
 11 30  1  0
 11 31  1  0
 12 13  1  0
 12 32  1  0
 12 33  1  0
 13 14  2  0
 13 15  1  0
 15 16  1  0
 15 34  1  6
 16 17  1  0
 16 35  1  6
 17 21  2  0
 17 18  1  0
 18 19  2  0
 18 36  1  0
 19 20  1  0
 19 37  1  0
 20 21  1  0
 21 38  1  0
M  END
>  <i_m_ct_stereo_status>  (117) 
1

>  <s_m_source_file>  (117) 
/var/tmp/pbs.5076255.sched01/tmp6h9xbnrx/445q66801d.sdf

>  <i_m_source_file_index>  (117) 
2

>  <i_lp_mmshare_version>  (117) 
48012

>  <i_f3d_flags>  (117) 
0

>  <s_epik_input>  (117) 
W2NIXTFvW2NIXVtjSF1jMVtDQEBIXShDKD1DKE49MilbQ0gzXSlDKD1PKU9bQ0gzXSlbQ0BASF0oQzIzKUMoPU8pW0NIMl1bQ0gyXVtDSDJdMw==

>  <s_epik_cmdline>  (117) 
J2VwaWtfcHl0aG9uJywgJy1waHQnLCAnMi4wJywgJy1waCcsICc3LjAnLCAnLXRuJywgJzgnLCAnLW1hJywgJzIwMCcsICctaW1hZScsICc8aW5maWxlLm1hZT4nLCAnLW9tYWUnLCAnPG91dGZpbGUubWFlPic=

>  <r_lp_tautomer_probability>  (117) 
0.499981

>  <r_epik_Ionization_Penalty>  (117) 
2.83155e-11

>  <r_epik_Ionization_Penalty_Charging>  (117) 
0

>  <r_epik_Ionization_Penalty_Neutral>  (117) 
2.83155e-11

>  <r_epik_State_Penalty>  (117) 
0.41068

>  <r_epik_Charging_Adjusted_Penalty>  (117) 
0.41068

>  <i_epik_Tot_Q>  (117) 
0

>  <i_epik_Tot_abs_Q>  (117) 
0

>  <s_epik_Chemistry_Notes>  (117) 
This compound has an ester and may undergo hydrolysis at high or low pH. This compound has an imine and may undergo hydrolysis.

>  <s_lp_Force_Field>  (117) 
OPLS3e

>  <r_lp_Energy>  (117) 
12.0799

>  <b_lp_Chiralities_Consistent>  (117) 
1

>  <s_lp_Variant>  (117) 
27:0-2

>  <s_i_glide_gridfile>  (117) 
pfpi4k_grid

>  <i_i_glide_lignum>  (117) 
2

>  <i_i_glide_rotatable_bonds>  (117) 
3

>  <r_i_docking_score>  (117) 
-2.66635

>  <r_i_glide_ligand_efficiency>  (117) 
-0.126969

>  <r_i_glide_ligand_efficiency_sa>  (117) 
-0.350298

>  <r_i_glide_ligand_efficiency_ln>  (117) 
-0.659249

>  <r_i_glide_gscore>  (117) 
-2.66635

>  <r_i_glide_lipo>  (117) 
-0.211246

>  <r_i_glide_hbond>  (117) 
0

>  <r_i_glide_metal>  (117) 
-0

>  <r_i_glide_rewards>  (117) 
-1.45016

>  <r_i_glide_evdw>  (117) 
-23.8237

>  <r_i_glide_ecoul>  (117) 
-1.02966

>  <r_i_glide_erotb>  (117) 
0.440337

>  <r_i_glide_esite>  (117) 
-0.0996498

>  <r_i_glide_emodel>  (117) 
-26.5785

>  <r_i_glide_energy>  (117) 
-24.8533

>  <r_i_glide_einternal>  (117) 
5.80056

>  <r_i_glide_intrahb_reward>  (117) 
-0

>  <i_i_glide_confnum>  (117) 
3

>  <i_i_glide_posenum>  (117) 
35

>  <r_i_glide_eff_state_penalty>  (117) 
0

>  <ligand_id>  (117) 
27

>  <original_smiles>  (117) 
COC(=O)C1=C(C)N=C2CCCC(=O)C2C1c1ccoc1

>  <smiles>  (117) 
[H]C1=C2N=C(C([H])([H])[H])C([H])(C(=O)OC([H])([H])[H])C([H])(c3c([H])oc([H])c3[H])C2([H])C(=O)C([H])([H])C1([H])[H]

$$$$
27:2:0
     RDKit          3D

 38 40  0  0  1  0  0  0  0  0999 V2000
    1.3272    0.9374    1.6706 C   0  0  0  0  0  0  0  0  0  0  0  0
    2.5569    1.0081    2.3814 O   0  0  0  0  0  0  0  0  0  0  0  0
    3.5167    0.0539    2.2691 C   0  0  0  0  0  0  0  0  0  0  0  0
    4.5687    0.1022    2.9168 O   0  0  0  0  0  0  0  0  0  0  0  0
    3.2229   -1.1189    1.2893 C   0  0  2  0  0  0  0  0  0  0  0  0
    2.8015   -2.3706    2.1143 C   0  0  0  0  0  0  0  0  0  0  0  0
    1.4574   -2.2974    2.8066 C   0  0  0  0  0  0  0  0  0  0  0  0
    3.4711   -3.4474    2.2138 N   0  0  0  0  0  0  0  0  0  0  0  0
    4.7024   -3.6107    1.5757 C   0  0  0  0  0  0  0  0  0  0  0  0
    5.1569   -4.8643    1.4139 C   0  0  0  0  0  0  0  0  0  0  0  0
    6.4483   -5.1882    0.6987 C   0  0  0  0  0  0  0  0  0  0  0  0
    6.8269   -4.1018   -0.3236 C   0  0  0  0  0  0  0  0  0  0  0  0
    6.7025   -2.6909    0.2409 C   0  0  0  0  0  0  0  0  0  0  0  0
    7.5621   -1.8391    0.0049 O   0  0  0  0  0  0  0  0  0  0  0  0
    5.4465   -2.3691    1.0676 C   0  0  1  0  0  0  0  0  0  0  0  0
    4.4675   -1.3861    0.3865 C   0  0  1  0  0  0  0  0  0  0  0  0
    4.0305   -1.7863   -1.0137 C   0  0  0  0  0  0  0  0  0  0  0  0
    3.3386   -2.9737   -1.3984 C   0  0  0  0  0  0  0  0  0  0  0  0
    3.1142   -2.8909   -2.7423 C   0  0  0  0  0  0  0  0  0  0  0  0
    3.6139   -1.7301   -3.2401 O   0  0  0  0  0  0  0  0  0  0  0  0
    4.1575   -1.0729   -2.1766 C   0  0  0  0  0  0  0  0  0  0  0  0
    0.7142    1.7977    1.9004 H   0  0  0  0  0  0  0  0  0  0  0  0
    0.7749    0.0515    1.9917 H   0  0  0  0  0  0  0  0  0  0  0  0
    1.5166    0.8693    0.5876 H   0  0  0  0  0  0  0  0  0  0  0  0
    0.6796   -2.0630    2.0891 H   0  0  0  0  0  0  0  0  0  0  0  0
    1.4430   -1.5321    3.5767 H   0  0  0  0  0  0  0  0  0  0  0  0
    1.1970   -3.2482    3.2720 H   0  0  0  0  0  0  0  0  0  0  0  0
    4.5877   -5.7010    1.8027 H   0  0  0  0  0  0  0  0  0  0  0  0
    2.4006   -0.8384    0.6275 H   0  0  0  0  0  0  0  0  0  0  0  0
    6.3134   -6.1413    0.1880 H   0  0  0  0  0  0  0  0  0  0  0  0
    7.2286   -5.3076    1.4511 H   0  0  0  0  0  0  0  0  0  0  0  0
    7.8419   -4.2563   -0.6873 H   0  0  0  0  0  0  0  0  0  0  0  0
    6.1580   -4.1659   -1.1866 H   0  0  0  0  0  0  0  0  0  0  0  0
    5.8226   -1.8845    1.9685 H   0  0  0  0  0  0  0  0  0  0  0  0
    5.0044   -0.4455    0.2428 H   0  0  0  0  0  0  0  0  0  0  0  0
    3.0171   -3.7913   -0.7707 H   0  0  0  0  0  0  0  0  0  0  0  0
    2.6332   -3.5436   -3.4560 H   0  0  0  0  0  0  0  0  0  0  0  0
    4.5655   -0.1040   -2.4217 H   0  0  0  0  0  0  0  0  0  0  0  0
  1  2  1  0
  1 22  1  0
  1 23  1  0
  1 24  1  0
  2  3  1  0
  3  4  2  0
  3  5  1  0
  5 16  1  0
  5 29  1  6
  5  6  1  0
  6  7  1  0
  6  8  2  0
  7 25  1  0
  7 26  1  0
  7 27  1  0
  8  9  1  0
  9 15  1  0
  9 10  2  0
 10 11  1  0
 10 28  1  0
 11 12  1  0
 11 30  1  0
 11 31  1  0
 12 13  1  0
 12 32  1  0
 12 33  1  0
 13 14  2  0
 13 15  1  0
 15 16  1  0
 15 34  1  1
 16 17  1  0
 16 35  1  6
 17 21  2  0
 17 18  1  0
 18 19  2  0
 18 36  1  0
 19 20  1  0
 19 37  1  0
 20 21  1  0
 21 38  1  0
M  END
>  <i_m_ct_stereo_status>  (118) 
1

>  <s_m_source_file>  (118) 
/var/tmp/pbs.5076255.sched01/tmp6h9xbnrx/445q66801d.sdf

>  <i_m_source_file_index>  (118) 
3

>  <i_lp_mmshare_version>  (118) 
48012

>  <i_f3d_flags>  (118) 
0

>  <s_epik_input>  (118) 
W2NIXTFvW2NIXVtjSF1jMVtDQEBIXShDKD1DKE49MilbQ0gzXSlDKD1PKU9bQ0gzXSlbQ0BASF0oQzIzKUMoPU8pW0NIMl1bQ0gyXVtDSDJdMw==

>  <s_epik_cmdline>  (118) 
J2VwaWtfcHl0aG9uJywgJy1waHQnLCAnMi4wJywgJy1waCcsICc3LjAnLCAnLXRuJywgJzgnLCAnLW1hJywgJzIwMCcsICctaW1hZScsICc8aW5maWxlLm1hZT4nLCAnLW9tYWUnLCAnPG91dGZpbGUubWFlPic=

>  <r_lp_tautomer_probability>  (118) 
0.499981

>  <r_epik_Ionization_Penalty>  (118) 
2.83155e-11

>  <r_epik_Ionization_Penalty_Charging>  (118) 
0

>  <r_epik_Ionization_Penalty_Neutral>  (118) 
2.83155e-11

>  <r_epik_State_Penalty>  (118) 
0.41068

>  <r_epik_Charging_Adjusted_Penalty>  (118) 
0.41068

>  <i_epik_Tot_Q>  (118) 
0

>  <i_epik_Tot_abs_Q>  (118) 
0

>  <s_epik_Chemistry_Notes>  (118) 
This compound has an ester and may undergo hydrolysis at high or low pH. This compound has an imine and may undergo hydrolysis.

>  <s_lp_Force_Field>  (118) 
OPLS3e

>  <r_lp_Energy>  (118) 
7.84591

>  <b_lp_Chiralities_Consistent>  (118) 
1

>  <s_lp_Variant>  (118) 
27:0-3

>  <s_i_glide_gridfile>  (118) 
pfpi4k_grid

>  <i_i_glide_lignum>  (118) 
3

>  <i_i_glide_rotatable_bonds>  (118) 
3

>  <r_i_docking_score>  (118) 
-3.42869

>  <r_i_glide_ligand_efficiency>  (118) 
-0.163271

>  <r_i_glide_ligand_efficiency_sa>  (118) 
-0.450452

>  <r_i_glide_ligand_efficiency_ln>  (118) 
-0.847736

>  <r_i_glide_gscore>  (118) 
-3.42869

>  <r_i_glide_lipo>  (118) 
-0.30168

>  <r_i_glide_hbond>  (118) 
-0.119848

>  <r_i_glide_metal>  (118) 
-0

>  <r_i_glide_rewards>  (118) 
-1.59615

>  <r_i_glide_evdw>  (118) 
-24.1338

>  <r_i_glide_ecoul>  (118) 
-4.23437

>  <r_i_glide_erotb>  (118) 
0.440337

>  <r_i_glide_esite>  (118) 
-0.0094975

>  <r_i_glide_emodel>  (118) 
-31.2582

>  <r_i_glide_energy>  (118) 
-28.3682

>  <r_i_glide_einternal>  (118) 
6.35385

>  <r_i_glide_intrahb_reward>  (118) 
-0

>  <i_i_glide_confnum>  (118) 
1

>  <i_i_glide_posenum>  (118) 
24

>  <r_i_glide_eff_state_penalty>  (118) 
0

>  <ligand_id>  (118) 
27

>  <original_smiles>  (118) 
COC(=O)C1=C(C)N=C2CCCC(=O)C2C1c1ccoc1

>  <smiles>  (118) 
[H]C1=C2N=C(C([H])([H])[H])C([H])(C(=O)OC([H])([H])[H])C([H])(c3c([H])oc([H])c3[H])C2([H])C(=O)C([H])([H])C1([H])[H]

$$$$
27:2:1
     RDKit          3D

 38 40  0  0  1  0  0  0  0  0999 V2000
    1.5413   -1.0734    2.7730 C   0  0  0  0  0  0  0  0  0  0  0  0
    2.1207   -1.8731    1.7561 O   0  0  0  0  0  0  0  0  0  0  0  0
    2.7552   -3.0171    2.0724 C   0  0  0  0  0  0  0  0  0  0  0  0
    2.8840   -3.4593    3.2169 O   0  0  0  0  0  0  0  0  0  0  0  0
    3.3174   -3.7288    0.8159 C   0  0  2  0  0  0  0  0  0  0  0  0
    3.8217   -5.1605    1.1439 C   0  0  0  0  0  0  0  0  0  0  0  0
    2.7549   -6.1955    1.4668 C   0  0  0  0  0  0  0  0  0  0  0  0
    5.0357   -5.5291    1.1331 N   0  0  0  0  0  0  0  0  0  0  0  0
    6.0789   -4.6377    0.8219 C   0  0  0  0  0  0  0  0  0  0  0  0
    7.2819   -5.1602    0.5224 C   0  0  0  0  0  0  0  0  0  0  0  0
    8.4832   -4.3347    0.1030 C   0  0  0  0  0  0  0  0  0  0  0  0
    8.1171   -2.9600   -0.5200 C   0  0  0  0  0  0  0  0  0  0  0  0
    6.9777   -2.2847    0.2694 C   0  0  0  0  0  0  0  0  0  0  0  0
    6.9867   -1.0655    0.4752 O   0  0  0  0  0  0  0  0  0  0  0  0
    5.7999   -3.1446    0.7952 C   0  0  1  0  0  0  0  0  0  0  0  0
    4.4238   -2.8635    0.1317 C   0  0  1  0  0  0  0  0  0  0  0  0
    4.3735   -2.9838   -1.3933 C   0  0  0  0  0  0  0  0  0  0  0  0
    3.3035   -2.5507   -2.2580 C   0  0  0  0  0  0  0  0  0  0  0  0
    3.6879   -2.8171   -3.5328 C   0  0  0  0  0  0  0  0  0  0  0  0
    4.9164   -3.4142   -3.5485 O   0  0  0  0  0  0  0  0  0  0  0  0
    5.2916   -3.5550   -2.2452 C   0  0  0  0  0  0  0  0  0  0  0  0
    1.0777   -0.1918    2.3310 H   0  0  0  0  0  0  0  0  0  0  0  0
    2.2901   -0.7307    3.4874 H   0  0  0  0  0  0  0  0  0  0  0  0
    0.7683   -1.6176    3.3162 H   0  0  0  0  0  0  0  0  0  0  0  0
    2.0495   -6.3153    0.6466 H   0  0  0  0  0  0  0  0  0  0  0  0
    2.2144   -5.9330    2.3734 H   0  0  0  0  0  0  0  0  0  0  0  0
    3.2198   -7.1697    1.6472 H   0  0  0  0  0  0  0  0  0  0  0  0
    7.4155   -6.2252    0.5594 H   0  0  0  0  0  0  0  0  0  0  0  0
    2.4674   -3.8210    0.1370 H   0  0  0  0  0  0  0  0  0  0  0  0
    9.0297   -4.9196   -0.6425 H   0  0  0  0  0  0  0  0  0  0  0  0
    9.1258   -4.2222    0.9829 H   0  0  0  0  0  0  0  0  0  0  0  0
    9.0063   -2.3103   -0.5221 H   0  0  0  0  0  0  0  0  0  0  0  0
    7.8143   -3.0853   -1.5417 H   0  0  0  0  0  0  0  0  0  0  0  0
    5.6921   -2.8710    1.8496 H   0  0  0  0  0  0  0  0  0  0  0  0
    4.1985   -1.8092    0.3072 H   0  0  0  0  0  0  0  0  0  0  0  0
    2.3434   -2.1207   -1.9743 H   0  0  0  0  0  0  0  0  0  0  0  0
    3.2425   -2.7179   -4.5161 H   0  0  0  0  0  0  0  0  0  0  0  0
    6.2111   -4.0846   -2.1223 H   0  0  0  0  0  0  0  0  0  0  0  0
  1  2  1  0
  1 22  1  0
  1 23  1  0
  1 24  1  0
  2  3  1  0
  3  4  2  0
  3  5  1  0
  5 16  1  0
  5 29  1  6
  5  6  1  0
  6  7  1  0
  6  8  2  0
  7 25  1  0
  7 26  1  0
  7 27  1  0
  8  9  1  0
  9 15  1  0
  9 10  2  0
 10 11  1  0
 10 28  1  0
 11 12  1  0
 11 30  1  0
 11 31  1  0
 12 13  1  0
 12 32  1  0
 12 33  1  0
 13 14  2  0
 13 15  1  0
 15 16  1  0
 15 34  1  1
 16 17  1  0
 16 35  1  6
 17 21  2  0
 17 18  1  0
 18 19  2  0
 18 36  1  0
 19 20  1  0
 19 37  1  0
 20 21  1  0
 21 38  1  0
M  END
>  <i_m_ct_stereo_status>  (119) 
1

>  <s_m_source_file>  (119) 
/var/tmp/pbs.5076255.sched01/tmp6h9xbnrx/445q66801d.sdf

>  <i_m_source_file_index>  (119) 
3

>  <i_lp_mmshare_version>  (119) 
48012

>  <i_f3d_flags>  (119) 
0

>  <s_epik_input>  (119) 
W2NIXTFvW2NIXVtjSF1jMVtDQEBIXShDKD1DKE49MilbQ0gzXSlDKD1PKU9bQ0gzXSlbQ0BASF0oQzIzKUMoPU8pW0NIMl1bQ0gyXVtDSDJdMw==

>  <s_epik_cmdline>  (119) 
J2VwaWtfcHl0aG9uJywgJy1waHQnLCAnMi4wJywgJy1waCcsICc3LjAnLCAnLXRuJywgJzgnLCAnLW1hJywgJzIwMCcsICctaW1hZScsICc8aW5maWxlLm1hZT4nLCAnLW9tYWUnLCAnPG91dGZpbGUubWFlPic=

>  <r_lp_tautomer_probability>  (119) 
0.499981

>  <r_epik_Ionization_Penalty>  (119) 
2.83155e-11

>  <r_epik_Ionization_Penalty_Charging>  (119) 
0

>  <r_epik_Ionization_Penalty_Neutral>  (119) 
2.83155e-11

>  <r_epik_State_Penalty>  (119) 
0.41068

>  <r_epik_Charging_Adjusted_Penalty>  (119) 
0.41068

>  <i_epik_Tot_Q>  (119) 
0

>  <i_epik_Tot_abs_Q>  (119) 
0

>  <s_epik_Chemistry_Notes>  (119) 
This compound has an ester and may undergo hydrolysis at high or low pH. This compound has an imine and may undergo hydrolysis.

>  <s_lp_Force_Field>  (119) 
OPLS3e

>  <r_lp_Energy>  (119) 
7.84591

>  <b_lp_Chiralities_Consistent>  (119) 
1

>  <s_lp_Variant>  (119) 
27:0-3

>  <s_i_glide_gridfile>  (119) 
pfpi4k_grid

>  <i_i_glide_lignum>  (119) 
3

>  <i_i_glide_rotatable_bonds>  (119) 
3

>  <r_i_docking_score>  (119) 
-3.10123

>  <r_i_glide_ligand_efficiency>  (119) 
-0.147678

>  <r_i_glide_ligand_efficiency_sa>  (119) 
-0.407431

>  <r_i_glide_ligand_efficiency_ln>  (119) 
-0.766773

>  <r_i_glide_gscore>  (119) 
-3.10123

>  <r_i_glide_lipo>  (119) 
-0.689722

>  <r_i_glide_hbond>  (119) 
-0.017611

>  <r_i_glide_metal>  (119) 
-0

>  <r_i_glide_rewards>  (119) 
-1.56855

>  <r_i_glide_evdw>  (119) 
-25.5124

>  <r_i_glide_ecoul>  (119) 
0.105787

>  <r_i_glide_erotb>  (119) 
0.440337

>  <r_i_glide_esite>  (119) 
-0.00593699

>  <r_i_glide_emodel>  (119) 
-30.0585

>  <r_i_glide_energy>  (119) 
-25.4066

>  <r_i_glide_einternal>  (119) 
1.01576

>  <r_i_glide_intrahb_reward>  (119) 
-0

>  <i_i_glide_confnum>  (119) 
1

>  <i_i_glide_posenum>  (119) 
13

>  <r_i_glide_eff_state_penalty>  (119) 
0

>  <ligand_id>  (119) 
27

>  <original_smiles>  (119) 
COC(=O)C1=C(C)N=C2CCCC(=O)C2C1c1ccoc1

>  <smiles>  (119) 
[H]C1=C2N=C(C([H])([H])[H])C([H])(C(=O)OC([H])([H])[H])C([H])(c3c([H])oc([H])c3[H])C2([H])C(=O)C([H])([H])C1([H])[H]

$$$$
27:2:2
     RDKit          3D

 38 40  0  0  1  0  0  0  0  0999 V2000
    2.5475    3.4812    2.5445 C   0  0  0  0  0  0  0  0  0  0  0  0
    1.4917    2.7293    3.1160 O   0  0  0  0  0  0  0  0  0  0  0  0
    0.4501    3.3513    3.6932 C   0  0  0  0  0  0  0  0  0  0  0  0
    0.3360    4.5701    3.8470 O   0  0  0  0  0  0  0  0  0  0  0  0
   -0.5961    2.3428    4.2162 C   0  0  2  0  0  0  0  0  0  0  0  0
   -1.9922    3.0027    4.3442 C   0  0  0  0  0  0  0  0  0  0  0  0
   -2.6980    3.3096    3.0434 C   0  0  0  0  0  0  0  0  0  0  0  0
   -2.5776    3.2634    5.4460 N   0  0  0  0  0  0  0  0  0  0  0  0
   -2.0005    2.9627    6.6801 C   0  0  0  0  0  0  0  0  0  0  0  0
   -2.7977    2.9452    7.7660 C   0  0  0  0  0  0  0  0  0  0  0  0
   -2.3230    2.5891    9.1576 C   0  0  0  0  0  0  0  0  0  0  0  0
   -1.0895    1.6687    9.1264 C   0  0  0  0  0  0  0  0  0  0  0  0
   -0.0332    2.1589    8.1331 C   0  0  0  0  0  0  0  0  0  0  0  0
    1.1623    2.1521    8.4236 O   0  0  0  0  0  0  0  0  0  0  0  0
   -0.5096    2.6344    6.7444 C   0  0  1  0  0  0  0  0  0  0  0  0
   -0.1068    1.7230    5.5604 C   0  0  1  0  0  0  0  0  0  0  0  0
   -0.5203    0.2713    5.7231 C   0  0  0  0  0  0  0  0  0  0  0  0
    0.2481   -0.7803    6.3036 C   0  0  0  0  0  0  0  0  0  0  0  0
   -0.5112   -1.9127    6.2216 C   0  0  0  0  0  0  0  0  0  0  0  0
   -1.7155   -1.6455    5.6503 O   0  0  0  0  0  0  0  0  0  0  0  0
   -1.6907   -0.3231    5.3312 C   0  0  0  0  0  0  0  0  0  0  0  0
    3.2739    2.7918    2.1216 H   0  0  0  0  0  0  0  0  0  0  0  0
    3.0582    4.0951    3.2861 H   0  0  0  0  0  0  0  0  0  0  0  0
    2.2052    4.1287    1.7362 H   0  0  0  0  0  0  0  0  0  0  0  0
   -2.8209    2.4110    2.4415 H   0  0  0  0  0  0  0  0  0  0  0  0
   -2.1420    4.0477    2.4698 H   0  0  0  0  0  0  0  0  0  0  0  0
   -3.6905    3.7124    3.2394 H   0  0  0  0  0  0  0  0  0  0  0  0
   -3.8458    3.1902    7.6844 H   0  0  0  0  0  0  0  0  0  0  0  0
   -0.6559    1.5589    3.4602 H   0  0  0  0  0  0  0  0  0  0  0  0
   -3.1461    2.1051    9.6887 H   0  0  0  0  0  0  0  0  0  0  0  0
   -2.1094    3.5132    9.6990 H   0  0  0  0  0  0  0  0  0  0  0  0
   -0.6587    1.5772   10.1223 H   0  0  0  0  0  0  0  0  0  0  0  0
   -1.3851    0.6686    8.8096 H   0  0  0  0  0  0  0  0  0  0  0  0
   -0.0113    3.5927    6.5879 H   0  0  0  0  0  0  0  0  0  0  0  0
    0.9855    1.6769    5.5411 H   0  0  0  0  0  0  0  0  0  0  0  0
    1.2380   -0.7253    6.7289 H   0  0  0  0  0  0  0  0  0  0  0  0
   -0.3511   -2.9402    6.5118 H   0  0  0  0  0  0  0  0  0  0  0  0
   -2.5820    0.0336    4.8325 H   0  0  0  0  0  0  0  0  0  0  0  0
  1  2  1  0
  1 22  1  0
  1 23  1  0
  1 24  1  0
  2  3  1  0
  3  4  2  0
  3  5  1  0
  5 16  1  0
  5 29  1  6
  5  6  1  0
  6  7  1  0
  6  8  2  0
  7 25  1  0
  7 26  1  0
  7 27  1  0
  8  9  1  0
  9 15  1  0
  9 10  2  0
 10 11  1  0
 10 28  1  0
 11 12  1  0
 11 30  1  0
 11 31  1  0
 12 13  1  0
 12 32  1  0
 12 33  1  0
 13 14  2  0
 13 15  1  0
 15 16  1  0
 15 34  1  6
 16 17  1  0
 16 35  1  6
 17 21  2  0
 17 18  1  0
 18 19  2  0
 18 36  1  0
 19 20  1  0
 19 37  1  0
 20 21  1  0
 21 38  1  0
M  END
>  <i_m_ct_stereo_status>  (120) 
1

>  <s_m_source_file>  (120) 
/var/tmp/pbs.5076255.sched01/tmp6h9xbnrx/445q66801d.sdf

>  <i_m_source_file_index>  (120) 
3

>  <i_lp_mmshare_version>  (120) 
48012

>  <i_f3d_flags>  (120) 
0

>  <s_epik_input>  (120) 
W2NIXTFvW2NIXVtjSF1jMVtDQEBIXShDKD1DKE49MilbQ0gzXSlDKD1PKU9bQ0gzXSlbQ0BASF0oQzIzKUMoPU8pW0NIMl1bQ0gyXVtDSDJdMw==

>  <s_epik_cmdline>  (120) 
J2VwaWtfcHl0aG9uJywgJy1waHQnLCAnMi4wJywgJy1waCcsICc3LjAnLCAnLXRuJywgJzgnLCAnLW1hJywgJzIwMCcsICctaW1hZScsICc8aW5maWxlLm1hZT4nLCAnLW9tYWUnLCAnPG91dGZpbGUubWFlPic=

>  <r_lp_tautomer_probability>  (120) 
0.499981

>  <r_epik_Ionization_Penalty>  (120) 
2.83155e-11

>  <r_epik_Ionization_Penalty_Charging>  (120) 
0

>  <r_epik_Ionization_Penalty_Neutral>  (120) 
2.83155e-11

>  <r_epik_State_Penalty>  (120) 
0.41068

>  <r_epik_Charging_Adjusted_Penalty>  (120) 
0.41068

>  <i_epik_Tot_Q>  (120) 
0

>  <i_epik_Tot_abs_Q>  (120) 
0

>  <s_epik_Chemistry_Notes>  (120) 
This compound has an ester and may undergo hydrolysis at high or low pH. This compound has an imine and may undergo hydrolysis.

>  <s_lp_Force_Field>  (120) 
OPLS3e

>  <r_lp_Energy>  (120) 
7.84591

>  <b_lp_Chiralities_Consistent>  (120) 
1

>  <s_lp_Variant>  (120) 
27:0-3

>  <s_i_glide_gridfile>  (120) 
pfpi4k_grid

>  <i_i_glide_lignum>  (120) 
3

>  <i_i_glide_rotatable_bonds>  (120) 
3

>  <r_i_docking_score>  (120) 
-2.87669

>  <r_i_glide_ligand_efficiency>  (120) 
-0.136985

>  <r_i_glide_ligand_efficiency_sa>  (120) 
-0.377932

>  <r_i_glide_ligand_efficiency_ln>  (120) 
-0.711257

>  <r_i_glide_gscore>  (120) 
-2.87669

>  <r_i_glide_lipo>  (120) 
-0.219764

>  <r_i_glide_hbond>  (120) 
0

>  <r_i_glide_metal>  (120) 
-0

>  <r_i_glide_rewards>  (120) 
-1.45016

>  <r_i_glide_evdw>  (120) 
-21.9955

>  <r_i_glide_ecoul>  (120) 
-2.90576

>  <r_i_glide_erotb>  (120) 
0.440337

>  <r_i_glide_esite>  (120) 
-0.111474

>  <r_i_glide_emodel>  (120) 
-29.9969

>  <r_i_glide_energy>  (120) 
-24.9012

>  <r_i_glide_einternal>  (120) 
0.193369

>  <r_i_glide_intrahb_reward>  (120) 
-0

>  <i_i_glide_confnum>  (120) 
1

>  <i_i_glide_posenum>  (120) 
2

>  <r_i_glide_eff_state_penalty>  (120) 
0

>  <ligand_id>  (120) 
27

>  <original_smiles>  (120) 
COC(=O)C1=C(C)N=C2CCCC(=O)C2C1c1ccoc1

>  <smiles>  (120) 
[H]C1=C2N=C(C([H])([H])[H])C([H])(C(=O)OC([H])([H])[H])C([H])(c3c([H])oc([H])c3[H])C2([H])C(=O)C([H])([H])C1([H])[H]

$$$$
29:0:0
     RDKit          3D

 83 88  0  0  1  0  0  0  0  0999 V2000
    1.8924   -4.5156    6.4653 C   0  0  0  0  0  0  0  0  0  0  0  0
    1.2767   -3.2932    5.7230 C   0  0  2  0  0  0  0  0  0  0  0  0
    2.3099   -2.4916    4.7449 C   0  0  1  0  0  0  0  0  0  0  0  0
    3.6638   -3.2851    4.6754 C   0  0  0  0  0  0  0  0  0  0  0  0
    1.8337   -2.5075    3.2611 C   0  0  0  0  0  0  0  0  0  0  0  0
    2.2019   -1.1586    2.6172 C   0  0  0  0  0  0  0  0  0  0  0  0
    2.1286   -0.0601    3.7015 C   0  0  1  0  0  0  0  0  0  0  0  0
    1.0280    1.1647    3.4627 C   0  0  2  0  0  0  0  0  0  0  0  0
   -0.2521    0.8316    2.5852 C   0  0  0  0  0  0  0  0  0  0  0  0
    1.7254    2.1391    2.4232 C   0  0  0  0  0  0  0  0  0  0  0  0
    2.5560    3.3179    2.9285 C   0  0  0  0  0  0  0  0  0  0  0  0
    1.8157    4.1264    3.9946 C   0  0  1  0  0  0  0  0  0  0  0  0
    0.7128    4.8088    3.4156 O   0  0  0  0  0  0  0  0  0  0  0  0
    1.4069    3.2352    5.2073 C   0  0  0  0  0  0  0  0  0  0  0  0
    2.7462    2.8233    5.8477 C   0  0  0  0  0  0  0  0  0  0  0  0
    0.6949    4.1341    6.2426 C   0  0  0  0  0  0  0  0  0  0  0  0
    0.4709    2.0363    4.7058 C   0  0  2  0  0  0  0  0  0  0  0  0
   -0.6557    1.4508    5.6982 C   0  0  0  0  0  0  0  0  0  0  0  0
   -0.3698    0.3238    6.7490 C   0  0  0  0  0  0  0  0  0  0  0  0
   -0.3929    0.6910    8.0470 C   0  0  0  0  0  0  0  0  0  0  0  0
    0.3087    0.0536    9.2183 C   0  0  0  0  0  0  0  0  0  0  0  0
    1.8409   -0.1192    9.0186 C   0  0  0  0  0  0  0  0  0  0  0  0
    2.4738    1.2791    9.2151 C   0  0  0  0  0  0  0  0  0  0  0  0
    2.3453   -0.9925   10.1851 C   0  0  0  0  0  0  0  0  0  0  0  0
    2.3492   -0.8018    7.6830 C   0  0  0  0  0  0  0  0  0  0  0  0
    1.7141   -0.5042    6.2487 C   0  0  2  0  0  0  0  0  0  0  0  0
    0.2326   -0.9892    6.1686 C   0  0  2  0  0  0  0  0  0  0  0  0
   -0.6144   -1.2639    4.8801 C   0  0  0  0  0  0  0  0  0  0  0  0
    0.3245   -2.4600    6.6922 C   0  0  2  0  0  0  0  0  0  0  0  0
   -0.1633   -3.0349    8.0304 C   0  0  0  0  0  0  0  0  0  0  0  0
   -0.9638   -3.0796    6.8632 O   0  0  0  0  0  0  0  0  0  0  0  0
    2.5200   -0.9198    5.0174 C   0  0  1  0  0  0  0  0  0  0  0  0
    4.0375   -0.6162    5.2907 C   0  0  0  0  0  0  0  0  0  0  0  0
    2.5664   -4.2158    7.2712 H   0  0  0  0  0  0  0  0  0  0  0  0
    2.4406   -5.1991    5.8179 H   0  0  0  0  0  0  0  0  0  0  0  0
    1.1243   -5.1539    6.8921 H   0  0  0  0  0  0  0  0  0  0  0  0
    0.6083   -3.8018    5.0299 H   0  0  0  0  0  0  0  0  0  0  0  0
    4.3855   -2.8449    3.9876 H   0  0  0  0  0  0  0  0  0  0  0  0
    3.5227   -4.2953    4.2939 H   0  0  0  0  0  0  0  0  0  0  0  0
    4.1494   -3.3836    5.6473 H   0  0  0  0  0  0  0  0  0  0  0  0
    2.2734   -3.3270    2.6907 H   0  0  0  0  0  0  0  0  0  0  0  0
    0.7696   -2.6971    3.1677 H   0  0  0  0  0  0  0  0  0  0  0  0
    3.2385   -1.2363    2.2899 H   0  0  0  0  0  0  0  0  0  0  0  0
    1.6403   -0.9709    1.7068 H   0  0  0  0  0  0  0  0  0  0  0  0
    3.0378    0.5095    3.5248 H   0  0  0  0  0  0  0  0  0  0  0  0
   -1.1137    0.4576    3.1177 H   0  0  0  0  0  0  0  0  0  0  0  0
   -0.0604    0.1753    1.7441 H   0  0  0  0  0  0  0  0  0  0  0  0
   -0.7200    1.7141    2.1492 H   0  0  0  0  0  0  0  0  0  0  0  0
    2.3156    1.5639    1.7126 H   0  0  0  0  0  0  0  0  0  0  0  0
    1.0093    2.6216    1.7675 H   0  0  0  0  0  0  0  0  0  0  0  0
    3.5147    2.9636    3.2890 H   0  0  0  0  0  0  0  0  0  0  0  0
    2.8017    3.9668    2.0885 H   0  0  0  0  0  0  0  0  0  0  0  0
    2.4910    4.9116    4.3379 H   0  0  0  0  0  0  0  0  0  0  0  0
    0.6120    4.5456    2.5041 H   0  0  0  0  0  0  0  0  0  0  0  0
    2.6349    2.3630    6.8141 H   0  0  0  0  0  0  0  0  0  0  0  0
    3.4006    3.6803    5.9998 H   0  0  0  0  0  0  0  0  0  0  0  0
    3.2828    2.1346    5.2132 H   0  0  0  0  0  0  0  0  0  0  0  0
    0.5361    3.6105    7.1845 H   0  0  0  0  0  0  0  0  0  0  0  0
   -0.2730    4.4766    5.8787 H   0  0  0  0  0  0  0  0  0  0  0  0
    1.2864    5.0211    6.4681 H   0  0  0  0  0  0  0  0  0  0  0  0
   -0.2425    2.6574    4.1596 H   0  0  0  0  0  0  0  0  0  0  0  0
   -1.0630    2.2840    6.2533 H   0  0  0  0  0  0  0  0  0  0  0  0
   -1.5334    1.1986    5.1165 H   0  0  0  0  0  0  0  0  0  0  0  0
   -0.7739    1.6650    8.2874 H   0  0  0  0  0  0  0  0  0  0  0  0
    0.1669    0.7612   10.0430 H   0  0  0  0  0  0  0  0  0  0  0  0
   -0.2035   -0.8040    9.6256 H   0  0  0  0  0  0  0  0  0  0  0  0
    3.5058    1.3302    8.8720 H   0  0  0  0  0  0  0  0  0  0  0  0
    2.4763    1.5638   10.2671 H   0  0  0  0  0  0  0  0  0  0  0  0
    1.9001    2.0566    8.7161 H   0  0  0  0  0  0  0  0  0  0  0  0
    3.4307   -1.0802   10.1744 H   0  0  0  0  0  0  0  0  0  0  0  0
    1.9294   -1.9993   10.1370 H   0  0  0  0  0  0  0  0  0  0  0  0
    2.0585   -0.5745   11.1508 H   0  0  0  0  0  0  0  0  0  0  0  0
    3.3958   -0.5317    7.6732 H   0  0  0  0  0  0  0  0  0  0  0  0
    2.4060   -1.8766    7.8404 H   0  0  0  0  0  0  0  0  0  0  0  0
    1.8038    0.5647    6.1904 H   0  0  0  0  0  0  0  0  0  0  0  0
   -0.8807   -2.2965    4.6822 H   0  0  0  0  0  0  0  0  0  0  0  0
   -0.0967   -1.0261    3.9879 H   0  0  0  0  0  0  0  0  0  0  0  0
   -1.6057   -0.8160    4.8897 H   0  0  0  0  0  0  0  0  0  0  0  0
    0.1210   -4.0364    8.3594 H   0  0  0  0  0  0  0  0  0  0  0  0
   -0.6829   -2.4743    8.7984 H   0  0  0  0  0  0  0  0  0  0  0  0
    4.2048    0.3719    5.6964 H   0  0  0  0  0  0  0  0  0  0  0  0
    4.6460   -0.6873    4.3911 H   0  0  0  0  0  0  0  0  0  0  0  0
    4.4918   -1.2853    6.0174 H   0  0  0  0  0  0  0  0  0  0  0  0
  1  2  1  0
  1 34  1  0
  1 35  1  0
  1 36  1  0
  2 29  1  0
  2  3  1  0
  2 37  1  6
  3 32  1  0
  3  4  1  6
  3  5  1  0
  4 38  1  0
  4 39  1  0
  4 40  1  0
  5  6  1  0
  5 41  1  0
  5 42  1  0
  6  7  1  0
  6 43  1  0
  6 44  1  0
  7 32  1  0
  7  8  1  0
  7 45  1  6
  8 17  1  0
  8  9  1  6
  8 10  1  0
  9 46  1  0
  9 47  1  0
  9 48  1  0
 10 11  1  0
 10 49  1  0
 10 50  1  0
 11 12  1  0
 11 51  1  0
 11 52  1  0
 12 13  1  0
 12 14  1  0
 12 53  1  1
 13 54  1  0
 14 15  1  0
 14 16  1  0
 14 17  1  0
 15 55  1  0
 15 56  1  0
 15 57  1  0
 16 58  1  0
 16 59  1  0
 16 60  1  0
 17 18  1  0
 17 61  1  6
 18 19  1  0
 18 62  1  0
 18 63  1  0
 19 27  1  0
 19 20  2  0
 20 21  1  0
 20 64  1  0
 21 22  1  0
 21 65  1  0
 21 66  1  0
 22 23  1  0
 22 24  1  0
 22 25  1  0
 23 67  1  0
 23 68  1  0
 23 69  1  0
 24 70  1  0
 24 71  1  0
 24 72  1  0
 25 26  1  0
 25 73  1  0
 25 74  1  0
 26 27  1  0
 26 32  1  0
 26 75  1  6
 27 28  1  6
 27 29  1  0
 28 76  1  0
 28 77  1  0
 28 78  1  0
 29 31  1  6
 29 30  1  0
 30 31  1  0
 30 79  1  0
 30 80  1  0
 32 33  1  1
 33 81  1  0
 33 82  1  0
 33 83  1  0
M  END
>  <i_m_ct_stereo_status>  (121) 
1

>  <s_m_source_file>  (121) 
/var/tmp/pbs.5076255.sched01/tmp6h9xbnrx/445q66801d.sdf

>  <i_m_source_file_index>  (121) 
5

>  <i_lp_mmshare_version>  (121) 
48012

>  <i_f3d_flags>  (121) 
0

>  <s_epik_input>  (121) 
W0NIMl0xW0NIMl1bQ0BASF0oW09IXSlDKFtDSDNdKShbQ0gzXSlbQ0BIXShbQ0gyXTIpW0NAXTEoW0NIM10pW0NAQEhdM1tDSDJdW0NIMl1bQ0BdKFtDSDNdKShbQ0BIXTRbQ0gzXSlbQ0BdMyhbQ0gzXSlbQ0BASF01W0NIMl1DKFtDSDNdKShbQ0gzXSlbQ0gyXVtDSF09QzJDNShbQ0gzXSlbQ0BdNDZbQ0gyXU82

>  <s_epik_cmdline>  (121) 
J2VwaWtfcHl0aG9uJywgJy1waHQnLCAnMi4wJywgJy1waCcsICc3LjAnLCAnLXRuJywgJzgnLCAnLW1hJywgJzIwMCcsICctaW1hZScsICc8aW5maWxlLm1hZT4nLCAnLW9tYWUnLCAnPG91dGZpbGUubWFlPic=

>  <r_lp_tautomer_probability>  (121) 
1

>  <r_epik_Ionization_Penalty>  (121) 
2.61377e-06

>  <r_epik_Ionization_Penalty_Charging>  (121) 
0

>  <r_epik_Ionization_Penalty_Neutral>  (121) 
2.61377e-06

>  <r_epik_State_Penalty>  (121) 
-0

>  <r_epik_Charging_Adjusted_Penalty>  (121) 
0

>  <i_epik_Tot_Q>  (121) 
0

>  <i_epik_Tot_abs_Q>  (121) 
0

>  <s_lp_Force_Field>  (121) 
OPLS3e

>  <r_lp_Energy>  (121) 
223.568

>  <b_lp_Chiralities_Consistent>  (121) 
1

>  <s_lp_Variant>  (121) 
29:0-1

>  <s_i_glide_gridfile>  (121) 
pfpi4k_grid

>  <i_i_glide_lignum>  (121) 
5

>  <i_i_glide_rotatable_bonds>  (121) 
1

>  <r_i_docking_score>  (121) 
-2.27397

>  <r_i_glide_ligand_efficiency>  (121) 
-0.0689081

>  <r_i_glide_ligand_efficiency_sa>  (121) 
-0.221025

>  <r_i_glide_ligand_efficiency_ln>  (121) 
-0.505719

>  <r_i_glide_gscore>  (121) 
-2.27397

>  <r_i_glide_lipo>  (121) 
-0.0143292

>  <r_i_glide_hbond>  (121) 
-0.16

>  <r_i_glide_metal>  (121) 
-0

>  <r_i_glide_rewards>  (121) 
-0.308676

>  <r_i_glide_evdw>  (121) 
-22.554

>  <r_i_glide_ecoul>  (121) 
-4.42175

>  <r_i_glide_erotb>  (121) 
0

>  <r_i_glide_esite>  (121) 
0

>  <r_i_glide_emodel>  (121) 
-30

>  <r_i_glide_energy>  (121) 
-26.9757

>  <r_i_glide_einternal>  (121) 
1.40915

>  <r_i_glide_intrahb_reward>  (121) 
-0

>  <i_i_glide_confnum>  (121) 
1

>  <i_i_glide_posenum>  (121) 
11

>  <r_i_glide_eff_state_penalty>  (121) 
0

>  <ligand_id>  (121) 
29

>  <original_smiles>  (121) 
CC1C2(C)CCC3C4(C)CCC(O)C(C)(C)C4CC4=CCC(C)(C)CC(C4(C)C14CO4)C32C

>  <smiles>  (121) 
[H]OC1([H])C([H])([H])C([H])([H])C2(C([H])([H])[H])C([H])(C([H])([H])C3=C([H])C([H])([H])C(C([H])([H])[H])(C([H])([H])[H])C([H])([H])C4([H])C3(C([H])([H])[H])C3(OC3([H])[H])C([H])(C([H])([H])[H])C3(C([H])([H])[H])C([H])([H])C([H])([H])C2([H])C43C([H])([H])[H])C1(C([H])([H])[H])C([H])([H])[H]

$$$$
29:0:1
     RDKit          3D

 83 88  0  0  1  0  0  0  0  0999 V2000
    1.1465   -2.7966    4.0287 C   0  0  0  0  0  0  0  0  0  0  0  0
    0.4195   -1.4393    4.2624 C   0  0  2  0  0  0  0  0  0  0  0  0
    1.1406   -0.1707    3.5245 C   0  0  1  0  0  0  0  0  0  0  0  0
    2.3234   -0.6941    2.6341 C   0  0  0  0  0  0  0  0  0  0  0  0
    0.2134    0.4952    2.4717 C   0  0  0  0  0  0  0  0  0  0  0  0
    0.4527    2.0082    2.5050 C   0  0  0  0  0  0  0  0  0  0  0  0
    0.8320    2.4382    3.9366 C   0  0  1  0  0  0  0  0  0  0  0  0
   -0.1864    3.5170    4.6941 C   0  0  2  0  0  0  0  0  0  0  0  0
   -1.6983    3.5170    4.2292 C   0  0  0  0  0  0  0  0  0  0  0  0
    0.1898    4.9469    4.1139 C   0  0  0  0  0  0  0  0  0  0  0  0
    1.2609    5.7808    4.8098 C   0  0  0  0  0  0  0  0  0  0  0  0
    0.9886    5.8880    6.3099 C   0  0  1  0  0  0  0  0  0  0  0  0
   -0.1801    6.6586    6.5229 O   0  0  0  0  0  0  0  0  0  0  0  0
    0.9098    4.4900    6.9927 C   0  0  0  0  0  0  0  0  0  0  0  0
    2.3425    3.9451    6.8810 C   0  0  0  0  0  0  0  0  0  0  0  0
    0.6550    4.6980    8.5011 C   0  0  0  0  0  0  0  0  0  0  0  0
   -0.2376    3.6112    6.3036 C   0  0  2  0  0  0  0  0  0  0  0  0
   -1.0113    2.4979    7.1767 C   0  0  0  0  0  0  0  0  0  0  0  0
   -0.4867    1.0331    7.3864 C   0  0  0  0  0  0  0  0  0  0  0  0
   -0.0638    0.7146    8.6171 C   0  0  0  0  0  0  0  0  0  0  0  0
    0.9294   -0.3390    9.0431 C   0  0  0  0  0  0  0  0  0  0  0  0
    2.2860   -0.2436    8.2929 C   0  0  0  0  0  0  0  0  0  0  0  0
    3.0650    0.9324    8.9298 C   0  0  0  0  0  0  0  0  0  0  0  0
    3.0740   -1.5182    8.6420 C   0  0  0  0  0  0  0  0  0  0  0  0
    2.2742   -0.1382    6.7136 C   0  0  0  0  0  0  0  0  0  0  0  0
    1.2350    0.7640    5.9063 C   0  0  2  0  0  0  0  0  0  0  0  0
   -0.2195    0.2403    6.0775 C   0  0  2  0  0  0  0  0  0  0  0  0
   -1.4546    0.5494    5.1756 C   0  0  0  0  0  0  0  0  0  0  0  0
   -0.0766   -1.2903    5.7780 C   0  0  2  0  0  0  0  0  0  0  0  0
   -0.1763   -2.4734    6.7812 C   0  0  0  0  0  0  0  0  0  0  0  0
   -1.2736   -2.0559    6.0141 O   0  0  0  0  0  0  0  0  0  0  0  0
    1.5532    1.0782    4.4463 C   0  0  1  0  0  0  0  0  0  0  0  0
    3.0953    1.3520    4.3212 C   0  0  0  0  0  0  0  0  0  0  0  0
    2.0594   -2.8765    4.6280 H   0  0  0  0  0  0  0  0  0  0  0  0
    1.4159   -2.9922    2.9904 H   0  0  0  0  0  0  0  0  0  0  0  0
    0.5084   -3.6502    4.2314 H   0  0  0  0  0  0  0  0  0  0  0  0
   -0.4989   -1.5921    3.6847 H   0  0  0  0  0  0  0  0  0  0  0  0
    2.8094    0.0927    2.0587 H   0  0  0  0  0  0  0  0  0  0  0  0
    1.9771   -1.3873    1.8712 H   0  0  0  0  0  0  0  0  0  0  0  0
    3.0923   -1.2104    3.2097 H   0  0  0  0  0  0  0  0  0  0  0  0
    0.3803    0.1285    1.4578 H   0  0  0  0  0  0  0  0  0  0  0  0
   -0.8355    0.2748    2.6386 H   0  0  0  0  0  0  0  0  0  0  0  0
    1.3076    2.2020    1.8592 H   0  0  0  0  0  0  0  0  0  0  0  0
   -0.3760    2.5458    2.0591 H   0  0  0  0  0  0  0  0  0  0  0  0
    1.6733    3.1057    3.7676 H   0  0  0  0  0  0  0  0  0  0  0  0
   -2.3679    2.8481    4.7530 H   0  0  0  0  0  0  0  0  0  0  0  0
   -1.8470    3.3801    3.1622 H   0  0  0  0  0  0  0  0  0  0  0  0
   -2.2065    4.4462    4.4660 H   0  0  0  0  0  0  0  0  0  0  0  0
    0.4769    4.8454    3.0736 H   0  0  0  0  0  0  0  0  0  0  0  0
   -0.6565    5.6358    4.0718 H   0  0  0  0  0  0  0  0  0  0  0  0
    2.2511    5.3817    4.5936 H   0  0  0  0  0  0  0  0  0  0  0  0
    1.2629    6.7807    4.3732 H   0  0  0  0  0  0  0  0  0  0  0  0
    1.8022    6.4622    6.7563 H   0  0  0  0  0  0  0  0  0  0  0  0
   -0.2221    6.8467    7.4460 H   0  0  0  0  0  0  0  0  0  0  0  0
    2.5170    3.0614    7.4740 H   0  0  0  0  0  0  0  0  0  0  0  0
    3.0798    4.6760    7.2141 H   0  0  0  0  0  0  0  0  0  0  0  0
    2.5855    3.7103    5.8571 H   0  0  0  0  0  0  0  0  0  0  0  0
    0.7726    3.7640    9.0529 H   0  0  0  0  0  0  0  0  0  0  0  0
   -0.3470    5.0726    8.7007 H   0  0  0  0  0  0  0  0  0  0  0  0
    1.3654    5.4091    8.9279 H   0  0  0  0  0  0  0  0  0  0  0  0
   -1.0428    4.3428    6.3978 H   0  0  0  0  0  0  0  0  0  0  0  0
   -1.1455    2.9070    8.1706 H   0  0  0  0  0  0  0  0  0  0  0  0
   -2.0500    2.4808    6.8672 H   0  0  0  0  0  0  0  0  0  0  0  0
   -0.2677    1.4058    9.4227 H   0  0  0  0  0  0  0  0  0  0  0  0
    1.1307   -0.1203   10.0952 H   0  0  0  0  0  0  0  0  0  0  0  0
    0.5069   -1.3302    9.1444 H   0  0  0  0  0  0  0  0  0  0  0  0
    3.9317    1.2407    8.3447 H   0  0  0  0  0  0  0  0  0  0  0  0
    3.4331    0.6627    9.9204 H   0  0  0  0  0  0  0  0  0  0  0  0
    2.4278    1.7979    9.0889 H   0  0  0  0  0  0  0  0  0  0  0  0
    4.0855   -1.4815    8.2375 H   0  0  0  0  0  0  0  0  0  0  0  0
    2.5834   -2.4067    8.2425 H   0  0  0  0  0  0  0  0  0  0  0  0
    3.1532   -1.6533    9.7220 H   0  0  0  0  0  0  0  0  0  0  0  0
    3.2761    0.2016    6.4980 H   0  0  0  0  0  0  0  0  0  0  0  0
    2.2932   -1.1422    6.2958 H   0  0  0  0  0  0  0  0  0  0  0  0
    1.3874    1.7312    6.3462 H   0  0  0  0  0  0  0  0  0  0  0  0
   -1.8620   -0.2715    4.5991 H   0  0  0  0  0  0  0  0  0  0  0  0
   -1.2482    1.2400    4.4001 H   0  0  0  0  0  0  0  0  0  0  0  0
   -2.3355    0.8335    5.7402 H   0  0  0  0  0  0  0  0  0  0  0  0
    0.1237   -3.4853    6.5087 H   0  0  0  0  0  0  0  0  0  0  0  0
   -0.4763   -2.4066    7.8295 H   0  0  0  0  0  0  0  0  0  0  0  0
    3.4619    2.0308    5.0797 H   0  0  0  0  0  0  0  0  0  0  0  0
    3.3675    1.7859    3.3592 H   0  0  0  0  0  0  0  0  0  0  0  0
    3.7046    0.4571    4.4319 H   0  0  0  0  0  0  0  0  0  0  0  0
  1  2  1  0
  1 34  1  0
  1 35  1  0
  1 36  1  0
  2 29  1  0
  2  3  1  0
  2 37  1  6
  3 32  1  0
  3  4  1  6
  3  5  1  0
  4 38  1  0
  4 39  1  0
  4 40  1  0
  5  6  1  0
  5 41  1  0
  5 42  1  0
  6  7  1  0
  6 43  1  0
  6 44  1  0
  7 32  1  0
  7  8  1  0
  7 45  1  6
  8 17  1  0
  8  9  1  6
  8 10  1  0
  9 46  1  0
  9 47  1  0
  9 48  1  0
 10 11  1  0
 10 49  1  0
 10 50  1  0
 11 12  1  0
 11 51  1  0
 11 52  1  0
 12 13  1  0
 12 14  1  0
 12 53  1  1
 13 54  1  0
 14 15  1  0
 14 16  1  0
 14 17  1  0
 15 55  1  0
 15 56  1  0
 15 57  1  0
 16 58  1  0
 16 59  1  0
 16 60  1  0
 17 18  1  0
 17 61  1  6
 18 19  1  0
 18 62  1  0
 18 63  1  0
 19 27  1  0
 19 20  2  0
 20 21  1  0
 20 64  1  0
 21 22  1  0
 21 65  1  0
 21 66  1  0
 22 23  1  0
 22 24  1  0
 22 25  1  0
 23 67  1  0
 23 68  1  0
 23 69  1  0
 24 70  1  0
 24 71  1  0
 24 72  1  0
 25 26  1  0
 25 73  1  0
 25 74  1  0
 26 27  1  0
 26 32  1  0
 26 75  1  1
 27 28  1  6
 27 29  1  0
 28 76  1  0
 28 77  1  0
 28 78  1  0
 29 31  1  6
 29 30  1  0
 30 31  1  0
 30 79  1  0
 30 80  1  0
 32 33  1  1
 33 81  1  0
 33 82  1  0
 33 83  1  0
M  END
>  <i_m_ct_stereo_status>  (122) 
1

>  <s_m_source_file>  (122) 
/var/tmp/pbs.5076255.sched01/tmp6h9xbnrx/445q66801d.sdf

>  <i_m_source_file_index>  (122) 
5

>  <i_lp_mmshare_version>  (122) 
48012

>  <i_f3d_flags>  (122) 
0

>  <s_epik_input>  (122) 
W0NIMl0xW0NIMl1bQ0BASF0oW09IXSlDKFtDSDNdKShbQ0gzXSlbQ0BIXShbQ0gyXTIpW0NAXTEoW0NIM10pW0NAQEhdM1tDSDJdW0NIMl1bQ0BdKFtDSDNdKShbQ0BIXTRbQ0gzXSlbQ0BdMyhbQ0gzXSlbQ0BASF01W0NIMl1DKFtDSDNdKShbQ0gzXSlbQ0gyXVtDSF09QzJDNShbQ0gzXSlbQ0BdNDZbQ0gyXU82

>  <s_epik_cmdline>  (122) 
J2VwaWtfcHl0aG9uJywgJy1waHQnLCAnMi4wJywgJy1waCcsICc3LjAnLCAnLXRuJywgJzgnLCAnLW1hJywgJzIwMCcsICctaW1hZScsICc8aW5maWxlLm1hZT4nLCAnLW9tYWUnLCAnPG91dGZpbGUubWFlPic=

>  <r_lp_tautomer_probability>  (122) 
1

>  <r_epik_Ionization_Penalty>  (122) 
2.61377e-06

>  <r_epik_Ionization_Penalty_Charging>  (122) 
0

>  <r_epik_Ionization_Penalty_Neutral>  (122) 
2.61377e-06

>  <r_epik_State_Penalty>  (122) 
-0

>  <r_epik_Charging_Adjusted_Penalty>  (122) 
0

>  <i_epik_Tot_Q>  (122) 
0

>  <i_epik_Tot_abs_Q>  (122) 
0

>  <s_lp_Force_Field>  (122) 
OPLS3e

>  <r_lp_Energy>  (122) 
223.568

>  <b_lp_Chiralities_Consistent>  (122) 
1

>  <s_lp_Variant>  (122) 
29:0-1

>  <s_i_glide_gridfile>  (122) 
pfpi4k_grid

>  <i_i_glide_lignum>  (122) 
5

>  <i_i_glide_rotatable_bonds>  (122) 
1

>  <r_i_docking_score>  (122) 
-2.0469

>  <r_i_glide_ligand_efficiency>  (122) 
-0.0620274

>  <r_i_glide_ligand_efficiency_sa>  (122) 
-0.198955

>  <r_i_glide_ligand_efficiency_ln>  (122) 
-0.455221

>  <r_i_glide_gscore>  (122) 
-2.0469

>  <r_i_glide_lipo>  (122) 
-0.0296894

>  <r_i_glide_hbond>  (122) 
0

>  <r_i_glide_metal>  (122) 
-0

>  <r_i_glide_rewards>  (122) 
-0.308676

>  <r_i_glide_evdw>  (122) 
-26.0242

>  <r_i_glide_ecoul>  (122) 
-2.71551

>  <r_i_glide_erotb>  (122) 
0

>  <r_i_glide_esite>  (122) 
0

>  <r_i_glide_emodel>  (122) 
-31.8682

>  <r_i_glide_energy>  (122) 
-28.7397

>  <r_i_glide_einternal>  (122) 
0.353466

>  <r_i_glide_intrahb_reward>  (122) 
-0

>  <i_i_glide_confnum>  (122) 
2

>  <i_i_glide_posenum>  (122) 
1

>  <r_i_glide_eff_state_penalty>  (122) 
0

>  <ligand_id>  (122) 
29

>  <original_smiles>  (122) 
CC1C2(C)CCC3C4(C)CCC(O)C(C)(C)C4CC4=CCC(C)(C)CC(C4(C)C14CO4)C32C

>  <smiles>  (122) 
[H]OC1([H])C([H])([H])C([H])([H])C2(C([H])([H])[H])C([H])(C([H])([H])C3=C([H])C([H])([H])C(C([H])([H])[H])(C([H])([H])[H])C([H])([H])C4([H])C3(C([H])([H])[H])C3(OC3([H])[H])C([H])(C([H])([H])[H])C3(C([H])([H])[H])C([H])([H])C([H])([H])C2([H])C43C([H])([H])[H])C1(C([H])([H])[H])C([H])([H])[H]

$$$$
29:0:2
     RDKit          3D

 83 88  0  0  1  0  0  0  0  0999 V2000
    5.3091   -2.5475    5.9909 C   0  0  0  0  0  0  0  0  0  0  0  0
    3.8743   -1.9532    6.0446 C   0  0  2  0  0  0  0  0  0  0  0  0
    3.2117   -1.6022    4.5965 C   0  0  1  0  0  0  0  0  0  0  0  0
    4.1685   -2.1163    3.4621 C   0  0  0  0  0  0  0  0  0  0  0  0
    1.9151   -2.4262    4.3335 C   0  0  0  0  0  0  0  0  0  0  0  0
    0.9250   -1.5343    3.5619 C   0  0  0  0  0  0  0  0  0  0  0  0
    1.1257   -0.0637    3.9973 C   0  0  1  0  0  0  0  0  0  0  0  0
   -0.1684    0.7005    4.7189 C   0  0  2  0  0  0  0  0  0  0  0  0
   -1.2147   -0.2182    5.4805 C   0  0  0  0  0  0  0  0  0  0  0  0
   -1.1266    1.1259    3.5276 C   0  0  0  0  0  0  0  0  0  0  0  0
   -0.9554    2.4970    2.8841 C   0  0  0  0  0  0  0  0  0  0  0  0
   -0.9016    3.6215    3.9211 C   0  0  1  0  0  0  0  0  0  0  0  0
   -2.1818    3.7544    4.5323 O   0  0  0  0  0  0  0  0  0  0  0  0
    0.2486    3.3926    4.9494 C   0  0  0  0  0  0  0  0  0  0  0  0
    1.5331    3.5551    4.1097 C   0  0  0  0  0  0  0  0  0  0  0  0
    0.2361    4.5696    5.9496 C   0  0  0  0  0  0  0  0  0  0  0  0
    0.0640    1.9784    5.6800 C   0  0  2  0  0  0  0  0  0  0  0  0
    0.5898    1.8019    7.1971 C   0  0  0  0  0  0  0  0  0  0  0  0
    2.0619    1.3953    7.5636 C   0  0  0  0  0  0  0  0  0  0  0  0
    2.8139    2.3453    8.1409 C   0  0  0  0  0  0  0  0  0  0  0  0
    4.3186    2.4921    8.1292 C   0  0  0  0  0  0  0  0  0  0  0  0
    4.9455    2.4755    6.7069 C   0  0  0  0  0  0  0  0  0  0  0  0
    4.6643    3.8639    6.0831 C   0  0  0  0  0  0  0  0  0  0  0  0
    6.4753    2.3810    6.8986 C   0  0  0  0  0  0  0  0  0  0  0  0
    4.5379    1.3065    5.7193 C   0  0  0  0  0  0  0  0  0  0  0  0
    3.0447    0.7558    5.5882 C   0  0  2  0  0  0  0  0  0  0  0  0
    2.5640    0.0772    6.9056 C   0  0  2  0  0  0  0  0  0  0  0  0
    1.3730   -0.9220    7.0893 C   0  0  0  0  0  0  0  0  0  0  0  0
    3.7441   -0.8894    7.2352 C   0  0  2  0  0  0  0  0  0  0  0  0
    4.7733   -0.7935    8.3757 C   0  0  0  0  0  0  0  0  0  0  0  0
    3.6051   -1.5545    8.5030 O   0  0  0  0  0  0  0  0  0  0  0  0
    2.7079   -0.0942    4.3608 C   0  0  1  0  0  0  0  0  0  0  0  0
    3.4341    0.5260    3.1137 C   0  0  0  0  0  0  0  0  0  0  0  0
    6.0488   -1.7857    5.7373 H   0  0  0  0  0  0  0  0  0  0  0  0
    5.4234   -3.3648    5.2733 H   0  0  0  0  0  0  0  0  0  0  0  0
    5.5943   -2.9901    6.9452 H   0  0  0  0  0  0  0  0  0  0  0  0
    3.3160   -2.8309    6.3754 H   0  0  0  0  0  0  0  0  0  0  0  0
    3.7652   -1.9743    2.4613 H   0  0  0  0  0  0  0  0  0  0  0  0
    4.3328   -3.1895    3.5259 H   0  0  0  0  0  0  0  0  0  0  0  0
    5.1508   -1.6469    3.4945 H   0  0  0  0  0  0  0  0  0  0  0  0
    2.1029   -3.3432    3.7745 H   0  0  0  0  0  0  0  0  0  0  0  0
    1.4605   -2.7963    5.2473 H   0  0  0  0  0  0  0  0  0  0  0  0
    1.1861   -1.6085    2.5051 H   0  0  0  0  0  0  0  0  0  0  0  0
   -0.0912   -1.9114    3.6266 H   0  0  0  0  0  0  0  0  0  0  0  0
    1.1137    0.4707    3.0478 H   0  0  0  0  0  0  0  0  0  0  0  0
   -1.0078   -0.3995    6.5252 H   0  0  0  0  0  0  0  0  0  0  0  0
   -1.4103   -1.1715    4.9991 H   0  0  0  0  0  0  0  0  0  0  0  0
   -2.1908    0.2519    5.5959 H   0  0  0  0  0  0  0  0  0  0  0  0
   -1.0924    0.3724    2.7441 H   0  0  0  0  0  0  0  0  0  0  0  0
   -2.1803    1.1456    3.8103 H   0  0  0  0  0  0  0  0  0  0  0  0
   -0.0843    2.4998    2.2343 H   0  0  0  0  0  0  0  0  0  0  0  0
   -1.7918    2.6743    2.2117 H   0  0  0  0  0  0  0  0  0  0  0  0
   -0.7299    4.5558    3.3858 H   0  0  0  0  0  0  0  0  0  0  0  0
   -2.4042    2.9277    4.9163 H   0  0  0  0  0  0  0  0  0  0  0  0
    2.4280    3.6265    4.7056 H   0  0  0  0  0  0  0  0  0  0  0  0
    1.5065    4.4621    3.5042 H   0  0  0  0  0  0  0  0  0  0  0  0
    1.6533    2.7317    3.4205 H   0  0  0  0  0  0  0  0  0  0  0  0
    1.1252    4.5632    6.5811 H   0  0  0  0  0  0  0  0  0  0  0  0
   -0.6407    4.5404    6.5981 H   0  0  0  0  0  0  0  0  0  0  0  0
    0.2258    5.5275    5.4280 H   0  0  0  0  0  0  0  0  0  0  0  0
   -0.9703    2.1353    5.9906 H   0  0  0  0  0  0  0  0  0  0  0  0
    0.3930    2.7343    7.7141 H   0  0  0  0  0  0  0  0  0  0  0  0
   -0.1063    1.1666    7.7310 H   0  0  0  0  0  0  0  0  0  0  0  0
    2.3271    3.2462    8.4765 H   0  0  0  0  0  0  0  0  0  0  0  0
    4.4984    3.4878    8.5441 H   0  0  0  0  0  0  0  0  0  0  0  0
    4.8155    1.8835    8.8669 H   0  0  0  0  0  0  0  0  0  0  0  0
    4.8362    3.8962    5.0089 H   0  0  0  0  0  0  0  0  0  0  0  0
    5.2994    4.6302    6.5272 H   0  0  0  0  0  0  0  0  0  0  0  0
    3.6463    4.1963    6.2740 H   0  0  0  0  0  0  0  0  0  0  0  0
    7.0034    2.4588    5.9478 H   0  0  0  0  0  0  0  0  0  0  0  0
    6.7563    1.4329    7.3590 H   0  0  0  0  0  0  0  0  0  0  0  0
    6.8440    3.1768    7.5476 H   0  0  0  0  0  0  0  0  0  0  0  0
    4.8609    1.6870    4.7598 H   0  0  0  0  0  0  0  0  0  0  0  0
    5.2192    0.4714    5.8642 H   0  0  0  0  0  0  0  0  0  0  0  0
    2.5038    1.6513    5.3537 H   0  0  0  0  0  0  0  0  0  0  0  0
    1.6291   -1.9417    7.3552 H   0  0  0  0  0  0  0  0  0  0  0  0
    0.8324   -1.0878    6.1949 H   0  0  0  0  0  0  0  0  0  0  0  0
    0.7125   -0.6802    7.9174 H   0  0  0  0  0  0  0  0  0  0  0  0
    5.6595   -1.4253    8.3702 H   0  0  0  0  0  0  0  0  0  0  0  0
    4.7657   -0.0397    9.1603 H   0  0  0  0  0  0  0  0  0  0  0  0
    3.3110    1.5998    3.0387 H   0  0  0  0  0  0  0  0  0  0  0  0
    3.0831    0.1083    2.1685 H   0  0  0  0  0  0  0  0  0  0  0  0
    4.5130    0.3810    3.1264 H   0  0  0  0  0  0  0  0  0  0  0  0
  1  2  1  0
  1 34  1  0
  1 35  1  0
  1 36  1  0
  2 29  1  0
  2  3  1  0
  2 37  1  1
  3 32  1  0
  3  4  1  6
  3  5  1  0
  4 38  1  0
  4 39  1  0
  4 40  1  0
  5  6  1  0
  5 41  1  0
  5 42  1  0
  6  7  1  0
  6 43  1  0
  6 44  1  0
  7 32  1  0
  7  8  1  0
  7 45  1  6
  8 17  1  0
  8  9  1  1
  8 10  1  0
  9 46  1  0
  9 47  1  0
  9 48  1  0
 10 11  1  0
 10 49  1  0
 10 50  1  0
 11 12  1  0
 11 51  1  0
 11 52  1  0
 12 13  1  0
 12 14  1  0
 12 53  1  6
 13 54  1  0
 14 15  1  0
 14 16  1  0
 14 17  1  0
 15 55  1  0
 15 56  1  0
 15 57  1  0
 16 58  1  0
 16 59  1  0
 16 60  1  0
 17 18  1  0
 17 61  1  1
 18 19  1  0
 18 62  1  0
 18 63  1  0
 19 27  1  0
 19 20  2  0
 20 21  1  0
 20 64  1  0
 21 22  1  0
 21 65  1  0
 21 66  1  0
 22 23  1  0
 22 24  1  0
 22 25  1  0
 23 67  1  0
 23 68  1  0
 23 69  1  0
 24 70  1  0
 24 71  1  0
 24 72  1  0
 25 26  1  0
 25 73  1  0
 25 74  1  0
 26 27  1  0
 26 32  1  0
 26 75  1  6
 27 28  1  6
 27 29  1  0
 28 76  1  0
 28 77  1  0
 28 78  1  0
 29 31  1  1
 29 30  1  0
 30 31  1  0
 30 79  1  0
 30 80  1  0
 32 33  1  6
 33 81  1  0
 33 82  1  0
 33 83  1  0
M  END
>  <i_m_ct_stereo_status>  (123) 
1

>  <s_m_source_file>  (123) 
/var/tmp/pbs.5076255.sched01/tmp6h9xbnrx/445q66801d.sdf

>  <i_m_source_file_index>  (123) 
5

>  <i_lp_mmshare_version>  (123) 
48012

>  <i_f3d_flags>  (123) 
0

>  <s_epik_input>  (123) 
W0NIMl0xW0NIMl1bQ0BASF0oW09IXSlDKFtDSDNdKShbQ0gzXSlbQ0BIXShbQ0gyXTIpW0NAXTEoW0NIM10pW0NAQEhdM1tDSDJdW0NIMl1bQ0BdKFtDSDNdKShbQ0BIXTRbQ0gzXSlbQ0BdMyhbQ0gzXSlbQ0BASF01W0NIMl1DKFtDSDNdKShbQ0gzXSlbQ0gyXVtDSF09QzJDNShbQ0gzXSlbQ0BdNDZbQ0gyXU82

>  <s_epik_cmdline>  (123) 
J2VwaWtfcHl0aG9uJywgJy1waHQnLCAnMi4wJywgJy1waCcsICc3LjAnLCAnLXRuJywgJzgnLCAnLW1hJywgJzIwMCcsICctaW1hZScsICc8aW5maWxlLm1hZT4nLCAnLW9tYWUnLCAnPG91dGZpbGUubWFlPic=

>  <r_lp_tautomer_probability>  (123) 
1

>  <r_epik_Ionization_Penalty>  (123) 
2.61377e-06

>  <r_epik_Ionization_Penalty_Charging>  (123) 
0

>  <r_epik_Ionization_Penalty_Neutral>  (123) 
2.61377e-06

>  <r_epik_State_Penalty>  (123) 
-0

>  <r_epik_Charging_Adjusted_Penalty>  (123) 
0

>  <i_epik_Tot_Q>  (123) 
0

>  <i_epik_Tot_abs_Q>  (123) 
0

>  <s_lp_Force_Field>  (123) 
OPLS3e

>  <r_lp_Energy>  (123) 
223.568

>  <b_lp_Chiralities_Consistent>  (123) 
1

>  <s_lp_Variant>  (123) 
29:0-1

>  <s_i_glide_gridfile>  (123) 
pfpi4k_grid

>  <i_i_glide_lignum>  (123) 
5

>  <i_i_glide_rotatable_bonds>  (123) 
1

>  <r_i_docking_score>  (123) 
-1.81348

>  <r_i_glide_ligand_efficiency>  (123) 
-0.054954

>  <r_i_glide_ligand_efficiency_sa>  (123) 
-0.176267

>  <r_i_glide_ligand_efficiency_ln>  (123) 
-0.403309

>  <r_i_glide_gscore>  (123) 
-1.81348

>  <r_i_glide_lipo>  (123) 
-0.0642712

>  <r_i_glide_hbond>  (123) 
0

>  <r_i_glide_metal>  (123) 
-0

>  <r_i_glide_rewards>  (123) 
-0.308676

>  <r_i_glide_evdw>  (123) 
-22.6575

>  <r_i_glide_ecoul>  (123) 
-2.05104

>  <r_i_glide_erotb>  (123) 
0

>  <r_i_glide_esite>  (123) 
0

>  <r_i_glide_emodel>  (123) 
-27.8256

>  <r_i_glide_energy>  (123) 
-24.7086

>  <r_i_glide_einternal>  (123) 
0.0396598

>  <r_i_glide_intrahb_reward>  (123) 
-0

>  <i_i_glide_confnum>  (123) 
1

>  <i_i_glide_posenum>  (123) 
13

>  <r_i_glide_eff_state_penalty>  (123) 
0

>  <ligand_id>  (123) 
29

>  <original_smiles>  (123) 
CC1C2(C)CCC3C4(C)CCC(O)C(C)(C)C4CC4=CCC(C)(C)CC(C4(C)C14CO4)C32C

>  <smiles>  (123) 
[H]OC1([H])C([H])([H])C([H])([H])C2(C([H])([H])[H])C([H])(C([H])([H])C3=C([H])C([H])([H])C(C([H])([H])[H])(C([H])([H])[H])C([H])([H])C4([H])C3(C([H])([H])[H])C3(OC3([H])[H])C([H])(C([H])([H])[H])C3(C([H])([H])[H])C([H])([H])C([H])([H])C2([H])C43C([H])([H])[H])C1(C([H])([H])[H])C([H])([H])[H]

$$$$
29:1:0
     RDKit          3D

 83 88  0  0  1  0  0  0  0  0999 V2000
    4.9870    3.0061    7.8607 C   0  0  0  0  0  0  0  0  0  0  0  0
    3.8330    2.0470    7.4406 C   0  0  2  0  0  0  0  0  0  0  0  0
    3.1100    1.3041    8.5963 C   0  0  1  0  0  0  0  0  0  0  0  0
    4.0188    0.1877    9.1689 C   0  0  0  0  0  0  0  0  0  0  0  0
    2.7088    2.2948    9.6926 C   0  0  0  0  0  0  0  0  0  0  0  0
    1.5196    3.0465    9.1033 C   0  0  0  0  0  0  0  0  0  0  0  0
    0.8477    2.1473    8.0176 C   0  0  1  0  0  0  0  0  0  0  0  0
    0.2644    2.9928    6.7345 C   0  0  2  0  0  0  0  0  0  0  0  0
   -0.5106    4.1075    7.5247 C   0  0  0  0  0  0  0  0  0  0  0  0
   -0.8796    2.3072    5.9242 C   0  0  0  0  0  0  0  0  0  0  0  0
   -1.5745    3.2003    4.8567 C   0  0  0  0  0  0  0  0  0  0  0  0
   -0.6096    3.9993    3.9432 C   0  0  1  0  0  0  0  0  0  0  0  0
   -1.3554    4.9435    3.1962 O   0  0  0  0  0  0  0  0  0  0  0  0
    0.6031    4.6922    4.6478 C   0  0  0  0  0  0  0  0  0  0  0  0
    1.6021    5.2149    3.5599 C   0  0  0  0  0  0  0  0  0  0  0  0
    0.1981    6.0148    5.3708 C   0  0  0  0  0  0  0  0  0  0  0  0
    1.2666    3.5931    5.6066 C   0  0  2  0  0  0  0  0  0  0  0  0
    2.1401    2.6079    4.6696 C   0  0  0  0  0  0  0  0  0  0  0  0
    2.0790    1.0699    4.7017 C   0  0  0  0  0  0  0  0  0  0  0  0
    1.1883    0.4256    3.9131 C   0  0  0  0  0  0  0  0  0  0  0  0
    0.7555   -1.0563    3.9332 C   0  0  0  0  0  0  0  0  0  0  0  0
    0.3770   -1.7761    5.2986 C   0  0  0  0  0  0  0  0  0  0  0  0
   -1.1061   -1.4732    5.6158 C   0  0  0  0  0  0  0  0  0  0  0  0
    0.4496   -3.2979    5.0321 C   0  0  0  0  0  0  0  0  0  0  0  0
    1.2345   -1.5033    6.5983 C   0  0  0  0  0  0  0  0  0  0  0  0
    1.7798   -0.0350    6.7675 C   0  0  2  0  0  0  0  0  0  0  0  0
    2.9230    0.2981    5.7328 C   0  0  1  0  0  0  0  0  0  0  0  0
    3.5829   -0.9613    5.1069 C   0  0  0  0  0  0  0  0  0  0  0  0
    4.1658    1.1020    6.3171 C   0  0  2  0  0  0  0  0  0  0  0  0
    5.6120    0.6189    6.1627 C   0  0  0  0  0  0  0  0  0  0  0  0
    5.0467    1.6016    5.2983 O   0  0  0  0  0  0  0  0  0  0  0  0
    1.7090    0.7881    8.0849 C   0  0  1  0  0  0  0  0  0  0  0  0
    1.0478   -0.1038    9.1870 C   0  0  0  0  0  0  0  0  0  0  0  0
    5.7284    2.5219    8.4908 H   0  0  0  0  0  0  0  0  0  0  0  0
    4.5885    3.8631    8.3985 H   0  0  0  0  0  0  0  0  0  0  0  0
    5.4849    3.4179    6.9877 H   0  0  0  0  0  0  0  0  0  0  0  0
    3.1312    2.7436    7.0332 H   0  0  0  0  0  0  0  0  0  0  0  0
    3.6241   -0.2413   10.0876 H   0  0  0  0  0  0  0  0  0  0  0  0
    5.0116    0.5695    9.4159 H   0  0  0  0  0  0  0  0  0  0  0  0
    4.1535   -0.6284    8.4629 H   0  0  0  0  0  0  0  0  0  0  0  0
    2.4206    1.7920   10.6127 H   0  0  0  0  0  0  0  0  0  0  0  0
    3.5026    2.9690   10.0163 H   0  0  0  0  0  0  0  0  0  0  0  0
    0.8168    3.3170    9.8949 H   0  0  0  0  0  0  0  0  0  0  0  0
    1.8991    3.9752    8.6777 H   0  0  0  0  0  0  0  0  0  0  0  0
   -0.0869    1.8256    8.4709 H   0  0  0  0  0  0  0  0  0  0  0  0
   -1.3321    4.5605    6.9924 H   0  0  0  0  0  0  0  0  0  0  0  0
    0.1338    4.9137    7.8671 H   0  0  0  0  0  0  0  0  0  0  0  0
   -1.0168    3.7146    8.4059 H   0  0  0  0  0  0  0  0  0  0  0  0
   -0.5077    1.4717    5.3613 H   0  0  0  0  0  0  0  0  0  0  0  0
   -1.6298    1.8920    6.5993 H   0  0  0  0  0  0  0  0  0  0  0  0
   -2.1723    2.5494    4.2112 H   0  0  0  0  0  0  0  0  0  0  0  0
   -2.3039    3.8696    5.3101 H   0  0  0  0  0  0  0  0  0  0  0  0
   -0.2308    3.2971    3.1978 H   0  0  0  0  0  0  0  0  0  0  0  0
   -0.9467    4.9987    2.3432 H   0  0  0  0  0  0  0  0  0  0  0  0
    2.5841    5.4096    3.9940 H   0  0  0  0  0  0  0  0  0  0  0  0
    1.2747    6.1437    3.0874 H   0  0  0  0  0  0  0  0  0  0  0  0
    1.7310    4.5497    2.7068 H   0  0  0  0  0  0  0  0  0  0  0  0
    0.8451    6.2228    6.2232 H   0  0  0  0  0  0  0  0  0  0  0  0
   -0.8385    6.0191    5.6896 H   0  0  0  0  0  0  0  0  0  0  0  0
    0.2654    6.8969    4.7299 H   0  0  0  0  0  0  0  0  0  0  0  0
    1.9822    4.2051    6.1519 H   0  0  0  0  0  0  0  0  0  0  0  0
    1.8586    2.7561    3.6344 H   0  0  0  0  0  0  0  0  0  0  0  0
    3.1663    2.9567    4.6603 H   0  0  0  0  0  0  0  0  0  0  0  0
    0.6000    0.9998    3.1957 H   0  0  0  0  0  0  0  0  0  0  0  0
   -0.1155   -1.1055    3.2854 H   0  0  0  0  0  0  0  0  0  0  0  0
    1.4685   -1.6260    3.3425 H   0  0  0  0  0  0  0  0  0  0  0  0
   -1.4706   -2.1147    6.4169 H   0  0  0  0  0  0  0  0  0  0  0  0
   -1.7454   -1.6522    4.7535 H   0  0  0  0  0  0  0  0  0  0  0  0
   -1.2648   -0.4452    5.9283 H   0  0  0  0  0  0  0  0  0  0  0  0
    0.1262   -3.8698    5.9021 H   0  0  0  0  0  0  0  0  0  0  0  0
    1.4661   -3.6130    4.7963 H   0  0  0  0  0  0  0  0  0  0  0  0
   -0.1852   -3.5788    4.1943 H   0  0  0  0  0  0  0  0  0  0  0  0
    0.6045   -1.8030    7.4321 H   0  0  0  0  0  0  0  0  0  0  0  0
    2.0540   -2.2117    6.7000 H   0  0  0  0  0  0  0  0  0  0  0  0
    0.8347    0.3685    6.4421 H   0  0  0  0  0  0  0  0  0  0  0  0
    4.1971   -1.4744    5.8489 H   0  0  0  0  0  0  0  0  0  0  0  0
    4.2142   -0.7062    4.2604 H   0  0  0  0  0  0  0  0  0  0  0  0
    2.9374   -1.7422    4.7385 H   0  0  0  0  0  0  0  0  0  0  0  0
    6.3631    1.0312    6.8651 H   0  0  0  0  0  0  0  0  0  0  0  0
    5.8872   -0.2625    5.6032 H   0  0  0  0  0  0  0  0  0  0  0  0
    0.0245   -0.3628    8.9135 H   0  0  0  0  0  0  0  0  0  0  0  0
    0.9616    0.3727   10.1564 H   0  0  0  0  0  0  0  0  0  0  0  0
    1.5995   -1.0327    9.3348 H   0  0  0  0  0  0  0  0  0  0  0  0
  1  2  1  0
  1 34  1  0
  1 35  1  0
  1 36  1  0
  2 29  1  0
  2  3  1  0
  2 37  1  6
  3 32  1  0
  3  4  1  1
  3  5  1  0
  4 38  1  0
  4 39  1  0
  4 40  1  0
  5  6  1  0
  5 41  1  0
  5 42  1  0
  6  7  1  0
  6 43  1  0
  6 44  1  0
  7 32  1  0
  7  8  1  0
  7 45  1  1
  8 17  1  0
  8  9  1  1
  8 10  1  0
  9 46  1  0
  9 47  1  0
  9 48  1  0
 10 11  1  0
 10 49  1  0
 10 50  1  0
 11 12  1  0
 11 51  1  0
 11 52  1  0
 12 13  1  0
 12 14  1  0
 12 53  1  6
 13 54  1  0
 14 15  1  0
 14 16  1  0
 14 17  1  0
 15 55  1  0
 15 56  1  0
 15 57  1  0
 16 58  1  0
 16 59  1  0
 16 60  1  0
 17 18  1  0
 17 61  1  1
 18 19  1  0
 18 62  1  0
 18 63  1  0
 19 27  1  0
 19 20  2  0
 20 21  1  0
 20 64  1  0
 21 22  1  0
 21 65  1  0
 21 66  1  0
 22 23  1  0
 22 24  1  0
 22 25  1  0
 23 67  1  0
 23 68  1  0
 23 69  1  0
 24 70  1  0
 24 71  1  0
 24 72  1  0
 25 26  1  0
 25 73  1  0
 25 74  1  0
 26 27  1  0
 26 32  1  0
 26 75  1  6
 27 28  1  6
 27 29  1  0
 28 76  1  0
 28 77  1  0
 28 78  1  0
 29 31  1  6
 29 30  1  0
 30 31  1  0
 30 79  1  0
 30 80  1  0
 32 33  1  1
 33 81  1  0
 33 82  1  0
 33 83  1  0
M  END
>  <i_m_ct_stereo_status>  (124) 
1

>  <s_m_source_file>  (124) 
/var/tmp/pbs.5076255.sched01/tmp6h9xbnrx/445q66801d.sdf

>  <i_m_source_file_index>  (124) 
6

>  <i_lp_mmshare_version>  (124) 
48012

>  <i_f3d_flags>  (124) 
0

>  <s_epik_input>  (124) 
W0NIMl0xW0NIMl1bQ0BASF0oW09IXSlDKFtDSDNdKShbQ0gzXSlbQ0BIXShbQ0gyXTIpW0NAXTEoW0NIM10pW0NAQEhdM1tDSDJdW0NIMl1bQ0BdKFtDSDNdKShbQ0BIXTRbQ0gzXSlbQ0BdMyhbQ0gzXSlbQ0BASF01W0NIMl1DKFtDSDNdKShbQ0gzXSlbQ0gyXVtDSF09QzJDNShbQ0gzXSlbQ0BdNDZbQ0gyXU82

>  <s_epik_cmdline>  (124) 
J2VwaWtfcHl0aG9uJywgJy1waHQnLCAnMi4wJywgJy1waCcsICc3LjAnLCAnLXRuJywgJzgnLCAnLW1hJywgJzIwMCcsICctaW1hZScsICc8aW5maWxlLm1hZT4nLCAnLW9tYWUnLCAnPG91dGZpbGUubWFlPic=

>  <r_lp_tautomer_probability>  (124) 
1

>  <r_epik_Ionization_Penalty>  (124) 
2.61377e-06

>  <r_epik_Ionization_Penalty_Charging>  (124) 
0

>  <r_epik_Ionization_Penalty_Neutral>  (124) 
2.61377e-06

>  <r_epik_State_Penalty>  (124) 
-0

>  <r_epik_Charging_Adjusted_Penalty>  (124) 
0

>  <i_epik_Tot_Q>  (124) 
0

>  <i_epik_Tot_abs_Q>  (124) 
0

>  <s_lp_Force_Field>  (124) 
OPLS3e

>  <r_lp_Energy>  (124) 
180.411

>  <b_lp_Chiralities_Consistent>  (124) 
1

>  <s_lp_Variant>  (124) 
29:0-2

>  <s_i_glide_gridfile>  (124) 
pfpi4k_grid

>  <i_i_glide_lignum>  (124) 
6

>  <i_i_glide_rotatable_bonds>  (124) 
1

>  <r_i_docking_score>  (124) 
-2.63139

>  <r_i_glide_ligand_efficiency>  (124) 
-0.0797392

>  <r_i_glide_ligand_efficiency_sa>  (124) 
-0.255766

>  <r_i_glide_ligand_efficiency_ln>  (124) 
-0.585209

>  <r_i_glide_gscore>  (124) 
-2.63139

>  <r_i_glide_lipo>  (124) 
-0.0461523

>  <r_i_glide_hbond>  (124) 
-0.32

>  <r_i_glide_metal>  (124) 
-0

>  <r_i_glide_rewards>  (124) 
-0.308676

>  <r_i_glide_evdw>  (124) 
-21.1067

>  <r_i_glide_ecoul>  (124) 
-6.0082

>  <r_i_glide_erotb>  (124) 
0

>  <r_i_glide_esite>  (124) 
0

>  <r_i_glide_emodel>  (124) 
-31.0955

>  <r_i_glide_energy>  (124) 
-27.1149

>  <r_i_glide_einternal>  (124) 
0.841714

>  <r_i_glide_intrahb_reward>  (124) 
-0

>  <i_i_glide_confnum>  (124) 
2

>  <i_i_glide_posenum>  (124) 
3

>  <r_i_glide_eff_state_penalty>  (124) 
0

>  <ligand_id>  (124) 
29

>  <original_smiles>  (124) 
CC1C2(C)CCC3C4(C)CCC(O)C(C)(C)C4CC4=CCC(C)(C)CC(C4(C)C14CO4)C32C

>  <smiles>  (124) 
[H]OC1([H])C([H])([H])C([H])([H])C2(C([H])([H])[H])C([H])(C([H])([H])C3=C([H])C([H])([H])C(C([H])([H])[H])(C([H])([H])[H])C([H])([H])C4([H])C3(C([H])([H])[H])C3(OC3([H])[H])C([H])(C([H])([H])[H])C3(C([H])([H])[H])C([H])([H])C([H])([H])C2([H])C43C([H])([H])[H])C1(C([H])([H])[H])C([H])([H])[H]

$$$$
29:1:1
     RDKit          3D

 83 88  0  0  1  0  0  0  0  0999 V2000
    2.6279   -0.4668    9.6911 C   0  0  0  0  0  0  0  0  0  0  0  0
    2.1779    0.0543    8.2868 C   0  0  2  0  0  0  0  0  0  0  0  0
    3.0288    1.1944    7.6720 C   0  0  1  0  0  0  0  0  0  0  0  0
    2.7481    2.5279    8.4051 C   0  0  0  0  0  0  0  0  0  0  0  0
    4.5147    0.8350    7.7439 C   0  0  0  0  0  0  0  0  0  0  0  0
    4.7032   -0.2179    6.6537 C   0  0  0  0  0  0  0  0  0  0  0  0
    3.5789   -0.0368    5.5844 C   0  0  1  0  0  0  0  0  0  0  0  0
    3.0423   -1.4568    4.9529 C   0  0  2  0  0  0  0  0  0  0  0  0
    4.4367   -2.1145    4.6298 C   0  0  0  0  0  0  0  0  0  0  0  0
    2.3809   -1.3720    3.5437 C   0  0  0  0  0  0  0  0  0  0  0  0
    2.0830   -2.7363    2.8579 C   0  0  0  0  0  0  0  0  0  0  0  0
    1.3821   -3.7904    3.7548 C   0  0  1  0  0  0  0  0  0  0  0  0
    1.3873   -5.0483    3.0841 O   0  0  0  0  0  0  0  0  0  0  0  0
    1.9379   -3.9224    5.2110 C   0  0  0  0  0  0  0  0  0  0  0  0
    0.9562   -4.8079    6.0543 C   0  0  0  0  0  0  0  0  0  0  0  0
    3.2628   -4.7533    5.2653 C   0  0  0  0  0  0  0  0  0  0  0  0
    2.0599   -2.4358    5.8033 C   0  0  2  0  0  0  0  0  0  0  0  0
    0.5722   -1.9589    6.2137 C   0  0  0  0  0  0  0  0  0  0  0  0
   -0.0699   -0.6119    5.8213 C   0  0  0  0  0  0  0  0  0  0  0  0
   -0.7624   -0.5229    4.6637 C   0  0  0  0  0  0  0  0  0  0  0  0
   -1.2800    0.7275    3.9245 C   0  0  0  0  0  0  0  0  0  0  0  0
   -0.3357    1.9812    3.6824 C   0  0  0  0  0  0  0  0  0  0  0  0
    0.5038    1.7267    2.4082 C   0  0  0  0  0  0  0  0  0  0  0  0
   -1.2657    3.1722    3.3500 C   0  0  0  0  0  0  0  0  0  0  0  0
    0.6368    2.4639    4.8377 C   0  0  0  0  0  0  0  0  0  0  0  0
    1.2681    1.3303    5.7238 C   0  0  2  0  0  0  0  0  0  0  0  0
    0.2119    0.6388    6.6719 C   0  0  1  0  0  0  0  0  0  0  0  0
   -1.0744    1.4948    6.8802 C   0  0  0  0  0  0  0  0  0  0  0  0
    0.7019    0.3548    8.1446 C   0  0  2  0  0  0  0  0  0  0  0  0
   -0.0653    0.8412    9.3815 C   0  0  0  0  0  0  0  0  0  0  0  0
   -0.1706   -0.4990    8.9066 O   0  0  0  0  0  0  0  0  0  0  0  0
    2.7788    1.2533    6.1151 C   0  0  1  0  0  0  0  0  0  0  0  0
    3.5026    2.5054    5.5124 C   0  0  0  0  0  0  0  0  0  0  0  0
    2.7234    0.3320   10.4155 H   0  0  0  0  0  0  0  0  0  0  0  0
    3.5764   -0.9813    9.6134 H   0  0  0  0  0  0  0  0  0  0  0  0
    1.9255   -1.2023   10.0706 H   0  0  0  0  0  0  0  0  0  0  0  0
    2.3462   -0.8197    7.6875 H   0  0  0  0  0  0  0  0  0  0  0  0
    3.4500    3.3146    8.1246 H   0  0  0  0  0  0  0  0  0  0  0  0
    2.8363    2.4166    9.4851 H   0  0  0  0  0  0  0  0  0  0  0  0
    1.7478    2.9027    8.1981 H   0  0  0  0  0  0  0  0  0  0  0  0
    5.1544    1.6967    7.5511 H   0  0  0  0  0  0  0  0  0  0  0  0
    4.8581    0.4871    8.7178 H   0  0  0  0  0  0  0  0  0  0  0  0
    5.7000   -0.1326    6.2137 H   0  0  0  0  0  0  0  0  0  0  0  0
    4.6475   -1.1957    7.1354 H   0  0  0  0  0  0  0  0  0  0  0  0
    4.0903    0.3708    4.7182 H   0  0  0  0  0  0  0  0  0  0  0  0
    4.4303   -2.8488    3.8426 H   0  0  0  0  0  0  0  0  0  0  0  0
    4.8984   -2.5809    5.4970 H   0  0  0  0  0  0  0  0  0  0  0  0
    5.1537   -1.3918    4.2445 H   0  0  0  0  0  0  0  0  0  0  0  0
    1.4264   -0.8833    3.5901 H   0  0  0  0  0  0  0  0  0  0  0  0
    2.9847   -0.7523    2.8786 H   0  0  0  0  0  0  0  0  0  0  0  0
    1.4252   -2.5364    2.0158 H   0  0  0  0  0  0  0  0  0  0  0  0
    2.9801   -3.1555    2.4091 H   0  0  0  0  0  0  0  0  0  0  0  0
    0.3329   -3.5005    3.8119 H   0  0  0  0  0  0  0  0  0  0  0  0
    2.2704   -5.3554    3.0474 H   0  0  0  0  0  0  0  0  0  0  0  0
    1.1181   -4.6672    7.1233 H   0  0  0  0  0  0  0  0  0  0  0  0
    1.0690   -5.8750    5.8547 H   0  0  0  0  0  0  0  0  0  0  0  0
   -0.0987   -4.6372    5.8415 H   0  0  0  0  0  0  0  0  0  0  0  0
    3.8913   -4.4509    6.1010 H   0  0  0  0  0  0  0  0  0  0  0  0
    3.8313   -4.7171    4.3406 H   0  0  0  0  0  0  0  0  0  0  0  0
    3.0953   -5.8228    5.4066 H   0  0  0  0  0  0  0  0  0  0  0  0
    2.5862   -2.6222    6.7379 H   0  0  0  0  0  0  0  0  0  0  0  0
   -0.1508   -2.6143    5.7606 H   0  0  0  0  0  0  0  0  0  0  0  0
    0.4223   -2.1620    7.2678 H   0  0  0  0  0  0  0  0  0  0  0  0
   -0.9267   -1.4268    4.0777 H   0  0  0  0  0  0  0  0  0  0  0  0
   -1.5880    0.3769    2.9441 H   0  0  0  0  0  0  0  0  0  0  0  0
   -2.2379    1.0022    4.3491 H   0  0  0  0  0  0  0  0  0  0  0  0
    1.0194    2.6307    2.0876 H   0  0  0  0  0  0  0  0  0  0  0  0
   -0.1180    1.4167    1.5697 H   0  0  0  0  0  0  0  0  0  0  0  0
    1.2678    0.9692    2.5492 H   0  0  0  0  0  0  0  0  0  0  0  0
   -0.6883    4.0607    3.0957 H   0  0  0  0  0  0  0  0  0  0  0  0
   -1.9101    3.4301    4.1920 H   0  0  0  0  0  0  0  0  0  0  0  0
   -1.9088    2.9478    2.5004 H   0  0  0  0  0  0  0  0  0  0  0  0
    1.3898    3.0662    4.3387 H   0  0  0  0  0  0  0  0  0  0  0  0
    0.1673    3.2107    5.4747 H   0  0  0  0  0  0  0  0  0  0  0  0
    1.4511    0.7277    4.8457 H   0  0  0  0  0  0  0  0  0  0  0  0
   -0.8531    2.3637    7.5048 H   0  0  0  0  0  0  0  0  0  0  0  0
   -1.8699    0.9294    7.3640 H   0  0  0  0  0  0  0  0  0  0  0  0
   -1.5411    1.9316    6.0163 H   0  0  0  0  0  0  0  0  0  0  0  0
    0.4783    0.9185   10.3346 H   0  0  0  0  0  0  0  0  0  0  0  0
   -1.0073    1.3638    9.3099 H   0  0  0  0  0  0  0  0  0  0  0  0
    3.4561    2.4980    4.4249 H   0  0  0  0  0  0  0  0  0  0  0  0
    4.5606    2.5599    5.7419 H   0  0  0  0  0  0  0  0  0  0  0  0
    3.0526    3.4351    5.8581 H   0  0  0  0  0  0  0  0  0  0  0  0
  1  2  1  0
  1 34  1  0
  1 35  1  0
  1 36  1  0
  2 29  1  0
  2  3  1  0
  2 37  1  6
  3 32  1  0
  3  4  1  1
  3  5  1  0
  4 38  1  0
  4 39  1  0
  4 40  1  0
  5  6  1  0
  5 41  1  0
  5 42  1  0
  6  7  1  0
  6 43  1  0
  6 44  1  0
  7 32  1  0
  7  8  1  0
  7 45  1  6
  8 17  1  0
  8  9  1  6
  8 10  1  0
  9 46  1  0
  9 47  1  0
  9 48  1  0
 10 11  1  0
 10 49  1  0
 10 50  1  0
 11 12  1  0
 11 51  1  0
 11 52  1  0
 12 13  1  0
 12 14  1  0
 12 53  1  1
 13 54  1  0
 14 15  1  0
 14 16  1  0
 14 17  1  0
 15 55  1  0
 15 56  1  0
 15 57  1  0
 16 58  1  0
 16 59  1  0
 16 60  1  0
 17 18  1  0
 17 61  1  1
 18 19  1  0
 18 62  1  0
 18 63  1  0
 19 27  1  0
 19 20  2  0
 20 21  1  0
 20 64  1  0
 21 22  1  0
 21 65  1  0
 21 66  1  0
 22 23  1  0
 22 24  1  0
 22 25  1  0
 23 67  1  0
 23 68  1  0
 23 69  1  0
 24 70  1  0
 24 71  1  0
 24 72  1  0
 25 26  1  0
 25 73  1  0
 25 74  1  0
 26 27  1  0
 26 32  1  0
 26 75  1  6
 27 28  1  1
 27 29  1  0
 28 76  1  0
 28 77  1  0
 28 78  1  0
 29 31  1  1
 29 30  1  0
 30 31  1  0
 30 79  1  0
 30 80  1  0
 32 33  1  6
 33 81  1  0
 33 82  1  0
 33 83  1  0
M  END
>  <i_m_ct_stereo_status>  (125) 
1

>  <s_m_source_file>  (125) 
/var/tmp/pbs.5076255.sched01/tmp6h9xbnrx/445q66801d.sdf

>  <i_m_source_file_index>  (125) 
6

>  <i_lp_mmshare_version>  (125) 
48012

>  <i_f3d_flags>  (125) 
0

>  <s_epik_input>  (125) 
W0NIMl0xW0NIMl1bQ0BASF0oW09IXSlDKFtDSDNdKShbQ0gzXSlbQ0BIXShbQ0gyXTIpW0NAXTEoW0NIM10pW0NAQEhdM1tDSDJdW0NIMl1bQ0BdKFtDSDNdKShbQ0BIXTRbQ0gzXSlbQ0BdMyhbQ0gzXSlbQ0BASF01W0NIMl1DKFtDSDNdKShbQ0gzXSlbQ0gyXVtDSF09QzJDNShbQ0gzXSlbQ0BdNDZbQ0gyXU82

>  <s_epik_cmdline>  (125) 
J2VwaWtfcHl0aG9uJywgJy1waHQnLCAnMi4wJywgJy1waCcsICc3LjAnLCAnLXRuJywgJzgnLCAnLW1hJywgJzIwMCcsICctaW1hZScsICc8aW5maWxlLm1hZT4nLCAnLW9tYWUnLCAnPG91dGZpbGUubWFlPic=

>  <r_lp_tautomer_probability>  (125) 
1

>  <r_epik_Ionization_Penalty>  (125) 
2.61377e-06

>  <r_epik_Ionization_Penalty_Charging>  (125) 
0

>  <r_epik_Ionization_Penalty_Neutral>  (125) 
2.61377e-06

>  <r_epik_State_Penalty>  (125) 
-0

>  <r_epik_Charging_Adjusted_Penalty>  (125) 
0

>  <i_epik_Tot_Q>  (125) 
0

>  <i_epik_Tot_abs_Q>  (125) 
0

>  <s_lp_Force_Field>  (125) 
OPLS3e

>  <r_lp_Energy>  (125) 
180.411

>  <b_lp_Chiralities_Consistent>  (125) 
1

>  <s_lp_Variant>  (125) 
29:0-2

>  <s_i_glide_gridfile>  (125) 
pfpi4k_grid

>  <i_i_glide_lignum>  (125) 
6

>  <i_i_glide_rotatable_bonds>  (125) 
1

>  <r_i_docking_score>  (125) 
-1.88029

>  <r_i_glide_ligand_efficiency>  (125) 
-0.0569786

>  <r_i_glide_ligand_efficiency_sa>  (125) 
-0.182761

>  <r_i_glide_ligand_efficiency_ln>  (125) 
-0.418167

>  <r_i_glide_gscore>  (125) 
-1.88029

>  <r_i_glide_lipo>  (125) 
-0.0246781

>  <r_i_glide_hbond>  (125) 
-0.0397292

>  <r_i_glide_metal>  (125) 
-0

>  <r_i_glide_rewards>  (125) 
-0.308676

>  <r_i_glide_evdw>  (125) 
-21.7856

>  <r_i_glide_ecoul>  (125) 
-2.78618

>  <r_i_glide_erotb>  (125) 
0

>  <r_i_glide_esite>  (125) 
0

>  <r_i_glide_emodel>  (125) 
-27.7462

>  <r_i_glide_energy>  (125) 
-24.5718

>  <r_i_glide_einternal>  (125) 
0.0101915

>  <r_i_glide_intrahb_reward>  (125) 
-0

>  <i_i_glide_confnum>  (125) 
2

>  <i_i_glide_posenum>  (125) 
1

>  <r_i_glide_eff_state_penalty>  (125) 
0

>  <ligand_id>  (125) 
29

>  <original_smiles>  (125) 
CC1C2(C)CCC3C4(C)CCC(O)C(C)(C)C4CC4=CCC(C)(C)CC(C4(C)C14CO4)C32C

>  <smiles>  (125) 
[H]OC1([H])C([H])([H])C([H])([H])C2(C([H])([H])[H])C([H])(C([H])([H])C3=C([H])C([H])([H])C(C([H])([H])[H])(C([H])([H])[H])C([H])([H])C4([H])C3(C([H])([H])[H])C3(OC3([H])[H])C([H])(C([H])([H])[H])C3(C([H])([H])[H])C([H])([H])C([H])([H])C2([H])C43C([H])([H])[H])C1(C([H])([H])[H])C([H])([H])[H]

$$$$
29:1:2
     RDKit          3D

 83 88  0  0  1  0  0  0  0  0999 V2000
   -1.7282    6.5587    9.2098 C   0  0  0  0  0  0  0  0  0  0  0  0
   -0.6631    5.4197    9.1305 C   0  0  2  0  0  0  0  0  0  0  0  0
   -0.7864    4.2957   10.1914 C   0  0  1  0  0  0  0  0  0  0  0  0
   -0.3297    4.8101   11.5787 C   0  0  0  0  0  0  0  0  0  0  0  0
   -2.2264    3.7842   10.2486 C   0  0  0  0  0  0  0  0  0  0  0  0
   -2.3790    2.9502    8.9823 C   0  0  0  0  0  0  0  0  0  0  0  0
   -0.9645    2.4550    8.5350 C   0  0  1  0  0  0  0  0  0  0  0  0
   -0.7738    2.3954    6.9039 C   0  0  2  0  0  0  0  0  0  0  0  0
   -2.1025    1.6406    6.5422 C   0  0  0  0  0  0  0  0  0  0  0  0
    0.3210    1.4218    6.3718 C   0  0  0  0  0  0  0  0  0  0  0  0
    0.3436    1.2102    4.8269 C   0  0  0  0  0  0  0  0  0  0  0  0
    0.2698    2.5061    3.9717 C   0  0  1  0  0  0  0  0  0  0  0  0
    0.0464    2.1387    2.6174 O   0  0  0  0  0  0  0  0  0  0  0  0
   -0.7752    3.5634    4.4561 C   0  0  0  0  0  0  0  0  0  0  0  0
   -0.5408    4.9002    3.6913 C   0  0  0  0  0  0  0  0  0  0  0  0
   -2.2343    3.1927    4.0354 C   0  0  0  0  0  0  0  0  0  0  0  0
   -0.5672    3.7500    6.0389 C   0  0  2  0  0  0  0  0  0  0  0  0
    0.7451    4.6695    6.2454 C   0  0  0  0  0  0  0  0  0  0  0  0
    1.9161    4.3461    7.1926 C   0  0  0  0  0  0  0  0  0  0  0  0
    2.9534    3.6096    6.7341 C   0  0  0  0  0  0  0  0  0  0  0  0
    4.1064    2.9440    7.5187 C   0  0  0  0  0  0  0  0  0  0  0  0
    3.8123    2.0901    8.8261 C   0  0  0  0  0  0  0  0  0  0  0  0
    3.4464    0.6489    8.3988 C   0  0  0  0  0  0  0  0  0  0  0  0
    5.1537    1.9736    9.5890 C   0  0  0  0  0  0  0  0  0  0  0  0
    2.7360    2.5946    9.8702 C   0  0  0  0  0  0  0  0  0  0  0  0
    1.4708    3.3132    9.2677 C   0  0  2  0  0  0  0  0  0  0  0  0
    1.8133    4.7361    8.6772 C   0  0  1  0  0  0  0  0  0  0  0  0
    3.1552    5.3181    9.2079 C   0  0  0  0  0  0  0  0  0  0  0  0
    0.7583    5.8879    9.0050 C   0  0  2  0  0  0  0  0  0  0  0  0
    1.1644    7.2151    9.6536 C   0  0  0  0  0  0  0  0  0  0  0  0
    0.9575    7.0941    8.2512 O   0  0  0  0  0  0  0  0  0  0  0  0
    0.0012    3.0223    9.6922 C   0  0  1  0  0  0  0  0  0  0  0  0
    0.0203    1.9433   10.8253 C   0  0  0  0  0  0  0  0  0  0  0  0
   -1.7883    7.0061   10.1985 H   0  0  0  0  0  0  0  0  0  0  0  0
   -2.7114    6.1769    8.9453 H   0  0  0  0  0  0  0  0  0  0  0  0
   -1.5146    7.3414    8.4869 H   0  0  0  0  0  0  0  0  0  0  0  0
   -0.9072    4.9868    8.1849 H   0  0  0  0  0  0  0  0  0  0  0  0
   -0.5658    4.1104   12.3777 H   0  0  0  0  0  0  0  0  0  0  0  0
   -0.8283    5.7457   11.8394 H   0  0  0  0  0  0  0  0  0  0  0  0
    0.7416    4.9923   11.6119 H   0  0  0  0  0  0  0  0  0  0  0  0
   -2.4090    3.1738   11.1298 H   0  0  0  0  0  0  0  0  0  0  0  0
   -2.9855    4.5628   10.3258 H   0  0  0  0  0  0  0  0  0  0  0  0
   -3.0593    2.1203    9.1738 H   0  0  0  0  0  0  0  0  0  0  0  0
   -2.8443    3.5824    8.2262 H   0  0  0  0  0  0  0  0  0  0  0  0
   -0.9613    1.3912    8.7648 H   0  0  0  0  0  0  0  0  0  0  0  0
   -2.0795    1.0858    5.6163 H   0  0  0  0  0  0  0  0  0  0  0  0
   -2.9708    2.2948    6.5027 H   0  0  0  0  0  0  0  0  0  0  0  0
   -2.3378    0.8605    7.2615 H   0  0  0  0  0  0  0  0  0  0  0  0
    1.3056    1.7839    6.6011 H   0  0  0  0  0  0  0  0  0  0  0  0
    0.2499    0.4557    6.8753 H   0  0  0  0  0  0  0  0  0  0  0  0
    1.2785    0.7061    4.5736 H   0  0  0  0  0  0  0  0  0  0  0  0
   -0.4300    0.5126    4.5119 H   0  0  0  0  0  0  0  0  0  0  0  0
    1.2645    2.9559    3.9947 H   0  0  0  0  0  0  0  0  0  0  0  0
    0.1464    2.8938    2.0466 H   0  0  0  0  0  0  0  0  0  0  0  0
   -0.9845    5.7284    4.2290 H   0  0  0  0  0  0  0  0  0  0  0  0
   -0.9815    4.8971    2.6848 H   0  0  0  0  0  0  0  0  0  0  0  0
    0.5093    5.1315    3.4968 H   0  0  0  0  0  0  0  0  0  0  0  0
   -2.9683    3.5954    4.7344 H   0  0  0  0  0  0  0  0  0  0  0  0
   -2.3871    2.1245    3.9065 H   0  0  0  0  0  0  0  0  0  0  0  0
   -2.5177    3.5884    3.0593 H   0  0  0  0  0  0  0  0  0  0  0  0
   -1.4165    4.3807    6.2889 H   0  0  0  0  0  0  0  0  0  0  0  0
    1.3021    4.7115    5.3184 H   0  0  0  0  0  0  0  0  0  0  0  0
    0.4352    5.7023    6.3535 H   0  0  0  0  0  0  0  0  0  0  0  0
    2.9881    3.3418    5.6785 H   0  0  0  0  0  0  0  0  0  0  0  0
    4.5974    2.2870    6.8047 H   0  0  0  0  0  0  0  0  0  0  0  0
    4.8860    3.6865    7.6678 H   0  0  0  0  0  0  0  0  0  0  0  0
    3.4390   -0.0278    9.2531 H   0  0  0  0  0  0  0  0  0  0  0  0
    4.1662    0.2468    7.6866 H   0  0  0  0  0  0  0  0  0  0  0  0
    2.4634    0.5860    7.9420 H   0  0  0  0  0  0  0  0  0  0  0  0
    5.0547    1.3338   10.4667 H   0  0  0  0  0  0  0  0  0  0  0  0
    5.5031    2.9469    9.9336 H   0  0  0  0  0  0  0  0  0  0  0  0
    5.9335    1.5510    8.9568 H   0  0  0  0  0  0  0  0  0  0  0  0
    2.4656    1.7176   10.4534 H   0  0  0  0  0  0  0  0  0  0  0  0
    3.1794    3.2206   10.6418 H   0  0  0  0  0  0  0  0  0  0  0  0
    1.4098    2.5750    8.4847 H   0  0  0  0  0  0  0  0  0  0  0  0
    3.0532    5.6059   10.2558 H   0  0  0  0  0  0  0  0  0  0  0  0
    3.4678    6.1918    8.6410 H   0  0  0  0  0  0  0  0  0  0  0  0
    4.0193    4.6749    9.2155 H   0  0  0  0  0  0  0  0  0  0  0  0
    0.3751    7.8030   10.1575 H   0  0  0  0  0  0  0  0  0  0  0  0
    2.1879    7.4823    9.8673 H   0  0  0  0  0  0  0  0  0  0  0  0
    0.4418    1.0043   10.4634 H   0  0  0  0  0  0  0  0  0  0  0  0
   -0.9581    1.6761   11.2113 H   0  0  0  0  0  0  0  0  0  0  0  0
    0.6179    2.2675   11.6774 H   0  0  0  0  0  0  0  0  0  0  0  0
  1  2  1  0
  1 34  1  0
  1 35  1  0
  1 36  1  0
  2 29  1  0
  2  3  1  0
  2 37  1  6
  3 32  1  0
  3  4  1  1
  3  5  1  0
  4 38  1  0
  4 39  1  0
  4 40  1  0
  5  6  1  0
  5 41  1  0
  5 42  1  0
  6  7  1  0
  6 43  1  0
  6 44  1  0
  7 32  1  0
  7  8  1  0
  7 45  1  1
  8 17  1  0
  8  9  1  6
  8 10  1  0
  9 46  1  0
  9 47  1  0
  9 48  1  0
 10 11  1  0
 10 49  1  0
 10 50  1  0
 11 12  1  0
 11 51  1  0
 11 52  1  0
 12 13  1  0
 12 14  1  0
 12 53  1  6
 13 54  1  0
 14 15  1  0
 14 16  1  0
 14 17  1  0
 15 55  1  0
 15 56  1  0
 15 57  1  0
 16 58  1  0
 16 59  1  0
 16 60  1  0
 17 18  1  0
 17 61  1  1
 18 19  1  0
 18 62  1  0
 18 63  1  0
 19 27  1  0
 19 20  2  0
 20 21  1  0
 20 64  1  0
 21 22  1  0
 21 65  1  0
 21 66  1  0
 22 23  1  0
 22 24  1  0
 22 25  1  0
 23 67  1  0
 23 68  1  0
 23 69  1  0
 24 70  1  0
 24 71  1  0
 24 72  1  0
 25 26  1  0
 25 73  1  0
 25 74  1  0
 26 27  1  0
 26 32  1  0
 26 75  1  6
 27 28  1  1
 27 29  1  0
 28 76  1  0
 28 77  1  0
 28 78  1  0
 29 31  1  6
 29 30  1  0
 30 31  1  0
 30 79  1  0
 30 80  1  0
 32 33  1  1
 33 81  1  0
 33 82  1  0
 33 83  1  0
M  END
>  <i_m_ct_stereo_status>  (126) 
1

>  <s_m_source_file>  (126) 
/var/tmp/pbs.5076255.sched01/tmp6h9xbnrx/445q66801d.sdf

>  <i_m_source_file_index>  (126) 
6

>  <i_lp_mmshare_version>  (126) 
48012

>  <i_f3d_flags>  (126) 
0

>  <s_epik_input>  (126) 
W0NIMl0xW0NIMl1bQ0BASF0oW09IXSlDKFtDSDNdKShbQ0gzXSlbQ0BIXShbQ0gyXTIpW0NAXTEoW0NIM10pW0NAQEhdM1tDSDJdW0NIMl1bQ0BdKFtDSDNdKShbQ0BIXTRbQ0gzXSlbQ0BdMyhbQ0gzXSlbQ0BASF01W0NIMl1DKFtDSDNdKShbQ0gzXSlbQ0gyXVtDSF09QzJDNShbQ0gzXSlbQ0BdNDZbQ0gyXU82

>  <s_epik_cmdline>  (126) 
J2VwaWtfcHl0aG9uJywgJy1waHQnLCAnMi4wJywgJy1waCcsICc3LjAnLCAnLXRuJywgJzgnLCAnLW1hJywgJzIwMCcsICctaW1hZScsICc8aW5maWxlLm1hZT4nLCAnLW9tYWUnLCAnPG91dGZpbGUubWFlPic=

>  <r_lp_tautomer_probability>  (126) 
1

>  <r_epik_Ionization_Penalty>  (126) 
2.61377e-06

>  <r_epik_Ionization_Penalty_Charging>  (126) 
0

>  <r_epik_Ionization_Penalty_Neutral>  (126) 
2.61377e-06

>  <r_epik_State_Penalty>  (126) 
-0

>  <r_epik_Charging_Adjusted_Penalty>  (126) 
0

>  <i_epik_Tot_Q>  (126) 
0

>  <i_epik_Tot_abs_Q>  (126) 
0

>  <s_lp_Force_Field>  (126) 
OPLS3e

>  <r_lp_Energy>  (126) 
180.411

>  <b_lp_Chiralities_Consistent>  (126) 
1

>  <s_lp_Variant>  (126) 
29:0-2

>  <s_i_glide_gridfile>  (126) 
pfpi4k_grid

>  <i_i_glide_lignum>  (126) 
6

>  <i_i_glide_rotatable_bonds>  (126) 
1

>  <r_i_docking_score>  (126) 
-1.83674

>  <r_i_glide_ligand_efficiency>  (126) 
-0.0556587

>  <r_i_glide_ligand_efficiency_sa>  (126) 
-0.178527

>  <r_i_glide_ligand_efficiency_ln>  (126) 
-0.408481

>  <r_i_glide_gscore>  (126) 
-1.83674

>  <r_i_glide_lipo>  (126) 
-0.00787562

>  <r_i_glide_hbond>  (126) 
-0.16

>  <r_i_glide_metal>  (126) 
-0

>  <r_i_glide_rewards>  (126) 
-0.308676

>  <r_i_glide_evdw>  (126) 
-22.7267

>  <r_i_glide_ecoul>  (126) 
-1.49235

>  <r_i_glide_erotb>  (126) 
0

>  <r_i_glide_esite>  (126) 
0

>  <r_i_glide_emodel>  (126) 
-27.0968

>  <r_i_glide_energy>  (126) 
-24.219

>  <r_i_glide_einternal>  (126) 
0.339381

>  <r_i_glide_intrahb_reward>  (126) 
-0

>  <i_i_glide_confnum>  (126) 
2

>  <i_i_glide_posenum>  (126) 
15

>  <r_i_glide_eff_state_penalty>  (126) 
0

>  <ligand_id>  (126) 
29

>  <original_smiles>  (126) 
CC1C2(C)CCC3C4(C)CCC(O)C(C)(C)C4CC4=CCC(C)(C)CC(C4(C)C14CO4)C32C

>  <smiles>  (126) 
[H]OC1([H])C([H])([H])C([H])([H])C2(C([H])([H])[H])C([H])(C([H])([H])C3=C([H])C([H])([H])C(C([H])([H])[H])(C([H])([H])[H])C([H])([H])C4([H])C3(C([H])([H])[H])C3(OC3([H])[H])C([H])(C([H])([H])[H])C3(C([H])([H])[H])C([H])([H])C([H])([H])C2([H])C43C([H])([H])[H])C1(C([H])([H])[H])C([H])([H])[H]

$$$$
30:0:0
     RDKit          3D

 76 81  0  0  1  0  0  0  0  0999 V2000
   -0.9854   -8.1242    1.9763 C   0  0  0  0  0  0  0  0  0  0  0  0
    0.4968   -7.7406    1.7688 C   0  0  0  0  0  0  0  0  0  0  0  0
    1.2678   -7.2597    3.0447 C   0  0  1  0  0  0  0  0  0  0  0  0
    0.7832   -5.8578    3.4998 C   0  0  0  0  0  0  0  0  0  0  0  0
    0.6933   -8.0291    4.1189 O   0  0  0  0  0  0  0  0  0  0  0  0
    1.3309   -8.7455    5.0459 C   0  0  0  0  0  0  0  0  0  0  0  0
    0.7548   -9.3459    5.9463 O   0  0  0  0  0  0  0  0  0  0  0  0
    2.8380   -8.7643    4.9489 C   0  0  0  0  0  0  0  0  0  0  0  0
    3.3824   -8.6942    3.5066 C   0  0  2  0  0  0  0  0  0  0  0  0
    2.8639   -9.9300    2.6888 C   0  0  0  0  0  0  0  0  0  0  0  0
    4.9120   -8.9451    3.7295 C   0  0  0  0  0  0  0  0  0  0  0  0
    5.2665  -10.0868    4.0333 O   0  0  0  0  0  0  0  0  0  0  0  0
    6.0188   -7.8681    3.6364 C   0  0  2  0  0  0  0  0  0  0  0  0
    7.2224   -8.3915    4.1850 O   0  0  0  0  0  0  0  0  0  0  0  0
    5.7718   -6.5325    4.3699 C   0  0  0  0  0  0  0  0  0  0  0  0
    5.9697   -5.4036    3.3354 C   0  0  2  0  0  0  0  0  0  0  0  0
    4.9972   -4.1974    3.5291 C   0  0  1  0  0  0  0  0  0  0  0  0
    5.4151   -3.3922    4.6129 O   0  0  0  0  0  0  0  0  0  0  0  0
    4.8337   -3.3748    2.2268 C   0  0  2  0  0  0  0  0  0  0  0  0
    6.1095   -2.8535    1.9172 O   0  0  0  0  0  0  0  0  0  0  0  0
    3.8528   -2.1798    2.2913 C   0  0  1  0  0  0  0  0  0  0  0  0
    4.0355   -1.3049    1.0135 C   0  0  0  0  0  0  0  0  0  0  0  0
    3.9242   -2.1269   -0.3116 C   0  0  1  0  0  0  0  0  0  0  0  0
    4.6432   -1.4576   -1.3257 O   0  0  0  0  0  0  0  0  0  0  0  0
    4.3869   -3.6188   -0.2481 C   0  0  0  0  0  0  0  0  0  0  0  0
    4.1562   -4.2859    1.1406 C   0  0  2  0  0  0  0  0  0  0  0  0
    2.6970   -4.0386    1.4761 C   0  0  0  0  0  0  0  0  0  0  0  0
    2.5478   -2.9034    2.1600 C   0  0  0  0  0  0  0  0  0  0  0  0
    1.3620   -2.4052    2.6446 O   0  0  0  0  0  0  0  0  0  0  0  0
    1.3966   -1.1448    3.3021 C   0  0  0  0  0  0  0  0  0  0  0  0
    4.5646   -5.8328    1.2140 C   0  0  2  0  0  0  0  0  0  0  0  0
    3.4368   -6.9266    1.4694 C   0  0  0  0  0  0  0  0  0  0  0  0
    2.8652   -7.3181    2.8999 C   0  0  1  0  0  0  0  0  0  0  0  0
    5.9483   -6.0640    1.9219 C   0  0  1  0  0  0  0  0  0  0  0  0
    7.1083   -5.5749    1.0028 C   0  0  0  0  0  0  0  0  0  0  0  0
    6.3083   -7.5431    2.1703 C   0  0  0  0  0  0  0  0  0  0  0  0
   -1.3839   -8.5487    1.0563 H   0  0  0  0  0  0  0  0  0  0  0  0
   -1.5998   -7.2677    2.2522 H   0  0  0  0  0  0  0  0  0  0  0  0
   -1.1272   -8.9013    2.7298 H   0  0  0  0  0  0  0  0  0  0  0  0
    1.0058   -8.6098    1.3560 H   0  0  0  0  0  0  0  0  0  0  0  0
    0.5311   -6.9893    0.9773 H   0  0  0  0  0  0  0  0  0  0  0  0
    0.7211   -5.1245    2.7069 H   0  0  0  0  0  0  0  0  0  0  0  0
    1.4247   -5.4581    4.2916 H   0  0  0  0  0  0  0  0  0  0  0  0
   -0.2247   -5.9036    3.9192 H   0  0  0  0  0  0  0  0  0  0  0  0
    3.1833   -7.9180    5.5345 H   0  0  0  0  0  0  0  0  0  0  0  0
    3.1717   -9.6723    5.4554 H   0  0  0  0  0  0  0  0  0  0  0  0
    1.7837  -10.0568    2.7210 H   0  0  0  0  0  0  0  0  0  0  0  0
    3.2392  -10.8855    3.0680 H   0  0  0  0  0  0  0  0  0  0  0  0
    3.1670   -9.8791    1.6417 H   0  0  0  0  0  0  0  0  0  0  0  0
    7.9040   -7.7524    4.0562 H   0  0  0  0  0  0  0  0  0  0  0  0
    4.7965   -6.5051    4.8502 H   0  0  0  0  0  0  0  0  0  0  0  0
    6.4655   -6.3976    5.2011 H   0  0  0  0  0  0  0  0  0  0  0  0
    6.9919   -5.0486    3.4764 H   0  0  0  0  0  0  0  0  0  0  0  0
    4.0205   -4.5671    3.8284 H   0  0  0  0  0  0  0  0  0  0  0  0
    4.7923   -2.6958    4.7588 H   0  0  0  0  0  0  0  0  0  0  0  0
    6.3929   -2.3233    2.6473 H   0  0  0  0  0  0  0  0  0  0  0  0
    3.9656   -1.6020    3.2063 H   0  0  0  0  0  0  0  0  0  0  0  0
    3.2718   -0.5248    0.9854 H   0  0  0  0  0  0  0  0  0  0  0  0
    4.9888   -0.7709    1.0593 H   0  0  0  0  0  0  0  0  0  0  0  0
    2.8720   -2.1323   -0.6072 H   0  0  0  0  0  0  0  0  0  0  0  0
    4.2056   -0.6356   -1.4931 H   0  0  0  0  0  0  0  0  0  0  0  0
    3.8433   -4.1810   -1.0129 H   0  0  0  0  0  0  0  0  0  0  0  0
    5.4372   -3.6812   -0.5295 H   0  0  0  0  0  0  0  0  0  0  0  0
    1.9150   -4.6865    1.1424 H   0  0  0  0  0  0  0  0  0  0  0  0
    0.3896   -0.8918    3.6309 H   0  0  0  0  0  0  0  0  0  0  0  0
    1.7277   -0.3417    2.6438 H   0  0  0  0  0  0  0  0  0  0  0  0
    2.0236   -1.1707    4.1930 H   0  0  0  0  0  0  0  0  0  0  0  0
    4.7965   -6.0639    0.1691 H   0  0  0  0  0  0  0  0  0  0  0  0
    2.6239   -6.6396    0.8156 H   0  0  0  0  0  0  0  0  0  0  0  0
    3.7655   -7.8472    0.9923 H   0  0  0  0  0  0  0  0  0  0  0  0
    3.2108   -6.5416    3.5638 H   0  0  0  0  0  0  0  0  0  0  0  0
    7.2133   -6.2319    0.1381 H   0  0  0  0  0  0  0  0  0  0  0  0
    8.0669   -5.5767    1.5269 H   0  0  0  0  0  0  0  0  0  0  0  0
    6.9799   -4.5816    0.5947 H   0  0  0  0  0  0  0  0  0  0  0  0
    7.3698   -7.7130    1.9785 H   0  0  0  0  0  0  0  0  0  0  0  0
    5.8196   -8.2177    1.4662 H   0  0  0  0  0  0  0  0  0  0  0  0
  1  2  1  0
  1 37  1  0
  1 38  1  0
  1 39  1  0
  3  2  1  6
  2 40  1  0
  2 41  1  0
  3 33  1  0
  3  4  1  0
  3  5  1  0
  4 42  1  0
  4 43  1  0
  4 44  1  0
  5  6  1  0
  6  7  2  0
  6  8  1  0
  8  9  1  0
  8 45  1  0
  8 46  1  0
  9 33  1  0
  9 10  1  6
  9 11  1  0
 10 47  1  0
 10 48  1  0
 10 49  1  0
 11 12  2  0
 11 13  1  0
 13 36  1  0
 13 14  1  1
 13 15  1  0
 14 50  1  0
 15 16  1  0
 15 51  1  0
 15 52  1  0
 16 34  1  0
 16 17  1  0
 16 53  1  1
 17 18  1  0
 17 19  1  0
 17 54  1  1
 18 55  1  0
 19 26  1  0
 19 20  1  6
 19 21  1  0
 20 56  1  0
 21 28  1  0
 21 22  1  0
 21 57  1  1
 22 23  1  0
 22 58  1  0
 22 59  1  0
 23 24  1  0
 23 25  1  0
 23 60  1  6
 24 61  1  0
 26 25  1  6
 25 62  1  0
 25 63  1  0
 26 27  1  0
 26 31  1  0
 27 28  2  0
 27 64  1  0
 28 29  1  0
 29 30  1  0
 30 65  1  0
 30 66  1  0
 30 67  1  0
 31 32  1  0
 31 34  1  0
 31 68  1  6
 32 33  1  0
 32 69  1  0
 32 70  1  0
 33 71  1  1
 34 35  1  6
 34 36  1  0
 35 72  1  0
 35 73  1  0
 35 74  1  0
 36 75  1  0
 36 76  1  0
M  END
>  <i_m_ct_stereo_status>  (127) 
1

>  <s_m_source_file>  (127) 
/var/tmp/pbs.5076255.sched01/tmp6h9xbnrx/445q66801d.sdf

>  <i_m_source_file_index>  (127) 
7

>  <i_lp_mmshare_version>  (127) 
48012

>  <i_f3d_flags>  (127) 
0

>  <s_epik_input>  (127) 
W0NIM11bQ0gyXVtDQEBdMShbQ0gzXSlPQyg9TylbQ0gyXVtDQF0oW0NIM10pKEMoPU8pW0NAXShbT0hdKShbQ0gyXTIpW0NIMl0zKVtDQEhdMVtDSDJdW0NAQEhdNFtDQEBdMyhbQ0gzXSlbQ0BIXTJbQ0BASF0oW09IXSlbQ0BdKFtDQF00NTYpKFtPSF0pW0NAQEhdKFtDSDJdW0NAQEhdKFtPSF0pW0NIMl01KUMoPVtDSF02KU9bQ0gzXQ==

>  <s_epik_cmdline>  (127) 
J2VwaWtfcHl0aG9uJywgJy1waHQnLCAnMi4wJywgJy1waCcsICc3LjAnLCAnLXRuJywgJzgnLCAnLW1hJywgJzIwMCcsICctaW1hZScsICc8aW5maWxlLm1hZT4nLCAnLW9tYWUnLCAnPG91dGZpbGUubWFlPic=

>  <r_lp_tautomer_probability>  (127) 
1

>  <r_epik_Ionization_Penalty>  (127) 
2.3104e-07

>  <r_epik_Ionization_Penalty_Charging>  (127) 
0

>  <r_epik_Ionization_Penalty_Neutral>  (127) 
2.3104e-07

>  <r_epik_State_Penalty>  (127) 
-0

>  <r_epik_Charging_Adjusted_Penalty>  (127) 
0

>  <i_epik_Tot_Q>  (127) 
0

>  <i_epik_Tot_abs_Q>  (127) 
0

>  <s_epik_Chemistry_Notes>  (127) 
This compound has an ester and may undergo hydrolysis at high or low pH.

>  <s_lp_Force_Field>  (127) 
OPLS3e

>  <r_lp_Energy>  (127) 
111.782

>  <b_lp_Chiralities_Consistent>  (127) 
1

>  <s_lp_Variant>  (127) 
30:0-1

>  <s_i_glide_gridfile>  (127) 
pfpi4k_grid

>  <i_i_glide_lignum>  (127) 
7

>  <i_i_glide_rotatable_bonds>  (127) 
6

>  <r_i_docking_score>  (127) 
-1.60099

>  <r_i_glide_ligand_efficiency>  (127) 
-0.044472

>  <r_i_glide_ligand_efficiency_sa>  (127) 
-0.146843

>  <r_i_glide_ligand_efficiency_ln>  (127) 
-0.349293

>  <r_i_glide_gscore>  (127) 
-1.60099

>  <r_i_glide_lipo>  (127) 
-0.413698

>  <r_i_glide_hbond>  (127) 
0

>  <r_i_glide_metal>  (127) 
-0

>  <r_i_glide_rewards>  (127) 
0

>  <r_i_glide_evdw>  (127) 
-24.0943

>  <r_i_glide_ecoul>  (127) 
0.263007

>  <r_i_glide_erotb>  (127) 
0

>  <r_i_glide_esite>  (127) 
-0.0220313

>  <r_i_glide_emodel>  (127) 
-22.8462

>  <r_i_glide_energy>  (127) 
-23.8313

>  <r_i_glide_einternal>  (127) 
5.40245

>  <r_i_glide_intrahb_reward>  (127) 
-0

>  <i_i_glide_confnum>  (127) 
1

>  <i_i_glide_posenum>  (127) 
33

>  <r_i_glide_eff_state_penalty>  (127) 
0

>  <ligand_id>  (127) 
30

>  <original_smiles>  (127) 
CCC1(C)OC(=O)CC2(C)C(=O)C3(O)CC4C(O)C5(O)C6CC(O)CC5(C=C6OC)C(CC12)C4(C)C3

>  <smiles>  (127) 
[H]OC1([H])C([H])([H])C2([H])C(OC([H])([H])[H])=C([H])C3(C1([H])[H])C1([H])C([H])([H])C4([H])C(C([H])([H])[H])(C([H])([H])C([H])([H])[H])OC(=O)C([H])([H])C4(C([H])([H])[H])C(=O)C4(O[H])C([H])([H])C([H])(C([H])(O[H])C23O[H])C1(C([H])([H])[H])C4([H])[H]

$$$$
30:0:1
     RDKit          3D

 76 81  0  0  1  0  0  0  0  0999 V2000
   -0.3442   -7.1926    0.9987 C   0  0  0  0  0  0  0  0  0  0  0  0
    1.1723   -7.0433    0.8455 C   0  0  0  0  0  0  0  0  0  0  0  0
    1.9670   -6.5073    2.0869 C   0  0  1  0  0  0  0  0  0  0  0  0
    1.3553   -5.2343    2.7213 C   0  0  0  0  0  0  0  0  0  0  0  0
    1.5563   -7.4431    3.1088 O   0  0  0  0  0  0  0  0  0  0  0  0
    2.3637   -8.1038    3.9572 C   0  0  0  0  0  0  0  0  0  0  0  0
    1.9026   -8.8473    4.8246 O   0  0  0  0  0  0  0  0  0  0  0  0
    3.8488   -7.8887    3.7884 C   0  0  0  0  0  0  0  0  0  0  0  0
    4.2883   -7.6628    2.3226 C   0  0  2  0  0  0  0  0  0  0  0  0
    3.9007   -8.9061    1.4475 C   0  0  0  0  0  0  0  0  0  0  0  0
    5.8556   -7.7113    2.4446 C   0  0  0  0  0  0  0  0  0  0  0  0
    6.3791   -8.8090    2.6303 O   0  0  0  0  0  0  0  0  0  0  0  0
    6.7878   -6.4644    2.3615 C   0  0  2  0  0  0  0  0  0  0  0  0
    8.0757   -6.8557    2.8446 O   0  0  0  0  0  0  0  0  0  0  0  0
    6.3783   -5.2380    3.1839 C   0  0  0  0  0  0  0  0  0  0  0  0
    6.3542   -4.0324    2.1832 C   0  0  2  0  0  0  0  0  0  0  0  0
    5.2297   -3.0029    2.5573 C   0  0  1  0  0  0  0  0  0  0  0  0
    5.6045   -2.1589    3.6330 O   0  0  0  0  0  0  0  0  0  0  0  0
    4.8937   -2.1321    1.3419 C   0  0  2  0  0  0  0  0  0  0  0  0
    6.0806   -1.3961    1.0522 O   0  0  0  0  0  0  0  0  0  0  0  0
    3.7811   -1.0988    1.5442 C   0  0  1  0  0  0  0  0  0  0  0  0
    3.7825   -0.1480    0.3179 C   0  0  0  0  0  0  0  0  0  0  0  0
    3.6629   -0.9440   -1.0497 C   0  0  1  0  0  0  0  0  0  0  0  0
    4.2223   -0.2852   -2.1973 O   0  0  0  0  0  0  0  0  0  0  0  0
    4.3303   -2.3218   -1.1131 C   0  0  0  0  0  0  0  0  0  0  0  0
    4.2835   -3.0710    0.2402 C   0  0  2  0  0  0  0  0  0  0  0  0
    2.8279   -3.0431    0.6756 C   0  0  0  0  0  0  0  0  0  0  0  0
    2.5737   -1.9908    1.4454 C   0  0  0  0  0  0  0  0  0  0  0  0
    1.3645   -1.6796    2.0214 O   0  0  0  0  0  0  0  0  0  0  0  0
    1.1898   -0.3665    2.5405 C   0  0  0  0  0  0  0  0  0  0  0  0
    4.9086   -4.5358    0.1624 C   0  0  2  0  0  0  0  0  0  0  0  0
    3.9658   -5.7908    0.4088 C   0  0  0  0  0  0  0  0  0  0  0  0
    3.5497   -6.3465    1.8384 C   0  0  1  0  0  0  0  0  0  0  0  0
    6.3551   -4.5827    0.7355 C   0  0  1  0  0  0  0  0  0  0  0  0
    7.3872   -3.7976   -0.1754 C   0  0  0  0  0  0  0  0  0  0  0  0
    6.9341   -6.0019    0.8964 C   0  0  0  0  0  0  0  0  0  0  0  0
   -0.7372   -7.6743    0.0931 H   0  0  0  0  0  0  0  0  0  0  0  0
   -0.8377   -6.2307    1.0960 H   0  0  0  0  0  0  0  0  0  0  0  0
   -0.6180   -7.8444    1.8289 H   0  0  0  0  0  0  0  0  0  0  0  0
    1.4948   -8.0540    0.6107 H   0  0  0  0  0  0  0  0  0  0  0  0
    1.3469   -6.4509   -0.0526 H   0  0  0  0  0  0  0  0  0  0  0  0
    1.1958   -4.4401    2.0205 H   0  0  0  0  0  0  0  0  0  0  0  0
    1.9830   -4.8145    3.5048 H   0  0  0  0  0  0  0  0  0  0  0  0
    0.3753   -5.4261    3.1661 H   0  0  0  0  0  0  0  0  0  0  0  0
    4.1129   -7.0408    4.4149 H   0  0  0  0  0  0  0  0  0  0  0  0
    4.3325   -8.7590    4.2226 H   0  0  0  0  0  0  0  0  0  0  0  0
    2.8535   -9.1852    1.5306 H   0  0  0  0  0  0  0  0  0  0  0  0
    4.4200   -9.8222    1.7323 H   0  0  0  0  0  0  0  0  0  0  0  0
    4.1211   -8.7404    0.3941 H   0  0  0  0  0  0  0  0  0  0  0  0
    8.6588   -6.1171    2.8026 H   0  0  0  0  0  0  0  0  0  0  0  0
    5.4518   -5.4000    3.7390 H   0  0  0  0  0  0  0  0  0  0  0  0
    7.0833   -5.0746    4.0019 H   0  0  0  0  0  0  0  0  0  0  0  0
    7.3296   -3.5099    2.0850 H   0  0  0  0  0  0  0  0  0  0  0  0
    4.3295   -3.5050    2.9235 H   0  0  0  0  0  0  0  0  0  0  0  0
    4.8521   -1.9476    4.1605 H   0  0  0  0  0  0  0  0  0  0  0  0
    6.4015   -1.0095    1.8547 H   0  0  0  0  0  0  0  0  0  0  0  0
    3.8745   -0.5637    2.4957 H   0  0  0  0  0  0  0  0  0  0  0  0
    2.9326    0.5014    0.4756 H   0  0  0  0  0  0  0  0  0  0  0  0
    4.6407    0.5226    0.3697 H   0  0  0  0  0  0  0  0  0  0  0  0
    2.6278   -1.0313   -1.3127 H   0  0  0  0  0  0  0  0  0  0  0  0
    3.7093    0.5145   -2.3362 H   0  0  0  0  0  0  0  0  0  0  0  0
    3.8096   -2.8969   -1.8809 H   0  0  0  0  0  0  0  0  0  0  0  0
    5.3578   -2.2182   -1.4579 H   0  0  0  0  0  0  0  0  0  0  0  0
    2.1132   -3.7657    0.3285 H   0  0  0  0  0  0  0  0  0  0  0  0
    0.1983   -0.2797    2.9875 H   0  0  0  0  0  0  0  0  0  0  0  0
    1.2301    0.3987    1.7652 H   0  0  0  0  0  0  0  0  0  0  0  0
    1.9119   -0.1340    3.3233 H   0  0  0  0  0  0  0  0  0  0  0  0
    5.0973   -4.6607   -0.9068 H   0  0  0  0  0  0  0  0  0  0  0  0
    3.0892   -5.5562   -0.1794 H   0  0  0  0  0  0  0  0  0  0  0  0
    4.3768   -6.6226   -0.1547 H   0  0  0  0  0  0  0  0  0  0  0  0
    3.8233   -5.5632    2.5284 H   0  0  0  0  0  0  0  0  0  0  0  0
    7.5272   -4.2179   -1.1690 H   0  0  0  0  0  0  0  0  0  0  0  0
    8.3634   -3.7138    0.3317 H   0  0  0  0  0  0  0  0  0  0  0  0
    7.0843   -2.7833   -0.3873 H   0  0  0  0  0  0  0  0  0  0  0  0
    7.9981   -6.0036    0.6442 H   0  0  0  0  0  0  0  0  0  0  0  0
    6.4740   -6.6437    0.1703 H   0  0  0  0  0  0  0  0  0  0  0  0
  1  2  1  0
  1 37  1  0
  1 38  1  0
  1 39  1  0
  3  2  1  6
  2 40  1  0
  2 41  1  0
  3 33  1  0
  3  4  1  0
  3  5  1  0
  4 42  1  0
  4 43  1  0
  4 44  1  0
  5  6  1  0
  6  7  2  0
  6  8  1  0
  8  9  1  0
  8 45  1  0
  8 46  1  0
  9 33  1  0
  9 10  1  6
  9 11  1  0
 10 47  1  0
 10 48  1  0
 10 49  1  0
 11 12  2  0
 11 13  1  0
 13 36  1  0
 13 14  1  1
 13 15  1  0
 14 50  1  0
 15 16  1  0
 15 51  1  0
 15 52  1  0
 16 34  1  0
 16 17  1  0
 16 53  1  6
 17 18  1  0
 17 19  1  0
 17 54  1  1
 18 55  1  0
 19 26  1  0
 19 20  1  6
 19 21  1  0
 20 56  1  0
 21 28  1  0
 21 22  1  0
 21 57  1  1
 22 23  1  0
 22 58  1  0
 22 59  1  0
 23 24  1  0
 23 25  1  0
 23 60  1  6
 24 61  1  0
 26 25  1  6
 25 62  1  0
 25 63  1  0
 26 27  1  0
 26 31  1  0
 27 28  2  0
 27 64  1  0
 28 29  1  0
 29 30  1  0
 30 65  1  0
 30 66  1  0
 30 67  1  0
 31 32  1  0
 31 34  1  0
 31 68  1  6
 32 33  1  0
 32 69  1  0
 32 70  1  0
 33 71  1  1
 34 35  1  6
 34 36  1  0
 35 72  1  0
 35 73  1  0
 35 74  1  0
 36 75  1  0
 36 76  1  0
M  END
>  <i_m_ct_stereo_status>  (128) 
1

>  <s_m_source_file>  (128) 
/var/tmp/pbs.5076255.sched01/tmp6h9xbnrx/445q66801d.sdf

>  <i_m_source_file_index>  (128) 
7

>  <i_lp_mmshare_version>  (128) 
48012

>  <i_f3d_flags>  (128) 
0

>  <s_epik_input>  (128) 
W0NIM11bQ0gyXVtDQEBdMShbQ0gzXSlPQyg9TylbQ0gyXVtDQF0oW0NIM10pKEMoPU8pW0NAXShbT0hdKShbQ0gyXTIpW0NIMl0zKVtDQEhdMVtDSDJdW0NAQEhdNFtDQEBdMyhbQ0gzXSlbQ0BIXTJbQ0BASF0oW09IXSlbQ0BdKFtDQF00NTYpKFtPSF0pW0NAQEhdKFtDSDJdW0NAQEhdKFtPSF0pW0NIMl01KUMoPVtDSF02KU9bQ0gzXQ==

>  <s_epik_cmdline>  (128) 
J2VwaWtfcHl0aG9uJywgJy1waHQnLCAnMi4wJywgJy1waCcsICc3LjAnLCAnLXRuJywgJzgnLCAnLW1hJywgJzIwMCcsICctaW1hZScsICc8aW5maWxlLm1hZT4nLCAnLW9tYWUnLCAnPG91dGZpbGUubWFlPic=

>  <r_lp_tautomer_probability>  (128) 
1

>  <r_epik_Ionization_Penalty>  (128) 
2.3104e-07

>  <r_epik_Ionization_Penalty_Charging>  (128) 
0

>  <r_epik_Ionization_Penalty_Neutral>  (128) 
2.3104e-07

>  <r_epik_State_Penalty>  (128) 
-0

>  <r_epik_Charging_Adjusted_Penalty>  (128) 
0

>  <i_epik_Tot_Q>  (128) 
0

>  <i_epik_Tot_abs_Q>  (128) 
0

>  <s_epik_Chemistry_Notes>  (128) 
This compound has an ester and may undergo hydrolysis at high or low pH.

>  <s_lp_Force_Field>  (128) 
OPLS3e

>  <r_lp_Energy>  (128) 
111.782

>  <b_lp_Chiralities_Consistent>  (128) 
1

>  <s_lp_Variant>  (128) 
30:0-1

>  <s_i_glide_gridfile>  (128) 
pfpi4k_grid

>  <i_i_glide_lignum>  (128) 
7

>  <i_i_glide_rotatable_bonds>  (128) 
6

>  <r_i_docking_score>  (128) 
-1.22767

>  <r_i_glide_ligand_efficiency>  (128) 
-0.034102

>  <r_i_glide_ligand_efficiency_sa>  (128) 
-0.112602

>  <r_i_glide_ligand_efficiency_ln>  (128) 
-0.267845

>  <r_i_glide_gscore>  (128) 
-1.22767

>  <r_i_glide_lipo>  (128) 
-0.59879

>  <r_i_glide_hbond>  (128) 
0

>  <r_i_glide_metal>  (128) 
-0

>  <r_i_glide_rewards>  (128) 
-0.0265294

>  <r_i_glide_evdw>  (128) 
-8.71998

>  <r_i_glide_ecoul>  (128) 
-1.08712

>  <r_i_glide_erotb>  (128) 
0

>  <r_i_glide_esite>  (128) 
-0.00328716

>  <r_i_glide_emodel>  (128) 
-4.78315

>  <r_i_glide_energy>  (128) 
-9.8071

>  <r_i_glide_einternal>  (128) 
6.52043

>  <r_i_glide_intrahb_reward>  (128) 
-0

>  <i_i_glide_confnum>  (128) 
1

>  <i_i_glide_posenum>  (128) 
16

>  <r_i_glide_eff_state_penalty>  (128) 
0

>  <ligand_id>  (128) 
30

>  <original_smiles>  (128) 
CCC1(C)OC(=O)CC2(C)C(=O)C3(O)CC4C(O)C5(O)C6CC(O)CC5(C=C6OC)C(CC12)C4(C)C3

>  <smiles>  (128) 
[H]OC1([H])C([H])([H])C2([H])C(OC([H])([H])[H])=C([H])C3(C1([H])[H])C1([H])C([H])([H])C4([H])C(C([H])([H])[H])(C([H])([H])C([H])([H])[H])OC(=O)C([H])([H])C4(C([H])([H])[H])C(=O)C4(O[H])C([H])([H])C([H])(C([H])(O[H])C23O[H])C1(C([H])([H])[H])C4([H])[H]

$$$$
31:0:0
     RDKit          3D

 26 28  0  0  1  0  0  0  0  0999 V2000
    2.3873   -2.2802    1.8180 C   0  0  0  0  0  0  0  0  0  0  0  0
    3.7915   -1.7841    1.7221 C   0  0  0  0  0  0  0  0  0  0  0  0
    4.2772   -0.7723    2.4546 N   0  0  0  0  0  0  0  0  0  0  0  0
    5.6059   -0.6589    2.0978 N   0  0  0  0  0  0  0  0  0  0  0  0
    5.7886   -1.5980    1.1739 C   0  0  0  0  0  0  0  0  0  0  0  0
    4.7001   -2.3141    0.8890 N   0  0  0  0  0  0  0  0  0  0  0  0
    4.6975   -3.3831   -0.0784 C   0  0  0  0  0  0  0  0  0  0  0  0
    5.5645   -2.9521   -1.2879 C   0  0  1  0  0  0  0  0  0  0  0  0
    4.8027   -2.1320   -2.2831 C   0  0  0  0  0  0  0  0  0  0  0  0
    4.6037   -0.7724   -2.2814 C   0  0  0  0  0  0  0  0  0  0  0  0
    3.8289   -0.3166   -3.3852 C   0  0  0  0  0  0  0  0  0  0  0  0
    3.4405   -1.3317   -4.2075 C   0  0  0  0  0  0  0  0  0  0  0  0
    3.9740   -2.8836   -3.6195 S   0  0  0  0  0  0  0  0  0  0  0  0
    6.7110   -2.1372   -0.9438 O   0  0  0  0  0  0  0  0  0  0  0  0
    7.0438   -1.9470    0.4425 C   0  0  0  0  0  0  0  0  0  0  0  0
    1.8409   -1.6901    2.5529 H   0  0  0  0  0  0  0  0  0  0  0  0
    2.3817   -3.3279    2.1252 H   0  0  0  0  0  0  0  0  0  0  0  0
    1.8854   -2.1855    0.8546 H   0  0  0  0  0  0  0  0  0  0  0  0
    5.1723   -4.2359    0.4101 H   0  0  0  0  0  0  0  0  0  0  0  0
    3.6794   -3.6777   -0.3523 H   0  0  0  0  0  0  0  0  0  0  0  0
    5.9160   -3.8508   -1.7883 H   0  0  0  0  0  0  0  0  0  0  0  0
    4.9754   -0.0972   -1.5305 H   0  0  0  0  0  0  0  0  0  0  0  0
    3.5814    0.7227   -3.5368 H   0  0  0  0  0  0  0  0  0  0  0  0
    2.8466   -1.2442   -5.0988 H   0  0  0  0  0  0  0  0  0  0  0  0
    7.7602   -1.1342    0.5432 H   0  0  0  0  0  0  0  0  0  0  0  0
    7.4802   -2.8550    0.8715 H   0  0  0  0  0  0  0  0  0  0  0  0
  1  2  1  0
  1 16  1  0
  1 17  1  0
  1 18  1  0
  2  6  1  0
  2  3  2  0
  3  4  1  0
  4  5  2  0
  5 15  1  0
  5  6  1  0
  6  7  1  0
  7  8  1  0
  7 19  1  0
  7 20  1  0
  8  9  1  0
  8 14  1  0
  8 21  1  6
  9 13  1  0
  9 10  2  0
 10 11  1  0
 10 22  1  0
 11 12  2  0
 11 23  1  0
 12 13  1  0
 12 24  1  0
 14 15  1  0
 15 25  1  0
 15 26  1  0
M  END
>  <i_m_ct_stereo_status>  (129) 
1

>  <s_m_source_file>  (129) 
/var/tmp/pbs.5076255.sched01/tmp6h9xbnrx/445q66801d.sdf

>  <i_m_source_file_index>  (129) 
8

>  <i_lp_mmshare_version>  (129) 
48012

>  <i_f3d_flags>  (129) 
0

>  <s_epik_input>  (129) 
bjFuYyhbQ0gzXSluKGMxMilbQ0gyXVtDQEhdKE9bQ0gyXTIpYzNbY0hdW2NIXVtjSF1zMw==

>  <s_epik_cmdline>  (129) 
J2VwaWtfcHl0aG9uJywgJy1waHQnLCAnMi4wJywgJy1waCcsICc3LjAnLCAnLXRuJywgJzgnLCAnLW1hJywgJzIwMCcsICctaW1hZScsICc8aW5maWxlLm1hZT4nLCAnLW9tYWUnLCAnPG91dGZpbGUubWFlPic=

>  <r_lp_tautomer_probability>  (129) 
1

>  <r_epik_Ionization_Penalty>  (129) 
0.000100163

>  <r_epik_Ionization_Penalty_Charging>  (129) 
0

>  <r_epik_Ionization_Penalty_Neutral>  (129) 
0.000100163

>  <r_epik_State_Penalty>  (129) 
-0

>  <r_epik_Charging_Adjusted_Penalty>  (129) 
0

>  <i_epik_Tot_Q>  (129) 
0

>  <i_epik_Tot_abs_Q>  (129) 
0

>  <s_lp_Force_Field>  (129) 
OPLS3e

>  <r_lp_Energy>  (129) 
16.2207

>  <b_lp_Chiralities_Consistent>  (129) 
1

>  <s_lp_Variant>  (129) 
31:0-1

>  <s_i_glide_gridfile>  (129) 
pfpi4k_grid

>  <i_i_glide_lignum>  (129) 
8

>  <i_i_glide_rotatable_bonds>  (129) 
1

>  <r_i_docking_score>  (129) 
-4.25549

>  <r_i_glide_ligand_efficiency>  (129) 
-0.283699

>  <r_i_glide_ligand_efficiency_sa>  (129) 
-0.699663

>  <r_i_glide_ligand_efficiency_ln>  (129) 
-1.14764

>  <r_i_glide_gscore>  (129) 
-4.25549

>  <r_i_glide_lipo>  (129) 
-0.540714

>  <r_i_glide_hbond>  (129) 
-0.16

>  <r_i_glide_metal>  (129) 
-0

>  <r_i_glide_rewards>  (129) 
-2.11259

>  <r_i_glide_evdw>  (129) 
-22.1965

>  <r_i_glide_ecoul>  (129) 
-4.4628

>  <r_i_glide_erotb>  (129) 
0.34462

>  <r_i_glide_esite>  (129) 
-0.00756245

>  <r_i_glide_emodel>  (129) 
-33.2309

>  <r_i_glide_energy>  (129) 
-26.6593

>  <r_i_glide_einternal>  (129) 
0.772041

>  <r_i_glide_intrahb_reward>  (129) 
-0

>  <i_i_glide_confnum>  (129) 
2

>  <i_i_glide_posenum>  (129) 
2

>  <r_i_glide_eff_state_penalty>  (129) 
0

>  <ligand_id>  (129) 
31

>  <original_smiles>  (129) 
Cc1nnc2n1CC(c1cccs1)OC2

>  <smiles>  (129) 
[H]c1sc(C2([H])OC([H])([H])c3nnc(C([H])([H])[H])n3C2([H])[H])c([H])c1[H]

$$$$
31:0:1
     RDKit          3D

 26 28  0  0  1  0  0  0  0  0999 V2000
    2.8394   -3.1853    1.9875 C   0  0  0  0  0  0  0  0  0  0  0  0
    4.0361   -2.3097    1.8222 C   0  0  0  0  0  0  0  0  0  0  0  0
    4.2271   -1.1626    2.4892 N   0  0  0  0  0  0  0  0  0  0  0  0
    5.4504   -0.6811    2.0661 N   0  0  0  0  0  0  0  0  0  0  0  0
    5.8777   -1.5896    1.1842 C   0  0  0  0  0  0  0  0  0  0  0  0
    5.0397   -2.5996    0.9774 N   0  0  0  0  0  0  0  0  0  0  0  0
    5.3248   -3.6694    0.0536 C   0  0  0  0  0  0  0  0  0  0  0  0
    5.9952   -3.0691   -1.2129 C   0  0  1  0  0  0  0  0  0  0  0  0
    5.0064   -2.5133   -2.1940 C   0  0  0  0  0  0  0  0  0  0  0  0
    4.2959   -3.1915   -3.1533 C   0  0  0  0  0  0  0  0  0  0  0  0
    3.4234   -2.3500   -3.9063 C   0  0  0  0  0  0  0  0  0  0  0  0
    3.4764   -1.0401   -3.5183 C   0  0  0  0  0  0  0  0  0  0  0  0
    4.5743   -0.8210   -2.1901 S   0  0  0  0  0  0  0  0  0  0  0  0
    6.8954   -1.9744   -0.9331 O   0  0  0  0  0  0  0  0  0  0  0  0
    7.1690   -1.6126    0.4309 C   0  0  0  0  0  0  0  0  0  0  0  0
    2.1606   -2.7480    2.7185 H   0  0  0  0  0  0  0  0  0  0  0  0
    3.1428   -4.1744    2.3376 H   0  0  0  0  0  0  0  0  0  0  0  0
    2.3095   -3.2854    1.0380 H   0  0  0  0  0  0  0  0  0  0  0  0
    6.0384   -4.3211    0.5622 H   0  0  0  0  0  0  0  0  0  0  0  0
    4.4294   -4.2588   -0.1584 H   0  0  0  0  0  0  0  0  0  0  0  0
    6.5750   -3.8410   -1.7166 H   0  0  0  0  0  0  0  0  0  0  0  0
    4.3584   -4.2543   -3.3261 H   0  0  0  0  0  0  0  0  0  0  0  0
    2.7858   -2.7384   -4.6862 H   0  0  0  0  0  0  0  0  0  0  0  0
    2.9161   -0.1939   -3.8975 H   0  0  0  0  0  0  0  0  0  0  0  0
    7.6338   -0.6319    0.4711 H   0  0  0  0  0  0  0  0  0  0  0  0
    7.8551   -2.3296    0.8792 H   0  0  0  0  0  0  0  0  0  0  0  0
  1  2  1  0
  1 16  1  0
  1 17  1  0
  1 18  1  0
  2  6  1  0
  2  3  2  0
  3  4  1  0
  4  5  2  0
  5 15  1  0
  5  6  1  0
  6  7  1  0
  7  8  1  0
  7 19  1  0
  7 20  1  0
  8  9  1  0
  8 14  1  0
  8 21  1  6
  9 13  1  0
  9 10  2  0
 10 11  1  0
 10 22  1  0
 11 12  2  0
 11 23  1  0
 12 13  1  0
 12 24  1  0
 14 15  1  0
 15 25  1  0
 15 26  1  0
M  END
>  <i_m_ct_stereo_status>  (130) 
1

>  <s_m_source_file>  (130) 
/var/tmp/pbs.5076255.sched01/tmp6h9xbnrx/445q66801d.sdf

>  <i_m_source_file_index>  (130) 
8

>  <i_lp_mmshare_version>  (130) 
48012

>  <i_f3d_flags>  (130) 
0

>  <s_epik_input>  (130) 
bjFuYyhbQ0gzXSluKGMxMilbQ0gyXVtDQEhdKE9bQ0gyXTIpYzNbY0hdW2NIXVtjSF1zMw==

>  <s_epik_cmdline>  (130) 
J2VwaWtfcHl0aG9uJywgJy1waHQnLCAnMi4wJywgJy1waCcsICc3LjAnLCAnLXRuJywgJzgnLCAnLW1hJywgJzIwMCcsICctaW1hZScsICc8aW5maWxlLm1hZT4nLCAnLW9tYWUnLCAnPG91dGZpbGUubWFlPic=

>  <r_lp_tautomer_probability>  (130) 
1

>  <r_epik_Ionization_Penalty>  (130) 
0.000100163

>  <r_epik_Ionization_Penalty_Charging>  (130) 
0

>  <r_epik_Ionization_Penalty_Neutral>  (130) 
0.000100163

>  <r_epik_State_Penalty>  (130) 
-0

>  <r_epik_Charging_Adjusted_Penalty>  (130) 
0

>  <i_epik_Tot_Q>  (130) 
0

>  <i_epik_Tot_abs_Q>  (130) 
0

>  <s_lp_Force_Field>  (130) 
OPLS3e

>  <r_lp_Energy>  (130) 
16.2207

>  <b_lp_Chiralities_Consistent>  (130) 
1

>  <s_lp_Variant>  (130) 
31:0-1

>  <s_i_glide_gridfile>  (130) 
pfpi4k_grid

>  <i_i_glide_lignum>  (130) 
8

>  <i_i_glide_rotatable_bonds>  (130) 
1

>  <r_i_docking_score>  (130) 
-4.22473

>  <r_i_glide_ligand_efficiency>  (130) 
-0.281648

>  <r_i_glide_ligand_efficiency_sa>  (130) 
-0.694605

>  <r_i_glide_ligand_efficiency_ln>  (130) 
-1.13934

>  <r_i_glide_gscore>  (130) 
-4.22473

>  <r_i_glide_lipo>  (130) 
-0.584193

>  <r_i_glide_hbond>  (130) 
-0.16

>  <r_i_glide_metal>  (130) 
-0

>  <r_i_glide_rewards>  (130) 
-2.1518

>  <r_i_glide_evdw>  (130) 
-22.1318

>  <r_i_glide_ecoul>  (130) 
-3.77276

>  <r_i_glide_erotb>  (130) 
0.34462

>  <r_i_glide_esite>  (130) 
-0.000847581

>  <r_i_glide_emodel>  (130) 
-32.7252

>  <r_i_glide_energy>  (130) 
-25.9046

>  <r_i_glide_einternal>  (130) 
0.162206

>  <r_i_glide_intrahb_reward>  (130) 
-0

>  <i_i_glide_confnum>  (130) 
3

>  <i_i_glide_posenum>  (130) 
11

>  <r_i_glide_eff_state_penalty>  (130) 
0

>  <ligand_id>  (130) 
31

>  <original_smiles>  (130) 
Cc1nnc2n1CC(c1cccs1)OC2

>  <smiles>  (130) 
[H]c1sc(C2([H])OC([H])([H])c3nnc(C([H])([H])[H])n3C2([H])[H])c([H])c1[H]

$$$$
31:0:2
     RDKit          3D

 26 28  0  0  1  0  0  0  0  0999 V2000
    2.6129   -2.1208    1.8531 C   0  0  0  0  0  0  0  0  0  0  0  0
    4.0677   -2.1778    1.5254 C   0  0  0  0  0  0  0  0  0  0  0  0
    5.0133   -1.4882    2.1786 N   0  0  0  0  0  0  0  0  0  0  0  0
    6.2100   -1.8276    1.5774 N   0  0  0  0  0  0  0  0  0  0  0  0
    5.8672   -2.6918    0.6197 C   0  0  0  0  0  0  0  0  0  0  0  0
    4.5607   -2.9237    0.5233 N   0  0  0  0  0  0  0  0  0  0  0  0
    3.9944   -3.8051   -0.4670 C   0  0  0  0  0  0  0  0  0  0  0  0
    4.7635   -3.5989   -1.7962 C   0  0  1  0  0  0  0  0  0  0  0  0
    4.2441   -2.4480   -2.5991 C   0  0  0  0  0  0  0  0  0  0  0  0
    4.5645   -1.1140   -2.4988 C   0  0  0  0  0  0  0  0  0  0  0  0
    3.8657   -0.2981   -3.4349 C   0  0  0  0  0  0  0  0  0  0  0  0
    3.0209   -1.0195   -4.2362 C   0  0  0  0  0  0  0  0  0  0  0  0
    3.0350   -2.7092   -3.8259 S   0  0  0  0  0  0  0  0  0  0  0  0
    6.1721   -3.3193   -1.6403 O   0  0  0  0  0  0  0  0  0  0  0  0
    6.7625   -3.4114   -0.3351 C   0  0  0  0  0  0  0  0  0  0  0  0
    2.4521   -1.4474    2.6949 H   0  0  0  0  0  0  0  0  0  0  0  0
    2.2468   -3.1143    2.1195 H   0  0  0  0  0  0  0  0  0  0  0  0
    2.0489   -1.7472    0.9964 H   0  0  0  0  0  0  0  0  0  0  0  0
    4.1717   -4.8211   -0.1078 H   0  0  0  0  0  0  0  0  0  0  0  0
    2.9156   -3.6648   -0.5609 H   0  0  0  0  0  0  0  0  0  0  0  0
    4.6618   -4.5057   -2.3870 H   0  0  0  0  0  0  0  0  0  0  0  0
    5.2641   -0.6933   -1.7911 H   0  0  0  0  0  0  0  0  0  0  0  0
    3.9963    0.7714   -3.4875 H   0  0  0  0  0  0  0  0  0  0  0  0
    2.3726   -0.6558   -5.0185 H   0  0  0  0  0  0  0  0  0  0  0  0
    7.7447   -2.9428   -0.3443 H   0  0  0  0  0  0  0  0  0  0  0  0
    6.8750   -4.4515   -0.0165 H   0  0  0  0  0  0  0  0  0  0  0  0
  1  2  1  0
  1 16  1  0
  1 17  1  0
  1 18  1  0
  2  6  1  0
  2  3  2  0
  3  4  1  0
  4  5  2  0
  5 15  1  0
  5  6  1  0
  6  7  1  0
  7  8  1  0
  7 19  1  0
  7 20  1  0
  8  9  1  0
  8 14  1  0
  8 21  1  6
  9 13  1  0
  9 10  2  0
 10 11  1  0
 10 22  1  0
 11 12  2  0
 11 23  1  0
 12 13  1  0
 12 24  1  0
 14 15  1  0
 15 25  1  0
 15 26  1  0
M  END
>  <i_m_ct_stereo_status>  (131) 
1

>  <s_m_source_file>  (131) 
/var/tmp/pbs.5076255.sched01/tmp6h9xbnrx/445q66801d.sdf

>  <i_m_source_file_index>  (131) 
8

>  <i_lp_mmshare_version>  (131) 
48012

>  <i_f3d_flags>  (131) 
0

>  <s_epik_input>  (131) 
bjFuYyhbQ0gzXSluKGMxMilbQ0gyXVtDQEhdKE9bQ0gyXTIpYzNbY0hdW2NIXVtjSF1zMw==

>  <s_epik_cmdline>  (131) 
J2VwaWtfcHl0aG9uJywgJy1waHQnLCAnMi4wJywgJy1waCcsICc3LjAnLCAnLXRuJywgJzgnLCAnLW1hJywgJzIwMCcsICctaW1hZScsICc8aW5maWxlLm1hZT4nLCAnLW9tYWUnLCAnPG91dGZpbGUubWFlPic=

>  <r_lp_tautomer_probability>  (131) 
1

>  <r_epik_Ionization_Penalty>  (131) 
0.000100163

>  <r_epik_Ionization_Penalty_Charging>  (131) 
0

>  <r_epik_Ionization_Penalty_Neutral>  (131) 
0.000100163

>  <r_epik_State_Penalty>  (131) 
-0

>  <r_epik_Charging_Adjusted_Penalty>  (131) 
0

>  <i_epik_Tot_Q>  (131) 
0

>  <i_epik_Tot_abs_Q>  (131) 
0

>  <s_lp_Force_Field>  (131) 
OPLS3e

>  <r_lp_Energy>  (131) 
16.2207

>  <b_lp_Chiralities_Consistent>  (131) 
1

>  <s_lp_Variant>  (131) 
31:0-1

>  <s_i_glide_gridfile>  (131) 
pfpi4k_grid

>  <i_i_glide_lignum>  (131) 
8

>  <i_i_glide_rotatable_bonds>  (131) 
1

>  <r_i_docking_score>  (131) 
-3.92726

>  <r_i_glide_ligand_efficiency>  (131) 
-0.261818

>  <r_i_glide_ligand_efficiency_sa>  (131) 
-0.645698

>  <r_i_glide_ligand_efficiency_ln>  (131) 
-1.05912

>  <r_i_glide_gscore>  (131) 
-3.92726

>  <r_i_glide_lipo>  (131) 
-0.678694

>  <r_i_glide_hbond>  (131) 
0

>  <r_i_glide_metal>  (131) 
-0

>  <r_i_glide_rewards>  (131) 
-2.00653

>  <r_i_glide_evdw>  (131) 
-23.197

>  <r_i_glide_ecoul>  (131) 
-2.83402

>  <r_i_glide_erotb>  (131) 
0.34462

>  <r_i_glide_esite>  (131) 
-0.0017028

>  <r_i_glide_emodel>  (131) 
-32.0538

>  <r_i_glide_energy>  (131) 
-26.031

>  <r_i_glide_einternal>  (131) 
0.799173

>  <r_i_glide_intrahb_reward>  (131) 
-0

>  <i_i_glide_confnum>  (131) 
4

>  <i_i_glide_posenum>  (131) 
40

>  <r_i_glide_eff_state_penalty>  (131) 
0

>  <ligand_id>  (131) 
31

>  <original_smiles>  (131) 
Cc1nnc2n1CC(c1cccs1)OC2

>  <smiles>  (131) 
[H]c1sc(C2([H])OC([H])([H])c3nnc(C([H])([H])[H])n3C2([H])[H])c([H])c1[H]

$$$$
32:0:0
     RDKit          3D

 50 53  0  0  1  0  0  0  0  0999 V2000
    2.2797    0.2846    8.5344 C   0  0  0  0  0  0  0  0  0  0  0  0
    3.0185    0.4333    7.1938 C   0  0  0  0  0  0  0  0  0  0  0  0
    3.8866    1.7052    7.2368 C   0  0  0  0  0  0  0  0  0  0  0  0
    2.1115    0.2662    5.9418 C   0  0  1  0  0  0  0  0  0  0  0  0
    1.1366   -0.8143    6.1728 O   0  0  0  0  0  0  0  0  0  0  0  0
    0.2042   -0.1287    5.2626 C   0  0  1  0  0  0  0  0  0  0  0  0
    0.8774    1.1083    5.7463 C   0  0  0  0  0  0  0  0  0  0  0  0
    0.4793    2.3943    5.8001 C   0  0  0  0  0  0  0  0  0  0  0  0
   -0.8659    2.8295    5.2187 C   0  0  1  0  0  0  0  0  0  0  0  0
   -1.3312    3.9745    5.9085 O   0  0  0  0  0  0  0  0  0  0  0  0
   -0.9270    3.0408    3.6565 C   0  0  1  0  0  0  0  0  0  0  0  0
   -2.3190    3.5727    3.2202 C   0  0  0  0  0  0  0  0  0  0  0  0
   -0.0052    4.0627    3.2805 O   0  0  0  0  0  0  0  0  0  0  0  0
   -0.5877    1.7419    2.8432 C   0  0  0  0  0  0  0  0  0  0  0  0
   -1.4352    1.2702    2.0847 O   0  0  0  0  0  0  0  0  0  0  0  0
    0.6777    1.0204    3.0599 C   0  0  0  0  0  0  0  0  0  0  0  0
    1.8530    1.6938    2.9739 C   0  0  0  0  0  0  0  0  0  0  0  0
    3.1084    1.1892    3.6582 C   0  0  1  0  0  0  0  0  0  0  0  0
    3.6847    2.2749    4.3258 O   0  0  0  0  0  0  0  0  0  0  0  0
    2.8481   -0.0724    4.5642 C   0  0  2  0  0  0  0  0  0  0  0  0
    1.9777   -1.0678    3.6972 C   0  0  0  0  0  0  0  0  0  0  0  0
    2.4726   -1.2989    2.2390 C   0  0  0  0  0  0  0  0  0  0  0  0
    1.9291   -2.5185    4.2888 C   0  0  0  0  0  0  0  0  0  0  0  0
    0.5846   -0.3586    3.7543 C   0  0  1  0  0  0  0  0  0  0  0  0
    1.5228    1.0607    8.6697 H   0  0  0  0  0  0  0  0  0  0  0  0
    3.0040    0.3821    9.3478 H   0  0  0  0  0  0  0  0  0  0  0  0
    1.8177   -0.7024    8.6388 H   0  0  0  0  0  0  0  0  0  0  0  0
    3.7200   -0.4042    7.1749 H   0  0  0  0  0  0  0  0  0  0  0  0
    3.2662    2.5973    7.1258 H   0  0  0  0  0  0  0  0  0  0  0  0
    4.6422    1.6774    6.4509 H   0  0  0  0  0  0  0  0  0  0  0  0
    4.4022    1.7799    8.2039 H   0  0  0  0  0  0  0  0  0  0  0  0
   -0.8492   -0.2746    5.5117 H   0  0  0  0  0  0  0  0  0  0  0  0
    1.1739    3.1534    6.0895 H   0  0  0  0  0  0  0  0  0  0  0  0
   -1.5921    2.0511    5.4566 H   0  0  0  0  0  0  0  0  0  0  0  0
   -1.1536    3.8502    6.8257 H   0  0  0  0  0  0  0  0  0  0  0  0
   -3.1165    2.8723    3.4914 H   0  0  0  0  0  0  0  0  0  0  0  0
   -2.3700    3.7259    2.1404 H   0  0  0  0  0  0  0  0  0  0  0  0
   -2.5405    4.5302    3.6885 H   0  0  0  0  0  0  0  0  0  0  0  0
   -0.0108    4.1490    2.3486 H   0  0  0  0  0  0  0  0  0  0  0  0
    1.8893    2.6803    2.5523 H   0  0  0  0  0  0  0  0  0  0  0  0
    3.8111    0.9151    2.8692 H   0  0  0  0  0  0  0  0  0  0  0  0
    4.1332    2.7709    3.6563 H   0  0  0  0  0  0  0  0  0  0  0  0
    3.7973   -0.5626    4.7801 H   0  0  0  0  0  0  0  0  0  0  0  0
    1.8469   -2.0370    1.7279 H   0  0  0  0  0  0  0  0  0  0  0  0
    3.5003   -1.6679    2.2418 H   0  0  0  0  0  0  0  0  0  0  0  0
    2.4471   -0.4146    1.6080 H   0  0  0  0  0  0  0  0  0  0  0  0
    0.8957   -2.8579    4.4272 H   0  0  0  0  0  0  0  0  0  0  0  0
    2.4161   -2.5896    5.2639 H   0  0  0  0  0  0  0  0  0  0  0  0
    2.4325   -3.2721    3.6712 H   0  0  0  0  0  0  0  0  0  0  0  0
   -0.1728   -0.9763    3.2531 H   0  0  0  0  0  0  0  0  0  0  0  0
  1  2  1  0
  1 25  1  0
  1 26  1  0
  1 27  1  0
  2  3  1  0
  4  2  1  1
  2 28  1  0
  3 29  1  0
  3 30  1  0
  3 31  1  0
  4  7  1  0
  4 20  1  0
  4  5  1  0
  5  6  1  0
  6 24  1  0
  6  7  1  0
  6 32  1  6
  7  8  2  3
  8  9  1  0
  8 33  1  0
  9 10  1  0
  9 11  1  0
  9 34  1  6
 10 35  1  0
 11 12  1  0
 11 13  1  6
 11 14  1  0
 12 36  1  0
 12 37  1  0
 12 38  1  0
 13 39  1  0
 14 15  2  0
 14 16  1  0
 16 24  1  0
 16 17  2  0
 17 18  1  0
 17 40  1  0
 18 19  1  0
 18 20  1  0
 18 41  1  6
 19 42  1  0
 20 21  1  0
 20 43  1  1
 21 22  1  0
 21 23  1  0
 21 24  1  0
 22 44  1  0
 22 45  1  0
 22 46  1  0
 23 47  1  0
 23 48  1  0
 23 49  1  0
 24 50  1  6
M  END
>  <i_m_ct_stereo_status>  (132) 
1

>  <s_m_source_file>  (132) 
/var/tmp/pbs.5076255.sched01/tmp6h9xbnrx/445q66801d.sdf

>  <i_m_source_file_index>  (132) 
9

>  <i_lp_mmshare_version>  (132) 
48012

>  <i_f3d_flags>  (132) 
0

>  <s_epik_input>  (132) 
W0NIM11bQ0hdKFtDSDNdKVtDQF0xMi9DPTNbQ0BIXShPMSlbQ0BIXTRDKEMoPU8pW0NAXShbQ0gzXSkoW09IXSlbQ0BASF0oXFtDSF0zKVtPSF0pPVtDSF1bQ0BASF0oW09IXSlbQ0BASF0yQzQoW0NIM10pW0NIM10=

>  <s_epik_cmdline>  (132) 
J2VwaWtfcHl0aG9uJywgJy1waHQnLCAnMi4wJywgJy1waCcsICc3LjAnLCAnLXRuJywgJzgnLCAnLW1hJywgJzIwMCcsICctaW1hZScsICc8aW5maWxlLm1hZT4nLCAnLW9tYWUnLCAnPG91dGZpbGUubWFlPic=

>  <r_lp_tautomer_probability>  (132) 
1

>  <r_epik_Ionization_Penalty>  (132) 
4.70417e-05

>  <r_epik_Ionization_Penalty_Charging>  (132) 
0

>  <r_epik_Ionization_Penalty_Neutral>  (132) 
4.70417e-05

>  <r_epik_State_Penalty>  (132) 
-0

>  <r_epik_Charging_Adjusted_Penalty>  (132) 
0

>  <i_epik_Tot_Q>  (132) 
0

>  <i_epik_Tot_abs_Q>  (132) 
0

>  <s_lp_Force_Field>  (132) 
OPLS3e

>  <r_lp_Energy>  (132) 
67.5753

>  <b_lp_Chiralities_Consistent>  (132) 
1

>  <s_lp_Variant>  (132) 
32:0-1

>  <s_i_glide_gridfile>  (132) 
pfpi4k_grid

>  <i_i_glide_lignum>  (132) 
9

>  <i_i_glide_rotatable_bonds>  (132) 
4

>  <r_i_docking_score>  (132) 
-3.40376

>  <r_i_glide_ligand_efficiency>  (132) 
-0.141823

>  <r_i_glide_ligand_efficiency_sa>  (132) 
-0.409089

>  <r_i_glide_ligand_efficiency_ln>  (132) 
-0.814675

>  <r_i_glide_gscore>  (132) 
-3.40376

>  <r_i_glide_lipo>  (132) 
-0.00195348

>  <r_i_glide_hbond>  (132) 
-0.243845

>  <r_i_glide_metal>  (132) 
-0

>  <r_i_glide_rewards>  (132) 
-1.12904

>  <r_i_glide_evdw>  (132) 
-14.5859

>  <r_i_glide_ecoul>  (132) 
-8.30362

>  <r_i_glide_erotb>  (132) 
0

>  <r_i_glide_esite>  (132) 
-0.0540738

>  <r_i_glide_emodel>  (132) 
-25.7957

>  <r_i_glide_energy>  (132) 
-22.8895

>  <r_i_glide_einternal>  (132) 
4.59414

>  <r_i_glide_intrahb_reward>  (132) 
-0

>  <i_i_glide_confnum>  (132) 
1

>  <i_i_glide_posenum>  (132) 
15

>  <r_i_glide_eff_state_penalty>  (132) 
0

>  <ligand_id>  (132) 
32

>  <original_smiles>  (132) 
CC(C)C12OC3C1=CC(O)C(C)(O)C(=O)C1=CC(O)C2C(C)(C)C13

>  <smiles>  (132) 
[H]OC1([H])C([H])=C2C3([H])OC2(C([H])(C([H])([H])[H])C([H])([H])[H])C2([H])C([H])(O[H])C([H])=C(C(=O)C1(O[H])C([H])([H])[H])C3([H])C2(C([H])([H])[H])C([H])([H])[H]

$$$$
32:0:1
     RDKit          3D

 50 53  0  0  1  0  0  0  0  0999 V2000
   -1.1163    2.8238   10.8501 C   0  0  0  0  0  0  0  0  0  0  0  0
   -1.4194    3.2188    9.3854 C   0  0  0  0  0  0  0  0  0  0  0  0
   -2.9394    3.2042    9.1656 C   0  0  0  0  0  0  0  0  0  0  0  0
   -0.6099    2.3719    8.3800 C   0  0  1  0  0  0  0  0  0  0  0  0
   -0.9276    0.9403    8.4851 O   0  0  0  0  0  0  0  0  0  0  0  0
   -0.5954    0.7915    7.0611 C   0  0  1  0  0  0  0  0  0  0  0  0
   -1.0982    2.1924    6.9488 C   0  0  0  0  0  0  0  0  0  0  0  0
   -1.6120    2.8845    5.9149 C   0  0  0  0  0  0  0  0  0  0  0  0
   -1.6969    2.2839    4.5061 C   0  0  1  0  0  0  0  0  0  0  0  0
   -2.7575    2.9087    3.8031 O   0  0  0  0  0  0  0  0  0  0  0  0
   -0.3617    2.2816    3.6487 C   0  0  1  0  0  0  0  0  0  0  0  0
   -0.6180    1.6947    2.2386 C   0  0  0  0  0  0  0  0  0  0  0  0
    0.0201    3.6288    3.4347 O   0  0  0  0  0  0  0  0  0  0  0  0
    0.8314    1.5065    4.3114 C   0  0  0  0  0  0  0  0  0  0  0  0
    1.3613    0.5704    3.7160 O   0  0  0  0  0  0  0  0  0  0  0  0
    1.2440    1.8495    5.6913 C   0  0  0  0  0  0  0  0  0  0  0  0
    1.5476    3.1284    6.0100 C   0  0  0  0  0  0  0  0  0  0  0  0
    1.5344    3.6246    7.4587 C   0  0  1  0  0  0  0  0  0  0  0  0
    0.8159    4.8350    7.5491 O   0  0  0  0  0  0  0  0  0  0  0  0
    0.9789    2.5489    8.4508 C   0  0  2  0  0  0  0  0  0  0  0  0
    1.6868    1.1890    8.1121 C   0  0  0  0  0  0  0  0  0  0  0  0
    3.2303    1.2783    7.9357 C   0  0  0  0  0  0  0  0  0  0  0  0
    1.4986    0.1328    9.2496 C   0  0  0  0  0  0  0  0  0  0  0  0
    0.9471    0.7959    6.7904 C   0  0  1  0  0  0  0  0  0  0  0  0
   -1.3939    1.7845   11.0549 H   0  0  0  0  0  0  0  0  0  0  0  0
   -1.6713    3.4497   11.5508 H   0  0  0  0  0  0  0  0  0  0  0  0
   -0.0623    2.9377   11.1080 H   0  0  0  0  0  0  0  0  0  0  0  0
   -1.1076    4.2541    9.2695 H   0  0  0  0  0  0  0  0  0  0  0  0
   -3.3461    2.1954    9.2486 H   0  0  0  0  0  0  0  0  0  0  0  0
   -3.2185    3.6209    8.1980 H   0  0  0  0  0  0  0  0  0  0  0  0
   -3.4296    3.8119    9.9262 H   0  0  0  0  0  0  0  0  0  0  0  0
   -1.1585    0.0062    6.5616 H   0  0  0  0  0  0  0  0  0  0  0  0
   -1.8312    3.9337    6.0235 H   0  0  0  0  0  0  0  0  0  0  0  0
   -1.9976    1.2429    4.6235 H   0  0  0  0  0  0  0  0  0  0  0  0
   -3.0458    2.3235    3.1164 H   0  0  0  0  0  0  0  0  0  0  0  0
   -0.9731    0.6630    2.2787 H   0  0  0  0  0  0  0  0  0  0  0  0
    0.2793    1.7159    1.6132 H   0  0  0  0  0  0  0  0  0  0  0  0
   -1.3721    2.2667    1.7104 H   0  0  0  0  0  0  0  0  0  0  0  0
    0.1817    3.7654    2.5041 H   0  0  0  0  0  0  0  0  0  0  0  0
    1.6819    3.8835    5.2458 H   0  0  0  0  0  0  0  0  0  0  0  0
    2.5612    3.8643    7.7265 H   0  0  0  0  0  0  0  0  0  0  0  0
    1.3085    5.5081    7.1068 H   0  0  0  0  0  0  0  0  0  0  0  0
    1.2856    2.8469    9.4525 H   0  0  0  0  0  0  0  0  0  0  0  0
    3.6543    0.2866    7.7729 H   0  0  0  0  0  0  0  0  0  0  0  0
    3.6966    1.6966    8.8305 H   0  0  0  0  0  0  0  0  0  0  0  0
    3.5561    1.8835    7.0913 H   0  0  0  0  0  0  0  0  0  0  0  0
    1.0892   -0.7972    8.8577 H   0  0  0  0  0  0  0  0  0  0  0  0
    0.8207    0.4794   10.0291 H   0  0  0  0  0  0  0  0  0  0  0  0
    2.4238   -0.1152    9.7715 H   0  0  0  0  0  0  0  0  0  0  0  0
    1.2963   -0.1858    6.4614 H   0  0  0  0  0  0  0  0  0  0  0  0
  1  2  1  0
  1 25  1  0
  1 26  1  0
  1 27  1  0
  2  3  1  0
  4  2  1  1
  2 28  1  0
  3 29  1  0
  3 30  1  0
  3 31  1  0
  4  7  1  0
  4 20  1  0
  4  5  1  0
  5  6  1  0
  6 24  1  0
  6  7  1  0
  6 32  1  6
  7  8  2  3
  8  9  1  0
  8 33  1  0
  9 10  1  0
  9 11  1  0
  9 34  1  1
 10 35  1  0
 11 12  1  0
 11 13  1  6
 11 14  1  0
 12 36  1  0
 12 37  1  0
 12 38  1  0
 13 39  1  0
 14 15  2  0
 14 16  1  0
 16 24  1  0
 16 17  2  0
 17 18  1  0
 17 40  1  0
 18 19  1  0
 18 20  1  0
 18 41  1  1
 19 42  1  0
 20 21  1  0
 20 43  1  1
 21 22  1  0
 21 23  1  0
 21 24  1  0
 22 44  1  0
 22 45  1  0
 22 46  1  0
 23 47  1  0
 23 48  1  0
 23 49  1  0
 24 50  1  6
M  END
>  <i_m_ct_stereo_status>  (133) 
1

>  <s_m_source_file>  (133) 
/var/tmp/pbs.5076255.sched01/tmp6h9xbnrx/445q66801d.sdf

>  <i_m_source_file_index>  (133) 
9

>  <i_lp_mmshare_version>  (133) 
48012

>  <i_f3d_flags>  (133) 
0

>  <s_epik_input>  (133) 
W0NIM11bQ0hdKFtDSDNdKVtDQF0xMi9DPTNbQ0BIXShPMSlbQ0BIXTRDKEMoPU8pW0NAXShbQ0gzXSkoW09IXSlbQ0BASF0oXFtDSF0zKVtPSF0pPVtDSF1bQ0BASF0oW09IXSlbQ0BASF0yQzQoW0NIM10pW0NIM10=

>  <s_epik_cmdline>  (133) 
J2VwaWtfcHl0aG9uJywgJy1waHQnLCAnMi4wJywgJy1waCcsICc3LjAnLCAnLXRuJywgJzgnLCAnLW1hJywgJzIwMCcsICctaW1hZScsICc8aW5maWxlLm1hZT4nLCAnLW9tYWUnLCAnPG91dGZpbGUubWFlPic=

>  <r_lp_tautomer_probability>  (133) 
1

>  <r_epik_Ionization_Penalty>  (133) 
4.70417e-05

>  <r_epik_Ionization_Penalty_Charging>  (133) 
0

>  <r_epik_Ionization_Penalty_Neutral>  (133) 
4.70417e-05

>  <r_epik_State_Penalty>  (133) 
-0

>  <r_epik_Charging_Adjusted_Penalty>  (133) 
0

>  <i_epik_Tot_Q>  (133) 
0

>  <i_epik_Tot_abs_Q>  (133) 
0

>  <s_lp_Force_Field>  (133) 
OPLS3e

>  <r_lp_Energy>  (133) 
67.5753

>  <b_lp_Chiralities_Consistent>  (133) 
1

>  <s_lp_Variant>  (133) 
32:0-1

>  <s_i_glide_gridfile>  (133) 
pfpi4k_grid

>  <i_i_glide_lignum>  (133) 
9

>  <i_i_glide_rotatable_bonds>  (133) 
4

>  <r_i_docking_score>  (133) 
-2.91875

>  <r_i_glide_ligand_efficiency>  (133) 
-0.121614

>  <r_i_glide_ligand_efficiency_sa>  (133) 
-0.350797

>  <r_i_glide_ligand_efficiency_ln>  (133) 
-0.69859

>  <r_i_glide_gscore>  (133) 
-2.91875

>  <r_i_glide_lipo>  (133) 
-0.0339015

>  <r_i_glide_hbond>  (133) 
-0.0121014

>  <r_i_glide_metal>  (133) 
-0

>  <r_i_glide_rewards>  (133) 
-1.12904

>  <r_i_glide_evdw>  (133) 
-14.9816

>  <r_i_glide_ecoul>  (133) 
-6.56803

>  <r_i_glide_erotb>  (133) 
0

>  <r_i_glide_esite>  (133) 
-0.00941592

>  <r_i_glide_emodel>  (133) 
-24.5042

>  <r_i_glide_energy>  (133) 
-21.5496

>  <r_i_glide_einternal>  (133) 
3.58712

>  <r_i_glide_intrahb_reward>  (133) 
-0

>  <i_i_glide_confnum>  (133) 
1

>  <i_i_glide_posenum>  (133) 
14

>  <r_i_glide_eff_state_penalty>  (133) 
0

>  <ligand_id>  (133) 
32

>  <original_smiles>  (133) 
CC(C)C12OC3C1=CC(O)C(C)(O)C(=O)C1=CC(O)C2C(C)(C)C13

>  <smiles>  (133) 
[H]OC1([H])C([H])=C2C3([H])OC2(C([H])(C([H])([H])[H])C([H])([H])[H])C2([H])C([H])(O[H])C([H])=C(C(=O)C1(O[H])C([H])([H])[H])C3([H])C2(C([H])([H])[H])C([H])([H])[H]

$$$$
32:0:2
     RDKit          3D

 50 53  0  0  1  0  0  0  0  0999 V2000
    1.9756   -1.4412    8.8467 C   0  0  0  0  0  0  0  0  0  0  0  0
    1.3290   -0.1287    8.3442 C   0  0  0  0  0  0  0  0  0  0  0  0
    0.2375    0.3089    9.3297 C   0  0  0  0  0  0  0  0  0  0  0  0
    0.8751   -0.2424    6.8744 C   0  0  1  0  0  0  0  0  0  0  0  0
   -0.0987   -1.3285    6.6768 O   0  0  0  0  0  0  0  0  0  0  0  0
   -0.6701   -0.5657    5.5556 C   0  0  1  0  0  0  0  0  0  0  0  0
   -0.2535    0.6288    6.3450 C   0  0  0  0  0  0  0  0  0  0  0  0
   -0.7005    1.9000    6.3641 C   0  0  0  0  0  0  0  0  0  0  0  0
   -1.7932    2.3775    5.4038 C   0  0  1  0  0  0  0  0  0  0  0  0
   -2.5104    3.4316    6.0136 O   0  0  0  0  0  0  0  0  0  0  0  0
   -1.3491    2.7333    3.9209 C   0  0  1  0  0  0  0  0  0  0  0  0
   -2.5523    3.2692    3.1029 C   0  0  0  0  0  0  0  0  0  0  0  0
   -0.4420    3.8214    3.9568 O   0  0  0  0  0  0  0  0  0  0  0  0
   -0.6851    1.5311    3.1564 C   0  0  0  0  0  0  0  0  0  0  0  0
   -1.1663    1.1367    2.0974 O   0  0  0  0  0  0  0  0  0  0  0  0
    0.4626    0.8241    3.7697 C   0  0  0  0  0  0  0  0  0  0  0  0
    1.5508    1.5195    4.1701 C   0  0  0  0  0  0  0  0  0  0  0  0
    2.5405    0.9525    5.1896 C   0  0  1  0  0  0  0  0  0  0  0  0
    2.7975    1.9098    6.1917 O   0  0  0  0  0  0  0  0  0  0  0  0
    2.0541   -0.4050    5.8043 C   0  0  2  0  0  0  0  0  0  0  0  0
    1.5754   -1.3080    4.6148 C   0  0  0  0  0  0  0  0  0  0  0  0
    2.5479   -1.3727    3.4018 C   0  0  0  0  0  0  0  0  0  0  0  0
    1.4078   -2.8018    5.0441 C   0  0  0  0  0  0  0  0  0  0  0  0
    0.2130   -0.6267    4.2619 C   0  0  1  0  0  0  0  0  0  0  0  0
    1.2672   -2.2744    8.8199 H   0  0  0  0  0  0  0  0  0  0  0  0
    2.3281   -1.3370    9.8753 H   0  0  0  0  0  0  0  0  0  0  0  0
    2.8419   -1.7322    8.2498 H   0  0  0  0  0  0  0  0  0  0  0  0
    2.0982    0.6361    8.3947 H   0  0  0  0  0  0  0  0  0  0  0  0
   -0.5898   -0.3955    9.3386 H   0  0  0  0  0  0  0  0  0  0  0  0
   -0.1428    1.3056    9.1061 H   0  0  0  0  0  0  0  0  0  0  0  0
    0.6349    0.3426   10.3453 H   0  0  0  0  0  0  0  0  0  0  0  0
   -1.7354   -0.7391    5.4092 H   0  0  0  0  0  0  0  0  0  0  0  0
   -0.1946    2.6483    6.9507 H   0  0  0  0  0  0  0  0  0  0  0  0
   -2.5121    1.5653    5.3269 H   0  0  0  0  0  0  0  0  0  0  0  0
   -3.4113    3.3924    5.7283 H   0  0  0  0  0  0  0  0  0  0  0  0
   -3.3630    2.5439    3.0388 H   0  0  0  0  0  0  0  0  0  0  0  0
   -2.2610    3.5294    2.0836 H   0  0  0  0  0  0  0  0  0  0  0  0
   -2.9727    4.1657    3.5518 H   0  0  0  0  0  0  0  0  0  0  0  0
   -0.2037    4.0412    3.0623 H   0  0  0  0  0  0  0  0  0  0  0  0
    1.6978    2.5534    3.8872 H   0  0  0  0  0  0  0  0  0  0  0  0
    3.4839    0.7998    4.6660 H   0  0  0  0  0  0  0  0  0  0  0  0
    3.1566    2.6833    5.7814 H   0  0  0  0  0  0  0  0  0  0  0  0
    2.9195   -0.8803    6.2654 H   0  0  0  0  0  0  0  0  0  0  0  0
    2.1767   -2.0706    2.6492 H   0  0  0  0  0  0  0  0  0  0  0  0
    3.5342   -1.7171    3.7169 H   0  0  0  0  0  0  0  0  0  0  0  0
    2.6881   -0.4274    2.8818 H   0  0  0  0  0  0  0  0  0  0  0  0
    0.4111   -3.1732    4.7988 H   0  0  0  0  0  0  0  0  0  0  0  0
    1.5450   -2.9417    6.1162 H   0  0  0  0  0  0  0  0  0  0  0  0
    2.1289   -3.4722    4.5749 H   0  0  0  0  0  0  0  0  0  0  0  0
   -0.2690   -1.1998    3.4702 H   0  0  0  0  0  0  0  0  0  0  0  0
  1  2  1  0
  1 25  1  0
  1 26  1  0
  1 27  1  0
  2  3  1  0
  4  2  1  1
  2 28  1  0
  3 29  1  0
  3 30  1  0
  3 31  1  0
  4  7  1  0
  4 20  1  0
  4  5  1  0
  5  6  1  0
  6 24  1  0
  6  7  1  0
  6 32  1  6
  7  8  2  3
  8  9  1  0
  8 33  1  0
  9 10  1  0
  9 11  1  0
  9 34  1  6
 10 35  1  0
 11 12  1  0
 11 13  1  1
 11 14  1  0
 12 36  1  0
 12 37  1  0
 12 38  1  0
 13 39  1  0
 14 15  2  0
 14 16  1  0
 16 24  1  0
 16 17  2  0
 17 18  1  0
 17 40  1  0
 18 19  1  0
 18 20  1  0
 18 41  1  6
 19 42  1  0
 20 21  1  0
 20 43  1  1
 21 22  1  0
 21 23  1  0
 21 24  1  0
 22 44  1  0
 22 45  1  0
 22 46  1  0
 23 47  1  0
 23 48  1  0
 23 49  1  0
 24 50  1  6
M  END
>  <i_m_ct_stereo_status>  (134) 
1

>  <s_m_source_file>  (134) 
/var/tmp/pbs.5076255.sched01/tmp6h9xbnrx/445q66801d.sdf

>  <i_m_source_file_index>  (134) 
9

>  <i_lp_mmshare_version>  (134) 
48012

>  <i_f3d_flags>  (134) 
0

>  <s_epik_input>  (134) 
W0NIM11bQ0hdKFtDSDNdKVtDQF0xMi9DPTNbQ0BIXShPMSlbQ0BIXTRDKEMoPU8pW0NAXShbQ0gzXSkoW09IXSlbQ0BASF0oXFtDSF0zKVtPSF0pPVtDSF1bQ0BASF0oW09IXSlbQ0BASF0yQzQoW0NIM10pW0NIM10=

>  <s_epik_cmdline>  (134) 
J2VwaWtfcHl0aG9uJywgJy1waHQnLCAnMi4wJywgJy1waCcsICc3LjAnLCAnLXRuJywgJzgnLCAnLW1hJywgJzIwMCcsICctaW1hZScsICc8aW5maWxlLm1hZT4nLCAnLW9tYWUnLCAnPG91dGZpbGUubWFlPic=

>  <r_lp_tautomer_probability>  (134) 
1

>  <r_epik_Ionization_Penalty>  (134) 
4.70417e-05

>  <r_epik_Ionization_Penalty_Charging>  (134) 
0

>  <r_epik_Ionization_Penalty_Neutral>  (134) 
4.70417e-05

>  <r_epik_State_Penalty>  (134) 
-0

>  <r_epik_Charging_Adjusted_Penalty>  (134) 
0

>  <i_epik_Tot_Q>  (134) 
0

>  <i_epik_Tot_abs_Q>  (134) 
0

>  <s_lp_Force_Field>  (134) 
OPLS3e

>  <r_lp_Energy>  (134) 
67.5753

>  <b_lp_Chiralities_Consistent>  (134) 
1

>  <s_lp_Variant>  (134) 
32:0-1

>  <s_i_glide_gridfile>  (134) 
pfpi4k_grid

>  <i_i_glide_lignum>  (134) 
9

>  <i_i_glide_rotatable_bonds>  (134) 
4

>  <r_i_docking_score>  (134) 
-2.62765

>  <r_i_glide_ligand_efficiency>  (134) 
-0.109485

>  <r_i_glide_ligand_efficiency_sa>  (134) 
-0.315811

>  <r_i_glide_ligand_efficiency_ln>  (134) 
-0.628917

>  <r_i_glide_gscore>  (134) 
-2.62765

>  <r_i_glide_lipo>  (134) 
-0.0224705

>  <r_i_glide_hbond>  (134) 
0

>  <r_i_glide_metal>  (134) 
-0

>  <r_i_glide_rewards>  (134) 
-1.12904

>  <r_i_glide_evdw>  (134) 
-17.1644

>  <r_i_glide_ecoul>  (134) 
-3.8575

>  <r_i_glide_erotb>  (134) 
0

>  <r_i_glide_esite>  (134) 
-0.0392906

>  <r_i_glide_emodel>  (134) 
-23.8812

>  <r_i_glide_energy>  (134) 
-21.0219

>  <r_i_glide_einternal>  (134) 
2.70626

>  <r_i_glide_intrahb_reward>  (134) 
-0

>  <i_i_glide_confnum>  (134) 
2

>  <i_i_glide_posenum>  (134) 
36

>  <r_i_glide_eff_state_penalty>  (134) 
0

>  <ligand_id>  (134) 
32

>  <original_smiles>  (134) 
CC(C)C12OC3C1=CC(O)C(C)(O)C(=O)C1=CC(O)C2C(C)(C)C13

>  <smiles>  (134) 
[H]OC1([H])C([H])=C2C3([H])OC2(C([H])(C([H])([H])[H])C([H])([H])[H])C2([H])C([H])(O[H])C([H])=C(C(=O)C1(O[H])C([H])([H])[H])C3([H])C2(C([H])([H])[H])C([H])([H])[H]

$$$$
32:1:0
     RDKit          3D

 50 53  0  0  1  0  0  0  0  0999 V2000
    5.1390   -2.6881    4.5904 C   0  0  0  0  0  0  0  0  0  0  0  0
    5.3033   -2.1262    3.1560 C   0  0  0  0  0  0  0  0  0  0  0  0
    5.3436   -0.5915    3.2043 C   0  0  0  0  0  0  0  0  0  0  0  0
    4.3175   -2.7304    2.1526 C   0  0  1  0  0  0  0  0  0  0  0  0
    2.9634   -2.5830    2.6722 O   0  0  0  0  0  0  0  0  0  0  0  0
    2.4814   -2.5158    1.2813 C   0  0  1  0  0  0  0  0  0  0  0  0
    3.7452   -1.8074    1.0347 C   0  0  0  0  0  0  0  0  0  0  0  0
    3.9670   -1.0546   -0.0719 C   0  0  0  0  0  0  0  0  0  0  0  0
    5.0083   -1.2408   -1.1492 C   0  0  1  0  0  0  0  0  0  0  0  0
    6.2022   -1.7919   -0.6407 O   0  0  0  0  0  0  0  0  0  0  0  0
    4.3659   -2.0696   -2.3423 C   0  0  1  0  0  0  0  0  0  0  0  0
    3.6805   -1.1105   -3.3424 C   0  0  0  0  0  0  0  0  0  0  0  0
    5.3939   -2.6536   -3.1163 O   0  0  0  0  0  0  0  0  0  0  0  0
    3.3478   -3.1816   -1.9062 C   0  0  0  0  0  0  0  0  0  0  0  0
    2.3301   -3.3780   -2.5699 O   0  0  0  0  0  0  0  0  0  0  0  0
    3.6379   -3.9267   -0.6596 C   0  0  0  0  0  0  0  0  0  0  0  0
    4.8987   -4.3860   -0.4861 C   0  0  0  0  0  0  0  0  0  0  0  0
    5.4365   -4.7535    0.8764 C   0  0  1  0  0  0  0  0  0  0  0  0
    6.7248   -4.2103    1.0501 O   0  0  0  0  0  0  0  0  0  0  0  0
    4.4190   -4.3316    1.9626 C   0  0  2  0  0  0  0  0  0  0  0  0
    3.0215   -4.9563    1.5750 C   0  0  0  0  0  0  0  0  0  0  0  0
    3.0436   -6.4154    1.0271 C   0  0  0  0  0  0  0  0  0  0  0  0
    2.0354   -5.0552    2.7920 C   0  0  0  0  0  0  0  0  0  0  0  0
    2.5913   -3.9112    0.5104 C   0  0  1  0  0  0  0  0  0  0  0  0
    4.1437   -2.4730    4.9959 H   0  0  0  0  0  0  0  0  0  0  0  0
    5.8645   -2.2475    5.2737 H   0  0  0  0  0  0  0  0  0  0  0  0
    5.2959   -3.7689    4.6414 H   0  0  0  0  0  0  0  0  0  0  0  0
    6.2820   -2.4166    2.8096 H   0  0  0  0  0  0  0  0  0  0  0  0
    4.3834   -0.1733    3.5136 H   0  0  0  0  0  0  0  0  0  0  0  0
    5.6220   -0.1701    2.2389 H   0  0  0  0  0  0  0  0  0  0  0  0
    6.0957   -0.2592    3.9189 H   0  0  0  0  0  0  0  0  0  0  0  0
    1.5599   -1.9605    1.1732 H   0  0  0  0  0  0  0  0  0  0  0  0
    3.0603   -0.6809   -0.5188 H   0  0  0  0  0  0  0  0  0  0  0  0
    5.2610   -0.2587   -1.5296 H   0  0  0  0  0  0  0  0  0  0  0  0
    5.9987   -2.6437   -0.2715 H   0  0  0  0  0  0  0  0  0  0  0  0
    2.8268   -0.6028   -2.8888 H   0  0  0  0  0  0  0  0  0  0  0  0
    3.3127   -1.6408   -4.2230 H   0  0  0  0  0  0  0  0  0  0  0  0
    4.3720   -0.3440   -3.6989 H   0  0  0  0  0  0  0  0  0  0  0  0
    5.8999   -3.2431   -2.5796 H   0  0  0  0  0  0  0  0  0  0  0  0
    5.6246   -4.3931   -1.2849 H   0  0  0  0  0  0  0  0  0  0  0  0
    5.5726   -5.8347    0.8897 H   0  0  0  0  0  0  0  0  0  0  0  0
    6.6650   -3.2866    1.2664 H   0  0  0  0  0  0  0  0  0  0  0  0
    4.7303   -4.8136    2.8902 H   0  0  0  0  0  0  0  0  0  0  0  0
    2.0279   -6.7852    0.8723 H   0  0  0  0  0  0  0  0  0  0  0  0
    3.5294   -7.0903    1.7373 H   0  0  0  0  0  0  0  0  0  0  0  0
    3.5512   -6.5314    0.0717 H   0  0  0  0  0  0  0  0  0  0  0  0
    1.7705   -6.0787    3.0681 H   0  0  0  0  0  0  0  0  0  0  0  0
    1.1064   -4.5220    2.5977 H   0  0  0  0  0  0  0  0  0  0  0  0
    2.4610   -4.6301    3.7006 H   0  0  0  0  0  0  0  0  0  0  0  0
    1.6589   -4.2320    0.0523 H   0  0  0  0  0  0  0  0  0  0  0  0
  1  2  1  0
  1 25  1  0
  1 26  1  0
  1 27  1  0
  2  3  1  0
  4  2  1  1
  2 28  1  0
  3 29  1  0
  3 30  1  0
  3 31  1  0
  4  7  1  0
  4 20  1  0
  4  5  1  0
  5  6  1  0
  6 24  1  0
  6  7  1  0
  6 32  1  1
  7  8  2  3
  8  9  1  0
  8 33  1  0
  9 10  1  0
  9 11  1  0
  9 34  1  6
 10 35  1  0
 11 12  1  0
 11 13  1  6
 11 14  1  0
 12 36  1  0
 12 37  1  0
 12 38  1  0
 13 39  1  0
 14 15  2  0
 14 16  1  0
 16 24  1  0
 16 17  2  0
 17 18  1  0
 17 40  1  0
 18 19  1  0
 18 20  1  0
 18 41  1  6
 19 42  1  0
 20 21  1  0
 20 43  1  1
 21 22  1  0
 21 23  1  0
 21 24  1  0
 22 44  1  0
 22 45  1  0
 22 46  1  0
 23 47  1  0
 23 48  1  0
 23 49  1  0
 24 50  1  6
M  END
>  <i_m_ct_stereo_status>  (135) 
1

>  <s_m_source_file>  (135) 
/var/tmp/pbs.5076255.sched01/tmp6h9xbnrx/445q66801d.sdf

>  <i_m_source_file_index>  (135) 
10

>  <i_lp_mmshare_version>  (135) 
48012

>  <i_f3d_flags>  (135) 
0

>  <s_epik_input>  (135) 
W0NIM11bQ0hdKFtDSDNdKVtDQF0xMi9DPTNbQ0BIXShPMSlbQ0BIXTRDKEMoPU8pW0NAXShbQ0gzXSkoW09IXSlbQ0BASF0oXFtDSF0zKVtPSF0pPVtDSF1bQ0BASF0oW09IXSlbQ0BASF0yQzQoW0NIM10pW0NIM10=

>  <s_epik_cmdline>  (135) 
J2VwaWtfcHl0aG9uJywgJy1waHQnLCAnMi4wJywgJy1waCcsICc3LjAnLCAnLXRuJywgJzgnLCAnLW1hJywgJzIwMCcsICctaW1hZScsICc8aW5maWxlLm1hZT4nLCAnLW9tYWUnLCAnPG91dGZpbGUubWFlPic=

>  <r_lp_tautomer_probability>  (135) 
1

>  <r_epik_Ionization_Penalty>  (135) 
4.70417e-05

>  <r_epik_Ionization_Penalty_Charging>  (135) 
0

>  <r_epik_Ionization_Penalty_Neutral>  (135) 
4.70417e-05

>  <r_epik_State_Penalty>  (135) 
-0

>  <r_epik_Charging_Adjusted_Penalty>  (135) 
0

>  <i_epik_Tot_Q>  (135) 
0

>  <i_epik_Tot_abs_Q>  (135) 
0

>  <s_lp_Force_Field>  (135) 
OPLS3e

>  <r_lp_Energy>  (135) 
104.232

>  <b_lp_Chiralities_Consistent>  (135) 
1

>  <s_lp_Variant>  (135) 
32:0-2

>  <s_i_glide_gridfile>  (135) 
pfpi4k_grid

>  <i_i_glide_lignum>  (135) 
10

>  <i_i_glide_rotatable_bonds>  (135) 
4

>  <r_i_docking_score>  (135) 
-3.15778

>  <r_i_glide_ligand_efficiency>  (135) 
-0.131574

>  <r_i_glide_ligand_efficiency_sa>  (135) 
-0.379526

>  <r_i_glide_ligand_efficiency_ln>  (135) 
-0.755802

>  <r_i_glide_gscore>  (135) 
-3.15778

>  <r_i_glide_lipo>  (135) 
-0.519615

>  <r_i_glide_hbond>  (135) 
0

>  <r_i_glide_metal>  (135) 
-0

>  <r_i_glide_rewards>  (135) 
-1.12904

>  <r_i_glide_evdw>  (135) 
-22.4099

>  <r_i_glide_ecoul>  (135) 
-2.56852

>  <r_i_glide_erotb>  (135) 
0

>  <r_i_glide_esite>  (135) 
-0.003349

>  <r_i_glide_emodel>  (135) 
-28.4532

>  <r_i_glide_energy>  (135) 
-24.9784

>  <r_i_glide_einternal>  (135) 
1.70488

>  <r_i_glide_intrahb_reward>  (135) 
-0

>  <i_i_glide_confnum>  (135) 
1

>  <i_i_glide_posenum>  (135) 
11

>  <r_i_glide_eff_state_penalty>  (135) 
0

>  <ligand_id>  (135) 
32

>  <original_smiles>  (135) 
CC(C)C12OC3C1=CC(O)C(C)(O)C(=O)C1=CC(O)C2C(C)(C)C13

>  <smiles>  (135) 
[H]OC1([H])C([H])=C2C3([H])OC2(C([H])(C([H])([H])[H])C([H])([H])[H])C2([H])C([H])(O[H])C([H])=C(C(=O)C1(O[H])C([H])([H])[H])C3([H])C2(C([H])([H])[H])C([H])([H])[H]

$$$$
32:1:1
     RDKit          3D

 50 53  0  0  1  0  0  0  0  0999 V2000
    5.3300   -2.6281    4.5926 C   0  0  0  0  0  0  0  0  0  0  0  0
    5.3662   -2.0158    3.1666 C   0  0  0  0  0  0  0  0  0  0  0  0
    5.2700   -0.4853    3.2601 C   0  0  0  0  0  0  0  0  0  0  0  0
    4.3718   -2.6856    2.2035 C   0  0  1  0  0  0  0  0  0  0  0  0
    3.0519   -2.7249    2.8273 O   0  0  0  0  0  0  0  0  0  0  0  0
    2.4584   -2.6470    1.4796 C   0  0  1  0  0  0  0  0  0  0  0  0
    3.6119   -1.7875    1.1918 C   0  0  0  0  0  0  0  0  0  0  0  0
    3.6561   -0.9495    0.1305 C   0  0  0  0  0  0  0  0  0  0  0  0
    4.6085   -0.9504   -1.0349 C   0  0  1  0  0  0  0  0  0  0  0  0
    5.9062   -1.3723   -0.6647 O   0  0  0  0  0  0  0  0  0  0  0  0
    3.9677   -1.7757   -2.2332 C   0  0  1  0  0  0  0  0  0  0  0  0
    3.1001   -0.8451   -3.1139 C   0  0  0  0  0  0  0  0  0  0  0  0
    4.9822   -2.1804   -3.1266 O   0  0  0  0  0  0  0  0  0  0  0  0
    3.1385   -3.0402   -1.7993 C   0  0  0  0  0  0  0  0  0  0  0  0
    2.1162   -3.3418   -2.4103 O   0  0  0  0  0  0  0  0  0  0  0  0
    3.6076   -3.8097   -0.6274 C   0  0  0  0  0  0  0  0  0  0  0  0
    4.9241   -4.1160   -0.5733 C   0  0  0  0  0  0  0  0  0  0  0  0
    5.6053   -4.4909    0.7211 C   0  0  1  0  0  0  0  0  0  0  0  0
    6.7981   -3.7627    0.8527 O   0  0  0  0  0  0  0  0  0  0  0  0
    4.6399   -4.2494    1.9058 C   0  0  2  0  0  0  0  0  0  0  0  0
    3.3006   -5.0147    1.5801 C   0  0  0  0  0  0  0  0  0  0  0  0
    3.4510   -6.4256    0.9335 C   0  0  0  0  0  0  0  0  0  0  0  0
    2.4349   -5.2959    2.8561 C   0  0  0  0  0  0  0  0  0  0  0  0
    2.6631   -3.9781    0.6202 C   0  0  1  0  0  0  0  0  0  0  0  0
    4.3441   -2.5079    5.0533 H   0  0  0  0  0  0  0  0  0  0  0  0
    6.0435   -2.1538    5.2693 H   0  0  0  0  0  0  0  0  0  0  0  0
    5.5678   -3.6950    4.5938 H   0  0  0  0  0  0  0  0  0  0  0  0
    6.3488   -2.1930    2.7531 H   0  0  0  0  0  0  0  0  0  0  0  0
    4.2970   -0.1627    3.6341 H   0  0  0  0  0  0  0  0  0  0  0  0
    5.4518   -0.0180    2.2926 H   0  0  0  0  0  0  0  0  0  0  0  0
    6.0320   -0.1035    3.9397 H   0  0  0  0  0  0  0  0  0  0  0  0
    1.4765   -2.1923    1.4560 H   0  0  0  0  0  0  0  0  0  0  0  0
    2.6776   -0.6598   -0.2095 H   0  0  0  0  0  0  0  0  0  0  0  0
    4.6626    0.0908   -1.3526 H   0  0  0  0  0  0  0  0  0  0  0  0
    5.8495   -2.1859   -0.1705 H   0  0  0  0  0  0  0  0  0  0  0  0
    2.2386   -0.4617   -2.5673 H   0  0  0  0  0  0  0  0  0  0  0  0
    2.7237   -1.3614   -3.9991 H   0  0  0  0  0  0  0  0  0  0  0  0
    3.6678    0.0197   -3.4680 H   0  0  0  0  0  0  0  0  0  0  0  0
    5.5789   -2.7470   -2.6600 H   0  0  0  0  0  0  0  0  0  0  0  0
    5.5855   -3.9745   -1.4163 H   0  0  0  0  0  0  0  0  0  0  0  0
    5.8861   -5.5424    0.6559 H   0  0  0  0  0  0  0  0  0  0  0  0
    7.2713   -4.1126    1.5988 H   0  0  0  0  0  0  0  0  0  0  0  0
    5.0819   -4.7284    2.7800 H   0  0  0  0  0  0  0  0  0  0  0  0
    2.4757   -6.9050    0.8398 H   0  0  0  0  0  0  0  0  0  0  0  0
    4.0730   -7.0737    1.5557 H   0  0  0  0  0  0  0  0  0  0  0  0
    3.8798   -6.4268   -0.0679 H   0  0  0  0  0  0  0  0  0  0  0  0
    2.3156   -6.3568    3.0832 H   0  0  0  0  0  0  0  0  0  0  0  0
    1.4365   -4.8712    2.7608 H   0  0  0  0  0  0  0  0  0  0  0  0
    2.8798   -4.8710    3.7555 H   0  0  0  0  0  0  0  0  0  0  0  0
    1.7366   -4.3901    0.2358 H   0  0  0  0  0  0  0  0  0  0  0  0
  1  2  1  0
  1 25  1  0
  1 26  1  0
  1 27  1  0
  2  3  1  0
  4  2  1  1
  2 28  1  0
  3 29  1  0
  3 30  1  0
  3 31  1  0
  4  7  1  0
  4 20  1  0
  4  5  1  0
  5  6  1  0
  6 24  1  0
  6  7  1  0
  6 32  1  1
  7  8  2  3
  8  9  1  0
  8 33  1  0
  9 10  1  0
  9 11  1  0
  9 34  1  6
 10 35  1  0
 11 12  1  0
 11 13  1  6
 11 14  1  0
 12 36  1  0
 12 37  1  0
 12 38  1  0
 13 39  1  0
 14 15  2  0
 14 16  1  0
 16 24  1  0
 16 17  2  0
 17 18  1  0
 17 40  1  0
 18 19  1  0
 18 20  1  0
 18 41  1  6
 19 42  1  0
 20 21  1  0
 20 43  1  1
 21 22  1  0
 21 23  1  0
 21 24  1  0
 22 44  1  0
 22 45  1  0
 22 46  1  0
 23 47  1  0
 23 48  1  0
 23 49  1  0
 24 50  1  6
M  END
>  <i_m_ct_stereo_status>  (136) 
1

>  <s_m_source_file>  (136) 
/var/tmp/pbs.5076255.sched01/tmp6h9xbnrx/445q66801d.sdf

>  <i_m_source_file_index>  (136) 
10

>  <i_lp_mmshare_version>  (136) 
48012

>  <i_f3d_flags>  (136) 
0

>  <s_epik_input>  (136) 
W0NIM11bQ0hdKFtDSDNdKVtDQF0xMi9DPTNbQ0BIXShPMSlbQ0BIXTRDKEMoPU8pW0NAXShbQ0gzXSkoW09IXSlbQ0BASF0oXFtDSF0zKVtPSF0pPVtDSF1bQ0BASF0oW09IXSlbQ0BASF0yQzQoW0NIM10pW0NIM10=

>  <s_epik_cmdline>  (136) 
J2VwaWtfcHl0aG9uJywgJy1waHQnLCAnMi4wJywgJy1waCcsICc3LjAnLCAnLXRuJywgJzgnLCAnLW1hJywgJzIwMCcsICctaW1hZScsICc8aW5maWxlLm1hZT4nLCAnLW9tYWUnLCAnPG91dGZpbGUubWFlPic=

>  <r_lp_tautomer_probability>  (136) 
1

>  <r_epik_Ionization_Penalty>  (136) 
4.70417e-05

>  <r_epik_Ionization_Penalty_Charging>  (136) 
0

>  <r_epik_Ionization_Penalty_Neutral>  (136) 
4.70417e-05

>  <r_epik_State_Penalty>  (136) 
-0

>  <r_epik_Charging_Adjusted_Penalty>  (136) 
0

>  <i_epik_Tot_Q>  (136) 
0

>  <i_epik_Tot_abs_Q>  (136) 
0

>  <s_lp_Force_Field>  (136) 
OPLS3e

>  <r_lp_Energy>  (136) 
104.232

>  <b_lp_Chiralities_Consistent>  (136) 
1

>  <s_lp_Variant>  (136) 
32:0-2

>  <s_i_glide_gridfile>  (136) 
pfpi4k_grid

>  <i_i_glide_lignum>  (136) 
10

>  <i_i_glide_rotatable_bonds>  (136) 
4

>  <r_i_docking_score>  (136) 
-3.04866

>  <r_i_glide_ligand_efficiency>  (136) 
-0.127028

>  <r_i_glide_ligand_efficiency_sa>  (136) 
-0.366411

>  <r_i_glide_ligand_efficiency_ln>  (136) 
-0.729685

>  <r_i_glide_gscore>  (136) 
-3.04866

>  <r_i_glide_lipo>  (136) 
-0.441632

>  <r_i_glide_hbond>  (136) 
0

>  <r_i_glide_metal>  (136) 
-0

>  <r_i_glide_rewards>  (136) 
-1.12904

>  <r_i_glide_evdw>  (136) 
-20.5227

>  <r_i_glide_ecoul>  (136) 
-2.99082

>  <r_i_glide_erotb>  (136) 
0

>  <r_i_glide_esite>  (136) 
-0.00322416

>  <r_i_glide_emodel>  (136) 
-26.5799

>  <r_i_glide_energy>  (136) 
-23.5136

>  <r_i_glide_einternal>  (136) 
2.29931

>  <r_i_glide_intrahb_reward>  (136) 
-0

>  <i_i_glide_confnum>  (136) 
1

>  <i_i_glide_posenum>  (136) 
27

>  <r_i_glide_eff_state_penalty>  (136) 
0

>  <ligand_id>  (136) 
32

>  <original_smiles>  (136) 
CC(C)C12OC3C1=CC(O)C(C)(O)C(=O)C1=CC(O)C2C(C)(C)C13

>  <smiles>  (136) 
[H]OC1([H])C([H])=C2C3([H])OC2(C([H])(C([H])([H])[H])C([H])([H])[H])C2([H])C([H])(O[H])C([H])=C(C(=O)C1(O[H])C([H])([H])[H])C3([H])C2(C([H])([H])[H])C([H])([H])[H]

$$$$
32:1:2
     RDKit          3D

 50 53  0  0  1  0  0  0  0  0999 V2000
    5.3579   -2.6318    4.5962 C   0  0  0  0  0  0  0  0  0  0  0  0
    5.3733   -2.0129    3.1719 C   0  0  0  0  0  0  0  0  0  0  0  0
    5.2538   -0.4828    3.2786 C   0  0  0  0  0  0  0  0  0  0  0  0
    4.3771   -2.6851    2.2157 C   0  0  1  0  0  0  0  0  0  0  0  0
    3.0539   -2.7083    2.8401 O   0  0  0  0  0  0  0  0  0  0  0  0
    2.4585   -2.6419    1.4900 C   0  0  1  0  0  0  0  0  0  0  0  0
    3.6219   -1.7928    1.1939 C   0  0  0  0  0  0  0  0  0  0  0  0
    3.6733   -0.9659    0.1216 C   0  0  0  0  0  0  0  0  0  0  0  0
    4.6252   -0.9886   -1.0481 C   0  0  1  0  0  0  0  0  0  0  0  0
    5.9188   -1.4243   -0.6778 O   0  0  0  0  0  0  0  0  0  0  0  0
    3.9789   -1.8208   -2.2350 C   0  0  1  0  0  0  0  0  0  0  0  0
    3.1162   -0.8970   -3.1262 C   0  0  0  0  0  0  0  0  0  0  0  0
    4.9908   -2.2460   -3.1260 O   0  0  0  0  0  0  0  0  0  0  0  0
    3.1365   -3.0676   -1.7841 C   0  0  0  0  0  0  0  0  0  0  0  0
    2.1089   -3.3669   -2.3879 O   0  0  0  0  0  0  0  0  0  0  0  0
    3.5985   -3.8335   -0.6044 C   0  0  0  0  0  0  0  0  0  0  0  0
    4.9101   -4.1549   -0.5539 C   0  0  0  0  0  0  0  0  0  0  0  0
    5.5971   -4.5147    0.7433 C   0  0  1  0  0  0  0  0  0  0  0  0
    6.7879   -3.7809    0.8545 O   0  0  0  0  0  0  0  0  0  0  0  0
    4.6341   -4.2541    1.9285 C   0  0  2  0  0  0  0  0  0  0  0  0
    3.2883   -5.0155    1.6182 C   0  0  0  0  0  0  0  0  0  0  0  0
    3.4288   -6.4349    0.9885 C   0  0  0  0  0  0  0  0  0  0  0  0
    2.4208   -5.2758    2.8976 C   0  0  0  0  0  0  0  0  0  0  0  0
    2.6546   -3.9838    0.6457 C   0  0  1  0  0  0  0  0  0  0  0  0
    4.3731   -2.5313    5.0645 H   0  0  0  0  0  0  0  0  0  0  0  0
    6.0678   -2.1527    5.2737 H   0  0  0  0  0  0  0  0  0  0  0  0
    5.6136   -3.6945    4.5888 H   0  0  0  0  0  0  0  0  0  0  0  0
    6.3518   -2.1765    2.7412 H   0  0  0  0  0  0  0  0  0  0  0  0
    4.2803   -0.1775    3.6668 H   0  0  0  0  0  0  0  0  0  0  0  0
    5.4164   -0.0032    2.3139 H   0  0  0  0  0  0  0  0  0  0  0  0
    6.0168   -0.0964    3.9530 H   0  0  0  0  0  0  0  0  0  0  0  0
    1.4815   -2.1822    1.4642 H   0  0  0  0  0  0  0  0  0  0  0  0
    2.6998   -0.6629   -0.2207 H   0  0  0  0  0  0  0  0  0  0  0  0
    4.6919    0.0490   -1.3756 H   0  0  0  0  0  0  0  0  0  0  0  0
    5.8441   -2.2214   -0.1564 H   0  0  0  0  0  0  0  0  0  0  0  0
    2.2565   -0.5044   -2.5816 H   0  0  0  0  0  0  0  0  0  0  0  0
    2.7362   -1.4245   -4.0027 H   0  0  0  0  0  0  0  0  0  0  0  0
    3.6886   -0.0407   -3.4909 H   0  0  0  0  0  0  0  0  0  0  0  0
    5.5848   -2.8135   -2.6515 H   0  0  0  0  0  0  0  0  0  0  0  0
    5.5655   -4.0260   -1.4035 H   0  0  0  0  0  0  0  0  0  0  0  0
    5.8724   -5.5682    0.7023 H   0  0  0  0  0  0  0  0  0  0  0  0
    7.4259   -4.1439    0.2480 H   0  0  0  0  0  0  0  0  0  0  0  0
    5.0773   -4.7283    2.8049 H   0  0  0  0  0  0  0  0  0  0  0  0
    2.4515   -6.9110    0.8911 H   0  0  0  0  0  0  0  0  0  0  0  0
    4.0460   -7.0791    1.6218 H   0  0  0  0  0  0  0  0  0  0  0  0
    3.8594   -6.4513   -0.0108 H   0  0  0  0  0  0  0  0  0  0  0  0
    2.2936   -6.3340    3.1372 H   0  0  0  0  0  0  0  0  0  0  0  0
    1.4250   -4.8476    2.7966 H   0  0  0  0  0  0  0  0  0  0  0  0
    2.8667   -4.8447    3.7935 H   0  0  0  0  0  0  0  0  0  0  0  0
    1.7288   -4.3981    0.2670 H   0  0  0  0  0  0  0  0  0  0  0  0
  1  2  1  0
  1 25  1  0
  1 26  1  0
  1 27  1  0
  2  3  1  0
  4  2  1  1
  2 28  1  0
  3 29  1  0
  3 30  1  0
  3 31  1  0
  4  7  1  0
  4 20  1  0
  4  5  1  0
  5  6  1  0
  6 24  1  0
  6  7  1  0
  6 32  1  1
  7  8  2  3
  8  9  1  0
  8 33  1  0
  9 10  1  0
  9 11  1  0
  9 34  1  6
 10 35  1  0
 11 12  1  0
 11 13  1  6
 11 14  1  0
 12 36  1  0
 12 37  1  0
 12 38  1  0
 13 39  1  0
 14 15  2  0
 14 16  1  0
 16 24  1  0
 16 17  2  0
 17 18  1  0
 17 40  1  0
 18 19  1  0
 18 20  1  0
 18 41  1  6
 19 42  1  0
 20 21  1  0
 20 43  1  1
 21 22  1  0
 21 23  1  0
 21 24  1  0
 22 44  1  0
 22 45  1  0
 22 46  1  0
 23 47  1  0
 23 48  1  0
 23 49  1  0
 24 50  1  6
M  END
>  <i_m_ct_stereo_status>  (137) 
1

>  <s_m_source_file>  (137) 
/var/tmp/pbs.5076255.sched01/tmp6h9xbnrx/445q66801d.sdf

>  <i_m_source_file_index>  (137) 
10

>  <i_lp_mmshare_version>  (137) 
48012

>  <i_f3d_flags>  (137) 
0

>  <s_epik_input>  (137) 
W0NIM11bQ0hdKFtDSDNdKVtDQF0xMi9DPTNbQ0BIXShPMSlbQ0BIXTRDKEMoPU8pW0NAXShbQ0gzXSkoW09IXSlbQ0BASF0oXFtDSF0zKVtPSF0pPVtDSF1bQ0BASF0oW09IXSlbQ0BASF0yQzQoW0NIM10pW0NIM10=

>  <s_epik_cmdline>  (137) 
J2VwaWtfcHl0aG9uJywgJy1waHQnLCAnMi4wJywgJy1waCcsICc3LjAnLCAnLXRuJywgJzgnLCAnLW1hJywgJzIwMCcsICctaW1hZScsICc8aW5maWxlLm1hZT4nLCAnLW9tYWUnLCAnPG91dGZpbGUubWFlPic=

>  <r_lp_tautomer_probability>  (137) 
1

>  <r_epik_Ionization_Penalty>  (137) 
4.70417e-05

>  <r_epik_Ionization_Penalty_Charging>  (137) 
0

>  <r_epik_Ionization_Penalty_Neutral>  (137) 
4.70417e-05

>  <r_epik_State_Penalty>  (137) 
-0

>  <r_epik_Charging_Adjusted_Penalty>  (137) 
0

>  <i_epik_Tot_Q>  (137) 
0

>  <i_epik_Tot_abs_Q>  (137) 
0

>  <s_lp_Force_Field>  (137) 
OPLS3e

>  <r_lp_Energy>  (137) 
104.232

>  <b_lp_Chiralities_Consistent>  (137) 
1

>  <s_lp_Variant>  (137) 
32:0-2

>  <s_i_glide_gridfile>  (137) 
pfpi4k_grid

>  <i_i_glide_lignum>  (137) 
10

>  <i_i_glide_rotatable_bonds>  (137) 
4

>  <r_i_docking_score>  (137) 
-3.01497

>  <r_i_glide_ligand_efficiency>  (137) 
-0.125624

>  <r_i_glide_ligand_efficiency_sa>  (137) 
-0.362362

>  <r_i_glide_ligand_efficiency_ln>  (137) 
-0.721621

>  <r_i_glide_gscore>  (137) 
-3.01497

>  <r_i_glide_lipo>  (137) 
-0.444208

>  <r_i_glide_hbond>  (137) 
0

>  <r_i_glide_metal>  (137) 
-0

>  <r_i_glide_rewards>  (137) 
-1.12904

>  <r_i_glide_evdw>  (137) 
-20.773

>  <r_i_glide_ecoul>  (137) 
-2.68654

>  <r_i_glide_erotb>  (137) 
0

>  <r_i_glide_esite>  (137) 
-8.89012e-05

>  <r_i_glide_emodel>  (137) 
-26.5087

>  <r_i_glide_energy>  (137) 
-23.4595

>  <r_i_glide_einternal>  (137) 
2.12059

>  <r_i_glide_intrahb_reward>  (137) 
-0

>  <i_i_glide_confnum>  (137) 
1

>  <i_i_glide_posenum>  (137) 
5

>  <r_i_glide_eff_state_penalty>  (137) 
0

>  <ligand_id>  (137) 
32

>  <original_smiles>  (137) 
CC(C)C12OC3C1=CC(O)C(C)(O)C(=O)C1=CC(O)C2C(C)(C)C13

>  <smiles>  (137) 
[H]OC1([H])C([H])=C2C3([H])OC2(C([H])(C([H])([H])[H])C([H])([H])[H])C2([H])C([H])(O[H])C([H])=C(C(=O)C1(O[H])C([H])([H])[H])C3([H])C2(C([H])([H])[H])C([H])([H])[H]

$$$$
33:0:0
     RDKit          3D

 36 38  0  0  1  0  0  0  0  0999 V2000
    3.7860   -0.1252   -5.3002 C   0  0  0  0  0  0  0  0  0  0  0  0
    2.7494   -0.4255   -4.2232 C   0  0  0  0  0  0  0  0  0  0  0  0
    3.2648   -1.2842   -3.0602 C   0  0  0  0  0  0  0  0  0  0  0  0
    2.6331   -2.4213   -2.7135 C   0  0  0  0  0  0  0  0  0  0  0  0
    2.9291   -3.4234   -1.5884 C   0  0  1  0  0  0  0  0  0  0  0  0
    4.3846   -3.8817   -1.3678 C   0  0  1  0  0  0  0  0  0  0  0  0
    5.4888   -2.8569   -1.5260 C   0  0  0  0  0  0  0  0  0  0  0  0
    4.9202   -1.4815   -1.0926 C   0  0  1  0  0  0  0  0  0  0  0  0
    4.4686   -0.7041   -2.3292 C   0  0  0  0  0  0  0  0  0  0  0  0
    3.7542   -1.6055   -0.0645 C   0  0  0  0  0  0  0  0  0  0  0  0
    3.0287   -2.8967   -0.2140 N   0  0  2  0  0  0  0  0  0  0  0  0
    3.9453   -4.0032    0.1006 C   0  0  1  0  0  0  0  0  0  0  0  0
    3.2727   -5.2819    0.5941 C   0  0  0  0  0  0  0  0  0  0  0  0
    2.0669   -5.4297    0.7785 O   0  0  0  0  0  0  0  0  0  0  0  0
    4.1570   -6.2920    0.8314 O   0  0  0  0  0  0  0  0  0  0  0  0
    5.5722   -6.1355    0.7018 C   0  0  0  0  0  0  0  0  0  0  0  0
    3.3404    0.4198   -6.1359 H   0  0  0  0  0  0  0  0  0  0  0  0
    4.1836   -1.0570   -5.6837 H   0  0  0  0  0  0  0  0  0  0  0  0
    4.6052    0.4842   -4.9266 H   0  0  0  0  0  0  0  0  0  0  0  0
    2.3675    0.5215   -3.8510 H   0  0  0  0  0  0  0  0  0  0  0  0
    1.9221   -0.9261   -4.7269 H   0  0  0  0  0  0  0  0  0  0  0  0
    1.7756   -2.7134   -3.3001 H   0  0  0  0  0  0  0  0  0  0  0  0
    2.2089   -4.2466   -1.6316 H   0  0  0  0  0  0  0  0  0  0  0  0
    4.6196   -4.8333   -1.8328 H   0  0  0  0  0  0  0  0  0  0  0  0
    6.3189   -3.1359   -0.8728 H   0  0  0  0  0  0  0  0  0  0  0  0
    5.8879   -2.8508   -2.5458 H   0  0  0  0  0  0  0  0  0  0  0  0
    5.7247   -0.9082   -0.6321 H   0  0  0  0  0  0  0  0  0  0  0  0
    5.3017   -0.6748   -3.0228 H   0  0  0  0  0  0  0  0  0  0  0  0
    4.2271    0.3175   -2.0534 H   0  0  0  0  0  0  0  0  0  0  0  0
    4.1672   -1.5743    0.9410 H   0  0  0  0  0  0  0  0  0  0  0  0
    3.0615   -0.7732   -0.1392 H   0  0  0  0  0  0  0  0  0  0  0  0
    4.7268   -3.6704    0.7841 H   0  0  0  0  0  0  0  0  0  0  0  0
    6.0922   -7.0619    0.9387 H   0  0  0  0  0  0  0  0  0  0  0  0
    5.9635   -5.3737    1.3778 H   0  0  0  0  0  0  0  0  0  0  0  0
    5.8544   -5.8684   -0.3160 H   0  0  0  0  0  0  0  0  0  0  0  0
    2.1643   -2.9262    0.3118 H   0  0  0  0  0  0  0  0  0  0  0  0
  1  2  1  0
  1 17  1  0
  1 18  1  0
  1 19  1  0
  2  3  1  0
  2 20  1  0
  2 21  1  0
  3  9  1  0
  3  4  2  0
  4  5  1  0
  4 22  1  0
  5 11  1  0
  5  6  1  0
  5 23  1  1
  6 12  1  0
  6  7  1  0
  6 24  1  6
  7  8  1  0
  7 25  1  0
  7 26  1  0
  8  9  1  0
  8 10  1  0
  8 27  1  1
  9 28  1  0
  9 29  1  0
 10 11  1  0
 10 30  1  0
 10 31  1  0
 11 12  1  0
 11 36  1  1
 12 13  1  0
 12 32  1  1
 13 14  2  0
 13 15  1  0
 15 16  1  0
 16 33  1  0
 16 34  1  0
 16 35  1  0
M  CHG  1  11   1
M  END
>  <i_m_ct_stereo_status>  (138) 
1

>  <s_m_source_file>  (138) 
/var/tmp/pbs.5076255.sched01/tmp6h9xbnrx/445q66801d.sdf

>  <i_m_source_file_index>  (138) 
11

>  <i_lp_mmshare_version>  (138) 
48012

>  <i_f3d_flags>  (138) 
0

>  <s_epik_input>  (138) 
W0NIM11bQ0gyXUMoPVtDSF0xKVtDSDJdW0NASF0oW0NIMl1bQ0BASF0yW0NASF0xMylbQ0gyXU4zW0NASF0yQyg9TylPW0NIM10=

>  <s_epik_cmdline>  (138) 
J2VwaWtfcHl0aG9uJywgJy1waHQnLCAnMi4wJywgJy1waCcsICc3LjAnLCAnLXRuJywgJzgnLCAnLW1hJywgJzIwMCcsICctaW1hZScsICc8aW5maWxlLm1hZT4nLCAnLW9tYWUnLCAnPG91dGZpbGUubWFlPic=

>  <r_epik_Ionization_Penalty>  (138) 
0.111009

>  <r_epik_Ionization_Penalty_Charging>  (138) 
0.111009

>  <r_epik_Ionization_Penalty_Neutral>  (138) 
0

>  <r_epik_State_Penalty>  (138) 
0.100743

>  <r_epik_Charging_Adjusted_Penalty>  (138) 
0.211752

>  <i_epik_Tot_Q>  (138) 
1

>  <i_epik_Tot_abs_Q>  (138) 
1

>  <s_epik_Chemistry_Notes>  (138) 
This compound has an ester and may undergo hydrolysis at high or low pH.

>  <s_lp_Force_Field>  (138) 
OPLS3e

>  <r_lp_Energy>  (138) 
34.5797

>  <b_lp_Chiralities_Consistent>  (138) 
1

>  <s_lp_Variant>  (138) 
33:0-1

>  <s_i_glide_gridfile>  (138) 
pfpi4k_grid

>  <i_i_glide_lignum>  (138) 
11

>  <i_i_glide_rotatable_bonds>  (138) 
3

>  <r_i_docking_score>  (138) 
-3.65865

>  <r_i_glide_ligand_efficiency>  (138) 
-0.228666

>  <r_i_glide_ligand_efficiency_sa>  (138) 
-0.576201

>  <r_i_glide_ligand_efficiency_ln>  (138) 
-0.969798

>  <r_i_glide_gscore>  (138) 
-3.65865

>  <r_i_glide_lipo>  (138) 
-0.496483

>  <r_i_glide_hbond>  (138) 
-0.0397489

>  <r_i_glide_metal>  (138) 
-0

>  <r_i_glide_rewards>  (138) 
-1.89339

>  <r_i_glide_evdw>  (138) 
-17.2614

>  <r_i_glide_ecoul>  (138) 
-4.40893

>  <r_i_glide_erotb>  (138) 
0.341944

>  <r_i_glide_esite>  (138) 
-0.0465649

>  <r_i_glide_emodel>  (138) 
-24.4416

>  <r_i_glide_energy>  (138) 
-21.6703

>  <r_i_glide_einternal>  (138) 
4.99746

>  <r_i_glide_intrahb_reward>  (138) 
-0

>  <i_i_glide_confnum>  (138) 
4

>  <i_i_glide_posenum>  (138) 
9

>  <r_i_glide_eff_state_penalty>  (138) 
0

>  <ligand_id>  (138) 
33

>  <original_smiles>  (138) 
CCC1=CC2C3CC(C1)CN2C3C(=O)OC

>  <smiles>  (138) 
[H]C1=C(C([H])([H])C([H])([H])[H])C([H])([H])C2([H])C([H])([H])C3([H])C([H])(C(=O)OC([H])([H])[H])[N+]([H])(C2([H])[H])C13[H]

$$$$
33:0:1
     RDKit          3D

 36 38  0  0  1  0  0  0  0  0999 V2000
    3.2091    0.0950   -4.0127 C   0  0  0  0  0  0  0  0  0  0  0  0
    3.7400   -1.3443   -4.0487 C   0  0  0  0  0  0  0  0  0  0  0  0
    3.9264   -1.9691   -2.6639 C   0  0  0  0  0  0  0  0  0  0  0  0
    3.1908   -3.0373   -2.2803 C   0  0  0  0  0  0  0  0  0  0  0  0
    3.2105   -3.8575   -0.9796 C   0  0  1  0  0  0  0  0  0  0  0  0
    4.5592   -4.3285   -0.3987 C   0  0  1  0  0  0  0  0  0  0  0  0
    5.7265   -3.3498   -0.4816 C   0  0  0  0  0  0  0  0  0  0  0  0
    5.1569   -1.9071   -0.3980 C   0  0  1  0  0  0  0  0  0  0  0  0
    4.9975   -1.3054   -1.8018 C   0  0  0  0  0  0  0  0  0  0  0  0
    3.8018   -1.8435    0.3750 C   0  0  0  0  0  0  0  0  0  0  0  0
    3.0587   -3.1357    0.2940 N   0  0  2  0  0  0  0  0  0  0  0  0
    3.8252   -4.2144    0.9526 C   0  0  1  0  0  0  0  0  0  0  0  0
    2.9915   -5.3808    1.4699 C   0  0  0  0  0  0  0  0  0  0  0  0
    1.7574   -5.4320    1.5564 O   0  0  0  0  0  0  0  0  0  0  0  0
    3.8020   -6.3895    1.8526 O   0  0  0  0  0  0  0  0  0  0  0  0
    3.2682   -7.5700    2.4421 C   0  0  0  0  0  0  0  0  0  0  0  0
    3.0794    0.4925   -5.0189 H   0  0  0  0  0  0  0  0  0  0  0  0
    3.8826    0.7721   -3.4922 H   0  0  0  0  0  0  0  0  0  0  0  0
    2.2426    0.1395   -3.5148 H   0  0  0  0  0  0  0  0  0  0  0  0
    3.0479   -1.9456   -4.6399 H   0  0  0  0  0  0  0  0  0  0  0  0
    4.6821   -1.3707   -4.5887 H   0  0  0  0  0  0  0  0  0  0  0  0
    2.4835   -3.4282   -2.9965 H   0  0  0  0  0  0  0  0  0  0  0  0
    2.4795   -4.6635   -1.0558 H   0  0  0  0  0  0  0  0  0  0  0  0
    4.8052   -5.3573   -0.6723 H   0  0  0  0  0  0  0  0  0  0  0  0
    6.3929   -3.5108    0.3680 H   0  0  0  0  0  0  0  0  0  0  0  0
    6.3354   -3.5012   -1.3775 H   0  0  0  0  0  0  0  0  0  0  0  0
    5.8764   -1.2712    0.1240 H   0  0  0  0  0  0  0  0  0  0  0  0
    5.9514   -1.3566   -2.3220 H   0  0  0  0  0  0  0  0  0  0  0  0
    4.7484   -0.2505   -1.6922 H   0  0  0  0  0  0  0  0  0  0  0  0
    3.9985   -1.6437    1.4270 H   0  0  0  0  0  0  0  0  0  0  0  0
    3.1714   -1.0312    0.0114 H   0  0  0  0  0  0  0  0  0  0  0  0
    4.4847   -3.8253    1.7297 H   0  0  0  0  0  0  0  0  0  0  0  0
    4.0742   -8.2508    2.7177 H   0  0  0  0  0  0  0  0  0  0  0  0
    2.6204   -8.0947    1.7417 H   0  0  0  0  0  0  0  0  0  0  0  0
    2.7002   -7.3574    3.3495 H   0  0  0  0  0  0  0  0  0  0  0  0
    2.1041   -3.0633    0.6170 H   0  0  0  0  0  0  0  0  0  0  0  0
  1  2  1  0
  1 17  1  0
  1 18  1  0
  1 19  1  0
  2  3  1  0
  2 20  1  0
  2 21  1  0
  3  9  1  0
  3  4  2  0
  4  5  1  0
  4 22  1  0
  5 11  1  0
  5  6  1  0
  5 23  1  6
  6 12  1  0
  6  7  1  0
  6 24  1  6
  7  8  1  0
  7 25  1  0
  7 26  1  0
  8  9  1  0
  8 10  1  0
  8 27  1  1
  9 28  1  0
  9 29  1  0
 10 11  1  0
 10 30  1  0
 10 31  1  0
 11 12  1  0
 11 36  1  1
 12 13  1  0
 12 32  1  1
 13 14  2  0
 13 15  1  0
 15 16  1  0
 16 33  1  0
 16 34  1  0
 16 35  1  0
M  CHG  1  11   1
M  END
>  <i_m_ct_stereo_status>  (139) 
1

>  <s_m_source_file>  (139) 
/var/tmp/pbs.5076255.sched01/tmp6h9xbnrx/445q66801d.sdf

>  <i_m_source_file_index>  (139) 
11

>  <i_lp_mmshare_version>  (139) 
48012

>  <i_f3d_flags>  (139) 
0

>  <s_epik_input>  (139) 
W0NIM11bQ0gyXUMoPVtDSF0xKVtDSDJdW0NASF0oW0NIMl1bQ0BASF0yW0NASF0xMylbQ0gyXU4zW0NASF0yQyg9TylPW0NIM10=

>  <s_epik_cmdline>  (139) 
J2VwaWtfcHl0aG9uJywgJy1waHQnLCAnMi4wJywgJy1waCcsICc3LjAnLCAnLXRuJywgJzgnLCAnLW1hJywgJzIwMCcsICctaW1hZScsICc8aW5maWxlLm1hZT4nLCAnLW9tYWUnLCAnPG91dGZpbGUubWFlPic=

>  <r_epik_Ionization_Penalty>  (139) 
0.111009

>  <r_epik_Ionization_Penalty_Charging>  (139) 
0.111009

>  <r_epik_Ionization_Penalty_Neutral>  (139) 
0

>  <r_epik_State_Penalty>  (139) 
0.100743

>  <r_epik_Charging_Adjusted_Penalty>  (139) 
0.211752

>  <i_epik_Tot_Q>  (139) 
1

>  <i_epik_Tot_abs_Q>  (139) 
1

>  <s_epik_Chemistry_Notes>  (139) 
This compound has an ester and may undergo hydrolysis at high or low pH.

>  <s_lp_Force_Field>  (139) 
OPLS3e

>  <r_lp_Energy>  (139) 
34.5797

>  <b_lp_Chiralities_Consistent>  (139) 
1

>  <s_lp_Variant>  (139) 
33:0-1

>  <s_i_glide_gridfile>  (139) 
pfpi4k_grid

>  <i_i_glide_lignum>  (139) 
11

>  <i_i_glide_rotatable_bonds>  (139) 
3

>  <r_i_docking_score>  (139) 
-3.35882

>  <r_i_glide_ligand_efficiency>  (139) 
-0.209926

>  <r_i_glide_ligand_efficiency_sa>  (139) 
-0.528981

>  <r_i_glide_ligand_efficiency_ln>  (139) 
-0.890322

>  <r_i_glide_gscore>  (139) 
-3.35882

>  <r_i_glide_lipo>  (139) 
-0.182139

>  <r_i_glide_hbond>  (139) 
-0.0650144

>  <r_i_glide_metal>  (139) 
-0

>  <r_i_glide_rewards>  (139) 
-1.89339

>  <r_i_glide_evdw>  (139) 
-17.9421

>  <r_i_glide_ecoul>  (139) 
-4.25935

>  <r_i_glide_erotb>  (139) 
0.341944

>  <r_i_glide_esite>  (139) 
-0.0242185

>  <r_i_glide_emodel>  (139) 
-27.0492

>  <r_i_glide_energy>  (139) 
-22.2014

>  <r_i_glide_einternal>  (139) 
0.321535

>  <r_i_glide_intrahb_reward>  (139) 
-0

>  <i_i_glide_confnum>  (139) 
4

>  <i_i_glide_posenum>  (139) 
7

>  <r_i_glide_eff_state_penalty>  (139) 
0

>  <ligand_id>  (139) 
33

>  <original_smiles>  (139) 
CCC1=CC2C3CC(C1)CN2C3C(=O)OC

>  <smiles>  (139) 
[H]C1=C(C([H])([H])C([H])([H])[H])C([H])([H])C2([H])C([H])([H])C3([H])C([H])(C(=O)OC([H])([H])[H])[N+]([H])(C2([H])[H])C13[H]

$$$$
33:0:2
     RDKit          3D

 36 38  0  0  1  0  0  0  0  0999 V2000
    3.6218   -0.9699   -4.5170 C   0  0  0  0  0  0  0  0  0  0  0  0
    3.5770   -0.5086   -3.0537 C   0  0  0  0  0  0  0  0  0  0  0  0
    3.9931   -1.5739   -2.0415 C   0  0  0  0  0  0  0  0  0  0  0  0
    3.2486   -2.6892   -1.8614 C   0  0  0  0  0  0  0  0  0  0  0  0
    3.4559   -3.8917   -0.9279 C   0  0  1  0  0  0  0  0  0  0  0  0
    4.8523   -4.5407   -0.8216 C   0  0  1  0  0  0  0  0  0  0  0  0
    6.0496   -3.5933   -0.8275 C   0  0  0  0  0  0  0  0  0  0  0  0
    5.6212   -2.2551   -0.1667 C   0  0  1  0  0  0  0  0  0  0  0  0
    5.2374   -1.2232   -1.2417 C   0  0  0  0  0  0  0  0  0  0  0  0
    4.4547   -2.4465    0.8539 C   0  0  0  0  0  0  0  0  0  0  0  0
    3.6098   -3.6314    0.5172 N   0  0  2  0  0  0  0  0  0  0  0  0
    4.4052   -4.8720    0.6141 C   0  0  1  0  0  0  0  0  0  0  0  0
    3.5947   -6.1280    0.9078 C   0  0  0  0  0  0  0  0  0  0  0  0
    2.3841   -6.1781    1.1609 O   0  0  0  0  0  0  0  0  0  0  0  0
    4.4125   -7.2060    0.8816 O   0  0  0  0  0  0  0  0  0  0  0  0
    3.9501   -8.4988    1.2706 C   0  0  0  0  0  0  0  0  0  0  0  0
    3.2583   -0.1847   -5.1829 H   0  0  0  0  0  0  0  0  0  0  0  0
    2.9940   -1.8425   -4.6849 H   0  0  0  0  0  0  0  0  0  0  0  0
    4.6336   -1.2152   -4.8185 H   0  0  0  0  0  0  0  0  0  0  0  0
    4.1849    0.3912   -2.9427 H   0  0  0  0  0  0  0  0  0  0  0  0
    2.5596   -0.2153   -2.8081 H   0  0  0  0  0  0  0  0  0  0  0  0
    2.3692   -2.7899   -2.4823 H   0  0  0  0  0  0  0  0  0  0  0  0
    2.6596   -4.6181   -1.1035 H   0  0  0  0  0  0  0  0  0  0  0  0
    4.9717   -5.4239   -1.4516 H   0  0  0  0  0  0  0  0  0  0  0  0
    6.8584   -4.0356   -0.2394 H   0  0  0  0  0  0  0  0  0  0  0  0
    6.4554   -3.4467   -1.8343 H   0  0  0  0  0  0  0  0  0  0  0  0
    6.4788   -1.8379    0.3655 H   0  0  0  0  0  0  0  0  0  0  0  0
    6.0617   -1.0931   -1.9436 H   0  0  0  0  0  0  0  0  0  0  0  0
    5.0665   -0.2594   -0.7636 H   0  0  0  0  0  0  0  0  0  0  0  0
    4.8741   -2.6118    1.8477 H   0  0  0  0  0  0  0  0  0  0  0  0
    3.8356   -1.5526    0.9154 H   0  0  0  0  0  0  0  0  0  0  0  0
    5.2317   -4.7709    1.3195 H   0  0  0  0  0  0  0  0  0  0  0  0
    4.7653   -9.2258    1.2078 H   0  0  0  0  0  0  0  0  0  0  0  0
    3.1494   -8.8562    0.6220 H   0  0  0  0  0  0  0  0  0  0  0  0
    3.5917   -8.5042    2.3038 H   0  0  0  0  0  0  0  0  0  0  0  0
    2.7420   -3.6821    1.0372 H   0  0  0  0  0  0  0  0  0  0  0  0
  1  2  1  0
  1 17  1  0
  1 18  1  0
  1 19  1  0
  2  3  1  0
  2 20  1  0
  2 21  1  0
  3  9  1  0
  3  4  2  0
  4  5  1  0
  4 22  1  0
  5 11  1  0
  5  6  1  0
  5 23  1  1
  6 12  1  0
  6  7  1  0
  6 24  1  6
  7  8  1  0
  7 25  1  0
  7 26  1  0
  8  9  1  0
  8 10  1  0
  8 27  1  1
  9 28  1  0
  9 29  1  0
 10 11  1  0
 10 30  1  0
 10 31  1  0
 11 12  1  0
 11 36  1  1
 12 13  1  0
 12 32  1  1
 13 14  2  0
 13 15  1  0
 15 16  1  0
 16 33  1  0
 16 34  1  0
 16 35  1  0
M  CHG  1  11   1
M  END
>  <i_m_ct_stereo_status>  (140) 
1

>  <s_m_source_file>  (140) 
/var/tmp/pbs.5076255.sched01/tmp6h9xbnrx/445q66801d.sdf

>  <i_m_source_file_index>  (140) 
11

>  <i_lp_mmshare_version>  (140) 
48012

>  <i_f3d_flags>  (140) 
0

>  <s_epik_input>  (140) 
W0NIM11bQ0gyXUMoPVtDSF0xKVtDSDJdW0NASF0oW0NIMl1bQ0BASF0yW0NASF0xMylbQ0gyXU4zW0NASF0yQyg9TylPW0NIM10=

>  <s_epik_cmdline>  (140) 
J2VwaWtfcHl0aG9uJywgJy1waHQnLCAnMi4wJywgJy1waCcsICc3LjAnLCAnLXRuJywgJzgnLCAnLW1hJywgJzIwMCcsICctaW1hZScsICc8aW5maWxlLm1hZT4nLCAnLW9tYWUnLCAnPG91dGZpbGUubWFlPic=

>  <r_epik_Ionization_Penalty>  (140) 
0.111009

>  <r_epik_Ionization_Penalty_Charging>  (140) 
0.111009

>  <r_epik_Ionization_Penalty_Neutral>  (140) 
0

>  <r_epik_State_Penalty>  (140) 
0.100743

>  <r_epik_Charging_Adjusted_Penalty>  (140) 
0.211752

>  <i_epik_Tot_Q>  (140) 
1

>  <i_epik_Tot_abs_Q>  (140) 
1

>  <s_epik_Chemistry_Notes>  (140) 
This compound has an ester and may undergo hydrolysis at high or low pH.

>  <s_lp_Force_Field>  (140) 
OPLS3e

>  <r_lp_Energy>  (140) 
34.5797

>  <b_lp_Chiralities_Consistent>  (140) 
1

>  <s_lp_Variant>  (140) 
33:0-1

>  <s_i_glide_gridfile>  (140) 
pfpi4k_grid

>  <i_i_glide_lignum>  (140) 
11

>  <i_i_glide_rotatable_bonds>  (140) 
3

>  <r_i_docking_score>  (140) 
-3.34707

>  <r_i_glide_ligand_efficiency>  (140) 
-0.209192

>  <r_i_glide_ligand_efficiency_sa>  (140) 
-0.52713

>  <r_i_glide_ligand_efficiency_ln>  (140) 
-0.887206

>  <r_i_glide_gscore>  (140) 
-3.34707

>  <r_i_glide_lipo>  (140) 
-0.242685

>  <r_i_glide_hbond>  (140) 
0

>  <r_i_glide_metal>  (140) 
-0

>  <r_i_glide_rewards>  (140) 
-1.94549

>  <r_i_glide_evdw>  (140) 
-19.6946

>  <r_i_glide_ecoul>  (140) 
-3.42913

>  <r_i_glide_erotb>  (140) 
0.341944

>  <r_i_glide_esite>  (140) 
-0.00173582

>  <r_i_glide_emodel>  (140) 
-26.8796

>  <r_i_glide_energy>  (140) 
-23.1237

>  <r_i_glide_einternal>  (140) 
2.29672

>  <r_i_glide_intrahb_reward>  (140) 
-0

>  <i_i_glide_confnum>  (140) 
4

>  <i_i_glide_posenum>  (140) 
17

>  <r_i_glide_eff_state_penalty>  (140) 
0

>  <ligand_id>  (140) 
33

>  <original_smiles>  (140) 
CCC1=CC2C3CC(C1)CN2C3C(=O)OC

>  <smiles>  (140) 
[H]C1=C(C([H])([H])C([H])([H])[H])C([H])([H])C2([H])C([H])([H])C3([H])C([H])(C(=O)OC([H])([H])[H])[N+]([H])(C2([H])[H])C13[H]

$$$$
33:1:0
     RDKit          3D

 35 37  0  0  1  0  0  0  0  0999 V2000
    3.7090   -1.3132   -4.3661 C   0  0  0  0  0  0  0  0  0  0  0  0
    3.7517   -0.6591   -2.9770 C   0  0  0  0  0  0  0  0  0  0  0  0
    3.8244   -1.6314   -1.8150 C   0  0  0  0  0  0  0  0  0  0  0  0
    2.9867   -2.7114   -1.7624 C   0  0  0  0  0  0  0  0  0  0  0  0
    2.8736   -3.8080   -0.7184 C   0  0  1  0  0  0  0  0  0  0  0  0
    4.1742   -4.4814   -0.2618 C   0  0  1  0  0  0  0  0  0  0  0  0
    5.3871   -3.6243   -0.0243 C   0  0  0  0  0  0  0  0  0  0  0  0
    4.8885   -2.2367    0.4516 C   0  0  1  0  0  0  0  0  0  0  0  0
    4.8339   -1.2662   -0.7346 C   0  0  0  0  0  0  0  0  0  0  0  0
    3.4898   -2.3208    1.1430 C   0  0  0  0  0  0  0  0  0  0  0  0
    2.6639   -3.4715    0.6967 N   0  0  0  0  0  0  0  0  0  0  0  0
    3.3885   -4.7346    1.0439 C   0  0  1  0  0  0  0  0  0  0  0  0
    2.5506   -6.0059    1.2101 C   0  0  0  0  0  0  0  0  0  0  0  0
    1.3287   -6.0176    1.2676 O   0  0  0  0  0  0  0  0  0  0  0  0
    3.2606   -7.1622    1.2644 O   0  0  0  0  0  0  0  0  0  0  0  0
    4.6736   -7.2336    1.1480 C   0  0  0  0  0  0  0  0  0  0  0  0
    3.6157   -0.5623   -5.1489 H   0  0  0  0  0  0  0  0  0  0  0  0
    2.8669   -1.9866   -4.4862 H   0  0  0  0  0  0  0  0  0  0  0  0
    4.6230   -1.8823   -4.5356 H   0  0  0  0  0  0  0  0  0  0  0  0
    4.5871    0.0442   -2.9348 H   0  0  0  0  0  0  0  0  0  0  0  0
    2.8511   -0.0724   -2.8228 H   0  0  0  0  0  0  0  0  0  0  0  0
    2.2809   -2.8532   -2.5669 H   0  0  0  0  0  0  0  0  0  0  0  0
    2.1256   -4.5454   -1.0240 H   0  0  0  0  0  0  0  0  0  0  0  0
    4.3506   -5.3167   -0.9456 H   0  0  0  0  0  0  0  0  0  0  0  0
    5.9881   -4.0668    0.7725 H   0  0  0  0  0  0  0  0  0  0  0  0
    6.0592   -3.5534   -0.8891 H   0  0  0  0  0  0  0  0  0  0  0  0
    5.6038   -1.8353    1.1682 H   0  0  0  0  0  0  0  0  0  0  0  0
    5.8192   -1.1932   -1.1991 H   0  0  0  0  0  0  0  0  0  0  0  0
    4.5891   -0.2670   -0.3648 H   0  0  0  0  0  0  0  0  0  0  0  0
    3.6208   -2.4273    2.2190 H   0  0  0  0  0  0  0  0  0  0  0  0
    2.9091   -1.4118    0.9891 H   0  0  0  0  0  0  0  0  0  0  0  0
    3.9705   -4.5162    1.9423 H   0  0  0  0  0  0  0  0  0  0  0  0
    5.0213   -8.2409    1.4017 H   0  0  0  0  0  0  0  0  0  0  0  0
    5.1769   -6.5474    1.8322 H   0  0  0  0  0  0  0  0  0  0  0  0
    4.9837   -7.0154    0.1227 H   0  0  0  0  0  0  0  0  0  0  0  0
  1  2  1  0
  1 17  1  0
  1 18  1  0
  1 19  1  0
  2  3  1  0
  2 20  1  0
  2 21  1  0
  3  9  1  0
  3  4  2  0
  4  5  1  0
  4 22  1  0
  5 11  1  0
  5  6  1  0
  5 23  1  6
  6 12  1  0
  6  7  1  0
  6 24  1  6
  7  8  1  0
  7 25  1  0
  7 26  1  0
  8  9  1  0
  8 10  1  0
  8 27  1  1
  9 28  1  0
  9 29  1  0
 10 11  1  0
 10 30  1  0
 10 31  1  0
 11 12  1  0
 12 13  1  0
 12 32  1  1
 13 14  2  0
 13 15  1  0
 15 16  1  0
 16 33  1  0
 16 34  1  0
 16 35  1  0
M  END
>  <i_m_ct_stereo_status>  (141) 
1

>  <s_m_source_file>  (141) 
/var/tmp/pbs.5076255.sched01/tmp6h9xbnrx/445q66801d.sdf

>  <i_m_source_file_index>  (141) 
12

>  <i_lp_mmshare_version>  (141) 
48012

>  <i_f3d_flags>  (141) 
0

>  <s_epik_input>  (141) 
W0NIM11bQ0gyXUMoPVtDSF0xKVtDSDJdW0NASF0oW0NIMl1bQ0BASF0yW0NASF0xMylbQ0gyXU4zW0NASF0yQyg9TylPW0NIM10=

>  <s_epik_cmdline>  (141) 
J2VwaWtfcHl0aG9uJywgJy1waHQnLCAnMi4wJywgJy1waCcsICc3LjAnLCAnLXRuJywgJzgnLCAnLW1hJywgJzIwMCcsICctaW1hZScsICc8aW5maWxlLm1hZT4nLCAnLW9tYWUnLCAnPG91dGZpbGUubWFlPic=

>  <r_epik_Ionization_Penalty>  (141) 
1.04688

>  <r_epik_Ionization_Penalty_Charging>  (141) 
0

>  <r_epik_Ionization_Penalty_Neutral>  (141) 
1.04688

>  <r_epik_State_Penalty>  (141) 
1.0994

>  <r_epik_Charging_Adjusted_Penalty>  (141) 
1.0994

>  <i_epik_Tot_Q>  (141) 
0

>  <i_epik_Tot_abs_Q>  (141) 
0

>  <s_epik_Chemistry_Notes>  (141) 
This compound has an ester and may undergo hydrolysis at high or low pH.

>  <s_lp_Force_Field>  (141) 
OPLS3e

>  <r_lp_Energy>  (141) 
31.8527

>  <b_lp_Chiralities_Consistent>  (141) 
1

>  <s_lp_Variant>  (141) 
33:0-2

>  <s_i_glide_gridfile>  (141) 
pfpi4k_grid

>  <i_i_glide_lignum>  (141) 
12

>  <i_i_glide_rotatable_bonds>  (141) 
3

>  <r_i_docking_score>  (141) 
-3.17357

>  <r_i_glide_ligand_efficiency>  (141) 
-0.198348

>  <r_i_glide_ligand_efficiency_sa>  (141) 
-0.499806

>  <r_i_glide_ligand_efficiency_ln>  (141) 
-0.841218

>  <r_i_glide_gscore>  (141) 
-3.17357

>  <r_i_glide_lipo>  (141) 
-0.250981

>  <r_i_glide_hbond>  (141) 
-0.156915

>  <r_i_glide_metal>  (141) 
-0

>  <r_i_glide_rewards>  (141) 
-1.90026

>  <r_i_glide_evdw>  (141) 
-18.8691

>  <r_i_glide_ecoul>  (141) 
-1.6695

>  <r_i_glide_erotb>  (141) 
0.344579

>  <r_i_glide_esite>  (141) 
-0.0161135

>  <r_i_glide_emodel>  (141) 
-20.9631

>  <r_i_glide_energy>  (141) 
-20.5386

>  <r_i_glide_einternal>  (141) 
7.46679

>  <r_i_glide_intrahb_reward>  (141) 
-0

>  <i_i_glide_confnum>  (141) 
1

>  <i_i_glide_posenum>  (141) 
39

>  <r_i_glide_eff_state_penalty>  (141) 
0

>  <ligand_id>  (141) 
33

>  <original_smiles>  (141) 
CCC1=CC2C3CC(C1)CN2C3C(=O)OC

>  <smiles>  (141) 
[H]C1=C(C([H])([H])C([H])([H])[H])C([H])([H])C2([H])C([H])([H])N3C([H])(C(=O)OC([H])([H])[H])C([H])(C13[H])C2([H])[H]

$$$$
33:1:1
     RDKit          3D

 35 37  0  0  1  0  0  0  0  0999 V2000
    3.9193   -0.2069   -4.9483 C   0  0  0  0  0  0  0  0  0  0  0  0
    2.8339   -0.6984   -4.0050 C   0  0  0  0  0  0  0  0  0  0  0  0
    3.3298   -1.5136   -2.8219 C   0  0  0  0  0  0  0  0  0  0  0  0
    2.6698   -2.6489   -2.4574 C   0  0  0  0  0  0  0  0  0  0  0  0
    2.9143   -3.5877   -1.2847 C   0  0  1  0  0  0  0  0  0  0  0  0
    4.3603   -4.0610   -1.0262 C   0  0  1  0  0  0  0  0  0  0  0  0
    5.4773   -3.0712   -1.2067 C   0  0  0  0  0  0  0  0  0  0  0  0
    4.9206   -1.6842   -0.8042 C   0  0  1  0  0  0  0  0  0  0  0  0
    4.5023   -0.9075   -2.0558 C   0  0  0  0  0  0  0  0  0  0  0  0
    3.7233   -1.7795    0.1870 C   0  0  0  0  0  0  0  0  0  0  0  0
    2.9940   -3.0553    0.0905 N   0  0  0  0  0  0  0  0  0  0  0  0
    3.8924   -4.1681    0.4434 C   0  0  1  0  0  0  0  0  0  0  0  0
    3.2642   -5.4714    0.9326 C   0  0  0  0  0  0  0  0  0  0  0  0
    2.0757   -5.6405    1.1776 O   0  0  0  0  0  0  0  0  0  0  0  0
    4.1511   -6.4793    1.0764 O   0  0  0  0  0  0  0  0  0  0  0  0
    5.5558   -6.3641    0.8429 C   0  0  0  0  0  0  0  0  0  0  0  0
    3.4939    0.2653   -5.8307 H   0  0  0  0  0  0  0  0  0  0  0  0
    4.5315   -1.0496   -5.2624 H   0  0  0  0  0  0  0  0  0  0  0  0
    4.5631    0.5225   -4.4716 H   0  0  0  0  0  0  0  0  0  0  0  0
    2.2744    0.1443   -3.6175 H   0  0  0  0  0  0  0  0  0  0  0  0
    2.1393   -1.3081   -4.5795 H   0  0  0  0  0  0  0  0  0  0  0  0
    1.8331   -2.9592   -3.0743 H   0  0  0  0  0  0  0  0  0  0  0  0
    2.1747   -4.3944   -1.2819 H   0  0  0  0  0  0  0  0  0  0  0  0
    4.5539   -5.0053   -1.5185 H   0  0  0  0  0  0  0  0  0  0  0  0
    6.3023   -3.3268   -0.5467 H   0  0  0  0  0  0  0  0  0  0  0  0
    5.8932   -3.0755   -2.2125 H   0  0  0  0  0  0  0  0  0  0  0  0
    5.7232   -1.1090   -0.3327 H   0  0  0  0  0  0  0  0  0  0  0  0
    5.3580   -0.8230   -2.7206 H   0  0  0  0  0  0  0  0  0  0  0  0
    4.2153    0.1038   -1.7826 H   0  0  0  0  0  0  0  0  0  0  0  0
    4.1037   -1.7095    1.2108 H   0  0  0  0  0  0  0  0  0  0  0  0
    3.0213   -0.9471    0.0686 H   0  0  0  0  0  0  0  0  0  0  0  0
    4.6215   -3.7619    1.1495 H   0  0  0  0  0  0  0  0  0  0  0  0
    6.0630   -7.2904    1.1075 H   0  0  0  0  0  0  0  0  0  0  0  0
    5.9910   -5.5579    1.4392 H   0  0  0  0  0  0  0  0  0  0  0  0
    5.7495   -6.1714   -0.2117 H   0  0  0  0  0  0  0  0  0  0  0  0
  1  2  1  0
  1 17  1  0
  1 18  1  0
  1 19  1  0
  2  3  1  0
  2 20  1  0
  2 21  1  0
  3  9  1  0
  3  4  2  0
  4  5  1  0
  4 22  1  0
  5 11  1  0
  5  6  1  0
  5 23  1  1
  6 12  1  0
  6  7  1  0
  6 24  1  6
  7  8  1  0
  7 25  1  0
  7 26  1  0
  8  9  1  0
  8 10  1  0
  8 27  1  1
  9 28  1  0
  9 29  1  0
 10 11  1  0
 10 30  1  0
 10 31  1  0
 11 12  1  0
 12 13  1  0
 12 32  1  1
 13 14  2  0
 13 15  1  0
 15 16  1  0
 16 33  1  0
 16 34  1  0
 16 35  1  0
M  END
>  <i_m_ct_stereo_status>  (142) 
1

>  <s_m_source_file>  (142) 
/var/tmp/pbs.5076255.sched01/tmp6h9xbnrx/445q66801d.sdf

>  <i_m_source_file_index>  (142) 
12

>  <i_lp_mmshare_version>  (142) 
48012

>  <i_f3d_flags>  (142) 
0

>  <s_epik_input>  (142) 
W0NIM11bQ0gyXUMoPVtDSF0xKVtDSDJdW0NASF0oW0NIMl1bQ0BASF0yW0NASF0xMylbQ0gyXU4zW0NASF0yQyg9TylPW0NIM10=

>  <s_epik_cmdline>  (142) 
J2VwaWtfcHl0aG9uJywgJy1waHQnLCAnMi4wJywgJy1waCcsICc3LjAnLCAnLXRuJywgJzgnLCAnLW1hJywgJzIwMCcsICctaW1hZScsICc8aW5maWxlLm1hZT4nLCAnLW9tYWUnLCAnPG91dGZpbGUubWFlPic=

>  <r_epik_Ionization_Penalty>  (142) 
1.04688

>  <r_epik_Ionization_Penalty_Charging>  (142) 
0

>  <r_epik_Ionization_Penalty_Neutral>  (142) 
1.04688

>  <r_epik_State_Penalty>  (142) 
1.0994

>  <r_epik_Charging_Adjusted_Penalty>  (142) 
1.0994

>  <i_epik_Tot_Q>  (142) 
0

>  <i_epik_Tot_abs_Q>  (142) 
0

>  <s_epik_Chemistry_Notes>  (142) 
This compound has an ester and may undergo hydrolysis at high or low pH.

>  <s_lp_Force_Field>  (142) 
OPLS3e

>  <r_lp_Energy>  (142) 
31.8527

>  <b_lp_Chiralities_Consistent>  (142) 
1

>  <s_lp_Variant>  (142) 
33:0-2

>  <s_i_glide_gridfile>  (142) 
pfpi4k_grid

>  <i_i_glide_lignum>  (142) 
12

>  <i_i_glide_rotatable_bonds>  (142) 
3

>  <r_i_docking_score>  (142) 
-3.16794

>  <r_i_glide_ligand_efficiency>  (142) 
-0.197996

>  <r_i_glide_ligand_efficiency_sa>  (142) 
-0.498919

>  <r_i_glide_ligand_efficiency_ln>  (142) 
-0.839726

>  <r_i_glide_gscore>  (142) 
-3.16794

>  <r_i_glide_lipo>  (142) 
-0.560079

>  <r_i_glide_hbond>  (142) 
-0.00799118

>  <r_i_glide_metal>  (142) 
-0

>  <r_i_glide_rewards>  (142) 
-1.90026

>  <r_i_glide_evdw>  (142) 
-18.62

>  <r_i_glide_ecoul>  (142) 
-0.707653

>  <r_i_glide_erotb>  (142) 
0.344579

>  <r_i_glide_esite>  (142) 
-0.00704172

>  <r_i_glide_emodel>  (142) 
-20.8092

>  <r_i_glide_energy>  (142) 
-19.3277

>  <r_i_glide_einternal>  (142) 
5.5347

>  <r_i_glide_intrahb_reward>  (142) 
-0

>  <i_i_glide_confnum>  (142) 
5

>  <i_i_glide_posenum>  (142) 
24

>  <r_i_glide_eff_state_penalty>  (142) 
0

>  <ligand_id>  (142) 
33

>  <original_smiles>  (142) 
CCC1=CC2C3CC(C1)CN2C3C(=O)OC

>  <smiles>  (142) 
[H]C1=C(C([H])([H])C([H])([H])[H])C([H])([H])C2([H])C([H])([H])N3C([H])(C(=O)OC([H])([H])[H])C([H])(C13[H])C2([H])[H]

$$$$
33:1:2
     RDKit          3D

 35 37  0  0  1  0  0  0  0  0999 V2000
    3.2200    0.0497   -4.0096 C   0  0  0  0  0  0  0  0  0  0  0  0
    3.6923   -1.4087   -4.0178 C   0  0  0  0  0  0  0  0  0  0  0  0
    3.8151   -2.0227   -2.6281 C   0  0  0  0  0  0  0  0  0  0  0  0
    3.0099   -3.0443   -2.2721 C   0  0  0  0  0  0  0  0  0  0  0  0
    2.9387   -3.8405   -0.9717 C   0  0  1  0  0  0  0  0  0  0  0  0
    4.2252   -4.4113   -0.3281 C   0  0  1  0  0  0  0  0  0  0  0  0
    5.4583   -3.5207   -0.3938 C   0  0  0  0  0  0  0  0  0  0  0  0
    4.9757   -2.0484   -0.3257 C   0  0  1  0  0  0  0  0  0  0  0  0
    4.8878   -1.4179   -1.7268 C   0  0  0  0  0  0  0  0  0  0  0  0
    3.6012   -1.9145    0.4105 C   0  0  0  0  0  0  0  0  0  0  0  0
    2.7592   -3.1294    0.3099 N   0  0  0  0  0  0  0  0  0  0  0  0
    3.4489   -4.2347    1.0038 C   0  0  1  0  0  0  0  0  0  0  0  0
    2.6218   -5.3807    1.5908 C   0  0  0  0  0  0  0  0  0  0  0  0
    2.7872   -5.8355    2.7209 O   0  0  0  0  0  0  0  0  0  0  0  0
    1.6874   -5.8708    0.7563 O   0  0  0  0  0  0  0  0  0  0  0  0
    0.9075   -6.9927    1.1431 C   0  0  0  0  0  0  0  0  0  0  0  0
    3.1442    0.4382   -5.0253 H   0  0  0  0  0  0  0  0  0  0  0  0
    3.9018    0.6979   -3.4614 H   0  0  0  0  0  0  0  0  0  0  0  0
    2.2356    0.1425   -3.5514 H   0  0  0  0  0  0  0  0  0  0  0  0
    2.9898   -1.9903   -4.6146 H   0  0  0  0  0  0  0  0  0  0  0  0
    4.6465   -1.4850   -4.5295 H   0  0  0  0  0  0  0  0  0  0  0  0
    2.2933   -3.3930   -3.0057 H   0  0  0  0  0  0  0  0  0  0  0  0
    2.1524   -4.5772   -1.1093 H   0  0  0  0  0  0  0  0  0  0  0  0
    4.4155   -5.4541   -0.5889 H   0  0  0  0  0  0  0  0  0  0  0  0
    6.1008   -3.7248    0.4629 H   0  0  0  0  0  0  0  0  0  0  0  0
    6.0671   -3.7092   -1.2795 H   0  0  0  0  0  0  0  0  0  0  0  0
    5.7192   -1.4667    0.2252 H   0  0  0  0  0  0  0  0  0  0  0  0
    5.8462   -1.4997   -2.2358 H   0  0  0  0  0  0  0  0  0  0  0  0
    4.6862   -0.3537   -1.6124 H   0  0  0  0  0  0  0  0  0  0  0  0
    3.7735   -1.7124    1.4699 H   0  0  0  0  0  0  0  0  0  0  0  0
    3.0376   -1.0548    0.0423 H   0  0  0  0  0  0  0  0  0  0  0  0
    4.0994   -3.8169    1.7731 H   0  0  0  0  0  0  0  0  0  0  0  0
    0.2029   -7.2448    0.3499 H   0  0  0  0  0  0  0  0  0  0  0  0
    0.3395   -6.7850    2.0504 H   0  0  0  0  0  0  0  0  0  0  0  0
    1.5466   -7.8575    1.3196 H   0  0  0  0  0  0  0  0  0  0  0  0
  1  2  1  0
  1 17  1  0
  1 18  1  0
  1 19  1  0
  2  3  1  0
  2 20  1  0
  2 21  1  0
  3  9  1  0
  3  4  2  0
  4  5  1  0
  4 22  1  0
  5 11  1  0
  5  6  1  0
  5 23  1  6
  6 12  1  0
  6  7  1  0
  6 24  1  6
  7  8  1  0
  7 25  1  0
  7 26  1  0
  8  9  1  0
  8 10  1  0
  8 27  1  1
  9 28  1  0
  9 29  1  0
 10 11  1  0
 10 30  1  0
 10 31  1  0
 11 12  1  0
 12 13  1  0
 12 32  1  1
 13 14  2  0
 13 15  1  0
 15 16  1  0
 16 33  1  0
 16 34  1  0
 16 35  1  0
M  END
>  <i_m_ct_stereo_status>  (143) 
1

>  <s_m_source_file>  (143) 
/var/tmp/pbs.5076255.sched01/tmp6h9xbnrx/445q66801d.sdf

>  <i_m_source_file_index>  (143) 
12

>  <i_lp_mmshare_version>  (143) 
48012

>  <i_f3d_flags>  (143) 
0

>  <s_epik_input>  (143) 
W0NIM11bQ0gyXUMoPVtDSF0xKVtDSDJdW0NASF0oW0NIMl1bQ0BASF0yW0NASF0xMylbQ0gyXU4zW0NASF0yQyg9TylPW0NIM10=

>  <s_epik_cmdline>  (143) 
J2VwaWtfcHl0aG9uJywgJy1waHQnLCAnMi4wJywgJy1waCcsICc3LjAnLCAnLXRuJywgJzgnLCAnLW1hJywgJzIwMCcsICctaW1hZScsICc8aW5maWxlLm1hZT4nLCAnLW9tYWUnLCAnPG91dGZpbGUubWFlPic=

>  <r_epik_Ionization_Penalty>  (143) 
1.04688

>  <r_epik_Ionization_Penalty_Charging>  (143) 
0

>  <r_epik_Ionization_Penalty_Neutral>  (143) 
1.04688

>  <r_epik_State_Penalty>  (143) 
1.0994

>  <r_epik_Charging_Adjusted_Penalty>  (143) 
1.0994

>  <i_epik_Tot_Q>  (143) 
0

>  <i_epik_Tot_abs_Q>  (143) 
0

>  <s_epik_Chemistry_Notes>  (143) 
This compound has an ester and may undergo hydrolysis at high or low pH.

>  <s_lp_Force_Field>  (143) 
OPLS3e

>  <r_lp_Energy>  (143) 
31.8527

>  <b_lp_Chiralities_Consistent>  (143) 
1

>  <s_lp_Variant>  (143) 
33:0-2

>  <s_i_glide_gridfile>  (143) 
pfpi4k_grid

>  <i_i_glide_lignum>  (143) 
12

>  <i_i_glide_rotatable_bonds>  (143) 
3

>  <r_i_docking_score>  (143) 
-2.96285

>  <r_i_glide_ligand_efficiency>  (143) 
-0.185178

>  <r_i_glide_ligand_efficiency_sa>  (143) 
-0.46662

>  <r_i_glide_ligand_efficiency_ln>  (143) 
-0.785363

>  <r_i_glide_gscore>  (143) 
-2.96285

>  <r_i_glide_lipo>  (143) 
-0.195075

>  <r_i_glide_hbond>  (143) 
-0.104289

>  <r_i_glide_metal>  (143) 
-0

>  <r_i_glide_rewards>  (143) 
-1.90026

>  <r_i_glide_evdw>  (143) 
-20.8895

>  <r_i_glide_ecoul>  (143) 
-0.307408

>  <r_i_glide_erotb>  (143) 
0.344579

>  <r_i_glide_esite>  (143) 
-0.0172217

>  <r_i_glide_emodel>  (143) 
-24.5245

>  <r_i_glide_energy>  (143) 
-21.1969

>  <r_i_glide_einternal>  (143) 
1.64276

>  <r_i_glide_intrahb_reward>  (143) 
-0

>  <i_i_glide_confnum>  (143) 
2

>  <i_i_glide_posenum>  (143) 
6

>  <r_i_glide_eff_state_penalty>  (143) 
0

>  <ligand_id>  (143) 
33

>  <original_smiles>  (143) 
CCC1=CC2C3CC(C1)CN2C3C(=O)OC

>  <smiles>  (143) 
[H]C1=C(C([H])([H])C([H])([H])[H])C([H])([H])C2([H])C([H])([H])N3C([H])(C(=O)OC([H])([H])[H])C([H])(C13[H])C2([H])[H]

$$$$
34:0:0
     RDKit          3D

 86 92  0  0  1  0  0  0  0  0999 V2000
    2.5314   -6.9862    6.6845 C   0  0  0  0  0  0  0  0  0  0  0  0
    1.9497   -6.6751    5.2894 C   0  0  2  0  0  0  0  0  0  0  0  0
    2.2654   -7.8293    4.3170 C   0  0  0  0  0  0  0  0  0  0  0  0
    1.7093   -7.6153    2.8822 C   0  0  1  0  0  0  0  0  0  0  0  0
    2.4073   -8.5981    1.9144 C   0  0  0  0  0  0  0  0  0  0  0  0
    0.1475   -7.7539    2.8265 C   0  0  2  0  0  0  0  0  0  0  0  0
   -0.4070   -9.1397    3.2079 C   0  0  0  0  0  0  0  0  0  0  0  0
   -0.3316   -7.4559    1.5272 O   0  0  0  0  0  0  0  0  0  0  0  0
    2.0927   -6.3095    2.4195 O   0  0  0  0  0  0  0  0  0  0  0  0
    1.7790   -5.2280    3.2864 C   0  0  2  0  0  0  0  0  0  0  0  0
    2.2120   -3.8533    2.7856 C   0  0  0  0  0  0  0  0  0  0  0  0
    2.5483   -2.9841    4.0474 C   0  0  1  0  0  0  0  0  0  0  0  0
    4.0075   -2.5008    3.8773 C   0  0  0  0  0  0  0  0  0  0  0  0
    1.6742   -1.7124    4.1618 C   0  0  0  0  0  0  0  0  0  0  0  0
    1.1669   -1.0511    3.1049 C   0  0  0  0  0  0  0  0  0  0  0  0
    0.3301    0.2098    3.2012 C   0  0  0  0  0  0  0  0  0  0  0  0
   -0.2361    0.5360    4.6154 C   0  0  2  0  0  0  0  0  0  0  0  0
   -1.4684   -0.3877    4.7902 C   0  0  0  0  0  0  0  0  0  0  0  0
   -0.6975    2.0152    4.6747 C   0  0  2  0  0  0  0  0  0  0  0  0
   -1.0050    2.8645    3.4372 C   0  0  0  0  0  0  0  0  0  0  0  0
    0.2231    3.7287    3.7199 C   0  0  1  0  0  0  0  0  0  0  0  0
    1.3388    3.4893    2.8767 O   0  0  0  0  0  0  0  0  0  0  0  0
    0.0494    5.2345    3.8644 C   0  0  0  0  0  0  0  0  0  0  0  0
    0.0991    5.4686    5.2726 O   0  0  0  0  0  0  0  0  0  0  0  0
   -0.3026    4.2932    5.9607 C   0  0  0  0  0  0  0  0  0  0  0  0
    0.2761    3.1473    5.1398 C   0  0  1  0  0  0  0  0  0  0  0  0
    1.6324    2.7376    5.7194 C   0  0  0  0  0  0  0  0  0  0  0  0
    2.0182    1.2539    5.4941 C   0  0  0  0  0  0  0  0  0  0  0  0
    0.8541    0.2332    5.7066 C   0  0  1  0  0  0  0  0  0  0  0  0
    0.3349    0.4749    7.1583 C   0  0  0  0  0  0  0  0  0  0  0  0
    1.4311   -1.2272    5.5856 C   0  0  1  0  0  0  0  0  0  0  0  0
    0.7349   -2.3297    6.4319 C   0  0  0  0  0  0  0  0  0  0  0  0
    0.9499   -3.7584    5.8924 C   0  0  0  0  0  0  0  0  0  0  0  0
    2.3549   -3.9789    5.2685 C   0  0  2  0  0  0  0  0  0  0  0  0
    3.4342   -3.8250    6.3793 C   0  0  0  0  0  0  0  0  0  0  0  0
    2.4866   -5.3867    4.6221 C   0  0  1  0  0  0  0  0  0  0  0  0
    3.6203   -6.9507    6.6958 H   0  0  0  0  0  0  0  0  0  0  0  0
    2.2334   -7.9883    7.0066 H   0  0  0  0  0  0  0  0  0  0  0  0
    2.1517   -6.3024    7.4432 H   0  0  0  0  0  0  0  0  0  0  0  0
    0.8741   -6.6068    5.4124 H   0  0  0  0  0  0  0  0  0  0  0  0
    3.3479   -7.9379    4.2599 H   0  0  0  0  0  0  0  0  0  0  0  0
    1.9199   -8.7759    4.7264 H   0  0  0  0  0  0  0  0  0  0  0  0
    2.2583   -9.6397    2.2024 H   0  0  0  0  0  0  0  0  0  0  0  0
    3.4879   -8.4220    1.9073 H   0  0  0  0  0  0  0  0  0  0  0  0
    2.0590   -8.4803    0.8894 H   0  0  0  0  0  0  0  0  0  0  0  0
   -0.3154   -7.0454    3.5125 H   0  0  0  0  0  0  0  0  0  0  0  0
   -0.1549   -9.4167    4.2337 H   0  0  0  0  0  0  0  0  0  0  0  0
   -0.0439   -9.9315    2.5486 H   0  0  0  0  0  0  0  0  0  0  0  0
   -1.4981   -9.1465    3.1524 H   0  0  0  0  0  0  0  0  0  0  0  0
   -0.1556   -8.2019    0.9747 H   0  0  0  0  0  0  0  0  0  0  0  0
    0.6999   -5.1763    3.4298 H   0  0  0  0  0  0  0  0  0  0  0  0
    3.0913   -3.9688    2.1430 H   0  0  0  0  0  0  0  0  0  0  0  0
    1.4242   -3.4581    2.1533 H   0  0  0  0  0  0  0  0  0  0  0  0
    4.7124   -3.3278    3.8107 H   0  0  0  0  0  0  0  0  0  0  0  0
    4.3250   -1.8516    4.6936 H   0  0  0  0  0  0  0  0  0  0  0  0
    4.1131   -1.9141    2.9622 H   0  0  0  0  0  0  0  0  0  0  0  0
    1.3823   -1.3569    2.0927 H   0  0  0  0  0  0  0  0  0  0  0  0
    0.9644    1.0096    2.8299 H   0  0  0  0  0  0  0  0  0  0  0  0
   -0.4834    0.1223    2.4741 H   0  0  0  0  0  0  0  0  0  0  0  0
   -1.9187   -0.3269    5.7745 H   0  0  0  0  0  0  0  0  0  0  0  0
   -1.2312   -1.4352    4.5924 H   0  0  0  0  0  0  0  0  0  0  0  0
   -2.2426   -0.1209    4.0825 H   0  0  0  0  0  0  0  0  0  0  0  0
   -1.5680    2.0893    5.3503 H   0  0  0  0  0  0  0  0  0  0  0  0
   -0.9761    2.3488    2.4749 H   0  0  0  0  0  0  0  0  0  0  0  0
   -1.9344    3.4149    3.5273 H   0  0  0  0  0  0  0  0  0  0  0  0
    1.0521    3.7843    2.0092 H   0  0  0  0  0  0  0  0  0  0  0  0
    0.8174    5.8216    3.3647 H   0  0  0  0  0  0  0  0  0  0  0  0
   -0.9150    5.5611    3.4753 H   0  0  0  0  0  0  0  0  0  0  0  0
    0.0118    4.3162    6.9980 H   0  0  0  0  0  0  0  0  0  0  0  0
   -1.3944    4.2694    5.9625 H   0  0  0  0  0  0  0  0  0  0  0  0
    2.4262    3.3810    5.3333 H   0  0  0  0  0  0  0  0  0  0  0  0
    1.6501    2.9007    6.8019 H   0  0  0  0  0  0  0  0  0  0  0  0
    2.4161    1.1676    4.4788 H   0  0  0  0  0  0  0  0  0  0  0  0
    2.8620    1.0206    6.1374 H   0  0  0  0  0  0  0  0  0  0  0  0
    1.1494    0.3555    7.8749 H   0  0  0  0  0  0  0  0  0  0  0  0
   -0.4572   -0.2058    7.4594 H   0  0  0  0  0  0  0  0  0  0  0  0
   -0.0718    1.4754    7.3066 H   0  0  0  0  0  0  0  0  0  0  0  0
    2.4308   -1.1526    6.0087 H   0  0  0  0  0  0  0  0  0  0  0  0
    1.1133   -2.2791    7.4545 H   0  0  0  0  0  0  0  0  0  0  0  0
   -0.3400   -2.1784    6.5071 H   0  0  0  0  0  0  0  0  0  0  0  0
    0.7526   -4.4812    6.6838 H   0  0  0  0  0  0  0  0  0  0  0  0
    0.1820   -3.9335    5.1362 H   0  0  0  0  0  0  0  0  0  0  0  0
    3.1764   -4.3908    7.2728 H   0  0  0  0  0  0  0  0  0  0  0  0
    3.5661   -2.7971    6.7105 H   0  0  0  0  0  0  0  0  0  0  0  0
    4.4121   -4.1794    6.0477 H   0  0  0  0  0  0  0  0  0  0  0  0
    3.5438   -5.5408    4.4055 H   0  0  0  0  0  0  0  0  0  0  0  0
  1  2  1  0
  1 37  1  0
  1 38  1  0
  1 39  1  0
  2 36  1  0
  2  3  1  0
  2 40  1  1
  3  4  1  0
  3 41  1  0
  3 42  1  0
  4  5  1  6
  4  6  1  0
  4  9  1  0
  5 43  1  0
  5 44  1  0
  5 45  1  0
  6  7  1  0
  6  8  1  0
  6 46  1  1
  7 47  1  0
  7 48  1  0
  7 49  1  0
  8 50  1  0
  9 10  1  0
 10 36  1  0
 10 11  1  0
 10 51  1  1
 11 12  1  0
 11 52  1  0
 11 53  1  0
 12 34  1  0
 12 13  1  6
 12 14  1  0
 13 54  1  0
 13 55  1  0
 13 56  1  0
 14 31  1  0
 14 15  2  0
 15 16  1  0
 15 57  1  0
 16 17  1  0
 16 58  1  0
 16 59  1  0
 17 29  1  0
 17 18  1  1
 17 19  1  0
 18 60  1  0
 18 61  1  0
 18 62  1  0
 19 26  1  0
 19 20  1  0
 19 63  1  1
 20 21  1  0
 20 64  1  0
 20 65  1  0
 21 26  1  0
 21 22  1  6
 21 23  1  0
 22 66  1  0
 23 24  1  0
 23 67  1  0
 23 68  1  0
 24 25  1  0
 26 25  1  1
 25 69  1  0
 25 70  1  0
 26 27  1  0
 27 28  1  0
 27 71  1  0
 27 72  1  0
 28 29  1  0
 28 73  1  0
 28 74  1  0
 29 30  1  1
 29 31  1  0
 30 75  1  0
 30 76  1  0
 30 77  1  0
 31 32  1  0
 31 78  1  1
 32 33  1  0
 32 79  1  0
 32 80  1  0
 33 34  1  0
 33 81  1  0
 33 82  1  0
 34 35  1  1
 34 36  1  0
 35 83  1  0
 35 84  1  0
 35 85  1  0
 36 86  1  6
M  END
>  <i_m_ct_stereo_status>  (144) 
1

>  <s_m_source_file>  (144) 
/var/tmp/pbs.5076255.sched01/tmp6h9xbnrx/445q66801d.sdf

>  <i_m_source_file_index>  (144) 
13

>  <i_lp_mmshare_version>  (144) 
48012

>  <i_f3d_flags>  (144) 
0

>  <s_epik_input>  (144) 
W0NIM11bQ0BASF0xW0NIMl1bQ0BAXShbQ0gzXSkoW0NASF0oW0NIM10pW09IXSlPW0NASF0oW0NIMl0yKVtDQEhdMVtDQF0oW0NIM10pKFtDSDJdW0NIMl0zKVtDQF0yKFtDSDNdKUMoPVtDSF1bQ0gyXTQpW0NASF0zW0NAQF0oW0NIM10pKFtDSDJdW0NIMl01KVtDQEBdNChbQ0gzXSlbQ0BASF0oW0NAQF01NjcpW0NIMl1bQ0BAXTYoW09IXSlbQ0gyXU9bQ0gyXTc=

>  <s_epik_cmdline>  (144) 
J2VwaWtfcHl0aG9uJywgJy1waHQnLCAnMi4wJywgJy1waCcsICc3LjAnLCAnLXRuJywgJzgnLCAnLW1hJywgJzIwMCcsICctaW1hZScsICc8aW5maWxlLm1hZT4nLCAnLW9tYWUnLCAnPG91dGZpbGUubWFlPic=

>  <r_lp_tautomer_probability>  (144) 
1

>  <r_epik_Ionization_Penalty>  (144) 
2.81969e-07

>  <r_epik_Ionization_Penalty_Charging>  (144) 
0

>  <r_epik_Ionization_Penalty_Neutral>  (144) 
2.81969e-07

>  <r_epik_State_Penalty>  (144) 
-0

>  <r_epik_Charging_Adjusted_Penalty>  (144) 
0

>  <i_epik_Tot_Q>  (144) 
0

>  <i_epik_Tot_abs_Q>  (144) 
0

>  <s_lp_Force_Field>  (144) 
OPLS3e

>  <r_lp_Energy>  (144) 
106.394

>  <b_lp_Chiralities_Consistent>  (144) 
1

>  <s_lp_Variant>  (144) 
34:0-1

>  <s_i_glide_gridfile>  (144) 
pfpi4k_grid

>  <i_i_glide_lignum>  (144) 
13

>  <i_i_glide_rotatable_bonds>  (144) 
3

>  <r_i_docking_score>  (144) 
-2.70338

>  <r_i_glide_ligand_efficiency>  (144) 
-0.075094

>  <r_i_glide_ligand_efficiency_sa>  (144) 
-0.247955

>  <r_i_glide_ligand_efficiency_ln>  (144) 
-0.589805

>  <r_i_glide_gscore>  (144) 
-2.70338

>  <r_i_glide_lipo>  (144) 
-0.00125781

>  <r_i_glide_hbond>  (144) 
0

>  <r_i_glide_metal>  (144) 
-0

>  <r_i_glide_rewards>  (144) 
-0.00861136

>  <r_i_glide_evdw>  (144) 
-29.2726

>  <r_i_glide_ecoul>  (144) 
-8.7462

>  <r_i_glide_erotb>  (144) 
0.0820462

>  <r_i_glide_esite>  (144) 
0

>  <r_i_glide_emodel>  (144) 
-44.5446

>  <r_i_glide_energy>  (144) 
-38.0188

>  <r_i_glide_einternal>  (144) 
1.20903

>  <r_i_glide_intrahb_reward>  (144) 
-0

>  <i_i_glide_confnum>  (144) 
1

>  <i_i_glide_posenum>  (144) 
4

>  <r_i_glide_eff_state_penalty>  (144) 
0

>  <ligand_id>  (144) 
34

>  <original_smiles>  (144) 
CC1CC(C)(C(C)O)OC2CC3(C)C4=CCC5(C)C6CC7(O)COCC67CCC5(C)C4CCC3(C)C12

>  <smiles>  (144) 
[H]OC([H])(C([H])([H])[H])C1(C([H])([H])[H])OC2([H])C([H])([H])C3(C([H])([H])[H])C4=C([H])C([H])([H])C5(C([H])([H])[H])C6([H])C([H])([H])C7(O[H])C([H])([H])OC([H])([H])C67C([H])([H])C([H])([H])C5(C([H])([H])[H])C4([H])C([H])([H])C([H])([H])C3(C([H])([H])[H])C2([H])C([H])(C([H])([H])[H])C1([H])[H]

$$$$
35:0:0
     RDKit          3D

 35 38  0  0  1  0  0  0  0  0999 V2000
    3.3277   -0.8774   -3.6218 C   0  0  0  0  0  0  0  0  0  0  0  0
    3.1631   -2.2396   -3.9196 C   0  0  0  0  0  0  0  0  0  0  0  0
    3.9072   -3.2144   -3.2386 C   0  0  0  0  0  0  0  0  0  0  0  0
    4.7954   -2.8350   -2.2100 C   0  0  0  0  0  0  0  0  0  0  0  0
    5.5872   -3.8804   -1.4572 C   0  0  0  0  0  0  0  0  0  0  0  0
    5.2061   -3.9828    0.0293 C   0  0  2  0  0  0  0  0  0  0  0  0
    6.1756   -4.9059    0.8378 C   0  0  0  0  0  0  0  0  0  0  0  0
    5.3488   -6.0842    1.4514 C   0  0  0  0  0  0  0  0  0  0  0  0
    3.9752   -5.7716    0.9813 C   0  0  0  0  0  0  0  0  0  0  0  0
    2.6363   -6.2559    1.0296 C   0  0  0  0  0  0  0  0  0  0  0  0
    2.0771   -7.4340    1.6868 C   0  0  0  0  0  0  0  0  0  0  0  0
    0.8069   -7.5555    2.0997 N   0  0  0  0  0  0  0  0  0  0  0  0
    0.5619   -8.7827    2.7218 C   0  0  0  0  0  0  0  0  0  0  0  0
    1.6698   -9.5854    2.7901 C   0  0  0  0  0  0  0  0  0  0  0  0
    3.0679   -8.8362    2.0775 S   0  0  0  0  0  0  0  0  0  0  0  0
    1.8258   -5.4507    0.3334 N   0  0  0  0  0  0  0  0  0  0  0  0
    2.6142   -4.4381   -0.1242 N   0  0  0  0  0  0  0  0  0  0  0  0
    3.9141   -4.6560    0.2541 C   0  0  0  0  0  0  0  0  0  0  0  0
    4.9460   -1.4723   -1.8904 C   0  0  0  0  0  0  0  0  0  0  0  0
    4.2158   -0.5036   -2.6006 C   0  0  0  0  0  0  0  0  0  0  0  0
    2.2704   -3.6977   -0.7260 H   0  0  0  0  0  0  0  0  0  0  0  0
    2.7614   -0.1256   -4.1467 H   0  0  0  0  0  0  0  0  0  0  0  0
    2.4801   -2.5532   -4.6963 H   0  0  0  0  0  0  0  0  0  0  0  0
    3.7776   -4.2510   -3.5011 H   0  0  0  0  0  0  0  0  0  0  0  0
    5.4187   -4.8534   -1.9214 H   0  0  0  0  0  0  0  0  0  0  0  0
    6.6441   -3.6327   -1.5651 H   0  0  0  0  0  0  0  0  0  0  0  0
    5.1799   -2.9993    0.5014 H   0  0  0  0  0  0  0  0  0  0  0  0
    6.9721   -5.2979    0.2027 H   0  0  0  0  0  0  0  0  0  0  0  0
    6.6599   -4.3252    1.6268 H   0  0  0  0  0  0  0  0  0  0  0  0
    5.7077   -7.0416    1.0770 H   0  0  0  0  0  0  0  0  0  0  0  0
    5.4240   -6.0910    2.5380 H   0  0  0  0  0  0  0  0  0  0  0  0
   -0.4363   -9.0036    3.0820 H   0  0  0  0  0  0  0  0  0  0  0  0
    1.7542  -10.5745    3.2071 H   0  0  0  0  0  0  0  0  0  0  0  0
    5.6093   -1.1781   -1.0892 H   0  0  0  0  0  0  0  0  0  0  0  0
    4.3247    0.5374   -2.3506 H   0  0  0  0  0  0  0  0  0  0  0  0
  1 20  2  0
  1  2  1  0
  1 22  1  0
  2  3  2  0
  2 23  1  0
  3  4  1  0
  3 24  1  0
  4  5  1  0
  4 19  2  0
  5  6  1  0
  5 25  1  0
  5 26  1  0
  6 18  1  0
  6  7  1  0
  6 27  1  1
  7  8  1  0
  7 28  1  0
  7 29  1  0
  8  9  1  0
  8 30  1  0
  8 31  1  0
  9 18  2  0
  9 10  1  0
 10 11  1  0
 10 16  2  0
 11 15  1  0
 11 12  2  0
 12 13  1  0
 13 14  2  0
 13 32  1  0
 14 15  1  0
 14 33  1  0
 16 17  1  0
 17 21  1  0
 17 18  1  0
 19 20  1  0
 19 34  1  0
 20 35  1  0
M  END
>  <i_m_ct_stereo_status>  (145) 
1

>  <s_m_source_file>  (145) 
/var/tmp/pbs.5076255.sched01/tmp6h9xbnrx/445q66801d.sdf

>  <i_m_source_file_index>  (145) 
14

>  <i_lp_mmshare_version>  (145) 
48012

>  <i_f3d_flags>  (145) 
0

>  <s_epik_input>  (145) 
W2NIXTFbY0hdW2NIXVtjSF1bY0hdYzFbQ0gyXVtDQEhdKFtDSDJdW0NIMl0yKWMoYzIzKVtuSF1uYzMtYzRuW2NIXVtjSF1zNA==

>  <s_epik_cmdline>  (145) 
J2VwaWtfcHl0aG9uJywgJy1waHQnLCAnMi4wJywgJy1waCcsICc3LjAnLCAnLXRuJywgJzgnLCAnLW1hJywgJzIwMCcsICctaW1hZScsICc8aW5maWxlLm1hZT4nLCAnLW9tYWUnLCAnPG91dGZpbGUubWFlPic=

>  <r_lp_tautomer_probability>  (145) 
0.5

>  <r_epik_Ionization_Penalty>  (145) 
9.17392e-06

>  <r_epik_Ionization_Penalty_Charging>  (145) 
0

>  <r_epik_Ionization_Penalty_Neutral>  (145) 
9.17392e-06

>  <r_epik_State_Penalty>  (145) 
0.41068

>  <r_epik_Charging_Adjusted_Penalty>  (145) 
0.41068

>  <i_epik_Tot_Q>  (145) 
0

>  <i_epik_Tot_abs_Q>  (145) 
0

>  <s_lp_Force_Field>  (145) 
OPLS3e

>  <r_lp_Energy>  (145) 
18.045

>  <b_lp_Chiralities_Consistent>  (145) 
1

>  <s_lp_Variant>  (145) 
35:0-1

>  <s_i_glide_gridfile>  (145) 
pfpi4k_grid

>  <i_i_glide_lignum>  (145) 
14

>  <i_i_glide_rotatable_bonds>  (145) 
3

>  <r_i_docking_score>  (145) 
-3.91659

>  <r_i_glide_ligand_efficiency>  (145) 
-0.195829

>  <r_i_glide_ligand_efficiency_sa>  (145) 
-0.531563

>  <r_i_glide_ligand_efficiency_ln>  (145) 
-0.980193

>  <r_i_glide_gscore>  (145) 
-3.91659

>  <r_i_glide_lipo>  (145) 
-1.00811

>  <r_i_glide_hbond>  (145) 
-0.0908716

>  <r_i_glide_metal>  (145) 
-0

>  <r_i_glide_rewards>  (145) 
-1.49062

>  <r_i_glide_evdw>  (145) 
-27.0568

>  <r_i_glide_ecoul>  (145) 
-4.0561

>  <r_i_glide_erotb>  (145) 
0.684929

>  <r_i_glide_esite>  (145) 
-0.0506634

>  <r_i_glide_emodel>  (145) 
-36.0872

>  <r_i_glide_energy>  (145) 
-31.1129

>  <r_i_glide_einternal>  (145) 
6.09516

>  <r_i_glide_intrahb_reward>  (145) 
-0

>  <i_i_glide_confnum>  (145) 
3

>  <i_i_glide_posenum>  (145) 
27

>  <r_i_glide_eff_state_penalty>  (145) 
0

>  <ligand_id>  (145) 
35

>  <original_smiles>  (145) 
c1ccc(CC2CCc3c(-c4nccs4)n[nH]c32)cc1

>  <smiles>  (145) 
[H]c1nc(-c2nn([H])c3c2C([H])([H])C([H])([H])C3([H])C([H])([H])c2c([H])c([H])c([H])c([H])c2[H])sc1[H]

$$$$
35:0:1
     RDKit          3D

 35 38  0  0  1  0  0  0  0  0999 V2000
    3.3114   -0.8646   -3.6046 C   0  0  0  0  0  0  0  0  0  0  0  0
    3.1126   -2.2191   -3.9203 C   0  0  0  0  0  0  0  0  0  0  0  0
    3.8459   -3.2171   -3.2581 C   0  0  0  0  0  0  0  0  0  0  0  0
    4.7555   -2.8724   -2.2429 C   0  0  0  0  0  0  0  0  0  0  0  0
    5.5353   -3.9459   -1.5135 C   0  0  0  0  0  0  0  0  0  0  0  0
    5.2101   -4.0262   -0.0127 C   0  0  2  0  0  0  0  0  0  0  0  0
    6.1923   -4.9569    0.7673 C   0  0  0  0  0  0  0  0  0  0  0  0
    5.3694   -6.1123    1.4227 C   0  0  0  0  0  0  0  0  0  0  0  0
    3.9847   -5.7790    1.0012 C   0  0  0  0  0  0  0  0  0  0  0  0
    2.6471   -6.2488    1.0973 C   0  0  0  0  0  0  0  0  0  0  0  0
    2.1478   -7.4291    1.8011 C   0  0  0  0  0  0  0  0  0  0  0  0
    2.9239   -8.3801    2.3304 N   0  0  0  0  0  0  0  0  0  0  0  0
    2.1929   -9.4037    2.9333 C   0  0  0  0  0  0  0  0  0  0  0  0
    0.8374   -9.1878    2.9017 C   0  0  0  0  0  0  0  0  0  0  0  0
    0.4304   -7.7079    2.0799 S   0  0  0  0  0  0  0  0  0  0  0  0
    1.8188   -5.4319    0.4354 N   0  0  0  0  0  0  0  0  0  0  0  0
    2.6053   -4.4372   -0.0683 N   0  0  0  0  0  0  0  0  0  0  0  0
    3.9147   -4.6693    0.2645 C   0  0  0  0  0  0  0  0  0  0  0  0
    4.9448   -1.5170   -1.9066 C   0  0  0  0  0  0  0  0  0  0  0  0
    4.2220   -0.5245   -2.5951 C   0  0  0  0  0  0  0  0  0  0  0  0
    2.2551   -3.6935   -0.6659 H   0  0  0  0  0  0  0  0  0  0  0  0
    2.7536   -0.0935   -4.1173 H   0  0  0  0  0  0  0  0  0  0  0  0
    2.4120   -2.5113   -4.6864 H   0  0  0  0  0  0  0  0  0  0  0  0
    3.6867   -4.2497   -3.5321 H   0  0  0  0  0  0  0  0  0  0  0  0
    5.3254   -4.9184   -1.9639 H   0  0  0  0  0  0  0  0  0  0  0  0
    6.5948   -3.7361   -1.6635 H   0  0  0  0  0  0  0  0  0  0  0  0
    5.2202   -3.0398    0.4510 H   0  0  0  0  0  0  0  0  0  0  0  0
    6.9574   -5.3668    0.1087 H   0  0  0  0  0  0  0  0  0  0  0  0
    6.7165   -4.3783    1.5293 H   0  0  0  0  0  0  0  0  0  0  0  0
    5.6956   -7.0806    1.0458 H   0  0  0  0  0  0  0  0  0  0  0  0
    5.4856   -6.1122    2.5057 H   0  0  0  0  0  0  0  0  0  0  0  0
    2.7205  -10.2432    3.3678 H   0  0  0  0  0  0  0  0  0  0  0  0
    0.0558   -9.8110    3.3054 H   0  0  0  0  0  0  0  0  0  0  0  0
    5.6293   -1.2444   -1.1182 H   0  0  0  0  0  0  0  0  0  0  0  0
    4.3592    0.5120   -2.3337 H   0  0  0  0  0  0  0  0  0  0  0  0
  1 20  2  0
  1  2  1  0
  1 22  1  0
  2  3  2  0
  2 23  1  0
  3  4  1  0
  3 24  1  0
  4  5  1  0
  4 19  2  0
  5  6  1  0
  5 25  1  0
  5 26  1  0
  6 18  1  0
  6  7  1  0
  6 27  1  1
  7  8  1  0
  7 28  1  0
  7 29  1  0
  8  9  1  0
  8 30  1  0
  8 31  1  0
  9 18  2  0
  9 10  1  0
 10 11  1  0
 10 16  2  0
 11 15  1  0
 11 12  2  0
 12 13  1  0
 13 14  2  0
 13 32  1  0
 14 15  1  0
 14 33  1  0
 16 17  1  0
 17 21  1  0
 17 18  1  0
 19 20  1  0
 19 34  1  0
 20 35  1  0
M  END
>  <i_m_ct_stereo_status>  (146) 
1

>  <s_m_source_file>  (146) 
/var/tmp/pbs.5076255.sched01/tmp6h9xbnrx/445q66801d.sdf

>  <i_m_source_file_index>  (146) 
14

>  <i_lp_mmshare_version>  (146) 
48012

>  <i_f3d_flags>  (146) 
0

>  <s_epik_input>  (146) 
W2NIXTFbY0hdW2NIXVtjSF1bY0hdYzFbQ0gyXVtDQEhdKFtDSDJdW0NIMl0yKWMoYzIzKVtuSF1uYzMtYzRuW2NIXVtjSF1zNA==

>  <s_epik_cmdline>  (146) 
J2VwaWtfcHl0aG9uJywgJy1waHQnLCAnMi4wJywgJy1waCcsICc3LjAnLCAnLXRuJywgJzgnLCAnLW1hJywgJzIwMCcsICctaW1hZScsICc8aW5maWxlLm1hZT4nLCAnLW9tYWUnLCAnPG91dGZpbGUubWFlPic=

>  <r_lp_tautomer_probability>  (146) 
0.5

>  <r_epik_Ionization_Penalty>  (146) 
9.17392e-06

>  <r_epik_Ionization_Penalty_Charging>  (146) 
0

>  <r_epik_Ionization_Penalty_Neutral>  (146) 
9.17392e-06

>  <r_epik_State_Penalty>  (146) 
0.41068

>  <r_epik_Charging_Adjusted_Penalty>  (146) 
0.41068

>  <i_epik_Tot_Q>  (146) 
0

>  <i_epik_Tot_abs_Q>  (146) 
0

>  <s_lp_Force_Field>  (146) 
OPLS3e

>  <r_lp_Energy>  (146) 
18.045

>  <b_lp_Chiralities_Consistent>  (146) 
1

>  <s_lp_Variant>  (146) 
35:0-1

>  <s_i_glide_gridfile>  (146) 
pfpi4k_grid

>  <i_i_glide_lignum>  (146) 
14

>  <i_i_glide_rotatable_bonds>  (146) 
3

>  <r_i_docking_score>  (146) 
-3.80499

>  <r_i_glide_ligand_efficiency>  (146) 
-0.19025

>  <r_i_glide_ligand_efficiency_sa>  (146) 
-0.516417

>  <r_i_glide_ligand_efficiency_ln>  (146) 
-0.952264

>  <r_i_glide_gscore>  (146) 
-3.80499

>  <r_i_glide_lipo>  (146) 
-0.950818

>  <r_i_glide_hbond>  (146) 
-0.0982452

>  <r_i_glide_metal>  (146) 
-0

>  <r_i_glide_rewards>  (146) 
-1.49062

>  <r_i_glide_evdw>  (146) 
-26.4137

>  <r_i_glide_ecoul>  (146) 
-3.86779

>  <r_i_glide_erotb>  (146) 
0.684929

>  <r_i_glide_esite>  (146) 
-0.0493886

>  <r_i_glide_emodel>  (146) 
-37.3059

>  <r_i_glide_energy>  (146) 
-30.2815

>  <r_i_glide_einternal>  (146) 
1.52167

>  <r_i_glide_intrahb_reward>  (146) 
-0

>  <i_i_glide_confnum>  (146) 
4

>  <i_i_glide_posenum>  (146) 
26

>  <r_i_glide_eff_state_penalty>  (146) 
0

>  <ligand_id>  (146) 
35

>  <original_smiles>  (146) 
c1ccc(CC2CCc3c(-c4nccs4)n[nH]c32)cc1

>  <smiles>  (146) 
[H]c1nc(-c2nn([H])c3c2C([H])([H])C([H])([H])C3([H])C([H])([H])c2c([H])c([H])c([H])c([H])c2[H])sc1[H]

$$$$
35:0:2
     RDKit          3D

 35 38  0  0  1  0  0  0  0  0999 V2000
    3.7797   -1.5553   -3.8639 C   0  0  0  0  0  0  0  0  0  0  0  0
    3.9856   -2.9487   -3.8789 C   0  0  0  0  0  0  0  0  0  0  0  0
    4.6267   -3.5772   -2.7955 C   0  0  0  0  0  0  0  0  0  0  0  0
    5.0444   -2.8259   -1.6799 C   0  0  0  0  0  0  0  0  0  0  0  0
    5.7192   -3.5085   -0.5040 C   0  0  0  0  0  0  0  0  0  0  0  0
    4.8992   -3.4248    0.7950 C   0  0  2  0  0  0  0  0  0  0  0  0
    5.6786   -3.9753    2.0332 C   0  0  0  0  0  0  0  0  0  0  0  0
    4.8696   -5.1672    2.6411 C   0  0  0  0  0  0  0  0  0  0  0  0
    3.6850   -5.2235    1.7415 C   0  0  0  0  0  0  0  0  0  0  0  0
    2.4890   -5.9592    1.5191 C   0  0  0  0  0  0  0  0  0  0  0  0
    1.9686   -7.0922    2.2860 C   0  0  0  0  0  0  0  0  0  0  0  0
    2.6563   -7.7529    3.2264 N   0  0  0  0  0  0  0  0  0  0  0  0
    1.9222   -8.8025    3.7868 C   0  0  0  0  0  0  0  0  0  0  0  0
    0.6477   -8.8946    3.2959 C   0  0  0  0  0  0  0  0  0  0  0  0
    0.3218   -7.6886    2.0854 S   0  0  0  0  0  0  0  0  0  0  0  0
    1.8175   -5.4529    0.4708 N   0  0  0  0  0  0  0  0  0  0  0  0
    2.5833   -4.4191    0.0170 N   0  0  0  0  0  0  0  0  0  0  0  0
    3.7069   -4.2947    0.7889 C   0  0  0  0  0  0  0  0  0  0  0  0
    4.8232   -1.4343   -1.6608 C   0  0  0  0  0  0  0  0  0  0  0  0
    4.1981   -0.7995   -2.7514 C   0  0  0  0  0  0  0  0  0  0  0  0
    2.3510   -3.8730   -0.8082 H   0  0  0  0  0  0  0  0  0  0  0  0
    3.2865   -1.0685   -4.6932 H   0  0  0  0  0  0  0  0  0  0  0  0
    3.6524   -3.5489   -4.7115 H   0  0  0  0  0  0  0  0  0  0  0  0
    4.7739   -4.6475   -2.8162 H   0  0  0  0  0  0  0  0  0  0  0  0
    5.8997   -4.5620   -0.7307 H   0  0  0  0  0  0  0  0  0  0  0  0
    6.6979   -3.0475   -0.3693 H   0  0  0  0  0  0  0  0  0  0  0  0
    4.5953   -2.3991    1.0054 H   0  0  0  0  0  0  0  0  0  0  0  0
    6.6837   -4.3012    1.7597 H   0  0  0  0  0  0  0  0  0  0  0  0
    5.8025   -3.1815    2.7730 H   0  0  0  0  0  0  0  0  0  0  0  0
    5.4542   -6.0849    2.6114 H   0  0  0  0  0  0  0  0  0  0  0  0
    4.6000   -4.9708    3.6780 H   0  0  0  0  0  0  0  0  0  0  0  0
    2.3948   -9.4303    4.5314 H   0  0  0  0  0  0  0  0  0  0  0  0
   -0.1155   -9.6080    3.5666 H   0  0  0  0  0  0  0  0  0  0  0  0
    5.1209   -0.8529   -0.8020 H   0  0  0  0  0  0  0  0  0  0  0  0
    4.0260    0.2656   -2.7277 H   0  0  0  0  0  0  0  0  0  0  0  0
  1 20  2  0
  1  2  1  0
  1 22  1  0
  2  3  2  0
  2 23  1  0
  3  4  1  0
  3 24  1  0
  4  5  1  0
  4 19  2  0
  5  6  1  0
  5 25  1  0
  5 26  1  0
  6 18  1  0
  6  7  1  0
  6 27  1  1
  7  8  1  0
  7 28  1  0
  7 29  1  0
  8  9  1  0
  8 30  1  0
  8 31  1  0
  9 18  2  0
  9 10  1  0
 10 11  1  0
 10 16  2  0
 11 15  1  0
 11 12  2  0
 12 13  1  0
 13 14  2  0
 13 32  1  0
 14 15  1  0
 14 33  1  0
 16 17  1  0
 17 21  1  0
 17 18  1  0
 19 20  1  0
 19 34  1  0
 20 35  1  0
M  END
>  <i_m_ct_stereo_status>  (147) 
1

>  <s_m_source_file>  (147) 
/var/tmp/pbs.5076255.sched01/tmp6h9xbnrx/445q66801d.sdf

>  <i_m_source_file_index>  (147) 
14

>  <i_lp_mmshare_version>  (147) 
48012

>  <i_f3d_flags>  (147) 
0

>  <s_epik_input>  (147) 
W2NIXTFbY0hdW2NIXVtjSF1bY0hdYzFbQ0gyXVtDQEhdKFtDSDJdW0NIMl0yKWMoYzIzKVtuSF1uYzMtYzRuW2NIXVtjSF1zNA==

>  <s_epik_cmdline>  (147) 
J2VwaWtfcHl0aG9uJywgJy1waHQnLCAnMi4wJywgJy1waCcsICc3LjAnLCAnLXRuJywgJzgnLCAnLW1hJywgJzIwMCcsICctaW1hZScsICc8aW5maWxlLm1hZT4nLCAnLW9tYWUnLCAnPG91dGZpbGUubWFlPic=

>  <r_lp_tautomer_probability>  (147) 
0.5

>  <r_epik_Ionization_Penalty>  (147) 
9.17392e-06

>  <r_epik_Ionization_Penalty_Charging>  (147) 
0

>  <r_epik_Ionization_Penalty_Neutral>  (147) 
9.17392e-06

>  <r_epik_State_Penalty>  (147) 
0.41068

>  <r_epik_Charging_Adjusted_Penalty>  (147) 
0.41068

>  <i_epik_Tot_Q>  (147) 
0

>  <i_epik_Tot_abs_Q>  (147) 
0

>  <s_lp_Force_Field>  (147) 
OPLS3e

>  <r_lp_Energy>  (147) 
18.045

>  <b_lp_Chiralities_Consistent>  (147) 
1

>  <s_lp_Variant>  (147) 
35:0-1

>  <s_i_glide_gridfile>  (147) 
pfpi4k_grid

>  <i_i_glide_lignum>  (147) 
14

>  <i_i_glide_rotatable_bonds>  (147) 
3

>  <r_i_docking_score>  (147) 
-3.21546

>  <r_i_glide_ligand_efficiency>  (147) 
-0.160773

>  <r_i_glide_ligand_efficiency_sa>  (147) 
-0.436404

>  <r_i_glide_ligand_efficiency_ln>  (147) 
-0.804722

>  <r_i_glide_gscore>  (147) 
-3.21546

>  <r_i_glide_lipo>  (147) 
-0.44877

>  <r_i_glide_hbond>  (147) 
-0.0992993

>  <r_i_glide_metal>  (147) 
-0

>  <r_i_glide_rewards>  (147) 
-1.49062

>  <r_i_glide_evdw>  (147) 
-26.7279

>  <r_i_glide_ecoul>  (147) 
-3.1853

>  <r_i_glide_erotb>  (147) 
0.684929

>  <r_i_glide_esite>  (147) 
-0.0475085

>  <r_i_glide_emodel>  (147) 
-35.8459

>  <r_i_glide_energy>  (147) 
-29.9132

>  <r_i_glide_einternal>  (147) 
1.28835

>  <r_i_glide_intrahb_reward>  (147) 
-0

>  <i_i_glide_confnum>  (147) 
4

>  <i_i_glide_posenum>  (147) 
23

>  <r_i_glide_eff_state_penalty>  (147) 
0

>  <ligand_id>  (147) 
35

>  <original_smiles>  (147) 
c1ccc(CC2CCc3c(-c4nccs4)n[nH]c32)cc1

>  <smiles>  (147) 
[H]c1nc(-c2nn([H])c3c2C([H])([H])C([H])([H])C3([H])C([H])([H])c2c([H])c([H])c([H])c([H])c2[H])sc1[H]

$$$$
35:1:0
     RDKit          3D

 35 38  0  0  1  0  0  0  0  0999 V2000
    1.4825   -7.3484    6.8916 C   0  0  0  0  0  0  0  0  0  0  0  0
    1.0543   -8.6632    6.6497 C   0  0  0  0  0  0  0  0  0  0  0  0
    0.0766   -8.9072    5.6675 C   0  0  0  0  0  0  0  0  0  0  0  0
   -0.4512   -7.8545    4.8913 C   0  0  0  0  0  0  0  0  0  0  0  0
   -1.4660   -8.1357    3.7801 C   0  0  0  0  0  0  0  0  0  0  0  0
   -0.8466   -8.6492    2.4509 C   0  0  2  0  0  0  0  0  0  0  0  0
   -0.1303  -10.0407    2.6372 C   0  0  0  0  0  0  0  0  0  0  0  0
    1.4059   -9.8067    2.7999 C   0  0  0  0  0  0  0  0  0  0  0  0
    1.5349   -8.4580    2.1725 C   0  0  0  0  0  0  0  0  0  0  0  0
    2.4561   -7.5721    1.7010 C   0  0  0  0  0  0  0  0  0  0  0  0
    3.9117   -7.5886    1.6270 C   0  0  0  0  0  0  0  0  0  0  0  0
    4.6752   -6.5576    1.2498 N   0  0  0  0  0  0  0  0  0  0  0  0
    6.0343   -6.8778    1.2961 C   0  0  0  0  0  0  0  0  0  0  0  0
    6.2922   -8.1667    1.6770 C   0  0  0  0  0  0  0  0  0  0  0  0
    4.8294   -9.0475    2.0061 S   0  0  0  0  0  0  0  0  0  0  0  0
    1.7014   -6.5050    1.2420 N   0  0  0  0  0  0  0  0  0  0  0  0
    0.3558   -6.6510    1.3979 N   0  0  0  0  0  0  0  0  0  0  0  0
    0.3081   -7.8366    1.9837 C   0  0  0  0  0  0  0  0  0  0  0  0
   -0.0220   -6.5375    5.1495 C   0  0  0  0  0  0  0  0  0  0  0  0
    0.9428   -6.2860    6.1486 C   0  0  0  0  0  0  0  0  0  0  0  0
    2.1195   -5.7079    0.7909 H   0  0  0  0  0  0  0  0  0  0  0  0
    2.2548   -7.1672    7.6250 H   0  0  0  0  0  0  0  0  0  0  0  0
    1.4818   -9.4974    7.1829 H   0  0  0  0  0  0  0  0  0  0  0  0
   -0.2255   -9.9267    5.5127 H   0  0  0  0  0  0  0  0  0  0  0  0
   -2.2048   -8.8618    4.1346 H   0  0  0  0  0  0  0  0  0  0  0  0
   -2.0258   -7.2174    3.5749 H   0  0  0  0  0  0  0  0  0  0  0  0
   -1.6164   -8.7166    1.6794 H   0  0  0  0  0  0  0  0  0  0  0  0
   -0.5814  -10.6475    3.4149 H   0  0  0  0  0  0  0  0  0  0  0  0
   -0.2646  -10.5994    1.7072 H   0  0  0  0  0  0  0  0  0  0  0  0
    1.7081   -9.7545    3.8441 H   0  0  0  0  0  0  0  0  0  0  0  0
    2.0177  -10.5694    2.3281 H   0  0  0  0  0  0  0  0  0  0  0  0
    6.7540   -6.1259    1.0286 H   0  0  0  0  0  0  0  0  0  0  0  0
    7.2525   -8.6498    1.7829 H   0  0  0  0  0  0  0  0  0  0  0  0
   -0.3998   -5.7224    4.5610 H   0  0  0  0  0  0  0  0  0  0  0  0
    1.2859   -5.2802    6.3192 H   0  0  0  0  0  0  0  0  0  0  0  0
  1 20  2  0
  1  2  1  0
  1 22  1  0
  2  3  2  0
  2 23  1  0
  3  4  1  0
  3 24  1  0
  4  5  1  0
  4 19  2  0
  5  6  1  0
  5 25  1  0
  5 26  1  0
  6  7  1  0
  6 27  1  6
  6 18  1  0
  7  8  1  0
  7 28  1  0
  7 29  1  0
  8 30  1  0
  8 31  1  0
  8  9  1  0
  9 10  2  0
  9 18  1  0
 10 16  1  0
 10 11  1  0
 11 15  1  0
 11 12  2  0
 12 13  1  0
 13 14  2  0
 13 32  1  0
 14 15  1  0
 14 33  1  0
 16 17  1  0
 16 21  1  0
 17 18  2  0
 19 20  1  0
 19 34  1  0
 20 35  1  0
M  END
>  <i_m_ct_stereo_status>  (148) 
1

>  <s_m_source_file>  (148) 
/var/tmp/pbs.5076255.sched01/tmp6h9xbnrx/445q66801d.sdf

>  <i_m_source_file_index>  (148) 
15

>  <i_lp_mmshare_version>  (148) 
48012

>  <i_f3d_flags>  (148) 
0

>  <s_epik_input>  (148) 
W2NIXTFbY0hdW2NIXVtjSF1bY0hdYzFbQ0gyXVtDQEhdKFtDSDJdW0NIMl0yKWMoYzIzKVtuSF1uYzMtYzRuW2NIXVtjSF1zNA==

>  <s_epik_cmdline>  (148) 
J2VwaWtfcHl0aG9uJywgJy1waHQnLCAnMi4wJywgJy1waCcsICc3LjAnLCAnLXRuJywgJzgnLCAnLW1hJywgJzIwMCcsICctaW1hZScsICc8aW5maWxlLm1hZT4nLCAnLW9tYWUnLCAnPG91dGZpbGUubWFlPic=

>  <r_lp_tautomer_probability>  (148) 
0.5

>  <r_epik_Ionization_Penalty>  (148) 
3.79539e-05

>  <r_epik_Ionization_Penalty_Charging>  (148) 
0

>  <r_epik_Ionization_Penalty_Neutral>  (148) 
3.79539e-05

>  <r_epik_State_Penalty>  (148) 
0.41068

>  <r_epik_Charging_Adjusted_Penalty>  (148) 
0.41068

>  <i_epik_Tot_Q>  (148) 
0

>  <i_epik_Tot_abs_Q>  (148) 
0

>  <s_lp_Force_Field>  (148) 
OPLS3e

>  <r_lp_Energy>  (148) 
16.2861

>  <b_lp_Chiralities_Consistent>  (148) 
1

>  <s_lp_Variant>  (148) 
35:0-2

>  <s_i_glide_gridfile>  (148) 
pfpi4k_grid

>  <i_i_glide_lignum>  (148) 
15

>  <i_i_glide_rotatable_bonds>  (148) 
3

>  <r_i_docking_score>  (148) 
-3.16307

>  <r_i_glide_ligand_efficiency>  (148) 
-0.158153

>  <r_i_glide_ligand_efficiency_sa>  (148) 
-0.429294

>  <r_i_glide_ligand_efficiency_ln>  (148) 
-0.791611

>  <r_i_glide_gscore>  (148) 
-3.16307

>  <r_i_glide_lipo>  (148) 
-0.376152

>  <r_i_glide_hbond>  (148) 
-0.11284

>  <r_i_glide_metal>  (148) 
-0

>  <r_i_glide_rewards>  (148) 
-1.49062

>  <r_i_glide_evdw>  (148) 
-24.7494

>  <r_i_glide_ecoul>  (148) 
-3.8976

>  <r_i_glide_erotb>  (148) 
0.684929

>  <r_i_glide_esite>  (148) 
-0.0462758

>  <r_i_glide_emodel>  (148) 
-33.7834

>  <r_i_glide_energy>  (148) 
-28.647

>  <r_i_glide_einternal>  (148) 
1.44573

>  <r_i_glide_intrahb_reward>  (148) 
-0

>  <i_i_glide_confnum>  (148) 
1

>  <i_i_glide_posenum>  (148) 
12

>  <r_i_glide_eff_state_penalty>  (148) 
0

>  <ligand_id>  (148) 
35

>  <original_smiles>  (148) 
c1ccc(CC2CCc3c(-c4nccs4)n[nH]c32)cc1

>  <smiles>  (148) 
[H]c1nc(-c2c3c(nn2[H])C([H])(C([H])([H])c2c([H])c([H])c([H])c([H])c2[H])C([H])([H])C3([H])[H])sc1[H]

$$$$
35:1:1
     RDKit          3D

 35 38  0  0  1  0  0  0  0  0999 V2000
   -1.6619   -7.1116    4.0811 C   0  0  0  0  0  0  0  0  0  0  0  0
   -0.4696   -6.5967    4.6191 C   0  0  0  0  0  0  0  0  0  0  0  0
    0.7649   -7.1738    4.2738 C   0  0  0  0  0  0  0  0  0  0  0  0
    0.8014   -8.2730    3.3896 C   0  0  0  0  0  0  0  0  0  0  0  0
    2.1226   -8.9056    3.0107 C   0  0  0  0  0  0  0  0  0  0  0  0
    2.5451   -8.6093    1.5624 C   0  0  2  0  0  0  0  0  0  0  0  0
    3.9664   -9.1859    1.2617 C   0  0  0  0  0  0  0  0  0  0  0  0
    4.9988   -8.0352    1.4491 C   0  0  0  0  0  0  0  0  0  0  0  0
    4.1335   -6.8445    1.2331 C   0  0  0  0  0  0  0  0  0  0  0  0
    4.1737   -5.5097    0.9686 C   0  0  0  0  0  0  0  0  0  0  0  0
    5.2623   -4.5594    0.7814 C   0  0  0  0  0  0  0  0  0  0  0  0
    5.1048   -3.2523    0.5357 N   0  0  0  0  0  0  0  0  0  0  0  0
    6.3221   -2.5800    0.4143 C   0  0  0  0  0  0  0  0  0  0  0  0
    7.4146   -3.3935    0.5604 C   0  0  0  0  0  0  0  0  0  0  0  0
    6.9534   -5.0429    0.8829 S   0  0  0  0  0  0  0  0  0  0  0  0
    2.8436   -5.1295    0.8897 N   0  0  0  0  0  0  0  0  0  0  0  0
    1.9530   -6.1424    1.0858 N   0  0  0  0  0  0  0  0  0  0  0  0
    2.7792   -7.1558    1.3046 C   0  0  0  0  0  0  0  0  0  0  0  0
   -0.3959   -8.7898    2.8558 C   0  0  0  0  0  0  0  0  0  0  0  0
   -1.6293   -8.2091    3.1988 C   0  0  0  0  0  0  0  0  0  0  0  0
    2.5555   -4.1797    0.6970 H   0  0  0  0  0  0  0  0  0  0  0  0
   -2.6020   -6.6661    4.3579 H   0  0  0  0  0  0  0  0  0  0  0  0
   -0.4998   -5.7585    5.2979 H   0  0  0  0  0  0  0  0  0  0  0  0
    1.6794   -6.7735    4.6861 H   0  0  0  0  0  0  0  0  0  0  0  0
    2.9008   -8.5571    3.6916 H   0  0  0  0  0  0  0  0  0  0  0  0
    2.0499   -9.9841    3.1582 H   0  0  0  0  0  0  0  0  0  0  0  0
    1.8148   -9.0239    0.8745 H   0  0  0  0  0  0  0  0  0  0  0  0
    4.2083  -10.1010    1.8041 H   0  0  0  0  0  0  0  0  0  0  0  0
    3.9795   -9.4536    0.2021 H   0  0  0  0  0  0  0  0  0  0  0  0
    5.3818   -8.0526    2.4689 H   0  0  0  0  0  0  0  0  0  0  0  0
    5.8452   -8.1110    0.7729 H   0  0  0  0  0  0  0  0  0  0  0  0
    6.3142   -1.5144    0.2279 H   0  0  0  0  0  0  0  0  0  0  0  0
    8.4571   -3.1234    0.5203 H   0  0  0  0  0  0  0  0  0  0  0  0
   -0.3664   -9.6339    2.1811 H   0  0  0  0  0  0  0  0  0  0  0  0
   -2.5433   -8.6149    2.7919 H   0  0  0  0  0  0  0  0  0  0  0  0
  1 20  2  0
  1  2  1  0
  1 22  1  0
  2  3  2  0
  2 23  1  0
  3  4  1  0
  3 24  1  0
  4  5  1  0
  4 19  2  0
  5  6  1  0
  5 25  1  0
  5 26  1  0
  6  7  1  0
  6 27  1  6
  6 18  1  0
  7  8  1  0
  7 28  1  0
  7 29  1  0
  8 30  1  0
  8 31  1  0
  8  9  1  0
  9 10  2  0
  9 18  1  0
 10 16  1  0
 10 11  1  0
 11 15  1  0
 11 12  2  0
 12 13  1  0
 13 14  2  0
 13 32  1  0
 14 15  1  0
 14 33  1  0
 16 17  1  0
 16 21  1  0
 17 18  2  0
 19 20  1  0
 19 34  1  0
 20 35  1  0
M  END
>  <i_m_ct_stereo_status>  (149) 
1

>  <s_m_source_file>  (149) 
/var/tmp/pbs.5076255.sched01/tmp6h9xbnrx/445q66801d.sdf

>  <i_m_source_file_index>  (149) 
15

>  <i_lp_mmshare_version>  (149) 
48012

>  <i_f3d_flags>  (149) 
0

>  <s_epik_input>  (149) 
W2NIXTFbY0hdW2NIXVtjSF1bY0hdYzFbQ0gyXVtDQEhdKFtDSDJdW0NIMl0yKWMoYzIzKVtuSF1uYzMtYzRuW2NIXVtjSF1zNA==

>  <s_epik_cmdline>  (149) 
J2VwaWtfcHl0aG9uJywgJy1waHQnLCAnMi4wJywgJy1waCcsICc3LjAnLCAnLXRuJywgJzgnLCAnLW1hJywgJzIwMCcsICctaW1hZScsICc8aW5maWxlLm1hZT4nLCAnLW9tYWUnLCAnPG91dGZpbGUubWFlPic=

>  <r_lp_tautomer_probability>  (149) 
0.5

>  <r_epik_Ionization_Penalty>  (149) 
3.79539e-05

>  <r_epik_Ionization_Penalty_Charging>  (149) 
0

>  <r_epik_Ionization_Penalty_Neutral>  (149) 
3.79539e-05

>  <r_epik_State_Penalty>  (149) 
0.41068

>  <r_epik_Charging_Adjusted_Penalty>  (149) 
0.41068

>  <i_epik_Tot_Q>  (149) 
0

>  <i_epik_Tot_abs_Q>  (149) 
0

>  <s_lp_Force_Field>  (149) 
OPLS3e

>  <r_lp_Energy>  (149) 
16.2861

>  <b_lp_Chiralities_Consistent>  (149) 
1

>  <s_lp_Variant>  (149) 
35:0-2

>  <s_i_glide_gridfile>  (149) 
pfpi4k_grid

>  <i_i_glide_lignum>  (149) 
15

>  <i_i_glide_rotatable_bonds>  (149) 
3

>  <r_i_docking_score>  (149) 
-2.91892

>  <r_i_glide_ligand_efficiency>  (149) 
-0.145946

>  <r_i_glide_ligand_efficiency_sa>  (149) 
-0.396158

>  <r_i_glide_ligand_efficiency_ln>  (149) 
-0.730509

>  <r_i_glide_gscore>  (149) 
-2.91892

>  <r_i_glide_lipo>  (149) 
-0.607897

>  <r_i_glide_hbond>  (149) 
0

>  <r_i_glide_metal>  (149) 
-0

>  <r_i_glide_rewards>  (149) 
-1.49062

>  <r_i_glide_evdw>  (149) 
-24.7949

>  <r_i_glide_ecoul>  (149) 
-1.6186

>  <r_i_glide_erotb>  (149) 
0.684929

>  <r_i_glide_esite>  (149) 
-0.0228001

>  <r_i_glide_emodel>  (149) 
-31.9554

>  <r_i_glide_energy>  (149) 
-26.4135

>  <r_i_glide_einternal>  (149) 
0.113563

>  <r_i_glide_intrahb_reward>  (149) 
-0

>  <i_i_glide_confnum>  (149) 
1

>  <i_i_glide_posenum>  (149) 
15

>  <r_i_glide_eff_state_penalty>  (149) 
0

>  <ligand_id>  (149) 
35

>  <original_smiles>  (149) 
c1ccc(CC2CCc3c(-c4nccs4)n[nH]c32)cc1

>  <smiles>  (149) 
[H]c1nc(-c2c3c(nn2[H])C([H])(C([H])([H])c2c([H])c([H])c([H])c([H])c2[H])C([H])([H])C3([H])[H])sc1[H]

$$$$
35:1:2
     RDKit          3D

 35 38  0  0  1  0  0  0  0  0999 V2000
   -0.9966   -8.0001    2.4456 C   0  0  0  0  0  0  0  0  0  0  0  0
   -1.1905   -8.2548    3.8153 C   0  0  0  0  0  0  0  0  0  0  0  0
   -0.4051   -7.5885    4.7729 C   0  0  0  0  0  0  0  0  0  0  0  0
    0.5671   -6.6575    4.3620 C   0  0  0  0  0  0  0  0  0  0  0  0
    1.4211   -5.9425    5.3889 C   0  0  0  0  0  0  0  0  0  0  0  0
    0.8943   -4.5385    5.7389 C   0  0  2  0  0  0  0  0  0  0  0  0
    1.9970   -3.6914    6.4580 C   0  0  0  0  0  0  0  0  0  0  0  0
    1.7793   -3.8041    7.9992 C   0  0  0  0  0  0  0  0  0  0  0  0
    0.3372   -4.1675    8.0486 C   0  0  0  0  0  0  0  0  0  0  0  0
   -0.7358   -4.2390    8.8861 C   0  0  0  0  0  0  0  0  0  0  0  0
   -0.9268   -3.9441   10.2974 C   0  0  0  0  0  0  0  0  0  0  0  0
   -2.1135   -3.8570   10.9103 N   0  0  0  0  0  0  0  0  0  0  0  0
   -1.9855   -3.5727   12.2712 C   0  0  0  0  0  0  0  0  0  0  0  0
   -0.6865   -3.4552   12.6848 C   0  0  0  0  0  0  0  0  0  0  0  0
    0.4387   -3.6828   11.3767 S   0  0  0  0  0  0  0  0  0  0  0  0
   -1.7790   -4.6604    8.0785 N   0  0  0  0  0  0  0  0  0  0  0  0
   -1.4218   -4.8800    6.7872 N   0  0  0  0  0  0  0  0  0  0  0  0
   -0.1418   -4.5717    6.8100 C   0  0  0  0  0  0  0  0  0  0  0  0
    0.7620   -6.4032    2.9884 C   0  0  0  0  0  0  0  0  0  0  0  0
   -0.0195   -7.0762    2.0300 C   0  0  0  0  0  0  0  0  0  0  0  0
   -2.7190   -4.8290    8.4118 H   0  0  0  0  0  0  0  0  0  0  0  0
   -1.5836   -8.5332    1.7119 H   0  0  0  0  0  0  0  0  0  0  0  0
   -1.9200   -8.9844    4.1346 H   0  0  0  0  0  0  0  0  0  0  0  0
   -0.5373   -7.8032    5.8225 H   0  0  0  0  0  0  0  0  0  0  0  0
    1.5282   -6.5423    6.2956 H   0  0  0  0  0  0  0  0  0  0  0  0
    2.4260   -5.8596    4.9740 H   0  0  0  0  0  0  0  0  0  0  0  0
    0.5374   -4.0203    4.8465 H   0  0  0  0  0  0  0  0  0  0  0  0
    3.0178   -3.8983    6.1301 H   0  0  0  0  0  0  0  0  0  0  0  0
    1.7984   -2.6506    6.1926 H   0  0  0  0  0  0  0  0  0  0  0  0
    2.3889   -4.6150    8.3955 H   0  0  0  0  0  0  0  0  0  0  0  0
    2.0284   -2.8899    8.5358 H   0  0  0  0  0  0  0  0  0  0  0  0
   -2.8743   -3.4663   12.8839 H   0  0  0  0  0  0  0  0  0  0  0  0
   -0.3178   -3.2366   13.6736 H   0  0  0  0  0  0  0  0  0  0  0  0
    1.5245   -5.7044    2.6744 H   0  0  0  0  0  0  0  0  0  0  0  0
    0.1428   -6.9046    0.9770 H   0  0  0  0  0  0  0  0  0  0  0  0
  1 20  2  0
  1  2  1  0
  1 22  1  0
  2  3  2  0
  2 23  1  0
  3  4  1  0
  3 24  1  0
  4  5  1  0
  4 19  2  0
  5  6  1  0
  5 25  1  0
  5 26  1  0
  6  7  1  0
  6 27  1  6
  6 18  1  0
  7  8  1  0
  7 28  1  0
  7 29  1  0
  8 30  1  0
  8 31  1  0
  8  9  1  0
  9 10  2  0
  9 18  1  0
 10 16  1  0
 10 11  1  0
 11 15  1  0
 11 12  2  0
 12 13  1  0
 13 14  2  0
 13 32  1  0
 14 15  1  0
 14 33  1  0
 16 17  1  0
 16 21  1  0
 17 18  2  0
 19 20  1  0
 19 34  1  0
 20 35  1  0
M  END
>  <i_m_ct_stereo_status>  (150) 
1

>  <s_m_source_file>  (150) 
/var/tmp/pbs.5076255.sched01/tmp6h9xbnrx/445q66801d.sdf

>  <i_m_source_file_index>  (150) 
15

>  <i_lp_mmshare_version>  (150) 
48012

>  <i_f3d_flags>  (150) 
0

>  <s_epik_input>  (150) 
W2NIXTFbY0hdW2NIXVtjSF1bY0hdYzFbQ0gyXVtDQEhdKFtDSDJdW0NIMl0yKWMoYzIzKVtuSF1uYzMtYzRuW2NIXVtjSF1zNA==

>  <s_epik_cmdline>  (150) 
J2VwaWtfcHl0aG9uJywgJy1waHQnLCAnMi4wJywgJy1waCcsICc3LjAnLCAnLXRuJywgJzgnLCAnLW1hJywgJzIwMCcsICctaW1hZScsICc8aW5maWxlLm1hZT4nLCAnLW9tYWUnLCAnPG91dGZpbGUubWFlPic=

>  <r_lp_tautomer_probability>  (150) 
0.5

>  <r_epik_Ionization_Penalty>  (150) 
3.79539e-05

>  <r_epik_Ionization_Penalty_Charging>  (150) 
0

>  <r_epik_Ionization_Penalty_Neutral>  (150) 
3.79539e-05

>  <r_epik_State_Penalty>  (150) 
0.41068

>  <r_epik_Charging_Adjusted_Penalty>  (150) 
0.41068

>  <i_epik_Tot_Q>  (150) 
0

>  <i_epik_Tot_abs_Q>  (150) 
0

>  <s_lp_Force_Field>  (150) 
OPLS3e

>  <r_lp_Energy>  (150) 
16.2861

>  <b_lp_Chiralities_Consistent>  (150) 
1

>  <s_lp_Variant>  (150) 
35:0-2

>  <s_i_glide_gridfile>  (150) 
pfpi4k_grid

>  <i_i_glide_lignum>  (150) 
15

>  <i_i_glide_rotatable_bonds>  (150) 
3

>  <r_i_docking_score>  (150) 
-2.25005

>  <r_i_glide_ligand_efficiency>  (150) 
-0.112503

>  <r_i_glide_ligand_efficiency_sa>  (150) 
-0.305379

>  <r_i_glide_ligand_efficiency_ln>  (150) 
-0.563114

>  <r_i_glide_gscore>  (150) 
-2.25005

>  <r_i_glide_lipo>  (150) 
0

>  <r_i_glide_hbond>  (150) 
0

>  <r_i_glide_metal>  (150) 
-0

>  <r_i_glide_rewards>  (150) 
-1.49062

>  <r_i_glide_evdw>  (150) 
-20.2532

>  <r_i_glide_ecoul>  (150) 
-2.7733

>  <r_i_glide_erotb>  (150) 
0.684929

>  <r_i_glide_esite>  (150) 
-0.0157134

>  <r_i_glide_emodel>  (150) 
-26.3806

>  <r_i_glide_energy>  (150) 
-23.0265

>  <r_i_glide_einternal>  (150) 
1.75754

>  <r_i_glide_intrahb_reward>  (150) 
-0

>  <i_i_glide_confnum>  (150) 
1

>  <i_i_glide_posenum>  (150) 
18

>  <r_i_glide_eff_state_penalty>  (150) 
0

>  <ligand_id>  (150) 
35

>  <original_smiles>  (150) 
c1ccc(CC2CCc3c(-c4nccs4)n[nH]c32)cc1

>  <smiles>  (150) 
[H]c1nc(-c2c3c(nn2[H])C([H])(C([H])([H])c2c([H])c([H])c([H])c([H])c2[H])C([H])([H])C3([H])[H])sc1[H]

$$$$
36:0:0
     RDKit          3D

 33 34  0  0  1  0  0  0  0  0999 V2000
    4.8984   -6.1028    0.5463 C   0  0  0  0  0  0  0  0  0  0  0  0
    5.7221   -4.8334    0.2569 C   0  0  0  0  0  0  0  0  0  0  0  0
    7.1683   -5.0215    0.7689 C   0  0  0  0  0  0  0  0  0  0  0  0
    5.0409   -3.5179    0.7590 C   0  0  1  0  0  0  0  0  0  0  0  0
    4.9866   -3.5703    2.1800 O   0  0  0  0  0  0  0  0  0  0  0  0
    5.8334   -2.2733    0.3219 C   0  0  0  0  0  0  0  0  0  0  0  0
    6.4837   -1.5946    1.1157 O   0  0  0  0  0  0  0  0  0  0  0  0
    5.8336   -1.9245   -1.1644 C   0  0  0  0  0  0  0  0  0  0  0  0
    4.5141   -2.2701   -1.8462 C   0  0  0  0  0  0  0  0  0  0  0  0
    3.4958   -2.9362   -1.2431 C   0  0  0  0  0  0  0  0  0  0  0  0
    2.2601   -3.2690   -2.0023 C   0  0  0  0  0  0  0  0  0  0  0  0
    1.3050   -3.8666   -1.5227 O   0  0  0  0  0  0  0  0  0  0  0  0
    2.2176   -2.9315   -3.4978 C   0  0  0  0  0  0  0  0  0  0  0  0
    3.0409   -1.6800   -3.8163 C   0  0  0  0  0  0  0  0  0  0  0  0
    4.4703   -1.8262   -3.3010 C   0  0  0  0  0  0  0  0  0  0  0  0
    3.6163   -3.3554    0.1810 C   0  0  0  0  0  0  0  0  0  0  0  0
    2.6536   -3.6278    0.9109 O   0  0  0  0  0  0  0  0  0  0  0  0
    4.7472   -6.2466    1.6166 H   0  0  0  0  0  0  0  0  0  0  0  0
    5.4103   -6.9846    0.1684 H   0  0  0  0  0  0  0  0  0  0  0  0
    3.9201   -6.0800    0.0651 H   0  0  0  0  0  0  0  0  0  0  0  0
    5.7888   -4.7567   -0.8263 H   0  0  0  0  0  0  0  0  0  0  0  0
    7.2030   -5.0908    1.8564 H   0  0  0  0  0  0  0  0  0  0  0  0
    7.8259   -4.2062    0.4662 H   0  0  0  0  0  0  0  0  0  0  0  0
    7.5968   -5.9390    0.3749 H   0  0  0  0  0  0  0  0  0  0  0  0
    4.5703   -2.7790    2.4880 H   0  0  0  0  0  0  0  0  0  0  0  0
    5.9997   -0.8514   -1.2678 H   0  0  0  0  0  0  0  0  0  0  0  0
    6.6525   -2.4477   -1.6605 H   0  0  0  0  0  0  0  0  0  0  0  0
    2.6024   -3.7934   -4.0441 H   0  0  0  0  0  0  0  0  0  0  0  0
    1.1881   -2.7931   -3.8180 H   0  0  0  0  0  0  0  0  0  0  0  0
    3.0476   -1.4871   -4.8865 H   0  0  0  0  0  0  0  0  0  0  0  0
    2.5949   -0.7974   -3.3567 H   0  0  0  0  0  0  0  0  0  0  0  0
    4.9780   -0.8688   -3.4068 H   0  0  0  0  0  0  0  0  0  0  0  0
    5.0063   -2.5738   -3.8893 H   0  0  0  0  0  0  0  0  0  0  0  0
  1  2  1  0
  1 18  1  0
  1 19  1  0
  1 20  1  0
  2  3  1  0
  2  4  1  0
  2 21  1  0
  3 22  1  0
  3 23  1  0
  3 24  1  0
  4 16  1  0
  4  5  1  1
  4  6  1  0
  5 25  1  0
  6  7  2  0
  6  8  1  0
  8  9  1  0
  8 26  1  0
  8 27  1  0
  9 15  1  0
  9 10  2  0
 10 11  1  0
 10 16  1  0
 11 12  2  0
 11 13  1  0
 13 14  1  0
 13 28  1  0
 13 29  1  0
 14 15  1  0
 14 30  1  0
 14 31  1  0
 15 32  1  0
 15 33  1  0
 16 17  2  0
M  END
>  <i_m_ct_stereo_status>  (151) 
1

>  <s_m_source_file>  (151) 
/var/tmp/pbs.5076255.sched01/tmp6h9xbnrx/445q66801d.sdf

>  <i_m_source_file_index>  (151) 
16

>  <i_lp_mmshare_version>  (151) 
48012

>  <i_f3d_flags>  (151) 
0

>  <s_epik_input>  (151) 
W0NIM11bQ0hdKFtDSDNdKVtDQEBdKFtPSF0pKEMoPU8pW0NIMl0xKUMoPU8pQyg9QzEyKUMoPU8pW0NIMl1bQ0gyXVtDSDJdMg==

>  <s_epik_cmdline>  (151) 
J2VwaWtfcHl0aG9uJywgJy1waHQnLCAnMi4wJywgJy1waCcsICc3LjAnLCAnLXRuJywgJzgnLCAnLW1hJywgJzIwMCcsICctaW1hZScsICc8aW5maWxlLm1hZT4nLCAnLW9tYWUnLCAnPG91dGZpbGUubWFlPic=

>  <r_lp_tautomer_probability>  (151) 
1

>  <r_epik_Ionization_Penalty>  (151) 
2.71513e-06

>  <r_epik_Ionization_Penalty_Charging>  (151) 
0

>  <r_epik_Ionization_Penalty_Neutral>  (151) 
2.71513e-06

>  <r_epik_State_Penalty>  (151) 
-0

>  <r_epik_Charging_Adjusted_Penalty>  (151) 
0

>  <i_epik_Tot_Q>  (151) 
0

>  <i_epik_Tot_abs_Q>  (151) 
0

>  <s_lp_Force_Field>  (151) 
OPLS3e

>  <r_lp_Energy>  (151) 
29.0254

>  <b_lp_Chiralities_Consistent>  (151) 
1

>  <s_lp_Variant>  (151) 
36:0-1

>  <s_i_glide_gridfile>  (151) 
pfpi4k_grid

>  <i_i_glide_lignum>  (151) 
16

>  <i_i_glide_rotatable_bonds>  (151) 
2

>  <r_i_docking_score>  (151) 
-4.00779

>  <r_i_glide_ligand_efficiency>  (151) 
-0.235753

>  <r_i_glide_ligand_efficiency_sa>  (151) 
-0.606186

>  <r_i_glide_ligand_efficiency_ln>  (151) 
-1.04554

>  <r_i_glide_gscore>  (151) 
-4.00779

>  <r_i_glide_lipo>  (151) 
-0.839986

>  <r_i_glide_hbond>  (151) 
-0.0205531

>  <r_i_glide_metal>  (151) 
-0

>  <r_i_glide_rewards>  (151) 
-2.08235

>  <r_i_glide_evdw>  (151) 
-20.2897

>  <r_i_glide_ecoul>  (151) 
-0.336151

>  <r_i_glide_erotb>  (151) 
0

>  <r_i_glide_esite>  (151) 
0

>  <r_i_glide_emodel>  (151) 
-25.2657

>  <r_i_glide_energy>  (151) 
-20.6259

>  <r_i_glide_einternal>  (151) 
1.71041

>  <r_i_glide_intrahb_reward>  (151) 
-0

>  <i_i_glide_confnum>  (151) 
2

>  <i_i_glide_posenum>  (151) 
16

>  <r_i_glide_eff_state_penalty>  (151) 
0

>  <ligand_id>  (151) 
36

>  <original_smiles>  (151) 
CC(C)C1(O)C(=O)CC2=C(C(=O)CCC2)C1=O

>  <smiles>  (151) 
[H]OC1(C([H])(C([H])([H])[H])C([H])([H])[H])C(=O)C2=C(C([H])([H])C1=O)C([H])([H])C([H])([H])C([H])([H])C2=O

$$$$
36:0:1
     RDKit          3D

 33 34  0  0  1  0  0  0  0  0999 V2000
    4.9010   -6.1105    0.5450 C   0  0  0  0  0  0  0  0  0  0  0  0
    5.7235   -4.8390    0.2465 C   0  0  0  0  0  0  0  0  0  0  0  0
    7.1717   -5.0298    0.7483 C   0  0  0  0  0  0  0  0  0  0  0  0
    5.0503   -3.5246    0.7493 C   0  0  1  0  0  0  0  0  0  0  0  0
    4.9990   -3.5859    2.1712 O   0  0  0  0  0  0  0  0  0  0  0  0
    5.8451   -2.2789    0.3082 C   0  0  0  0  0  0  0  0  0  0  0  0
    6.5167   -1.6112    1.0885 O   0  0  0  0  0  0  0  0  0  0  0  0
    5.8351   -1.9311   -1.1821 C   0  0  0  0  0  0  0  0  0  0  0  0
    4.5100   -2.2736   -1.8531 C   0  0  0  0  0  0  0  0  0  0  0  0
    3.4938   -2.9349   -1.2482 C   0  0  0  0  0  0  0  0  0  0  0  0
    2.2621   -3.2645   -2.0043 C   0  0  0  0  0  0  0  0  0  0  0  0
    1.2994   -3.8532   -1.5214 O   0  0  0  0  0  0  0  0  0  0  0  0
    2.2127   -2.9340   -3.5001 C   0  0  0  0  0  0  0  0  0  0  0  0
    3.0377   -1.6842   -3.8215 C   0  0  0  0  0  0  0  0  0  0  0  0
    4.4666   -1.8348   -3.3105 C   0  0  0  0  0  0  0  0  0  0  0  0
    3.6237   -3.3631    0.1795 C   0  0  0  0  0  0  0  0  0  0  0  0
    2.6696   -3.6623    0.9077 O   0  0  0  0  0  0  0  0  0  0  0  0
    4.7587   -6.2613    1.6159 H   0  0  0  0  0  0  0  0  0  0  0  0
    5.4095   -6.9930    0.1635 H   0  0  0  0  0  0  0  0  0  0  0  0
    3.9195   -6.0900    0.0687 H   0  0  0  0  0  0  0  0  0  0  0  0
    5.7834   -4.7692   -0.8391 H   0  0  0  0  0  0  0  0  0  0  0  0
    7.2171   -5.0977    1.8358 H   0  0  0  0  0  0  0  0  0  0  0  0
    7.8290   -4.2172    0.4386 H   0  0  0  0  0  0  0  0  0  0  0  0
    7.5993   -5.9511    0.3532 H   0  0  0  0  0  0  0  0  0  0  0  0
    4.4872   -4.3427    2.4114 H   0  0  0  0  0  0  0  0  0  0  0  0
    6.0054   -0.8602   -1.2801 H   0  0  0  0  0  0  0  0  0  0  0  0
    6.6510   -2.4606   -1.6705 H   0  0  0  0  0  0  0  0  0  0  0  0
    2.5945   -3.7968   -4.0450 H   0  0  0  0  0  0  0  0  0  0  0  0
    1.1829   -2.7952   -3.8191 H   0  0  0  0  0  0  0  0  0  0  0  0
    3.0424   -1.4934   -4.8904 H   0  0  0  0  0  0  0  0  0  0  0  0
    2.5949   -0.8011   -3.3630 H   0  0  0  0  0  0  0  0  0  0  0  0
    4.9790   -0.8789   -3.4188 H   0  0  0  0  0  0  0  0  0  0  0  0
    5.0003   -2.5844   -3.8986 H   0  0  0  0  0  0  0  0  0  0  0  0
  1  2  1  0
  1 18  1  0
  1 19  1  0
  1 20  1  0
  2  3  1  0
  2  4  1  0
  2 21  1  0
  3 22  1  0
  3 23  1  0
  3 24  1  0
  4 16  1  0
  4  5  1  1
  4  6  1  0
  5 25  1  0
  6  7  2  0
  6  8  1  0
  8  9  1  0
  8 26  1  0
  8 27  1  0
  9 15  1  0
  9 10  2  0
 10 11  1  0
 10 16  1  0
 11 12  2  0
 11 13  1  0
 13 14  1  0
 13 28  1  0
 13 29  1  0
 14 15  1  0
 14 30  1  0
 14 31  1  0
 15 32  1  0
 15 33  1  0
 16 17  2  0
M  END
>  <i_m_ct_stereo_status>  (152) 
1

>  <s_m_source_file>  (152) 
/var/tmp/pbs.5076255.sched01/tmp6h9xbnrx/445q66801d.sdf

>  <i_m_source_file_index>  (152) 
16

>  <i_lp_mmshare_version>  (152) 
48012

>  <i_f3d_flags>  (152) 
0

>  <s_epik_input>  (152) 
W0NIM11bQ0hdKFtDSDNdKVtDQEBdKFtPSF0pKEMoPU8pW0NIMl0xKUMoPU8pQyg9QzEyKUMoPU8pW0NIMl1bQ0gyXVtDSDJdMg==

>  <s_epik_cmdline>  (152) 
J2VwaWtfcHl0aG9uJywgJy1waHQnLCAnMi4wJywgJy1waCcsICc3LjAnLCAnLXRuJywgJzgnLCAnLW1hJywgJzIwMCcsICctaW1hZScsICc8aW5maWxlLm1hZT4nLCAnLW9tYWUnLCAnPG91dGZpbGUubWFlPic=

>  <r_lp_tautomer_probability>  (152) 
1

>  <r_epik_Ionization_Penalty>  (152) 
2.71513e-06

>  <r_epik_Ionization_Penalty_Charging>  (152) 
0

>  <r_epik_Ionization_Penalty_Neutral>  (152) 
2.71513e-06

>  <r_epik_State_Penalty>  (152) 
-0

>  <r_epik_Charging_Adjusted_Penalty>  (152) 
0

>  <i_epik_Tot_Q>  (152) 
0

>  <i_epik_Tot_abs_Q>  (152) 
0

>  <s_lp_Force_Field>  (152) 
OPLS3e

>  <r_lp_Energy>  (152) 
29.0254

>  <b_lp_Chiralities_Consistent>  (152) 
1

>  <s_lp_Variant>  (152) 
36:0-1

>  <s_i_glide_gridfile>  (152) 
pfpi4k_grid

>  <i_i_glide_lignum>  (152) 
16

>  <i_i_glide_rotatable_bonds>  (152) 
2

>  <r_i_docking_score>  (152) 
-4.00123

>  <r_i_glide_ligand_efficiency>  (152) 
-0.235367

>  <r_i_glide_ligand_efficiency_sa>  (152) 
-0.605194

>  <r_i_glide_ligand_efficiency_ln>  (152) 
-1.04383

>  <r_i_glide_gscore>  (152) 
-4.00123

>  <r_i_glide_lipo>  (152) 
-0.840631

>  <r_i_glide_hbond>  (152) 
-0.0220086

>  <r_i_glide_metal>  (152) 
-0

>  <r_i_glide_rewards>  (152) 
-2.07697

>  <r_i_glide_evdw>  (152) 
-20.268

>  <r_i_glide_ecoul>  (152) 
-0.321488

>  <r_i_glide_erotb>  (152) 
0

>  <r_i_glide_esite>  (152) 
0

>  <r_i_glide_emodel>  (152) 
-26.0406

>  <r_i_glide_energy>  (152) 
-20.5895

>  <r_i_glide_einternal>  (152) 
0.0165731

>  <r_i_glide_intrahb_reward>  (152) 
-0

>  <i_i_glide_confnum>  (152) 
2

>  <i_i_glide_posenum>  (152) 
20

>  <r_i_glide_eff_state_penalty>  (152) 
0

>  <ligand_id>  (152) 
36

>  <original_smiles>  (152) 
CC(C)C1(O)C(=O)CC2=C(C(=O)CCC2)C1=O

>  <smiles>  (152) 
[H]OC1(C([H])(C([H])([H])[H])C([H])([H])[H])C(=O)C2=C(C([H])([H])C1=O)C([H])([H])C([H])([H])C([H])([H])C2=O

$$$$
36:0:2
     RDKit          3D

 33 34  0  0  1  0  0  0  0  0999 V2000
    5.9770   -4.2549   -0.2808 C   0  0  0  0  0  0  0  0  0  0  0  0
    5.5227   -3.6745    1.0903 C   0  0  0  0  0  0  0  0  0  0  0  0
    4.9022   -4.8304    1.9025 C   0  0  0  0  0  0  0  0  0  0  0  0
    4.6197   -2.3917    1.0691 C   0  0  1  0  0  0  0  0  0  0  0  0
    4.3403   -2.0791    2.4288 O   0  0  0  0  0  0  0  0  0  0  0  0
    5.3272   -1.1743    0.4316 C   0  0  0  0  0  0  0  0  0  0  0  0
    5.7800   -0.2548    1.1186 O   0  0  0  0  0  0  0  0  0  0  0  0
    5.4977   -1.1337   -1.0899 C   0  0  0  0  0  0  0  0  0  0  0  0
    4.3712   -1.8884   -1.8029 C   0  0  0  0  0  0  0  0  0  0  0  0
    3.3520   -2.5353   -1.1863 C   0  0  0  0  0  0  0  0  0  0  0  0
    2.3280   -3.2520   -1.9935 C   0  0  0  0  0  0  0  0  0  0  0  0
    1.3661   -3.8617   -1.5218 O   0  0  0  0  0  0  0  0  0  0  0  0
    2.5246   -3.3452   -3.5032 C   0  0  0  0  0  0  0  0  0  0  0  0
    3.2455   -2.1266   -4.0576 C   0  0  0  0  0  0  0  0  0  0  0  0
    4.5619   -1.8921   -3.3133 C   0  0  0  0  0  0  0  0  0  0  0  0
    3.2967   -2.5934    0.3037 C   0  0  0  0  0  0  0  0  0  0  0  0
    2.2810   -2.8756    0.9674 O   0  0  0  0  0  0  0  0  0  0  0  0
    5.1136   -4.5533   -0.8889 H   0  0  0  0  0  0  0  0  0  0  0  0
    6.5475   -5.1793   -0.1224 H   0  0  0  0  0  0  0  0  0  0  0  0
    6.6053   -3.5800   -0.8389 H   0  0  0  0  0  0  0  0  0  0  0  0
    6.4274   -3.3741    1.6162 H   0  0  0  0  0  0  0  0  0  0  0  0
    3.9606   -5.1604    1.4694 H   0  0  0  0  0  0  0  0  0  0  0  0
    4.7316   -4.5710    2.9464 H   0  0  0  0  0  0  0  0  0  0  0  0
    5.5791   -5.6828    1.8951 H   0  0  0  0  0  0  0  0  0  0  0  0
    3.8412   -2.7790    2.8123 H   0  0  0  0  0  0  0  0  0  0  0  0
    5.4762   -0.1080   -1.4477 H   0  0  0  0  0  0  0  0  0  0  0  0
    6.4657   -1.5460   -1.3453 H   0  0  0  0  0  0  0  0  0  0  0  0
    3.0985   -4.2364   -3.7381 H   0  0  0  0  0  0  0  0  0  0  0  0
    1.5631   -3.4193   -3.9987 H   0  0  0  0  0  0  0  0  0  0  0  0
    3.4123   -2.2574   -5.1151 H   0  0  0  0  0  0  0  0  0  0  0  0
    2.6005   -1.2515   -3.9396 H   0  0  0  0  0  0  0  0  0  0  0  0
    4.9821   -0.9457   -3.6366 H   0  0  0  0  0  0  0  0  0  0  0  0
    5.2693   -2.6941   -3.5421 H   0  0  0  0  0  0  0  0  0  0  0  0
  1  2  1  0
  1 18  1  0
  1 19  1  0
  1 20  1  0
  2  3  1  0
  2  4  1  0
  2 21  1  0
  3 22  1  0
  3 23  1  0
  3 24  1  0
  4 16  1  0
  4  5  1  1
  4  6  1  0
  5 25  1  0
  6  7  2  0
  6  8  1  0
  8  9  1  0
  8 26  1  0
  8 27  1  0
  9 15  1  0
  9 10  2  0
 10 11  1  0
 10 16  1  0
 11 12  2  0
 11 13  1  0
 13 14  1  0
 13 28  1  0
 13 29  1  0
 14 15  1  0
 14 30  1  0
 14 31  1  0
 15 32  1  0
 15 33  1  0
 16 17  2  0
M  END
>  <i_m_ct_stereo_status>  (153) 
1

>  <s_m_source_file>  (153) 
/var/tmp/pbs.5076255.sched01/tmp6h9xbnrx/445q66801d.sdf

>  <i_m_source_file_index>  (153) 
16

>  <i_lp_mmshare_version>  (153) 
48012

>  <i_f3d_flags>  (153) 
0

>  <s_epik_input>  (153) 
W0NIM11bQ0hdKFtDSDNdKVtDQEBdKFtPSF0pKEMoPU8pW0NIMl0xKUMoPU8pQyg9QzEyKUMoPU8pW0NIMl1bQ0gyXVtDSDJdMg==

>  <s_epik_cmdline>  (153) 
J2VwaWtfcHl0aG9uJywgJy1waHQnLCAnMi4wJywgJy1waCcsICc3LjAnLCAnLXRuJywgJzgnLCAnLW1hJywgJzIwMCcsICctaW1hZScsICc8aW5maWxlLm1hZT4nLCAnLW9tYWUnLCAnPG91dGZpbGUubWFlPic=

>  <r_lp_tautomer_probability>  (153) 
1

>  <r_epik_Ionization_Penalty>  (153) 
2.71513e-06

>  <r_epik_Ionization_Penalty_Charging>  (153) 
0

>  <r_epik_Ionization_Penalty_Neutral>  (153) 
2.71513e-06

>  <r_epik_State_Penalty>  (153) 
-0

>  <r_epik_Charging_Adjusted_Penalty>  (153) 
0

>  <i_epik_Tot_Q>  (153) 
0

>  <i_epik_Tot_abs_Q>  (153) 
0

>  <s_lp_Force_Field>  (153) 
OPLS3e

>  <r_lp_Energy>  (153) 
29.0254

>  <b_lp_Chiralities_Consistent>  (153) 
1

>  <s_lp_Variant>  (153) 
36:0-1

>  <s_i_glide_gridfile>  (153) 
pfpi4k_grid

>  <i_i_glide_lignum>  (153) 
16

>  <i_i_glide_rotatable_bonds>  (153) 
2

>  <r_i_docking_score>  (153) 
-3.58493

>  <r_i_glide_ligand_efficiency>  (153) 
-0.210878

>  <r_i_glide_ligand_efficiency_sa>  (153) 
-0.542227

>  <r_i_glide_ligand_efficiency_ln>  (153) 
-0.935228

>  <r_i_glide_gscore>  (153) 
-3.58493

>  <r_i_glide_lipo>  (153) 
-0.45188

>  <r_i_glide_hbond>  (153) 
-0.216236

>  <r_i_glide_metal>  (153) 
-0

>  <r_i_glide_rewards>  (153) 
-2.11116

>  <r_i_glide_evdw>  (153) 
-16.793

>  <r_i_glide_ecoul>  (153) 
0.463516

>  <r_i_glide_erotb>  (153) 
0

>  <r_i_glide_esite>  (153) 
-0.0355327

>  <r_i_glide_emodel>  (153) 
-20.5736

>  <r_i_glide_energy>  (153) 
-16.3295

>  <r_i_glide_einternal>  (153) 
0.523844

>  <r_i_glide_intrahb_reward>  (153) 
-0

>  <i_i_glide_confnum>  (153) 
1

>  <i_i_glide_posenum>  (153) 
7

>  <r_i_glide_eff_state_penalty>  (153) 
0

>  <ligand_id>  (153) 
36

>  <original_smiles>  (153) 
CC(C)C1(O)C(=O)CC2=C(C(=O)CCC2)C1=O

>  <smiles>  (153) 
[H]OC1(C([H])(C([H])([H])[H])C([H])([H])[H])C(=O)C2=C(C([H])([H])C1=O)C([H])([H])C([H])([H])C([H])([H])C2=O

$$$$
38:0:0
     RDKit          3D

 54 57  0  0  1  0  0  0  0  0999 V2000
    4.0160   -0.2811    0.8877 C   0  0  0  0  0  0  0  0  0  0  0  0
    4.0762   -1.5415    0.4343 C   0  0  0  0  0  0  0  0  0  0  0  0
    3.7153   -2.7366    1.2098 C   0  0  0  0  0  0  0  0  0  0  0  0
    3.3441   -2.7829    2.3847 O   0  0  0  0  0  0  0  0  0  0  0  0
    3.8739   -3.9705    0.3082 C   0  0  1  0  0  0  0  0  0  0  0  0
    3.5610   -3.3110   -1.0514 C   0  0  0  0  0  0  0  0  0  0  0  0
    4.3510   -2.0035   -0.9838 C   0  0  2  0  0  0  0  0  0  0  0  0
    5.8353   -2.3671   -1.2096 C   0  0  0  0  0  0  0  0  0  0  0  0
    6.3876   -3.3821   -0.1742 C   0  0  1  0  0  0  0  0  0  0  0  0
    6.9631   -2.6426    0.8788 O   0  0  0  0  0  0  0  0  0  0  0  0
    5.3518   -4.4937    0.2705 C   0  0  1  0  0  0  0  0  0  0  0  0
    5.7653   -5.4663    1.4635 C   0  0  2  0  0  0  0  0  0  0  0  0
    5.8156   -4.7507    2.8473 C   0  0  0  0  0  0  0  0  0  0  0  0
    7.1748   -6.0849    1.1379 C   0  0  1  0  0  0  0  0  0  0  0  0
    8.2566   -5.1954    1.3625 O   0  0  0  0  0  0  0  0  0  0  0  0
    7.5320   -7.3985    1.8547 C   0  0  0  0  0  0  0  0  0  0  0  0
    6.4233   -8.4488    1.7445 C   0  0  0  0  0  0  0  0  0  0  0  0
    5.0709   -7.9362    2.2813 C   0  0  0  0  0  0  0  0  0  0  0  0
    4.0394   -9.0583    2.0200 C   0  0  0  0  0  0  0  0  0  0  0  0
    5.1668   -7.7546    3.8167 C   0  0  0  0  0  0  0  0  0  0  0  0
    4.6974   -6.6369    1.4743 C   0  0  1  0  0  0  0  0  0  0  0  0
    3.2187   -6.1684    1.5927 C   0  0  1  0  0  0  0  0  0  0  0  0
    2.7836   -5.7695    2.8737 O   0  0  0  0  0  0  0  0  0  0  0  0
    2.8494   -5.1021    0.5544 C   0  0  0  0  0  0  0  0  0  0  0  0
    4.2319    0.5545    0.2481 H   0  0  0  0  0  0  0  0  0  0  0  0
    3.7318   -0.0545    1.9003 H   0  0  0  0  0  0  0  0  0  0  0  0
    3.8375   -3.9322   -1.9029 H   0  0  0  0  0  0  0  0  0  0  0  0
    2.4946   -3.0894   -1.1361 H   0  0  0  0  0  0  0  0  0  0  0  0
    3.9933   -1.2757   -1.7152 H   0  0  0  0  0  0  0  0  0  0  0  0
    5.9252   -2.8053   -2.2080 H   0  0  0  0  0  0  0  0  0  0  0  0
    6.4442   -1.4635   -1.2182 H   0  0  0  0  0  0  0  0  0  0  0  0
    7.2257   -3.8778   -0.6580 H   0  0  0  0  0  0  0  0  0  0  0  0
    6.2725   -2.1665    1.3225 H   0  0  0  0  0  0  0  0  0  0  0  0
    5.3425   -5.1472   -0.6045 H   0  0  0  0  0  0  0  0  0  0  0  0
    6.6732   -5.0812    3.4324 H   0  0  0  0  0  0  0  0  0  0  0  0
    4.9547   -4.9353    3.4717 H   0  0  0  0  0  0  0  0  0  0  0  0
    5.9006   -3.6719    2.7770 H   0  0  0  0  0  0  0  0  0  0  0  0
    7.1957   -6.3021    0.0782 H   0  0  0  0  0  0  0  0  0  0  0  0
    8.0281   -4.3372    1.0230 H   0  0  0  0  0  0  0  0  0  0  0  0
    8.4423   -7.8081    1.4179 H   0  0  0  0  0  0  0  0  0  0  0  0
    7.7724   -7.2080    2.8978 H   0  0  0  0  0  0  0  0  0  0  0  0
    6.3118   -8.7437    0.7011 H   0  0  0  0  0  0  0  0  0  0  0  0
    6.7248   -9.3567    2.2695 H   0  0  0  0  0  0  0  0  0  0  0  0
    3.0863   -8.8465    2.5047 H   0  0  0  0  0  0  0  0  0  0  0  0
    4.3886  -10.0111    2.4193 H   0  0  0  0  0  0  0  0  0  0  0  0
    3.8570   -9.2035    0.9536 H   0  0  0  0  0  0  0  0  0  0  0  0
    4.2283   -7.4083    4.2459 H   0  0  0  0  0  0  0  0  0  0  0  0
    5.9439   -7.0541    4.1108 H   0  0  0  0  0  0  0  0  0  0  0  0
    5.4168   -8.7033    4.2958 H   0  0  0  0  0  0  0  0  0  0  0  0
    4.7219   -6.9999    0.4466 H   0  0  0  0  0  0  0  0  0  0  0  0
    2.5749   -7.0157    1.3534 H   0  0  0  0  0  0  0  0  0  0  0  0
    3.3276   -5.0581    3.1813 H   0  0  0  0  0  0  0  0  0  0  0  0
    1.8736   -4.6897    0.8163 H   0  0  0  0  0  0  0  0  0  0  0  0
    2.6965   -5.6284   -0.3863 H   0  0  0  0  0  0  0  0  0  0  0  0
  1  2  2  0
  1 25  1  0
  1 26  1  0
  2  7  1  0
  2  3  1  0
  3  4  2  0
  3  5  1  0
  5 11  1  0
  5 24  1  1
  5  6  1  0
  6  7  1  0
  6 27  1  0
  6 28  1  0
  7  8  1  0
  7 29  1  6
  8  9  1  0
  8 30  1  0
  8 31  1  0
  9 10  1  0
  9 11  1  0
  9 32  1  6
 10 33  1  0
 11 12  1  0
 11 34  1  6
 12 21  1  0
 12 13  1  1
 12 14  1  0
 13 35  1  0
 13 36  1  0
 13 37  1  0
 14 15  1  0
 14 16  1  0
 14 38  1  6
 15 39  1  0
 16 17  1  0
 16 40  1  0
 16 41  1  0
 17 18  1  0
 17 42  1  0
 17 43  1  0
 18 19  1  0
 18 20  1  0
 18 21  1  0
 19 44  1  0
 19 45  1  0
 19 46  1  0
 20 47  1  0
 20 48  1  0
 20 49  1  0
 21 22  1  0
 21 50  1  6
 22 23  1  0
 22 24  1  0
 22 51  1  6
 23 52  1  0
 24 53  1  0
 24 54  1  0
M  END
>  <i_m_ct_stereo_status>  (154) 
1

>  <s_m_source_file>  (154) 
/var/tmp/pbs.5076255.sched01/tmp6h9xbnrx/445q66801d.sdf

>  <i_m_source_file_index>  (154) 
18

>  <i_lp_mmshare_version>  (154) 
48012

>  <i_f3d_flags>  (154) 
0

>  <s_epik_input>  (154) 
Tz1DMUMoPVtDSDJdKVtDQEhdKFtDSDJdMilbQ0gyXVtDQEBIXShbT0hdKVtDQEhdKFtDQEBdMTIzKVtDQEBdNChbQ0gzXSlbQ0BIXShbQ0BASF0oW09IXSlbQ0gyXTMpQyhbQ0gzXSkoW0NIM10pW0NIMl1bQ0gyXVtDQEBIXTRbT0hd

>  <s_epik_cmdline>  (154) 
J2VwaWtfcHl0aG9uJywgJy1waHQnLCAnMi4wJywgJy1waCcsICc3LjAnLCAnLXRuJywgJzgnLCAnLW1hJywgJzIwMCcsICctaW1hZScsICc8aW5maWxlLm1hZT4nLCAnLW9tYWUnLCAnPG91dGZpbGUubWFlPic=

>  <r_lp_tautomer_probability>  (154) 
1

>  <r_epik_Ionization_Penalty>  (154) 
1.45311e-06

>  <r_epik_Ionization_Penalty_Charging>  (154) 
0

>  <r_epik_Ionization_Penalty_Neutral>  (154) 
1.45311e-06

>  <r_epik_State_Penalty>  (154) 
-0

>  <r_epik_Charging_Adjusted_Penalty>  (154) 
0

>  <i_epik_Tot_Q>  (154) 
0

>  <i_epik_Tot_abs_Q>  (154) 
0

>  <s_lp_Force_Field>  (154) 
OPLS3e

>  <r_lp_Energy>  (154) 
50.5498

>  <b_lp_Chiralities_Consistent>  (154) 
1

>  <s_lp_Variant>  (154) 
38:0-1

>  <s_i_glide_gridfile>  (154) 
pfpi4k_grid

>  <i_i_glide_lignum>  (154) 
18

>  <i_i_glide_rotatable_bonds>  (154) 
3

>  <r_i_docking_score>  (154) 
-3.68366

>  <r_i_glide_ligand_efficiency>  (154) 
-0.153486

>  <r_i_glide_ligand_efficiency_sa>  (154) 
-0.44273

>  <r_i_glide_ligand_efficiency_ln>  (154) 
-0.88167

>  <r_i_glide_gscore>  (154) 
-3.68366

>  <r_i_glide_lipo>  (154) 
-0.678431

>  <r_i_glide_hbond>  (154) 
0

>  <r_i_glide_metal>  (154) 
-0

>  <r_i_glide_rewards>  (154) 
-1.62875

>  <r_i_glide_evdw>  (154) 
-26.7953

>  <r_i_glide_ecoul>  (154) 
-0.209813

>  <r_i_glide_erotb>  (154) 
0

>  <r_i_glide_esite>  (154) 
-0.00524739

>  <r_i_glide_emodel>  (154) 
-38.3333

>  <r_i_glide_energy>  (154) 
-27.0051

>  <r_i_glide_einternal>  (154) 
0.408093

>  <r_i_glide_intrahb_reward>  (154) 
-0.5

>  <i_i_glide_confnum>  (154) 
1

>  <i_i_glide_posenum>  (154) 
2

>  <r_i_glide_eff_state_penalty>  (154) 
0

>  <ligand_id>  (154) 
38

>  <original_smiles>  (154) 
C=C1C(=O)C23CC1CC(O)C2C1(C)C(O)CCC(C)(C)C1C(O)C3

>  <smiles>  (154) 
[H]OC1([H])C([H])([H])C2([H])C(=C([H])[H])C(=O)C3(C([H])([H])C([H])(O[H])C4([H])C(C([H])([H])[H])(C([H])([H])[H])C([H])([H])C([H])([H])C([H])(O[H])C4(C([H])([H])[H])C13[H])C2([H])[H]

$$$$
38:0:1
     RDKit          3D

 54 57  0  0  1  0  0  0  0  0999 V2000
    4.0140   -0.2784    0.8846 C   0  0  0  0  0  0  0  0  0  0  0  0
    4.0823   -1.5369    0.4257 C   0  0  0  0  0  0  0  0  0  0  0  0
    3.7185   -2.7266    1.2047 C   0  0  0  0  0  0  0  0  0  0  0  0
    3.3376   -2.7562    2.3727 O   0  0  0  0  0  0  0  0  0  0  0  0
    3.8815   -3.9646    0.3084 C   0  0  1  0  0  0  0  0  0  0  0  0
    3.5752   -3.3054   -1.0558 C   0  0  0  0  0  0  0  0  0  0  0  0
    4.3680   -2.0003   -0.9874 C   0  0  2  0  0  0  0  0  0  0  0  0
    5.8519   -2.3654   -1.2086 C   0  0  0  0  0  0  0  0  0  0  0  0
    6.4021   -3.3663   -0.1574 C   0  0  1  0  0  0  0  0  0  0  0  0
    6.9415   -2.5822    0.8856 O   0  0  0  0  0  0  0  0  0  0  0  0
    5.3659   -4.4829    0.2776 C   0  0  1  0  0  0  0  0  0  0  0  0
    5.7773   -5.4652    1.4628 C   0  0  2  0  0  0  0  0  0  0  0  0
    5.8173   -4.7521    2.8466 C   0  0  0  0  0  0  0  0  0  0  0  0
    7.1896   -6.0914    1.1377 C   0  0  1  0  0  0  0  0  0  0  0  0
    8.2867   -5.2249    1.3659 O   0  0  0  0  0  0  0  0  0  0  0  0
    7.5379   -7.4077    1.8562 C   0  0  0  0  0  0  0  0  0  0  0  0
    6.4272   -8.4526    1.7353 C   0  0  0  0  0  0  0  0  0  0  0  0
    5.0752   -7.9389    2.2697 C   0  0  0  0  0  0  0  0  0  0  0  0
    4.0445   -9.0609    2.0019 C   0  0  0  0  0  0  0  0  0  0  0  0
    5.1704   -7.7578    3.8072 C   0  0  0  0  0  0  0  0  0  0  0  0
    4.7090   -6.6360    1.4623 C   0  0  1  0  0  0  0  0  0  0  0  0
    3.2251   -6.1736    1.5718 C   0  0  1  0  0  0  0  0  0  0  0  0
    2.7884   -5.8097    2.8593 O   0  0  0  0  0  0  0  0  0  0  0  0
    2.8551   -5.0958    0.5456 C   0  0  0  0  0  0  0  0  0  0  0  0
    4.2241    0.5607    0.2452 H   0  0  0  0  0  0  0  0  0  0  0  0
    3.7252   -0.0636    1.8998 H   0  0  0  0  0  0  0  0  0  0  0  0
    3.8465   -3.9268   -1.9101 H   0  0  0  0  0  0  0  0  0  0  0  0
    2.5094   -3.0805   -1.1470 H   0  0  0  0  0  0  0  0  0  0  0  0
    4.0172   -1.2767   -1.7248 H   0  0  0  0  0  0  0  0  0  0  0  0
    5.9563   -2.8057   -2.2027 H   0  0  0  0  0  0  0  0  0  0  0  0
    6.4571   -1.4598   -1.2161 H   0  0  0  0  0  0  0  0  0  0  0  0
    7.2564   -3.8612   -0.6140 H   0  0  0  0  0  0  0  0  0  0  0  0
    6.2311   -2.1514    1.3396 H   0  0  0  0  0  0  0  0  0  0  0  0
    5.3618   -5.1323   -0.6009 H   0  0  0  0  0  0  0  0  0  0  0  0
    6.6628   -5.0798    3.4470 H   0  0  0  0  0  0  0  0  0  0  0  0
    4.9392   -4.9315    3.4553 H   0  0  0  0  0  0  0  0  0  0  0  0
    5.8974   -3.6728    2.7744 H   0  0  0  0  0  0  0  0  0  0  0  0
    7.2144   -6.3016    0.0780 H   0  0  0  0  0  0  0  0  0  0  0  0
    8.3907   -5.1091    2.2995 H   0  0  0  0  0  0  0  0  0  0  0  0
    8.4492   -7.8196    1.4211 H   0  0  0  0  0  0  0  0  0  0  0  0
    7.7747   -7.2297    2.9041 H   0  0  0  0  0  0  0  0  0  0  0  0
    6.3204   -8.7393    0.6891 H   0  0  0  0  0  0  0  0  0  0  0  0
    6.7253   -9.3647    2.2533 H   0  0  0  0  0  0  0  0  0  0  0  0
    3.0862   -8.8578    2.4791 H   0  0  0  0  0  0  0  0  0  0  0  0
    4.3919  -10.0161    2.3963 H   0  0  0  0  0  0  0  0  0  0  0  0
    3.8682   -9.2039    0.9342 H   0  0  0  0  0  0  0  0  0  0  0  0
    4.2375   -7.4138    4.2488 H   0  0  0  0  0  0  0  0  0  0  0  0
    5.9452   -7.0569    4.1037 H   0  0  0  0  0  0  0  0  0  0  0  0
    5.4239   -8.7045    4.2877 H   0  0  0  0  0  0  0  0  0  0  0  0
    4.7370   -6.9949    0.4346 H   0  0  0  0  0  0  0  0  0  0  0  0
    2.5852   -7.0180    1.3195 H   0  0  0  0  0  0  0  0  0  0  0  0
    2.9630   -6.5343    3.4426 H   0  0  0  0  0  0  0  0  0  0  0  0
    1.8762   -4.6874    0.7931 H   0  0  0  0  0  0  0  0  0  0  0  0
    2.7147   -5.6208   -0.4005 H   0  0  0  0  0  0  0  0  0  0  0  0
  1  2  2  0
  1 25  1  0
  1 26  1  0
  2  7  1  0
  2  3  1  0
  3  4  2  0
  3  5  1  0
  5 11  1  0
  5 24  1  1
  5  6  1  0
  6  7  1  0
  6 27  1  0
  6 28  1  0
  7  8  1  0
  7 29  1  6
  8  9  1  0
  8 30  1  0
  8 31  1  0
  9 10  1  0
  9 11  1  0
  9 32  1  6
 10 33  1  0
 11 12  1  0
 11 34  1  6
 12 21  1  0
 12 13  1  1
 12 14  1  0
 13 35  1  0
 13 36  1  0
 13 37  1  0
 14 15  1  0
 14 16  1  0
 14 38  1  6
 15 39  1  0
 16 17  1  0
 16 40  1  0
 16 41  1  0
 17 18  1  0
 17 42  1  0
 17 43  1  0
 18 19  1  0
 18 20  1  0
 18 21  1  0
 19 44  1  0
 19 45  1  0
 19 46  1  0
 20 47  1  0
 20 48  1  0
 20 49  1  0
 21 22  1  0
 21 50  1  6
 22 23  1  0
 22 24  1  0
 22 51  1  6
 23 52  1  0
 24 53  1  0
 24 54  1  0
M  END
>  <i_m_ct_stereo_status>  (155) 
1

>  <s_m_source_file>  (155) 
/var/tmp/pbs.5076255.sched01/tmp6h9xbnrx/445q66801d.sdf

>  <i_m_source_file_index>  (155) 
18

>  <i_lp_mmshare_version>  (155) 
48012

>  <i_f3d_flags>  (155) 
0

>  <s_epik_input>  (155) 
Tz1DMUMoPVtDSDJdKVtDQEhdKFtDSDJdMilbQ0gyXVtDQEBIXShbT0hdKVtDQEhdKFtDQEBdMTIzKVtDQEBdNChbQ0gzXSlbQ0BIXShbQ0BASF0oW09IXSlbQ0gyXTMpQyhbQ0gzXSkoW0NIM10pW0NIMl1bQ0gyXVtDQEBIXTRbT0hd

>  <s_epik_cmdline>  (155) 
J2VwaWtfcHl0aG9uJywgJy1waHQnLCAnMi4wJywgJy1waCcsICc3LjAnLCAnLXRuJywgJzgnLCAnLW1hJywgJzIwMCcsICctaW1hZScsICc8aW5maWxlLm1hZT4nLCAnLW9tYWUnLCAnPG91dGZpbGUubWFlPic=

>  <r_lp_tautomer_probability>  (155) 
1

>  <r_epik_Ionization_Penalty>  (155) 
1.45311e-06

>  <r_epik_Ionization_Penalty_Charging>  (155) 
0

>  <r_epik_Ionization_Penalty_Neutral>  (155) 
1.45311e-06

>  <r_epik_State_Penalty>  (155) 
-0

>  <r_epik_Charging_Adjusted_Penalty>  (155) 
0

>  <i_epik_Tot_Q>  (155) 
0

>  <i_epik_Tot_abs_Q>  (155) 
0

>  <s_lp_Force_Field>  (155) 
OPLS3e

>  <r_lp_Energy>  (155) 
50.5498

>  <b_lp_Chiralities_Consistent>  (155) 
1

>  <s_lp_Variant>  (155) 
38:0-1

>  <s_i_glide_gridfile>  (155) 
pfpi4k_grid

>  <i_i_glide_lignum>  (155) 
18

>  <i_i_glide_rotatable_bonds>  (155) 
3

>  <r_i_docking_score>  (155) 
-3.31447

>  <r_i_glide_ligand_efficiency>  (155) 
-0.138103

>  <r_i_glide_ligand_efficiency_sa>  (155) 
-0.398357

>  <r_i_glide_ligand_efficiency_ln>  (155) 
-0.793304

>  <r_i_glide_gscore>  (155) 
-3.31447

>  <r_i_glide_lipo>  (155) 
-0.679652

>  <r_i_glide_hbond>  (155) 
0

>  <r_i_glide_metal>  (155) 
-0

>  <r_i_glide_rewards>  (155) 
-1.12875

>  <r_i_glide_evdw>  (155) 
-26.7829

>  <r_i_glide_ecoul>  (155) 
-1.07694

>  <r_i_glide_erotb>  (155) 
0

>  <r_i_glide_esite>  (155) 
-0.00537674

>  <r_i_glide_emodel>  (155) 
-33.5393

>  <r_i_glide_energy>  (155) 
-27.8598

>  <r_i_glide_einternal>  (155) 
0.409916

>  <r_i_glide_intrahb_reward>  (155) 
-0

>  <i_i_glide_confnum>  (155) 
1

>  <i_i_glide_posenum>  (155) 
36

>  <r_i_glide_eff_state_penalty>  (155) 
0

>  <ligand_id>  (155) 
38

>  <original_smiles>  (155) 
C=C1C(=O)C23CC1CC(O)C2C1(C)C(O)CCC(C)(C)C1C(O)C3

>  <smiles>  (155) 
[H]OC1([H])C([H])([H])C2([H])C(=C([H])[H])C(=O)C3(C([H])([H])C([H])(O[H])C4([H])C(C([H])([H])[H])(C([H])([H])[H])C([H])([H])C([H])([H])C([H])(O[H])C4(C([H])([H])[H])C13[H])C2([H])[H]

$$$$
38:0:2
     RDKit          3D

 54 57  0  0  1  0  0  0  0  0999 V2000
    2.6146   -2.5910   -2.7410 C   0  0  0  0  0  0  0  0  0  0  0  0
    3.5156   -2.8741   -1.7879 C   0  0  0  0  0  0  0  0  0  0  0  0
    3.2668   -3.7413   -0.6264 C   0  0  0  0  0  0  0  0  0  0  0  0
    2.2102   -4.2932   -0.3177 O   0  0  0  0  0  0  0  0  0  0  0  0
    4.5748   -3.8667    0.1768 C   0  0  1  0  0  0  0  0  0  0  0  0
    5.5761   -3.6886   -0.9841 C   0  0  0  0  0  0  0  0  0  0  0  0
    4.9875   -2.5219   -1.7738 C   0  0  2  0  0  0  0  0  0  0  0  0
    5.2758   -1.2378   -0.9671 C   0  0  0  0  0  0  0  0  0  0  0  0
    4.6900   -1.2621    0.4685 C   0  0  1  0  0  0  0  0  0  0  0  0
    3.4116   -0.6698    0.4170 O   0  0  0  0  0  0  0  0  0  0  0  0
    4.7711   -2.6734    1.1757 C   0  0  1  0  0  0  0  0  0  0  0  0
    4.0545   -2.8269    2.5883 C   0  0  2  0  0  0  0  0  0  0  0  0
    2.4964   -2.7609    2.4898 C   0  0  0  0  0  0  0  0  0  0  0  0
    4.5860   -1.6929    3.5483 C   0  0  1  0  0  0  0  0  0  0  0  0
    3.9979   -0.4257    3.3183 O   0  0  0  0  0  0  0  0  0  0  0  0
    4.4089   -1.9420    5.0550 C   0  0  0  0  0  0  0  0  0  0  0  0
    4.9545   -3.3053    5.4761 C   0  0  0  0  0  0  0  0  0  0  0  0
    4.2881   -4.4665    4.7102 C   0  0  0  0  0  0  0  0  0  0  0  0
    4.9945   -5.7596    5.1811 C   0  0  0  0  0  0  0  0  0  0  0  0
    2.8029   -4.5791    5.1332 C   0  0  0  0  0  0  0  0  0  0  0  0
    4.5278   -4.2226    3.1720 C   0  0  1  0  0  0  0  0  0  0  0  0
    4.2817   -5.4513    2.2423 C   0  0  1  0  0  0  0  0  0  0  0  0
    2.9512   -5.9286    2.1977 O   0  0  0  0  0  0  0  0  0  0  0  0
    4.8387   -5.2450    0.8258 C   0  0  0  0  0  0  0  0  0  0  0  0
    2.8664   -1.9927   -3.6005 H   0  0  0  0  0  0  0  0  0  0  0  0
    1.6024   -2.9462   -2.6693 H   0  0  0  0  0  0  0  0  0  0  0  0
    6.6059   -3.5161   -0.6560 H   0  0  0  0  0  0  0  0  0  0  0  0
    5.5794   -4.5781   -1.6172 H   0  0  0  0  0  0  0  0  0  0  0  0
    5.3986   -2.4642   -2.7838 H   0  0  0  0  0  0  0  0  0  0  0  0
    6.3597   -1.1352   -0.8843 H   0  0  0  0  0  0  0  0  0  0  0  0
    4.9318   -0.3544   -1.5085 H   0  0  0  0  0  0  0  0  0  0  0  0
    5.2908   -0.5688    1.0542 H   0  0  0  0  0  0  0  0  0  0  0  0
    2.8305   -1.1488   -0.1644 H   0  0  0  0  0  0  0  0  0  0  0  0
    5.8357   -2.7436    1.4170 H   0  0  0  0  0  0  0  0  0  0  0  0
    2.0469   -2.1930    3.3010 H   0  0  0  0  0  0  0  0  0  0  0  0
    2.0283   -3.7379    2.5181 H   0  0  0  0  0  0  0  0  0  0  0  0
    2.1284   -2.3128    1.5735 H   0  0  0  0  0  0  0  0  0  0  0  0
    5.6540   -1.5693    3.3713 H   0  0  0  0  0  0  0  0  0  0  0  0
    3.0629   -0.5012    3.4121 H   0  0  0  0  0  0  0  0  0  0  0  0
    4.9439   -1.1695    5.6064 H   0  0  0  0  0  0  0  0  0  0  0  0
    3.3680   -1.8426    5.3533 H   0  0  0  0  0  0  0  0  0  0  0  0
    6.0311   -3.3155    5.3001 H   0  0  0  0  0  0  0  0  0  0  0  0
    4.8283   -3.4333    6.5532 H   0  0  0  0  0  0  0  0  0  0  0  0
    4.4965   -6.6535    4.8035 H   0  0  0  0  0  0  0  0  0  0  0  0
    4.9922   -5.8382    6.2692 H   0  0  0  0  0  0  0  0  0  0  0  0
    6.0347   -5.7910    4.8555 H   0  0  0  0  0  0  0  0  0  0  0  0
    2.2905   -5.3967    4.6286 H   0  0  0  0  0  0  0  0  0  0  0  0
    2.2345   -3.6740    4.9352 H   0  0  0  0  0  0  0  0  0  0  0  0
    2.7186   -4.7556    6.2075 H   0  0  0  0  0  0  0  0  0  0  0  0
    5.6144   -4.1473    3.1286 H   0  0  0  0  0  0  0  0  0  0  0  0
    4.8519   -6.2931    2.6358 H   0  0  0  0  0  0  0  0  0  0  0  0
    2.9428   -6.7782    1.7834 H   0  0  0  0  0  0  0  0  0  0  0  0
    4.4734   -6.0441    0.1790 H   0  0  0  0  0  0  0  0  0  0  0  0
    5.9220   -5.3896    0.8769 H   0  0  0  0  0  0  0  0  0  0  0  0
  1  2  2  0
  1 25  1  0
  1 26  1  0
  2  7  1  0
  2  3  1  0
  3  4  2  0
  3  5  1  0
  5 11  1  0
  5 24  1  1
  5  6  1  0
  6  7  1  0
  6 27  1  0
  6 28  1  0
  7  8  1  0
  7 29  1  6
  8  9  1  0
  8 30  1  0
  8 31  1  0
  9 10  1  0
  9 11  1  0
  9 32  1  1
 10 33  1  0
 11 12  1  0
 11 34  1  1
 12 21  1  0
 12 13  1  6
 12 14  1  0
 13 35  1  0
 13 36  1  0
 13 37  1  0
 14 15  1  0
 14 16  1  0
 14 38  1  1
 15 39  1  0
 16 17  1  0
 16 40  1  0
 16 41  1  0
 17 18  1  0
 17 42  1  0
 17 43  1  0
 18 19  1  0
 18 20  1  0
 18 21  1  0
 19 44  1  0
 19 45  1  0
 19 46  1  0
 20 47  1  0
 20 48  1  0
 20 49  1  0
 21 22  1  0
 21 50  1  1
 22 23  1  0
 22 24  1  0
 22 51  1  1
 23 52  1  0
 24 53  1  0
 24 54  1  0
M  END
>  <i_m_ct_stereo_status>  (156) 
1

>  <s_m_source_file>  (156) 
/var/tmp/pbs.5076255.sched01/tmp6h9xbnrx/445q66801d.sdf

>  <i_m_source_file_index>  (156) 
18

>  <i_lp_mmshare_version>  (156) 
48012

>  <i_f3d_flags>  (156) 
0

>  <s_epik_input>  (156) 
Tz1DMUMoPVtDSDJdKVtDQEhdKFtDSDJdMilbQ0gyXVtDQEBIXShbT0hdKVtDQEhdKFtDQEBdMTIzKVtDQEBdNChbQ0gzXSlbQ0BIXShbQ0BASF0oW09IXSlbQ0gyXTMpQyhbQ0gzXSkoW0NIM10pW0NIMl1bQ0gyXVtDQEBIXTRbT0hd

>  <s_epik_cmdline>  (156) 
J2VwaWtfcHl0aG9uJywgJy1waHQnLCAnMi4wJywgJy1waCcsICc3LjAnLCAnLXRuJywgJzgnLCAnLW1hJywgJzIwMCcsICctaW1hZScsICc8aW5maWxlLm1hZT4nLCAnLW9tYWUnLCAnPG91dGZpbGUubWFlPic=

>  <r_lp_tautomer_probability>  (156) 
1

>  <r_epik_Ionization_Penalty>  (156) 
1.45311e-06

>  <r_epik_Ionization_Penalty_Charging>  (156) 
0

>  <r_epik_Ionization_Penalty_Neutral>  (156) 
1.45311e-06

>  <r_epik_State_Penalty>  (156) 
-0

>  <r_epik_Charging_Adjusted_Penalty>  (156) 
0

>  <i_epik_Tot_Q>  (156) 
0

>  <i_epik_Tot_abs_Q>  (156) 
0

>  <s_lp_Force_Field>  (156) 
OPLS3e

>  <r_lp_Energy>  (156) 
50.5498

>  <b_lp_Chiralities_Consistent>  (156) 
1

>  <s_lp_Variant>  (156) 
38:0-1

>  <s_i_glide_gridfile>  (156) 
pfpi4k_grid

>  <i_i_glide_lignum>  (156) 
18

>  <i_i_glide_rotatable_bonds>  (156) 
3

>  <r_i_docking_score>  (156) 
-2.8028

>  <r_i_glide_ligand_efficiency>  (156) 
-0.116783

>  <r_i_glide_ligand_efficiency_sa>  (156) 
-0.336862

>  <r_i_glide_ligand_efficiency_ln>  (156) 
-0.670839

>  <r_i_glide_gscore>  (156) 
-2.8028

>  <r_i_glide_lipo>  (156) 
-0.270703

>  <r_i_glide_hbond>  (156) 
0

>  <r_i_glide_metal>  (156) 
-0

>  <r_i_glide_rewards>  (156) 
-1.12875

>  <r_i_glide_evdw>  (156) 
-23.8654

>  <r_i_glide_ecoul>  (156) 
-1.37533

>  <r_i_glide_erotb>  (156) 
0

>  <r_i_glide_esite>  (156) 
-0.00378073

>  <r_i_glide_emodel>  (156) 
-29.9674

>  <r_i_glide_energy>  (156) 
-25.2407

>  <r_i_glide_einternal>  (156) 
0.367302

>  <r_i_glide_intrahb_reward>  (156) 
-0

>  <i_i_glide_confnum>  (156) 
2

>  <i_i_glide_posenum>  (156) 
5

>  <r_i_glide_eff_state_penalty>  (156) 
0

>  <ligand_id>  (156) 
38

>  <original_smiles>  (156) 
C=C1C(=O)C23CC1CC(O)C2C1(C)C(O)CCC(C)(C)C1C(O)C3

>  <smiles>  (156) 
[H]OC1([H])C([H])([H])C2([H])C(=C([H])[H])C(=O)C3(C([H])([H])C([H])(O[H])C4([H])C(C([H])([H])[H])(C([H])([H])[H])C([H])([H])C([H])([H])C([H])(O[H])C4(C([H])([H])[H])C13[H])C2([H])[H]

$$$$
39:0:0
     RDKit          3D

 96103  0  0  1  0  0  0  0  0999 V2000
    0.8983   -4.3759    9.8777 C   0  0  0  0  0  0  0  0  0  0  0  0
   -0.0725   -4.7459    8.7348 C   0  0  0  0  0  0  0  0  0  0  0  0
   -1.5049   -4.4591    9.2060 C   0  0  0  0  0  0  0  0  0  0  0  0
    0.2213   -3.8621    7.5081 C   0  0  0  0  0  0  0  0  0  0  0  0
    1.3373   -4.3586    6.7975 O   0  0  0  0  0  0  0  0  0  0  0  0
    1.0729   -5.5714    6.1336 C   0  0  2  0  0  0  0  0  0  0  0  0
    1.0195   -6.6286    7.2601 C   0  0  1  0  0  0  0  0  0  0  0  0
    2.4174   -6.9991    7.7861 C   0  0  0  0  0  0  0  0  0  0  0  0
    3.2637   -7.5112    6.6183 C   0  0  0  0  0  0  0  0  0  0  0  0
    3.4960   -6.4013    5.5542 C   0  0  1  0  0  0  0  0  0  0  0  0
    2.0946   -5.9022    4.9888 C   0  0  1  0  0  0  0  0  0  0  0  0
    1.4526   -7.0378    4.1369 C   0  0  0  0  0  0  0  0  0  0  0  0
    2.4487   -4.7778    3.9797 C   0  0  1  0  0  0  0  0  0  0  0  0
    1.5491   -4.1979    2.8697 C   0  0  0  0  0  0  0  0  0  0  0  0
    2.2565   -3.0910    1.9765 C   0  0  0  0  0  0  0  0  0  0  0  0
    3.4877   -2.2586    2.5267 C   0  0  2  0  0  0  0  0  0  0  0  0
    4.3809   -1.5101    1.4424 C   0  0  2  0  0  0  0  0  0  0  0  0
    5.1197   -0.3679    2.1876 C   0  0  0  0  0  0  0  0  0  0  0  0
    3.5248   -0.7628    0.3854 C   0  0  0  0  0  0  0  0  0  0  0  0
    3.2793   -1.5211   -0.9267 C   0  0  0  0  0  0  0  0  0  0  0  0
    4.5681   -1.9722   -1.5855 C   0  0  1  0  0  0  0  0  0  0  0  0
    5.3158   -0.8140   -1.8991 O   0  0  0  0  0  0  0  0  0  0  0  0
    5.3504   -2.9575   -0.6902 C   0  0  0  0  0  0  0  0  0  0  0  0
    4.6765   -4.3433   -0.7622 C   0  0  0  0  0  0  0  0  0  0  0  0
    6.7474   -3.1589   -1.3254 C   0  0  0  0  0  0  0  0  0  0  0  0
    5.5079   -2.3772    0.7638 C   0  0  2  0  0  0  0  0  0  0  0  0
    6.0844   -3.3628    1.7752 C   0  0  0  0  0  0  0  0  0  0  0  0
    5.0519   -4.1041    2.6035 C   0  0  0  0  0  0  0  0  0  0  0  0
    4.2621   -3.1538    3.5334 C   0  0  1  0  0  0  0  0  0  0  0  0
    5.0505   -2.7933    4.8121 C   0  0  1  0  0  0  0  0  0  0  0  0
    5.0687   -1.4372    5.2322 O   0  0  0  0  0  0  0  0  0  0  0  0
    4.2689   -3.8478    5.6844 C   0  0  2  0  0  0  0  0  0  0  0  0
    4.0222   -3.2913    7.1062 C   0  0  0  0  0  0  0  0  0  0  0  0
    4.6777   -5.3528    5.8560 C   0  0  1  0  0  0  0  0  0  0  0  0
    5.7629   -5.6878    6.9198 C   0  0  0  0  0  0  0  0  0  0  0  0
    6.1396   -5.7254    5.4989 C   0  0  1  0  0  0  0  0  0  0  0  0
    6.3489   -7.0199    5.0026 O   0  0  0  0  0  0  0  0  0  0  0  0
    3.2218   -3.6441    4.5725 C   0  0  2  0  0  0  0  0  0  0  0  0
    2.2233   -2.7111    4.9450 O   0  0  0  0  0  0  0  0  0  0  0  0
    0.0143   -6.2472    8.3605 C   0  0  0  0  0  0  0  0  0  0  0  0
    0.7812   -3.3296   10.1605 H   0  0  0  0  0  0  0  0  0  0  0  0
    1.9373   -4.5112    9.5892 H   0  0  0  0  0  0  0  0  0  0  0  0
    0.7169   -4.9679   10.7743 H   0  0  0  0  0  0  0  0  0  0  0  0
   -2.2237   -4.6986    8.4221 H   0  0  0  0  0  0  0  0  0  0  0  0
   -1.6397   -3.4212    9.4810 H   0  0  0  0  0  0  0  0  0  0  0  0
   -1.7621   -5.0525   10.0839 H   0  0  0  0  0  0  0  0  0  0  0  0
   -0.6368   -3.7985    6.8365 H   0  0  0  0  0  0  0  0  0  0  0  0
    0.4531   -2.8465    7.8247 H   0  0  0  0  0  0  0  0  0  0  0  0
    0.0910   -5.4943    5.6699 H   0  0  0  0  0  0  0  0  0  0  0  0
    0.6370   -7.5547    6.8503 H   0  0  0  0  0  0  0  0  0  0  0  0
    2.9182   -6.1538    8.2554 H   0  0  0  0  0  0  0  0  0  0  0  0
    2.3394   -7.7856    8.5455 H   0  0  0  0  0  0  0  0  0  0  0  0
    4.1747   -7.9893    6.9704 H   0  0  0  0  0  0  0  0  0  0  0  0
    2.7323   -8.3542    6.1693 H   0  0  0  0  0  0  0  0  0  0  0  0
    3.8687   -6.9670    4.7092 H   0  0  0  0  0  0  0  0  0  0  0  0
    2.0939   -7.3514    3.3135 H   0  0  0  0  0  0  0  0  0  0  0  0
    0.5080   -6.7251    3.6992 H   0  0  0  0  0  0  0  0  0  0  0  0
    1.2346   -7.9335    4.7103 H   0  0  0  0  0  0  0  0  0  0  0  0
    3.1230   -5.3535    3.3679 H   0  0  0  0  0  0  0  0  0  0  0  0
    1.2691   -5.0165    2.2224 H   0  0  0  0  0  0  0  0  0  0  0  0
    0.6277   -3.8093    3.2997 H   0  0  0  0  0  0  0  0  0  0  0  0
    2.5567   -3.5717    1.0567 H   0  0  0  0  0  0  0  0  0  0  0  0
    1.4964   -2.3694    1.6921 H   0  0  0  0  0  0  0  0  0  0  0  0
    3.0285   -1.4265    3.0622 H   0  0  0  0  0  0  0  0  0  0  0  0
    5.6638    0.2554    1.4803 H   0  0  0  0  0  0  0  0  0  0  0  0
    5.8635   -0.7263    2.8929 H   0  0  0  0  0  0  0  0  0  0  0  0
    4.4315    0.2790    2.7283 H   0  0  0  0  0  0  0  0  0  0  0  0
    2.5655   -0.5086    0.8197 H   0  0  0  0  0  0  0  0  0  0  0  0
    3.9819    0.2000    0.1424 H   0  0  0  0  0  0  0  0  0  0  0  0
    2.6269   -2.3720   -0.7607 H   0  0  0  0  0  0  0  0  0  0  0  0
    2.7430   -0.8874   -1.6314 H   0  0  0  0  0  0  0  0  0  0  0  0
    4.3224   -2.4687   -2.5272 H   0  0  0  0  0  0  0  0  0  0  0  0
    4.9903   -0.1024   -1.3460 H   0  0  0  0  0  0  0  0  0  0  0  0
    5.1966   -5.0956   -0.1707 H   0  0  0  0  0  0  0  0  0  0  0  0
    4.6687   -4.6998   -1.7906 H   0  0  0  0  0  0  0  0  0  0  0  0
    3.6400   -4.3430   -0.4615 H   0  0  0  0  0  0  0  0  0  0  0  0
    7.3115   -3.9347   -0.8133 H   0  0  0  0  0  0  0  0  0  0  0  0
    7.3563   -2.2585   -1.2856 H   0  0  0  0  0  0  0  0  0  0  0  0
    6.6619   -3.4415   -2.3762 H   0  0  0  0  0  0  0  0  0  0  0  0
    6.3292   -1.6749    0.6029 H   0  0  0  0  0  0  0  0  0  0  0  0
    6.7792   -4.0647    1.3191 H   0  0  0  0  0  0  0  0  0  0  0  0
    6.6180   -2.7389    2.4712 H   0  0  0  0  0  0  0  0  0  0  0  0
    4.4184   -4.6557    1.9182 H   0  0  0  0  0  0  0  0  0  0  0  0
    5.5870   -4.8536    3.1657 H   0  0  0  0  0  0  0  0  0  0  0  0
    6.0858   -3.0952    4.7340 H   0  0  0  0  0  0  0  0  0  0  0  0
    4.1853   -1.0968    5.1971 H   0  0  0  0  0  0  0  0  0  0  0  0
    3.5360   -3.9963    7.7683 H   0  0  0  0  0  0  0  0  0  0  0  0
    3.4382   -2.3793    7.1107 H   0  0  0  0  0  0  0  0  0  0  0  0
    4.9663   -3.0235    7.5698 H   0  0  0  0  0  0  0  0  0  0  0  0
    6.1672   -4.8845    7.5204 H   0  0  0  0  0  0  0  0  0  0  0  0
    5.7876   -6.6304    7.4426 H   0  0  0  0  0  0  0  0  0  0  0  0
    6.8935   -5.0275    5.1475 H   0  0  0  0  0  0  0  0  0  0  0  0
    5.6272   -7.5815    5.2570 H   0  0  0  0  0  0  0  0  0  0  0  0
    2.6679   -1.9377    5.2763 H   0  0  0  0  0  0  0  0  0  0  0  0
    0.2461   -6.8180    9.2538 H   0  0  0  0  0  0  0  0  0  0  0  0
   -0.9771   -6.5988    8.0593 H   0  0  0  0  0  0  0  0  0  0  0  0
  1  2  1  0
  1 41  1  0
  1 42  1  0
  1 43  1  0
  2 40  1  0
  2  3  1  0
  2  4  1  0
  3 44  1  0
  3 45  1  0
  3 46  1  0
  4  5  1  0
  4 47  1  0
  4 48  1  0
  5  6  1  0
  6 11  1  0
  6  7  1  0
  6 49  1  6
  7  8  1  0
  7 40  1  0
  7 50  1  6
  8  9  1  0
  8 51  1  0
  8 52  1  0
  9 10  1  0
  9 53  1  0
  9 54  1  0
 10 34  1  0
 10 11  1  0
 10 55  1  6
 11 12  1  6
 11 13  1  0
 12 56  1  0
 12 57  1  0
 12 58  1  0
 13 38  1  0
 13 14  1  0
 13 59  1  6
 14 15  1  0
 14 60  1  0
 14 61  1  0
 15 16  1  0
 15 62  1  0
 15 63  1  0
 16 29  1  0
 16 17  1  0
 16 64  1  1
 17 26  1  0
 17 18  1  1
 17 19  1  0
 18 65  1  0
 18 66  1  0
 18 67  1  0
 19 20  1  0
 19 68  1  0
 19 69  1  0
 20 21  1  0
 20 70  1  0
 20 71  1  0
 21 22  1  0
 21 23  1  0
 21 72  1  6
 22 73  1  0
 23 24  1  0
 23 25  1  0
 23 26  1  0
 24 74  1  0
 24 75  1  0
 24 76  1  0
 25 77  1  0
 25 78  1  0
 25 79  1  0
 26 27  1  0
 26 80  1  6
 27 28  1  0
 27 81  1  0
 27 82  1  0
 29 28  1  6
 28 83  1  0
 28 84  1  0
 29 38  1  0
 29 30  1  0
 30 31  1  0
 30 32  1  0
 30 85  1  6
 31 86  1  0
 32 33  1  1
 32 34  1  0
 32 38  1  0
 33 87  1  0
 33 88  1  0
 33 89  1  0
 34 36  1  0
 34 35  1  1
 35 36  1  0
 35 90  1  0
 35 91  1  0
 36 37  1  0
 36 92  1  1
 37 93  1  0
 38 39  1  1
 39 94  1  0
 40 95  1  0
 40 96  1  0
M  END
>  <i_m_ct_stereo_status>  (157) 
1

>  <s_m_source_file>  (157) 
/var/tmp/pbs.5076255.sched01/tmp6h9xbnrx/445q66801d.sdf

>  <i_m_source_file_index>  (157) 
19

>  <i_lp_mmshare_version>  (157) 
48012

>  <i_f3d_flags>  (157) 
0

>  <s_epik_input>  (157) 
W09IXVtDQEhdMVtDQEBdKFtDSDNdKShbQ0BdMjNbT0hdKVtDQEBdNChbQ0gyXVtDQEhdNFtPSF0pW0NASF01W0NIMl1bQ0gyXVtDQEBIXShbQ0gyXUMoW0NIM10pKFtDSDNdKVtDSDJdTzYpW0NAQEhdNltDQEBdNShbQ0gzXSlbQ0BIXTJbQ0gyXVtDSDJdW0NAQEhdKFtDQEBdMTM3KVtDQEBdOChbQ0gzXSlbQ0BASF0oW0NIMl1bQ0gyXTcpQyhbQ0gzXSkoW0NIM10pW0NASF0oW09IXSlbQ0gyXVtDSDJdOA==

>  <s_epik_cmdline>  (157) 
J2VwaWtfcHl0aG9uJywgJy1waHQnLCAnMi4wJywgJy1waCcsICc3LjAnLCAnLXRuJywgJzgnLCAnLW1hJywgJzIwMCcsICctaW1hZScsICc8aW5maWxlLm1hZT4nLCAnLW9tYWUnLCAnPG91dGZpbGUubWFlPic=

>  <r_lp_tautomer_probability>  (157) 
1

>  <r_epik_Ionization_Penalty>  (157) 
1.26383e-05

>  <r_epik_Ionization_Penalty_Charging>  (157) 
0

>  <r_epik_Ionization_Penalty_Neutral>  (157) 
1.26383e-05

>  <r_epik_State_Penalty>  (157) 
-0

>  <r_epik_Charging_Adjusted_Penalty>  (157) 
0

>  <i_epik_Tot_Q>  (157) 
0

>  <i_epik_Tot_abs_Q>  (157) 
0

>  <s_lp_Force_Field>  (157) 
OPLS3e

>  <r_lp_Energy>  (157) 
152.063

>  <b_lp_Chiralities_Consistent>  (157) 
1

>  <s_lp_Variant>  (157) 
39:0-1

>  <s_i_glide_gridfile>  (157) 
pfpi4k_grid

>  <i_i_glide_lignum>  (157) 
19

>  <i_i_glide_rotatable_bonds>  (157) 
4

>  <r_i_docking_score>  (157) 
-1.90298

>  <r_i_glide_ligand_efficiency>  (157) 
-0.0475745

>  <r_i_glide_ligand_efficiency_sa>  (157) 
-0.162703

>  <r_i_glide_ligand_efficiency_ln>  (157) 
-0.40585

>  <r_i_glide_gscore>  (157) 
-1.90298

>  <r_i_glide_lipo>  (157) 
-0.436789

>  <r_i_glide_hbond>  (157) 
-0.142491

>  <r_i_glide_metal>  (157) 
-0

>  <r_i_glide_rewards>  (157) 
0

>  <r_i_glide_evdw>  (157) 
-19.7457

>  <r_i_glide_ecoul>  (157) 
-2.24278

>  <r_i_glide_erotb>  (157) 
0

>  <r_i_glide_esite>  (157) 
0

>  <r_i_glide_emodel>  (157) 
-22.5376

>  <r_i_glide_energy>  (157) 
-21.9885

>  <r_i_glide_einternal>  (157) 
1.04472

>  <r_i_glide_intrahb_reward>  (157) 
-0

>  <i_i_glide_confnum>  (157) 
1

>  <i_i_glide_posenum>  (157) 
30

>  <r_i_glide_eff_state_penalty>  (157) 
0

>  <ligand_id>  (157) 
39

>  <original_smiles>  (157) 
CC1(C)COC2C(CCC3C2(C)C2CCC4C5(C)CCC(O)C(C)(C)C5CCC45C(O)C(C)(C34CC4O)C25O)C1

>  <smiles>  (157) 
[H]OC1([H])C([H])([H])C([H])([H])C2(C([H])([H])[H])C([H])(C([H])([H])C([H])([H])C34C([H])(O[H])C5(C([H])([H])[H])C3(O[H])C([H])(C([H])([H])C([H])([H])C24[H])C2(C([H])([H])[H])C3([H])OC([H])([H])C(C([H])([H])[H])(C([H])([H])[H])C([H])([H])C3([H])C([H])([H])C([H])([H])C2([H])C52C([H])([H])C2([H])O[H])C1(C([H])([H])[H])C([H])([H])[H]

$$$$
39:0:1
     RDKit          3D

 96103  0  0  1  0  0  0  0  0999 V2000
    1.2570  -10.0002    3.0950 C   0  0  0  0  0  0  0  0  0  0  0  0
    0.6979   -8.5664    2.9401 C   0  0  0  0  0  0  0  0  0  0  0  0
   -0.8269   -8.6592    2.7684 C   0  0  0  0  0  0  0  0  0  0  0  0
    1.0042   -7.7648    4.2188 C   0  0  0  0  0  0  0  0  0  0  0  0
    2.3448   -7.3060    4.2188 O   0  0  0  0  0  0  0  0  0  0  0  0
    2.5811   -6.3039    3.2572 C   0  0  2  0  0  0  0  0  0  0  0  0
    2.5792   -7.0412    1.8963 C   0  0  1  0  0  0  0  0  0  0  0  0
    3.8720   -7.8463    1.6642 C   0  0  0  0  0  0  0  0  0  0  0  0
    5.0745   -6.8990    1.7510 C   0  0  0  0  0  0  0  0  0  0  0  0
    5.2133   -6.2762    3.1585 C   0  0  1  0  0  0  0  0  0  0  0  0
    3.8904   -5.4729    3.5311 C   0  0  1  0  0  0  0  0  0  0  0  0
    3.7893   -4.1986    2.6267 C   0  0  0  0  0  0  0  0  0  0  0  0
    4.1252   -4.9264    4.9668 C   0  0  1  0  0  0  0  0  0  0  0  0
    3.3633   -3.7927    5.6836 C   0  0  0  0  0  0  0  0  0  0  0  0
    3.9068   -3.4741    7.1395 C   0  0  0  0  0  0  0  0  0  0  0  0
    4.7090   -4.5613    7.9781 C   0  0  2  0  0  0  0  0  0  0  0  0
    5.5692   -4.0347    9.2083 C   0  0  2  0  0  0  0  0  0  0  0  0
    5.7667   -5.2363   10.1666 C   0  0  0  0  0  0  0  0  0  0  0  0
    4.7704   -2.9990   10.0560 C   0  0  0  0  0  0  0  0  0  0  0  0
    5.0118   -1.5241    9.7247 C   0  0  0  0  0  0  0  0  0  0  0  0
    6.5018   -1.1876    9.7819 C   0  0  1  0  0  0  0  0  0  0  0  0
    6.9320   -1.4550   11.1052 O   0  0  0  0  0  0  0  0  0  0  0  0
    7.3418   -1.9819    8.7448 C   0  0  0  0  0  0  0  0  0  0  0  0
    7.1217   -1.3521    7.3536 C   0  0  0  0  0  0  0  0  0  0  0  0
    8.8462   -1.7443    9.0464 C   0  0  0  0  0  0  0  0  0  0  0  0
    7.0277   -3.5310    8.8493 C   0  0  2  0  0  0  0  0  0  0  0  0
    7.6508   -4.3988    7.7327 C   0  0  0  0  0  0  0  0  0  0  0  0
    6.6910   -4.6396    6.5703 C   0  0  0  0  0  0  0  0  0  0  0  0
    5.4645   -5.4910    6.9803 C   0  0  1  0  0  0  0  0  0  0  0  0
    5.8302   -6.9904    7.0581 C   0  0  1  0  0  0  0  0  0  0  0  0
    5.3618   -7.7411    8.1693 O   0  0  0  0  0  0  0  0  0  0  0  0
    5.1986   -7.2863    5.6337 C   0  0  2  0  0  0  0  0  0  0  0  0
    4.4851   -8.6663    5.6363 C   0  0  0  0  0  0  0  0  0  0  0  0
    5.9579   -7.1735    4.2698 C   0  0  1  0  0  0  0  0  0  0  0  0
    6.8173   -8.3836    3.8160 C   0  0  0  0  0  0  0  0  0  0  0  0
    7.4982   -7.1717    4.3250 C   0  0  1  0  0  0  0  0  0  0  0  0
    8.1082   -6.4275    3.3083 O   0  0  0  0  0  0  0  0  0  0  0  0
    4.4006   -6.0052    5.9773 C   0  0  2  0  0  0  0  0  0  0  0  0
    3.1168   -6.2951    6.5329 O   0  0  0  0  0  0  0  0  0  0  0  0
    1.2780   -7.8431    1.6920 C   0  0  0  0  0  0  0  0  0  0  0  0
    0.7931  -10.5046    3.9448 H   0  0  0  0  0  0  0  0  0  0  0  0
    2.3328  -10.0157    3.2710 H   0  0  0  0  0  0  0  0  0  0  0  0
    1.0508  -10.6176    2.2197 H   0  0  0  0  0  0  0  0  0  0  0  0
   -1.2490   -7.6650    2.6605 H   0  0  0  0  0  0  0  0  0  0  0  0
   -1.2991   -9.1325    3.6281 H   0  0  0  0  0  0  0  0  0  0  0  0
   -1.0860   -9.2274    1.8761 H   0  0  0  0  0  0  0  0  0  0  0  0
    0.3328   -6.9140    4.3259 H   0  0  0  0  0  0  0  0  0  0  0  0
    0.8647   -8.3944    5.0972 H   0  0  0  0  0  0  0  0  0  0  0  0
    1.7503   -5.6084    3.2829 H   0  0  0  0  0  0  0  0  0  0  0  0
    2.5813   -6.3100    1.1002 H   0  0  0  0  0  0  0  0  0  0  0  0
    4.0016   -8.6531    2.3897 H   0  0  0  0  0  0  0  0  0  0  0  0
    3.8544   -8.3230    0.6750 H   0  0  0  0  0  0  0  0  0  0  0  0
    5.9848   -7.3696    1.3923 H   0  0  0  0  0  0  0  0  0  0  0  0
    4.9112   -6.1063    1.0072 H   0  0  0  0  0  0  0  0  0  0  0  0
    5.8999   -5.4627    2.9899 H   0  0  0  0  0  0  0  0  0  0  0  0
    4.6582   -3.5500    2.7357 H   0  0  0  0  0  0  0  0  0  0  0  0
    2.9166   -3.6000    2.8711 H   0  0  0  0  0  0  0  0  0  0  0  0
    3.7104   -4.4291    1.5694 H   0  0  0  0  0  0  0  0  0  0  0  0
    5.0577   -4.4165    4.7756 H   0  0  0  0  0  0  0  0  0  0  0  0
    3.4527   -2.8990    5.0874 H   0  0  0  0  0  0  0  0  0  0  0  0
    2.2981   -4.0257    5.7221 H   0  0  0  0  0  0  0  0  0  0  0  0
    4.5322   -2.5967    7.0462 H   0  0  0  0  0  0  0  0  0  0  0  0
    3.0602   -3.1635    7.7363 H   0  0  0  0  0  0  0  0  0  0  0  0
    3.9259   -5.1377    8.4751 H   0  0  0  0  0  0  0  0  0  0  0  0
    6.2394   -4.9261   11.0970 H   0  0  0  0  0  0  0  0  0  0  0  0
    6.4115   -5.9993    9.7414 H   0  0  0  0  0  0  0  0  0  0  0  0
    4.8219   -5.7000   10.4325 H   0  0  0  0  0  0  0  0  0  0  0  0
    3.7132   -3.1980    9.9708 H   0  0  0  0  0  0  0  0  0  0  0  0
    4.9922   -3.1380   11.1227 H   0  0  0  0  0  0  0  0  0  0  0  0
    4.5916   -1.2603    8.7584 H   0  0  0  0  0  0  0  0  0  0  0  0
    4.4708   -0.9032   10.4376 H   0  0  0  0  0  0  0  0  0  0  0  0
    6.6316   -0.1177    9.6033 H   0  0  0  0  0  0  0  0  0  0  0  0
    6.3484   -1.0031   11.6940 H   0  0  0  0  0  0  0  0  0  0  0  0
    7.6909   -1.8604    6.5781 H   0  0  0  0  0  0  0  0  0  0  0  0
    7.4460   -0.3125    7.3522 H   0  0  0  0  0  0  0  0  0  0  0  0
    6.0875   -1.3230    7.0532 H   0  0  0  0  0  0  0  0  0  0  0  0
    9.4883   -2.1467    8.2632 H   0  0  0  0  0  0  0  0  0  0  0  0
    9.1535   -2.2045    9.9839 H   0  0  0  0  0  0  0  0  0  0  0  0
    9.0651   -0.6810    9.1268 H   0  0  0  0  0  0  0  0  0  0  0  0
    7.6195   -3.7945    9.7293 H   0  0  0  0  0  0  0  0  0  0  0  0
    8.5524   -3.9361    7.3515 H   0  0  0  0  0  0  0  0  0  0  0  0
    7.9748   -5.3528    8.1552 H   0  0  0  0  0  0  0  0  0  0  0  0
    6.4001   -3.6729    6.1800 H   0  0  0  0  0  0  0  0  0  0  0  0
    7.2523   -5.1078    5.7787 H   0  0  0  0  0  0  0  0  0  0  0  0
    6.8973   -7.1212    7.0219 H   0  0  0  0  0  0  0  0  0  0  0  0
    4.4280   -7.6515    8.2306 H   0  0  0  0  0  0  0  0  0  0  0  0
    4.0868   -8.9428    4.6641 H   0  0  0  0  0  0  0  0  0  0  0  0
    3.6796   -8.7356    6.3509 H   0  0  0  0  0  0  0  0  0  0  0  0
    5.1887   -9.4396    5.9140 H   0  0  0  0  0  0  0  0  0  0  0  0
    6.8452   -9.2757    4.4573 H   0  0  0  0  0  0  0  0  0  0  0  0
    6.9921   -8.6077    2.7867 H   0  0  0  0  0  0  0  0  0  0  0  0
    8.0941   -7.2560    5.2334 H   0  0  0  0  0  0  0  0  0  0  0  0
    8.9225   -6.8218    3.0471 H   0  0  0  0  0  0  0  0  0  0  0  0
    3.2212   -7.0533    7.0753 H   0  0  0  0  0  0  0  0  0  0  0  0
    1.4659   -8.5960    0.9333 H   0  0  0  0  0  0  0  0  0  0  0  0
    0.5126   -7.1691    1.2661 H   0  0  0  0  0  0  0  0  0  0  0  0
  1  2  1  0
  1 41  1  0
  1 42  1  0
  1 43  1  0
  2 40  1  0
  2  3  1  0
  2  4  1  0
  3 44  1  0
  3 45  1  0
  3 46  1  0
  4  5  1  0
  4 47  1  0
  4 48  1  0
  5  6  1  0
  6 11  1  0
  6  7  1  0
  6 49  1  6
  7  8  1  0
  7 40  1  0
  7 50  1  6
  8  9  1  0
  8 51  1  0
  8 52  1  0
  9 10  1  0
  9 53  1  0
  9 54  1  0
 10 34  1  0
 10 11  1  0
 10 55  1  6
 11 12  1  6
 11 13  1  0
 12 56  1  0
 12 57  1  0
 12 58  1  0
 13 38  1  0
 13 14  1  0
 13 59  1  6
 14 15  1  0
 14 60  1  0
 14 61  1  0
 15 16  1  0
 15 62  1  0
 15 63  1  0
 16 29  1  0
 16 17  1  0
 16 64  1  1
 17 26  1  0
 17 18  1  1
 17 19  1  0
 18 65  1  0
 18 66  1  0
 18 67  1  0
 19 20  1  0
 19 68  1  0
 19 69  1  0
 20 21  1  0
 20 70  1  0
 20 71  1  0
 21 22  1  0
 21 23  1  0
 21 72  1  6
 22 73  1  0
 23 24  1  0
 23 25  1  0
 23 26  1  0
 24 74  1  0
 24 75  1  0
 24 76  1  0
 25 77  1  0
 25 78  1  0
 25 79  1  0
 26 27  1  0
 26 80  1  1
 27 28  1  0
 27 81  1  0
 27 82  1  0
 29 28  1  6
 28 83  1  0
 28 84  1  0
 29 38  1  0
 29 30  1  0
 30 31  1  0
 30 32  1  0
 30 85  1  6
 31 86  1  0
 32 33  1  1
 32 34  1  0
 32 38  1  0
 33 87  1  0
 33 88  1  0
 33 89  1  0
 34 36  1  0
 34 35  1  6
 35 36  1  0
 35 90  1  0
 35 91  1  0
 36 37  1  0
 36 92  1  1
 37 93  1  0
 38 39  1  1
 39 94  1  0
 40 95  1  0
 40 96  1  0
M  END
>  <i_m_ct_stereo_status>  (158) 
1

>  <s_m_source_file>  (158) 
/var/tmp/pbs.5076255.sched01/tmp6h9xbnrx/445q66801d.sdf

>  <i_m_source_file_index>  (158) 
19

>  <i_lp_mmshare_version>  (158) 
48012

>  <i_f3d_flags>  (158) 
0

>  <s_epik_input>  (158) 
W09IXVtDQEhdMVtDQEBdKFtDSDNdKShbQ0BdMjNbT0hdKVtDQEBdNChbQ0gyXVtDQEhdNFtPSF0pW0NASF01W0NIMl1bQ0gyXVtDQEBIXShbQ0gyXUMoW0NIM10pKFtDSDNdKVtDSDJdTzYpW0NAQEhdNltDQEBdNShbQ0gzXSlbQ0BIXTJbQ0gyXVtDSDJdW0NAQEhdKFtDQEBdMTM3KVtDQEBdOChbQ0gzXSlbQ0BASF0oW0NIMl1bQ0gyXTcpQyhbQ0gzXSkoW0NIM10pW0NASF0oW09IXSlbQ0gyXVtDSDJdOA==

>  <s_epik_cmdline>  (158) 
J2VwaWtfcHl0aG9uJywgJy1waHQnLCAnMi4wJywgJy1waCcsICc3LjAnLCAnLXRuJywgJzgnLCAnLW1hJywgJzIwMCcsICctaW1hZScsICc8aW5maWxlLm1hZT4nLCAnLW9tYWUnLCAnPG91dGZpbGUubWFlPic=

>  <r_lp_tautomer_probability>  (158) 
1

>  <r_epik_Ionization_Penalty>  (158) 
1.26383e-05

>  <r_epik_Ionization_Penalty_Charging>  (158) 
0

>  <r_epik_Ionization_Penalty_Neutral>  (158) 
1.26383e-05

>  <r_epik_State_Penalty>  (158) 
-0

>  <r_epik_Charging_Adjusted_Penalty>  (158) 
0

>  <i_epik_Tot_Q>  (158) 
0

>  <i_epik_Tot_abs_Q>  (158) 
0

>  <s_lp_Force_Field>  (158) 
OPLS3e

>  <r_lp_Energy>  (158) 
152.063

>  <b_lp_Chiralities_Consistent>  (158) 
1

>  <s_lp_Variant>  (158) 
39:0-1

>  <s_i_glide_gridfile>  (158) 
pfpi4k_grid

>  <i_i_glide_lignum>  (158) 
19

>  <i_i_glide_rotatable_bonds>  (158) 
4

>  <r_i_docking_score>  (158) 
-1.34061

>  <r_i_glide_ligand_efficiency>  (158) 
-0.0335152

>  <r_i_glide_ligand_efficiency_sa>  (158) 
-0.11462

>  <r_i_glide_ligand_efficiency_ln>  (158) 
-0.285912

>  <r_i_glide_gscore>  (158) 
-1.34061

>  <r_i_glide_lipo>  (158) 
-0.360243

>  <r_i_glide_hbond>  (158) 
0

>  <r_i_glide_metal>  (158) 
-0

>  <r_i_glide_rewards>  (158) 
0

>  <r_i_glide_evdw>  (158) 
-17.1676

>  <r_i_glide_ecoul>  (158) 
-0.813215

>  <r_i_glide_erotb>  (158) 
0

>  <r_i_glide_esite>  (158) 
0

>  <r_i_glide_emodel>  (158) 
-18.3181

>  <r_i_glide_energy>  (158) 
-17.9808

>  <r_i_glide_einternal>  (158) 
0.798718

>  <r_i_glide_intrahb_reward>  (158) 
-0

>  <i_i_glide_confnum>  (158) 
1

>  <i_i_glide_posenum>  (158) 
1

>  <r_i_glide_eff_state_penalty>  (158) 
0

>  <ligand_id>  (158) 
39

>  <original_smiles>  (158) 
CC1(C)COC2C(CCC3C2(C)C2CCC4C5(C)CCC(O)C(C)(C)C5CCC45C(O)C(C)(C34CC4O)C25O)C1

>  <smiles>  (158) 
[H]OC1([H])C([H])([H])C([H])([H])C2(C([H])([H])[H])C([H])(C([H])([H])C([H])([H])C34C([H])(O[H])C5(C([H])([H])[H])C3(O[H])C([H])(C([H])([H])C([H])([H])C24[H])C2(C([H])([H])[H])C3([H])OC([H])([H])C(C([H])([H])[H])(C([H])([H])[H])C([H])([H])C3([H])C([H])([H])C([H])([H])C2([H])C52C([H])([H])C2([H])O[H])C1(C([H])([H])[H])C([H])([H])[H]

$$$$
39:0:2
     RDKit          3D

 96103  0  0  1  0  0  0  0  0999 V2000
   -0.4736   -8.9909    2.2295 C   0  0  0  0  0  0  0  0  0  0  0  0
   -0.4868   -7.9801    3.3957 C   0  0  0  0  0  0  0  0  0  0  0  0
   -1.9442   -7.6000    3.6641 C   0  0  0  0  0  0  0  0  0  0  0  0
    0.0847   -8.6614    4.6519 C   0  0  0  0  0  0  0  0  0  0  0  0
    1.4987   -8.6650    4.5980 O   0  0  0  0  0  0  0  0  0  0  0  0
    2.0677   -7.3904    4.7645 C   0  0  2  0  0  0  0  0  0  0  0  0
    1.7958   -6.6722    3.4198 C   0  0  1  0  0  0  0  0  0  0  0  0
    2.7280   -7.1715    2.2950 C   0  0  0  0  0  0  0  0  0  0  0  0
    4.1772   -6.9597    2.7318 C   0  0  0  0  0  0  0  0  0  0  0  0
    4.5343   -7.8182    3.9843 C   0  0  1  0  0  0  0  0  0  0  0  0
    3.5776   -7.4227    5.1940 C   0  0  1  0  0  0  0  0  0  0  0  0
    3.9243   -5.9807    5.6743 C   0  0  0  0  0  0  0  0  0  0  0  0
    3.9956   -8.3643    6.3484 C   0  0  1  0  0  0  0  0  0  0  0  0
    3.6867   -8.1899    7.8562 C   0  0  0  0  0  0  0  0  0  0  0  0
    4.3048   -9.3202    8.7782 C   0  0  0  0  0  0  0  0  0  0  0  0
    4.6839  -10.7448    8.1875 C   0  0  2  0  0  0  0  0  0  0  0  0
    5.6829  -11.6312    9.0526 C   0  0  2  0  0  0  0  0  0  0  0  0
    5.4572  -13.1052    8.6266 C   0  0  0  0  0  0  0  0  0  0  0  0
    5.3045  -11.6189   10.5651 C   0  0  0  0  0  0  0  0  0  0  0  0
    6.0481  -10.6081   11.4453 C   0  0  0  0  0  0  0  0  0  0  0  0
    7.5614  -10.7569   11.3118 C   0  0  1  0  0  0  0  0  0  0  0  0
    7.9200  -12.0507   11.7678 O   0  0  0  0  0  0  0  0  0  0  0  0
    8.0568  -10.5048    9.8601 C   0  0  0  0  0  0  0  0  0  0  0  0
    8.0589   -8.9801    9.6083 C   0  0  0  0  0  0  0  0  0  0  0  0
    9.5520  -10.9145    9.7753 C   0  0  0  0  0  0  0  0  0  0  0  0
    7.2252  -11.3587    8.8152 C   0  0  2  0  0  0  0  0  0  0  0  0
    7.5038  -11.0263    7.3357 C   0  0  0  0  0  0  0  0  0  0  0  0
    6.5085  -10.0216    6.7582 C   0  0  0  0  0  0  0  0  0  0  0  0
    5.0624  -10.5748    6.6946 C   0  0  1  0  0  0  0  0  0  0  0  0
    4.8881  -11.5140    5.4797 C   0  0  1  0  0  0  0  0  0  0  0  0
    4.2208  -12.7517    5.6806 O   0  0  0  0  0  0  0  0  0  0  0  0
    4.1734  -10.3931    4.6312 C   0  0  2  0  0  0  0  0  0  0  0  0
    3.0422  -10.9964    3.7715 C   0  0  0  0  0  0  0  0  0  0  0  0
    4.9203   -9.3503    3.7148 C   0  0  1  0  0  0  0  0  0  0  0  0
    5.3218   -9.8032    2.2831 C   0  0  0  0  0  0  0  0  0  0  0  0
    6.3689   -9.7012    3.2902 C   0  0  1  0  0  0  0  0  0  0  0  0
    7.2114   -8.5878    3.1274 O   0  0  0  0  0  0  0  0  0  0  0  0
    3.8873   -9.8275    6.0249 C   0  0  2  0  0  0  0  0  0  0  0  0
    2.5781  -10.1707    6.4748 O   0  0  0  0  0  0  0  0  0  0  0  0
    0.2966   -6.6842    3.0571 C   0  0  0  0  0  0  0  0  0  0  0  0
   -1.0778   -9.8701    2.4677 H   0  0  0  0  0  0  0  0  0  0  0  0
    0.5275   -9.3484    2.0240 H   0  0  0  0  0  0  0  0  0  0  0  0
   -0.8949   -8.5615    1.3216 H   0  0  0  0  0  0  0  0  0  0  0  0
   -2.0088   -6.8873    4.4879 H   0  0  0  0  0  0  0  0  0  0  0  0
   -2.5486   -8.4725    3.9323 H   0  0  0  0  0  0  0  0  0  0  0  0
   -2.3929   -7.1349    2.7824 H   0  0  0  0  0  0  0  0  0  0  0  0
   -0.2497   -8.1690    5.5661 H   0  0  0  0  0  0  0  0  0  0  0  0
   -0.2415   -9.6996    4.7111 H   0  0  0  0  0  0  0  0  0  0  0  0
    1.5242   -6.8819    5.5550 H   0  0  0  0  0  0  0  0  0  0  0  0
    2.0423   -5.6296    3.5308 H   0  0  0  0  0  0  0  0  0  0  0  0
    2.5699   -8.2231    2.0632 H   0  0  0  0  0  0  0  0  0  0  0  0
    2.5408   -6.6140    1.3738 H   0  0  0  0  0  0  0  0  0  0  0  0
    4.8710   -7.0841    1.8978 H   0  0  0  0  0  0  0  0  0  0  0  0
    4.3054   -5.8972    2.9587 H   0  0  0  0  0  0  0  0  0  0  0  0
    5.4721   -7.3655    4.2987 H   0  0  0  0  0  0  0  0  0  0  0  0
    4.9638   -5.8904    5.9852 H   0  0  0  0  0  0  0  0  0  0  0  0
    3.3153   -5.6929    6.5243 H   0  0  0  0  0  0  0  0  0  0  0  0
    3.7638   -5.2221    4.9175 H   0  0  0  0  0  0  0  0  0  0  0  0
    5.0444   -8.1137    6.3642 H   0  0  0  0  0  0  0  0  0  0  0  0
    4.0795   -7.2366    8.1785 H   0  0  0  0  0  0  0  0  0  0  0  0
    2.6047   -8.1311    8.0062 H   0  0  0  0  0  0  0  0  0  0  0  0
    5.1993   -8.8918    9.2200 H   0  0  0  0  0  0  0  0  0  0  0  0
    3.6246   -9.4724    9.6069 H   0  0  0  0  0  0  0  0  0  0  0  0
    3.7524  -11.3127    8.2522 H   0  0  0  0  0  0  0  0  0  0  0  0
    6.0095  -13.8049    9.2614 H   0  0  0  0  0  0  0  0  0  0  0  0
    5.7940  -13.3007    7.6119 H   0  0  0  0  0  0  0  0  0  0  0  0
    4.4062  -13.3956    8.6879 H   0  0  0  0  0  0  0  0  0  0  0  0
    4.2425  -11.4550   10.6727 H   0  0  0  0  0  0  0  0  0  0  0  0
    5.4787  -12.6114   11.0126 H   0  0  0  0  0  0  0  0  0  0  0  0
    5.7393   -9.5855   11.2150 H   0  0  0  0  0  0  0  0  0  0  0  0
    5.7565  -10.7510   12.4850 H   0  0  0  0  0  0  0  0  0  0  0  0
    8.0503  -10.0441   11.9773 H   0  0  0  0  0  0  0  0  0  0  0  0
    7.6458  -12.1277   12.6701 H   0  0  0  0  0  0  0  0  0  0  0  0
    8.4112   -8.7190    8.6073 H   0  0  0  0  0  0  0  0  0  0  0  0
    8.7248   -8.4740   10.3115 H   0  0  0  0  0  0  0  0  0  0  0  0
    7.0974   -8.5148    9.7559 H   0  0  0  0  0  0  0  0  0  0  0  0
   10.0116  -10.6116    8.8319 H   0  0  0  0  0  0  0  0  0  0  0  0
    9.6877  -11.9893    9.8685 H   0  0  0  0  0  0  0  0  0  0  0  0
   10.1322  -10.4500   10.5754 H   0  0  0  0  0  0  0  0  0  0  0  0
    7.6934  -12.3348    8.9458 H   0  0  0  0  0  0  0  0  0  0  0  0
    8.5131  -10.6404    7.2032 H   0  0  0  0  0  0  0  0  0  0  0  0
    7.4760  -11.9474    6.7446 H   0  0  0  0  0  0  0  0  0  0  0  0
    6.5767   -9.1161    7.3565 H   0  0  0  0  0  0  0  0  0  0  0  0
    6.8712   -9.7283    5.7865 H   0  0  0  0  0  0  0  0  0  0  0  0
    5.8465  -11.7638    5.0524 H   0  0  0  0  0  0  0  0  0  0  0  0
    3.4035  -12.6141    6.1495 H   0  0  0  0  0  0  0  0  0  0  0  0
    2.5586  -10.2738    3.1202 H   0  0  0  0  0  0  0  0  0  0  0  0
    2.2716  -11.4678    4.3641 H   0  0  0  0  0  0  0  0  0  0  0  0
    3.4268  -11.7823    3.1238 H   0  0  0  0  0  0  0  0  0  0  0  0
    5.0305  -10.7884    1.9581 H   0  0  0  0  0  0  0  0  0  0  0  0
    5.3835   -9.1122    1.4564 H   0  0  0  0  0  0  0  0  0  0  0  0
    6.8953  -10.5978    3.5951 H   0  0  0  0  0  0  0  0  0  0  0  0
    7.9630   -8.8199    2.6018 H   0  0  0  0  0  0  0  0  0  0  0  0
    2.5070  -11.0854    6.6941 H   0  0  0  0  0  0  0  0  0  0  0  0
    0.1965   -6.4843    1.9993 H   0  0  0  0  0  0  0  0  0  0  0  0
   -0.1774   -5.8341    3.5788 H   0  0  0  0  0  0  0  0  0  0  0  0
  1  2  1  0
  1 41  1  0
  1 42  1  0
  1 43  1  0
  2 40  1  0
  2  3  1  0
  2  4  1  0
  3 44  1  0
  3 45  1  0
  3 46  1  0
  4  5  1  0
  4 47  1  0
  4 48  1  0
  5  6  1  0
  6 11  1  0
  6  7  1  0
  6 49  1  1
  7  8  1  0
  7 40  1  0
  7 50  1  1
  8  9  1  0
  8 51  1  0
  8 52  1  0
  9 10  1  0
  9 53  1  0
  9 54  1  0
 10 34  1  0
 10 11  1  0
 10 55  1  1
 11 12  1  1
 11 13  1  0
 12 56  1  0
 12 57  1  0
 12 58  1  0
 13 38  1  0
 13 14  1  0
 13 59  1  1
 14 15  1  0
 14 60  1  0
 14 61  1  0
 15 16  1  0
 15 62  1  0
 15 63  1  0
 16 29  1  0
 16 17  1  0
 16 64  1  6
 17 26  1  0
 17 18  1  6
 17 19  1  0
 18 65  1  0
 18 66  1  0
 18 67  1  0
 19 20  1  0
 19 68  1  0
 19 69  1  0
 20 21  1  0
 20 70  1  0
 20 71  1  0
 21 22  1  0
 21 23  1  0
 21 72  1  1
 22 73  1  0
 23 24  1  0
 23 25  1  0
 23 26  1  0
 24 74  1  0
 24 75  1  0
 24 76  1  0
 25 77  1  0
 25 78  1  0
 25 79  1  0
 26 27  1  0
 26 80  1  6
 27 28  1  0
 27 81  1  0
 27 82  1  0
 29 28  1  1
 28 83  1  0
 28 84  1  0
 29 38  1  0
 29 30  1  0
 30 31  1  0
 30 32  1  0
 30 85  1  6
 31 86  1  0
 32 33  1  6
 32 34  1  0
 32 38  1  0
 33 87  1  0
 33 88  1  0
 33 89  1  0
 34 36  1  0
 34 35  1  6
 35 36  1  0
 35 90  1  0
 35 91  1  0
 36 37  1  0
 36 92  1  1
 37 93  1  0
 38 39  1  1
 39 94  1  0
 40 95  1  0
 40 96  1  0
M  END
>  <i_m_ct_stereo_status>  (159) 
1

>  <s_m_source_file>  (159) 
/var/tmp/pbs.5076255.sched01/tmp6h9xbnrx/445q66801d.sdf

>  <i_m_source_file_index>  (159) 
19

>  <i_lp_mmshare_version>  (159) 
48012

>  <i_f3d_flags>  (159) 
0

>  <s_epik_input>  (159) 
W09IXVtDQEhdMVtDQEBdKFtDSDNdKShbQ0BdMjNbT0hdKVtDQEBdNChbQ0gyXVtDQEhdNFtPSF0pW0NASF01W0NIMl1bQ0gyXVtDQEBIXShbQ0gyXUMoW0NIM10pKFtDSDNdKVtDSDJdTzYpW0NAQEhdNltDQEBdNShbQ0gzXSlbQ0BIXTJbQ0gyXVtDSDJdW0NAQEhdKFtDQEBdMTM3KVtDQEBdOChbQ0gzXSlbQ0BASF0oW0NIMl1bQ0gyXTcpQyhbQ0gzXSkoW0NIM10pW0NASF0oW09IXSlbQ0gyXVtDSDJdOA==

>  <s_epik_cmdline>  (159) 
J2VwaWtfcHl0aG9uJywgJy1waHQnLCAnMi4wJywgJy1waCcsICc3LjAnLCAnLXRuJywgJzgnLCAnLW1hJywgJzIwMCcsICctaW1hZScsICc8aW5maWxlLm1hZT4nLCAnLW9tYWUnLCAnPG91dGZpbGUubWFlPic=

>  <r_lp_tautomer_probability>  (159) 
1

>  <r_epik_Ionization_Penalty>  (159) 
1.26383e-05

>  <r_epik_Ionization_Penalty_Charging>  (159) 
0

>  <r_epik_Ionization_Penalty_Neutral>  (159) 
1.26383e-05

>  <r_epik_State_Penalty>  (159) 
-0

>  <r_epik_Charging_Adjusted_Penalty>  (159) 
0

>  <i_epik_Tot_Q>  (159) 
0

>  <i_epik_Tot_abs_Q>  (159) 
0

>  <s_lp_Force_Field>  (159) 
OPLS3e

>  <r_lp_Energy>  (159) 
152.063

>  <b_lp_Chiralities_Consistent>  (159) 
1

>  <s_lp_Variant>  (159) 
39:0-1

>  <s_i_glide_gridfile>  (159) 
pfpi4k_grid

>  <i_i_glide_lignum>  (159) 
19

>  <i_i_glide_rotatable_bonds>  (159) 
4

>  <r_i_docking_score>  (159) 
-1.32533

>  <r_i_glide_ligand_efficiency>  (159) 
-0.0331333

>  <r_i_glide_ligand_efficiency_sa>  (159) 
-0.113314

>  <r_i_glide_ligand_efficiency_ln>  (159) 
-0.282654

>  <r_i_glide_gscore>  (159) 
-1.32533

>  <r_i_glide_lipo>  (159) 
-0.00182385

>  <r_i_glide_hbond>  (159) 
0

>  <r_i_glide_metal>  (159) 
-0

>  <r_i_glide_rewards>  (159) 
0

>  <r_i_glide_evdw>  (159) 
-16.4649

>  <r_i_glide_ecoul>  (159) 
-3.33508

>  <r_i_glide_erotb>  (159) 
0

>  <r_i_glide_esite>  (159) 
0

>  <r_i_glide_emodel>  (159) 
-19.6123

>  <r_i_glide_energy>  (159) 
-19.8

>  <r_i_glide_einternal>  (159) 
0.830292

>  <r_i_glide_intrahb_reward>  (159) 
-0

>  <i_i_glide_confnum>  (159) 
1

>  <i_i_glide_posenum>  (159) 
6

>  <r_i_glide_eff_state_penalty>  (159) 
0

>  <ligand_id>  (159) 
39

>  <original_smiles>  (159) 
CC1(C)COC2C(CCC3C2(C)C2CCC4C5(C)CCC(O)C(C)(C)C5CCC45C(O)C(C)(C34CC4O)C25O)C1

>  <smiles>  (159) 
[H]OC1([H])C([H])([H])C([H])([H])C2(C([H])([H])[H])C([H])(C([H])([H])C([H])([H])C34C([H])(O[H])C5(C([H])([H])[H])C3(O[H])C([H])(C([H])([H])C([H])([H])C24[H])C2(C([H])([H])[H])C3([H])OC([H])([H])C(C([H])([H])[H])(C([H])([H])[H])C([H])([H])C3([H])C([H])([H])C([H])([H])C2([H])C52C([H])([H])C2([H])O[H])C1(C([H])([H])[H])C([H])([H])[H]

$$$$
40:0:0
     RDKit          3D

 18 20  0  0  1  0  0  0  0  0999 V2000
    4.3835   -5.1903    3.4848 Br  0  0  0  0  0  0  0  0  0  0  0  0
    3.5831   -4.8114    1.7999 C   0  0  0  0  0  0  0  0  0  0  0  0
    2.4816   -5.4014    1.3361 N   0  0  0  0  0  0  0  0  0  0  0  0
    2.2190   -4.8536    0.0810 N   0  0  0  0  0  0  0  0  0  0  0  0
    3.1631   -3.9316   -0.1821 C   0  0  0  0  0  0  0  0  0  0  0  0
    3.4166   -3.0592   -1.2701 C   0  0  0  0  0  0  0  0  0  0  0  0
    2.5775   -3.0551   -2.3973 C   0  0  0  0  0  0  0  0  0  0  0  0
    2.8902   -2.1720   -3.4413 C   0  0  0  0  0  0  0  0  0  0  0  0
    3.9608   -1.3485   -3.4127 N   0  0  0  0  0  0  0  0  0  0  0  0
    4.7378   -1.3586   -2.3078 C   0  0  0  0  0  0  0  0  0  0  0  0
    4.5361   -2.2025   -1.1957 C   0  0  0  0  0  0  0  0  0  0  0  0
    5.3638   -2.1999   -0.1289 N   0  0  0  0  0  0  0  0  0  0  0  0
    5.1247   -3.0288    0.9132 C   0  0  0  0  0  0  0  0  0  0  0  0
    4.0395   -3.9009    0.9127 N   0  0  0  0  0  0  0  0  0  0  0  0
    1.7178   -3.7069   -2.4569 H   0  0  0  0  0  0  0  0  0  0  0  0
    2.2643   -2.1276   -4.3202 H   0  0  0  0  0  0  0  0  0  0  0  0
    5.5716   -0.6744   -2.3198 H   0  0  0  0  0  0  0  0  0  0  0  0
    5.7930   -3.0093    1.7638 H   0  0  0  0  0  0  0  0  0  0  0  0
  1  2  1  0
  2 14  1  0
  2  3  2  0
  3  4  1  0
  4  5  2  0
  5 14  1  0
  5  6  1  0
  6 11  2  0
  6  7  1  0
  7  8  2  0
  7 15  1  0
  8  9  1  0
  8 16  1  0
  9 10  2  0
 10 11  1  0
 10 17  1  0
 11 12  1  0
 12 13  2  0
 13 14  1  0
 13 18  1  0
M  END
>  <i_m_ct_stereo_status>  (160) 
1

>  <s_m_source_file>  (160) 
/var/tmp/pbs.5076255.sched01/tmp6h9xbnrx/445q66801d.sdf

>  <i_m_source_file_index>  (160) 
20

>  <i_lp_mmshare_version>  (160) 
48012

>  <i_f3d_flags>  (160) 
0

>  <s_epik_input>  (160) 
bjFuYyhCciluMltjSF1uYyhjM2MxMilbY0hdbltjSF1bY0hdMw==

>  <s_epik_cmdline>  (160) 
J2VwaWtfcHl0aG9uJywgJy1waHQnLCAnMi4wJywgJy1waCcsICc3LjAnLCAnLXRuJywgJzgnLCAnLW1hJywgJzIwMCcsICctaW1hZScsICc8aW5maWxlLm1hZT4nLCAnLW9tYWUnLCAnPG91dGZpbGUubWFlPic=

>  <r_lp_tautomer_probability>  (160) 
1

>  <r_epik_Ionization_Penalty>  (160) 
6.21408e-09

>  <r_epik_Ionization_Penalty_Charging>  (160) 
0

>  <r_epik_Ionization_Penalty_Neutral>  (160) 
6.21408e-09

>  <r_epik_State_Penalty>  (160) 
-0

>  <r_epik_Charging_Adjusted_Penalty>  (160) 
0

>  <i_epik_Tot_Q>  (160) 
0

>  <i_epik_Tot_abs_Q>  (160) 
0

>  <s_lp_Force_Field>  (160) 
OPLS3e

>  <r_lp_Energy>  (160) 
22.9436

>  <b_lp_Chiralities_Consistent>  (160) 
1

>  <s_lp_Variant>  (160) 
40:0-1

>  <s_i_glide_gridfile>  (160) 
pfpi4k_grid

>  <i_i_glide_lignum>  (160) 
20

>  <i_i_glide_rotatable_bonds>  (160) 
0

>  <r_i_docking_score>  (160) 
-3.48643

>  <r_i_glide_ligand_efficiency>  (160) 
-0.249031

>  <r_i_glide_ligand_efficiency_sa>  (160) 
-0.600199

>  <r_i_glide_ligand_efficiency_ln>  (160) 
-0.958058

>  <r_i_glide_gscore>  (160) 
-3.48643

>  <r_i_glide_lipo>  (160) 
-0.192302

>  <r_i_glide_hbond>  (160) 
0

>  <r_i_glide_metal>  (160) 
-0

>  <r_i_glide_rewards>  (160) 
-1.78176

>  <r_i_glide_evdw>  (160) 
-19.5439

>  <r_i_glide_ecoul>  (160) 
-2.84544

>  <r_i_glide_erotb>  (160) 
0

>  <r_i_glide_esite>  (160) 
-0.108354

>  <r_i_glide_emodel>  (160) 
-27.5946

>  <r_i_glide_energy>  (160) 
-22.3893

>  <r_i_glide_einternal>  (160) 
0

>  <r_i_glide_intrahb_reward>  (160) 
-0

>  <i_i_glide_confnum>  (160) 
1

>  <i_i_glide_posenum>  (160) 
27

>  <r_i_glide_eff_state_penalty>  (160) 
0

>  <ligand_id>  (160) 
40

>  <original_smiles>  (160) 
Brc1nnc2c3ccncc3ncn12

>  <smiles>  (160) 
[H]c1nc([H])c2nc([H])n3c(Br)nnc3c2c1[H]

$$$$
40:0:1
     RDKit          3D

 18 20  0  0  1  0  0  0  0  0999 V2000
    4.3560   -3.6116    3.7158 Br  0  0  0  0  0  0  0  0  0  0  0  0
    3.6889   -3.7437    1.9387 C   0  0  0  0  0  0  0  0  0  0  0  0
    2.8487   -4.6858    1.5153 N   0  0  0  0  0  0  0  0  0  0  0  0
    2.6153   -4.4495    0.1584 N   0  0  0  0  0  0  0  0  0  0  0  0
    3.3040   -3.3554   -0.2011 C   0  0  0  0  0  0  0  0  0  0  0  0
    3.4486   -2.6389   -1.4140 C   0  0  0  0  0  0  0  0  0  0  0  0
    2.7730   -3.0522   -2.5734 C   0  0  0  0  0  0  0  0  0  0  0  0
    2.9801   -2.3015   -3.7412 C   0  0  0  0  0  0  0  0  0  0  0  0
    3.7847   -1.2169   -3.7939 N   0  0  0  0  0  0  0  0  0  0  0  0
    4.3891   -0.8242   -2.6531 C   0  0  0  0  0  0  0  0  0  0  0  0
    4.2892   -1.5051   -1.4232 C   0  0  0  0  0  0  0  0  0  0  0  0
    4.9530   -1.0989   -0.3220 N   0  0  0  0  0  0  0  0  0  0  0  0
    4.8116   -1.7738    0.8416 C   0  0  0  0  0  0  0  0  0  0  0  0
    3.9986   -2.9004    0.9298 N   0  0  0  0  0  0  0  0  0  0  0  0
    2.1159   -3.9080   -2.5758 H   0  0  0  0  0  0  0  0  0  0  0  0
    2.4883   -2.5867   -4.6577 H   0  0  0  0  0  0  0  0  0  0  0  0
    5.0052    0.0589   -2.7207 H   0  0  0  0  0  0  0  0  0  0  0  0
    5.3417   -1.4345    1.7201 H   0  0  0  0  0  0  0  0  0  0  0  0
  1  2  1  0
  2 14  1  0
  2  3  2  0
  3  4  1  0
  4  5  2  0
  5 14  1  0
  5  6  1  0
  6 11  2  0
  6  7  1  0
  7  8  2  0
  7 15  1  0
  8  9  1  0
  8 16  1  0
  9 10  2  0
 10 11  1  0
 10 17  1  0
 11 12  1  0
 12 13  2  0
 13 14  1  0
 13 18  1  0
M  END
>  <i_m_ct_stereo_status>  (161) 
1

>  <s_m_source_file>  (161) 
/var/tmp/pbs.5076255.sched01/tmp6h9xbnrx/445q66801d.sdf

>  <i_m_source_file_index>  (161) 
20

>  <i_lp_mmshare_version>  (161) 
48012

>  <i_f3d_flags>  (161) 
0

>  <s_epik_input>  (161) 
bjFuYyhCciluMltjSF1uYyhjM2MxMilbY0hdbltjSF1bY0hdMw==

>  <s_epik_cmdline>  (161) 
J2VwaWtfcHl0aG9uJywgJy1waHQnLCAnMi4wJywgJy1waCcsICc3LjAnLCAnLXRuJywgJzgnLCAnLW1hJywgJzIwMCcsICctaW1hZScsICc8aW5maWxlLm1hZT4nLCAnLW9tYWUnLCAnPG91dGZpbGUubWFlPic=

>  <r_lp_tautomer_probability>  (161) 
1

>  <r_epik_Ionization_Penalty>  (161) 
6.21408e-09

>  <r_epik_Ionization_Penalty_Charging>  (161) 
0

>  <r_epik_Ionization_Penalty_Neutral>  (161) 
6.21408e-09

>  <r_epik_State_Penalty>  (161) 
-0

>  <r_epik_Charging_Adjusted_Penalty>  (161) 
0

>  <i_epik_Tot_Q>  (161) 
0

>  <i_epik_Tot_abs_Q>  (161) 
0

>  <s_lp_Force_Field>  (161) 
OPLS3e

>  <r_lp_Energy>  (161) 
22.9436

>  <b_lp_Chiralities_Consistent>  (161) 
1

>  <s_lp_Variant>  (161) 
40:0-1

>  <s_i_glide_gridfile>  (161) 
pfpi4k_grid

>  <i_i_glide_lignum>  (161) 
20

>  <i_i_glide_rotatable_bonds>  (161) 
0

>  <r_i_docking_score>  (161) 
-3.46243

>  <r_i_glide_ligand_efficiency>  (161) 
-0.247317

>  <r_i_glide_ligand_efficiency_sa>  (161) 
-0.596069

>  <r_i_glide_ligand_efficiency_ln>  (161) 
-0.951465

>  <r_i_glide_gscore>  (161) 
-3.46243

>  <r_i_glide_lipo>  (161) 
-0.216213

>  <r_i_glide_hbond>  (161) 
0

>  <r_i_glide_metal>  (161) 
-0

>  <r_i_glide_rewards>  (161) 
-1.79345

>  <r_i_glide_evdw>  (161) 
-20.7636

>  <r_i_glide_ecoul>  (161) 
-2.41051

>  <r_i_glide_erotb>  (161) 
0

>  <r_i_glide_esite>  (161) 
-0.0530183

>  <r_i_glide_emodel>  (161) 
-28.3399

>  <r_i_glide_energy>  (161) 
-23.1741

>  <r_i_glide_einternal>  (161) 
0

>  <r_i_glide_intrahb_reward>  (161) 
-0

>  <i_i_glide_confnum>  (161) 
1

>  <i_i_glide_posenum>  (161) 
24

>  <r_i_glide_eff_state_penalty>  (161) 
0

>  <ligand_id>  (161) 
40

>  <original_smiles>  (161) 
Brc1nnc2c3ccncc3ncn12

>  <smiles>  (161) 
[H]c1nc([H])c2nc([H])n3c(Br)nnc3c2c1[H]

$$$$
40:0:2
     RDKit          3D

 18 20  0  0  1  0  0  0  0  0999 V2000
    4.6152   -7.0785    3.0330 Br  0  0  0  0  0  0  0  0  0  0  0  0
    3.7603   -6.0207    1.7014 C   0  0  0  0  0  0  0  0  0  0  0  0
    2.4442   -5.9868    1.4920 N   0  0  0  0  0  0  0  0  0  0  0  0
    2.2146   -5.0891    0.4467 N   0  0  0  0  0  0  0  0  0  0  0  0
    3.4017   -4.5960    0.0526 C   0  0  0  0  0  0  0  0  0  0  0  0
    3.7991   -3.6691   -0.9455 C   0  0  0  0  0  0  0  0  0  0  0  0
    2.8464   -3.0563   -1.7805 C   0  0  0  0  0  0  0  0  0  0  0  0
    3.3114   -2.1572   -2.7553 C   0  0  0  0  0  0  0  0  0  0  0  0
    4.6199   -1.8716   -2.9248 N   0  0  0  0  0  0  0  0  0  0  0  0
    5.5144   -2.4743   -2.1087 C   0  0  0  0  0  0  0  0  0  0  0  0
    5.1731   -3.3869   -1.0872 C   0  0  0  0  0  0  0  0  0  0  0  0
    6.1031   -3.9592   -0.2954 N   0  0  0  0  0  0  0  0  0  0  0  0
    5.7311   -4.8479    0.6543 C   0  0  0  0  0  0  0  0  0  0  0  0
    4.3939   -5.1863    0.8481 N   0  0  0  0  0  0  0  0  0  0  0  0
    1.7924   -3.2703   -1.6873 H   0  0  0  0  0  0  0  0  0  0  0  0
    2.6158   -1.6678   -3.4238 H   0  0  0  0  0  0  0  0  0  0  0  0
    6.5467   -2.2049   -2.2737 H   0  0  0  0  0  0  0  0  0  0  0  0
    6.4890   -5.3033    1.2770 H   0  0  0  0  0  0  0  0  0  0  0  0
  1  2  1  0
  2 14  1  0
  2  3  2  0
  3  4  1  0
  4  5  2  0
  5 14  1  0
  5  6  1  0
  6 11  2  0
  6  7  1  0
  7  8  2  0
  7 15  1  0
  8  9  1  0
  8 16  1  0
  9 10  2  0
 10 11  1  0
 10 17  1  0
 11 12  1  0
 12 13  2  0
 13 14  1  0
 13 18  1  0
M  END
>  <i_m_ct_stereo_status>  (162) 
1

>  <s_m_source_file>  (162) 
/var/tmp/pbs.5076255.sched01/tmp6h9xbnrx/445q66801d.sdf

>  <i_m_source_file_index>  (162) 
20

>  <i_lp_mmshare_version>  (162) 
48012

>  <i_f3d_flags>  (162) 
0

>  <s_epik_input>  (162) 
bjFuYyhCciluMltjSF1uYyhjM2MxMilbY0hdbltjSF1bY0hdMw==

>  <s_epik_cmdline>  (162) 
J2VwaWtfcHl0aG9uJywgJy1waHQnLCAnMi4wJywgJy1waCcsICc3LjAnLCAnLXRuJywgJzgnLCAnLW1hJywgJzIwMCcsICctaW1hZScsICc8aW5maWxlLm1hZT4nLCAnLW9tYWUnLCAnPG91dGZpbGUubWFlPic=

>  <r_lp_tautomer_probability>  (162) 
1

>  <r_epik_Ionization_Penalty>  (162) 
6.21408e-09

>  <r_epik_Ionization_Penalty_Charging>  (162) 
0

>  <r_epik_Ionization_Penalty_Neutral>  (162) 
6.21408e-09

>  <r_epik_State_Penalty>  (162) 
-0

>  <r_epik_Charging_Adjusted_Penalty>  (162) 
0

>  <i_epik_Tot_Q>  (162) 
0

>  <i_epik_Tot_abs_Q>  (162) 
0

>  <s_lp_Force_Field>  (162) 
OPLS3e

>  <r_lp_Energy>  (162) 
22.9436

>  <b_lp_Chiralities_Consistent>  (162) 
1

>  <s_lp_Variant>  (162) 
40:0-1

>  <s_i_glide_gridfile>  (162) 
pfpi4k_grid

>  <i_i_glide_lignum>  (162) 
20

>  <i_i_glide_rotatable_bonds>  (162) 
0

>  <r_i_docking_score>  (162) 
-3.44874

>  <r_i_glide_ligand_efficiency>  (162) 
-0.246339

>  <r_i_glide_ligand_efficiency_sa>  (162) 
-0.593711

>  <r_i_glide_ligand_efficiency_ln>  (162) 
-0.947701

>  <r_i_glide_gscore>  (162) 
-3.44874

>  <r_i_glide_lipo>  (162) 
-0.087884

>  <r_i_glide_hbond>  (162) 
0

>  <r_i_glide_metal>  (162) 
-0

>  <r_i_glide_rewards>  (162) 
-1.9333

>  <r_i_glide_evdw>  (162) 
-18.473

>  <r_i_glide_ecoul>  (162) 
-2.70433

>  <r_i_glide_erotb>  (162) 
0

>  <r_i_glide_esite>  (162) 
-0.0982604

>  <r_i_glide_emodel>  (162) 
-26.3262

>  <r_i_glide_energy>  (162) 
-21.1773

>  <r_i_glide_einternal>  (162) 
0

>  <r_i_glide_intrahb_reward>  (162) 
-0

>  <i_i_glide_confnum>  (162) 
2

>  <i_i_glide_posenum>  (162) 
34

>  <r_i_glide_eff_state_penalty>  (162) 
0

>  <ligand_id>  (162) 
40

>  <original_smiles>  (162) 
Brc1nnc2c3ccncc3ncn12

>  <smiles>  (162) 
[H]c1nc([H])c2nc([H])n3c(Br)nnc3c2c1[H]

$$$$
42:0:0
     RDKit          3D

 70 74  0  0  1  0  0  0  0  0999 V2000
    7.0333   -6.2854    4.7317 C   0  0  0  0  0  0  0  0  0  0  0  0
    5.6278   -6.1934    5.3775 C   0  0  0  0  0  0  0  0  0  0  0  0
    5.5402   -7.2786    6.4740 C   0  0  0  0  0  0  0  0  0  0  0  0
    5.4809   -4.8053    6.0394 C   0  0  0  0  0  0  0  0  0  0  0  0
    4.5197   -6.4588    4.3219 C   0  0  0  0  0  0  0  0  0  0  0  0
    4.3848   -5.3829    3.2266 C   0  0  2  0  0  0  0  0  0  0  0  0
    3.6604   -4.1779    3.6957 N   0  0  0  0  0  0  0  0  0  0  0  0
    2.8133   -3.6596    2.6096 C   0  0  1  0  0  0  0  0  0  0  0  0
    3.0760   -2.1465    2.4966 C   0  0  0  0  0  0  0  0  0  0  0  0
    4.1560   -1.6929    2.8766 O   0  0  0  0  0  0  0  0  0  0  0  0
    2.0607   -1.3918    2.0307 N   0  0  0  0  0  0  0  0  0  0  0  0
    2.1716    0.0502    1.8856 C   0  0  2  0  0  0  0  0  0  0  0  0
    2.3045    0.8034    3.2194 C   0  0  0  0  0  0  0  0  0  0  0  0
    1.2527    1.7927    2.7119 C   0  0  1  0  0  0  0  0  0  0  0  0
    0.1952    2.2185    3.7104 C   0  0  0  0  0  0  0  0  0  0  0  0
    1.8235    2.9429    2.1134 O   0  0  0  0  0  0  0  0  0  0  0  0
    0.8104    0.7212    1.7159 C   0  0  0  0  0  0  0  0  0  0  0  0
    3.1627   -4.5210    1.3367 C   0  0  1  0  0  0  0  0  0  0  0  0
    4.1923   -3.9026    0.3849 C   0  0  0  0  0  0  0  0  0  0  0  0
    5.3969   -3.3678    0.8927 C   0  0  0  0  0  0  0  0  0  0  0  0
    6.3371   -2.7712    0.0437 C   0  0  0  0  0  0  0  0  0  0  0  0
    6.0918   -2.7036   -1.3365 C   0  0  0  0  0  0  0  0  0  0  0  0
    4.8917   -3.2280   -1.8617 C   0  0  0  0  0  0  0  0  0  0  0  0
    4.5986   -3.1595   -3.5576 Cl  0  0  0  0  0  0  0  0  0  0  0  0
    3.9405   -3.8233   -1.0021 C   0  0  0  0  0  0  0  0  0  0  0  0
    3.6390   -5.8540    1.9651 C   0  0  1  0  0  0  0  0  0  0  0  0
    4.5760   -6.8108    1.1868 C   0  0  0  0  0  0  0  0  0  0  0  0
    5.6749   -6.3952    0.7287 O   0  0  0  0  0  0  0  0  0  0  0  0
    4.0178   -8.0410    1.2086 N   0  0  0  0  0  0  0  0  0  0  0  0
    2.7375   -8.0806    1.8955 C   0  0  0  0  0  0  0  0  0  0  0  0
    1.9017   -9.1415    2.1508 C   0  0  0  0  0  0  0  0  0  0  0  0
    0.6928   -8.8618    2.8246 C   0  0  0  0  0  0  0  0  0  0  0  0
    0.3835   -7.5456    3.2121 C   0  0  0  0  0  0  0  0  0  0  0  0
   -1.0792   -7.2450    3.9904 Cl  0  0  0  0  0  0  0  0  0  0  0  0
    1.2545   -6.4992    2.9795 C   0  0  0  0  0  0  0  0  0  0  0  0
    2.4648   -6.7673    2.3206 C   0  0  0  0  0  0  0  0  0  0  0  0
    7.8273   -6.1369    5.4691 H   0  0  0  0  0  0  0  0  0  0  0  0
    7.1998   -5.5319    3.9612 H   0  0  0  0  0  0  0  0  0  0  0  0
    7.2014   -7.2594    4.2679 H   0  0  0  0  0  0  0  0  0  0  0  0
    5.4998   -8.2796    6.0353 H   0  0  0  0  0  0  0  0  0  0  0  0
    4.6419   -7.1490    7.0824 H   0  0  0  0  0  0  0  0  0  0  0  0
    6.4075   -7.2430    7.1429 H   0  0  0  0  0  0  0  0  0  0  0  0
    6.2816   -4.6115    6.7561 H   0  0  0  0  0  0  0  0  0  0  0  0
    4.5281   -4.7204    6.5645 H   0  0  0  0  0  0  0  0  0  0  0  0
    5.5468   -3.9936    5.3152 H   0  0  0  0  0  0  0  0  0  0  0  0
    4.8101   -7.4002    3.8541 H   0  0  0  0  0  0  0  0  0  0  0  0
    3.5670   -6.6672    4.8114 H   0  0  0  0  0  0  0  0  0  0  0  0
    5.3864   -5.0491    2.9531 H   0  0  0  0  0  0  0  0  0  0  0  0
    3.0416   -4.4943    4.4355 H   0  0  0  0  0  0  0  0  0  0  0  0
    1.7604   -3.7545    2.8821 H   0  0  0  0  0  0  0  0  0  0  0  0
    1.2365   -1.8389    1.6383 H   0  0  0  0  0  0  0  0  0  0  0  0
    2.9215    0.3677    1.1503 H   0  0  0  0  0  0  0  0  0  0  0  0
    1.9701    0.2416    4.0991 H   0  0  0  0  0  0  0  0  0  0  0  0
    3.2864    1.2412    3.3893 H   0  0  0  0  0  0  0  0  0  0  0  0
   -0.2572    1.3441    4.1900 H   0  0  0  0  0  0  0  0  0  0  0  0
   -0.6183    2.7711    3.2411 H   0  0  0  0  0  0  0  0  0  0  0  0
    0.6121    2.8292    4.5064 H   0  0  0  0  0  0  0  0  0  0  0  0
    1.1309    3.4047    1.6379 H   0  0  0  0  0  0  0  0  0  0  0  0
    0.6156    1.0480    0.6974 H   0  0  0  0  0  0  0  0  0  0  0  0
   -0.0121    0.1025    2.0895 H   0  0  0  0  0  0  0  0  0  0  0  0
    2.2509   -4.6951    0.7629 H   0  0  0  0  0  0  0  0  0  0  0  0
    5.6306   -3.3927    1.9452 H   0  0  0  0  0  0  0  0  0  0  0  0
    7.2321   -2.3553    0.4784 H   0  0  0  0  0  0  0  0  0  0  0  0
    6.8206   -2.2427   -1.9929 H   0  0  0  0  0  0  0  0  0  0  0  0
    3.0295   -4.2218   -1.4239 H   0  0  0  0  0  0  0  0  0  0  0  0
    4.4939   -8.8806    0.8660 H   0  0  0  0  0  0  0  0  0  0  0  0
    2.2017  -10.1360    1.8223 H   0  0  0  0  0  0  0  0  0  0  0  0
    0.0490   -9.6579    2.9981 H   0  0  0  0  0  0  0  0  0  0  0  0
    0.9917   -5.5164    3.3296 H   0  0  0  0  0  0  0  0  0  0  0  0
    4.2920   -3.4672    4.0556 H   0  0  0  0  0  0  0  0  0  0  0  0
  1  2  1  0
  1 37  1  0
  1 38  1  0
  1 39  1  0
  2  3  1  0
  2  4  1  0
  2  5  1  0
  3 40  1  0
  3 41  1  0
  3 42  1  0
  4 43  1  0
  4 44  1  0
  4 45  1  0
  5  6  1  0
  5 46  1  0
  5 47  1  0
  6 26  1  0
  6  7  1  0
  6 48  1  6
  7  8  1  0
  7 49  1  0
  7 70  1  0
  8  9  1  0
  8 18  1  0
  8 50  1  1
  9 10  2  0
  9 11  1  0
 11 12  1  0
 11 51  1  0
 12 17  1  0
 12 13  1  0
 12 52  1  6
 13 14  1  0
 13 53  1  0
 13 54  1  0
 14 15  1  0
 14 16  1  6
 14 17  1  0
 15 55  1  0
 15 56  1  0
 15 57  1  0
 16 58  1  0
 17 59  1  0
 17 60  1  0
 18 19  1  0
 18 26  1  0
 18 61  1  6
 19 25  1  0
 19 20  2  0
 20 21  1  0
 20 62  1  0
 21 22  2  0
 21 63  1  0
 22 23  1  0
 22 64  1  0
 23 24  1  0
 23 25  2  0
 25 65  1  0
 26 36  1  0
 26 27  1  6
 27 28  2  0
 27 29  1  0
 29 30  1  0
 29 66  1  0
 30 36  2  0
 30 31  1  0
 31 32  2  0
 31 67  1  0
 32 33  1  0
 32 68  1  0
 33 34  1  0
 33 35  2  0
 35 36  1  0
 35 69  1  0
M  CHG  1   7   1
M  END
>  <i_m_ct_stereo_status>  (163) 
1

>  <s_m_source_file>  (163) 
/var/tmp/pbs.5076255.sched01/tmp6h9xbnrx/445q66801d.sdf

>  <i_m_source_file_index>  (163) 
22

>  <i_lp_mmshare_version>  (163) 
48012

>  <i_f3d_flags>  (163) 
0

>  <s_epik_input>  (163) 
Q2xjKFtjSF0xKVtjSF1bY0hdYyhbTkhdQzI9TyljMVtDQEBdMjNbQ0BIXShbQ0gyXUMoW0NIM10pKFtDSDNdKVtDSDNdKVtOSF1bQ0BASF0oQyg9TylbTkhdW0NAQEhdKFtDSDJdNClbQ0gyXVtDQEBdNChbQ0gzXSlbT0hdKVtDQEhdM2M1W2NIXVtjSF1bY0hdYyhDbClbY0hdNQ==

>  <s_epik_cmdline>  (163) 
J2VwaWtfcHl0aG9uJywgJy1waHQnLCAnMi4wJywgJy1waCcsICc3LjAnLCAnLXRuJywgJzgnLCAnLW1hJywgJzIwMCcsICctaW1hZScsICc8aW5maWxlLm1hZT4nLCAnLW9tYWUnLCAnPG91dGZpbGUubWFlPic=

>  <r_epik_Ionization_Penalty>  (163) 
0.0908668

>  <r_epik_Ionization_Penalty_Charging>  (163) 
0.0908626

>  <r_epik_Ionization_Penalty_Neutral>  (163) 
4.19444e-06

>  <r_epik_State_Penalty>  (163) 
0.0812167

>  <r_epik_Charging_Adjusted_Penalty>  (163) 
0.172079

>  <i_epik_Tot_Q>  (163) 
1

>  <i_epik_Tot_abs_Q>  (163) 
1

>  <s_lp_Force_Field>  (163) 
OPLS3e

>  <r_lp_Energy>  (163) 
55.2659

>  <b_lp_Chiralities_Consistent>  (163) 
1

>  <s_lp_Variant>  (163) 
42:0-1

>  <s_i_glide_gridfile>  (163) 
pfpi4k_grid

>  <i_i_glide_lignum>  (163) 
22

>  <i_i_glide_rotatable_bonds>  (163) 
7

>  <r_i_docking_score>  (163) 
-3.59985

>  <r_i_glide_ligand_efficiency>  (163) 
-0.0999959

>  <r_i_glide_ligand_efficiency_sa>  (163) 
-0.330179

>  <r_i_glide_ligand_efficiency_ln>  (163) 
-0.785391

>  <r_i_glide_gscore>  (163) 
-3.59985

>  <r_i_glide_lipo>  (163) 
-0.467908

>  <r_i_glide_hbond>  (163) 
-0.16

>  <r_i_glide_metal>  (163) 
-0

>  <r_i_glide_rewards>  (163) 
-0.12478

>  <r_i_glide_evdw>  (163) 
-34.5472

>  <r_i_glide_ecoul>  (163) 
-9.53218

>  <r_i_glide_erotb>  (163) 
0.36498

>  <r_i_glide_esite>  (163) 
-0.0549588

>  <r_i_glide_emodel>  (163) 
-49.9975

>  <r_i_glide_energy>  (163) 
-44.0794

>  <r_i_glide_einternal>  (163) 
2.81137

>  <r_i_glide_intrahb_reward>  (163) 
-0

>  <i_i_glide_confnum>  (163) 
3

>  <i_i_glide_posenum>  (163) 
30

>  <r_i_glide_eff_state_penalty>  (163) 
0

>  <ligand_id>  (163) 
42

>  <original_smiles>  (163) 
CC(C)(C)CC1NC(C(=O)NC2CC(C)(O)C2)C(c2cccc(Cl)c2)C12C(=O)Nc1ccc(Cl)cc12

>  <smiles>  (163) 
[H]OC1(C([H])([H])[H])C([H])([H])C([H])(N([H])C(=O)C2([H])C([H])(c3c([H])c([H])c([H])c(Cl)c3[H])C3(C(=O)N([H])c4c([H])c([H])c(Cl)c([H])c43)C([H])(C([H])([H])C(C([H])([H])[H])(C([H])([H])[H])C([H])([H])[H])[N+]2([H])[H])C1([H])[H]

$$$$
42:0:1
     RDKit          3D

 70 74  0  0  1  0  0  0  0  0999 V2000
    5.7852   -4.5442    5.6004 C   0  0  0  0  0  0  0  0  0  0  0  0
    5.8778   -5.9462    4.9687 C   0  0  0  0  0  0  0  0  0  0  0  0
    7.2382   -6.0622    4.2335 C   0  0  0  0  0  0  0  0  0  0  0  0
    5.8345   -6.9976    6.0972 C   0  0  0  0  0  0  0  0  0  0  0  0
    4.6711   -6.1923    4.0245 C   0  0  0  0  0  0  0  0  0  0  0  0
    4.4024   -5.0843    2.9941 C   0  0  2  0  0  0  0  0  0  0  0  0
    3.6901   -3.9203    3.5621 N   0  0  0  0  0  0  0  0  0  0  0  0
    2.7390   -3.3859    2.5719 C   0  0  1  0  0  0  0  0  0  0  0  0
    2.9642   -1.8659    2.4540 C   0  0  0  0  0  0  0  0  0  0  0  0
    4.0652   -1.3867    2.7312 O   0  0  0  0  0  0  0  0  0  0  0  0
    1.9135   -1.1371    2.0726 N   0  0  0  0  0  0  0  0  0  0  0  0
    2.0151    0.2718    1.6974 C   0  0  2  0  0  0  0  0  0  0  0  0
    2.2753    1.2165    2.8827 C   0  0  0  0  0  0  0  0  0  0  0  0
    0.7551    1.3646    3.0576 C   0  0  1  0  0  0  0  0  0  0  0  0
    0.1138    0.4417    4.0911 C   0  0  0  0  0  0  0  0  0  0  0  0
    0.3011    2.6877    3.2806 O   0  0  0  0  0  0  0  0  0  0  0  0
    0.6284    0.9122    1.6017 C   0  0  0  0  0  0  0  0  0  0  0  0
    2.9807   -4.2027    1.2499 C   0  0  1  0  0  0  0  0  0  0  0  0
    3.9034   -3.5402    0.2264 C   0  0  0  0  0  0  0  0  0  0  0  0
    5.1333   -2.9832    0.6417 C   0  0  0  0  0  0  0  0  0  0  0  0
    5.9799   -2.3364   -0.2581 C   0  0  0  0  0  0  0  0  0  0  0  0
    5.6182   -2.2554   -1.6098 C   0  0  0  0  0  0  0  0  0  0  0  0
    4.4023   -2.8144   -2.0520 C   0  0  0  0  0  0  0  0  0  0  0  0
    3.9801   -2.7275   -3.7216 Cl  0  0  0  0  0  0  0  0  0  0  0  0
    3.5405   -3.4533   -1.1347 C   0  0  0  0  0  0  0  0  0  0  0  0
    3.5497   -5.5252    1.8016 C   0  0  1  0  0  0  0  0  0  0  0  0
    4.4417   -6.4284    0.9142 C   0  0  0  0  0  0  0  0  0  0  0  0
    5.4803   -5.9857    0.3863 O   0  0  0  0  0  0  0  0  0  0  0  0
    3.9184   -7.6854    0.9673 N   0  0  0  0  0  0  0  0  0  0  0  0
    2.7176   -7.7642    1.7548 C   0  0  0  0  0  0  0  0  0  0  0  0
    1.9059   -8.8649    2.0567 C   0  0  0  0  0  0  0  0  0  0  0  0
    0.7561   -8.6326    2.8328 C   0  0  0  0  0  0  0  0  0  0  0  0
    0.4489   -7.3375    3.2890 C   0  0  0  0  0  0  0  0  0  0  0  0
   -0.9586   -7.0747    4.2056 Cl  0  0  0  0  0  0  0  0  0  0  0  0
    1.2853   -6.2606    3.0019 C   0  0  0  0  0  0  0  0  0  0  0  0
    2.4396   -6.4874    2.2317 C   0  0  0  0  0  0  0  0  0  0  0  0
    6.5940   -4.3598    6.3076 H   0  0  0  0  0  0  0  0  0  0  0  0
    4.8395   -4.4159    6.1295 H   0  0  0  0  0  0  0  0  0  0  0  0
    5.8640   -3.7571    4.8497 H   0  0  0  0  0  0  0  0  0  0  0  0
    7.2839   -5.4561    3.3294 H   0  0  0  0  0  0  0  0  0  0  0  0
    7.4652   -7.0884    3.9414 H   0  0  0  0  0  0  0  0  0  0  0  0
    8.0608   -5.7274    4.8710 H   0  0  0  0  0  0  0  0  0  0  0  0
    6.5992   -6.8029    6.8539 H   0  0  0  0  0  0  0  0  0  0  0  0
    5.9978   -8.0073    5.7127 H   0  0  0  0  0  0  0  0  0  0  0  0
    4.8641   -6.9933    6.5988 H   0  0  0  0  0  0  0  0  0  0  0  0
    4.8859   -7.1239    3.5026 H   0  0  0  0  0  0  0  0  0  0  0  0
    3.7683   -6.3769    4.6050 H   0  0  0  0  0  0  0  0  0  0  0  0
    5.3650   -4.7204    2.6404 H   0  0  0  0  0  0  0  0  0  0  0  0
    3.1541   -4.2912    4.3403 H   0  0  0  0  0  0  0  0  0  0  0  0
    1.7215   -3.5087    2.9416 H   0  0  0  0  0  0  0  0  0  0  0  0
    1.0339   -1.6028    1.8791 H   0  0  0  0  0  0  0  0  0  0  0  0
    2.6730    0.4442    0.8434 H   0  0  0  0  0  0  0  0  0  0  0  0
    2.7799    0.7849    3.7492 H   0  0  0  0  0  0  0  0  0  0  0  0
    2.7660    2.1401    2.5731 H   0  0  0  0  0  0  0  0  0  0  0  0
    0.4184   -0.5922    3.9328 H   0  0  0  0  0  0  0  0  0  0  0  0
   -0.9732    0.4611    4.0245 H   0  0  0  0  0  0  0  0  0  0  0  0
    0.4189    0.7051    5.1022 H   0  0  0  0  0  0  0  0  0  0  0  0
    0.3747    3.1697    2.4661 H   0  0  0  0  0  0  0  0  0  0  0  0
    0.6086    1.7573    0.9244 H   0  0  0  0  0  0  0  0  0  0  0  0
   -0.1901    0.2184    1.4055 H   0  0  0  0  0  0  0  0  0  0  0  0
    2.0306   -4.4027    0.7534 H   0  0  0  0  0  0  0  0  0  0  0  0
    5.4472   -3.0126    1.6713 H   0  0  0  0  0  0  0  0  0  0  0  0
    6.8926   -1.8994    0.1155 H   0  0  0  0  0  0  0  0  0  0  0  0
    6.2752   -1.7589   -2.3063 H   0  0  0  0  0  0  0  0  0  0  0  0
    2.6142   -3.8751   -1.4926 H   0  0  0  0  0  0  0  0  0  0  0  0
    4.3579   -8.5082    0.5577 H   0  0  0  0  0  0  0  0  0  0  0  0
    2.1666   -9.8468    1.6827 H   0  0  0  0  0  0  0  0  0  0  0  0
    0.1222   -9.4459    3.0498 H   0  0  0  0  0  0  0  0  0  0  0  0
    1.0264   -5.2984    3.3922 H   0  0  0  0  0  0  0  0  0  0  0  0
    4.3431   -3.2191    3.8919 H   0  0  0  0  0  0  0  0  0  0  0  0
  1  2  1  0
  1 37  1  0
  1 38  1  0
  1 39  1  0
  2  3  1  0
  2  4  1  0
  2  5  1  0
  3 40  1  0
  3 41  1  0
  3 42  1  0
  4 43  1  0
  4 44  1  0
  4 45  1  0
  5  6  1  0
  5 46  1  0
  5 47  1  0
  6 26  1  0
  6  7  1  0
  6 48  1  6
  7  8  1  0
  7 49  1  0
  7 70  1  0
  8  9  1  0
  8 18  1  0
  8 50  1  1
  9 10  2  0
  9 11  1  0
 11 12  1  0
 11 51  1  0
 12 17  1  0
 12 13  1  0
 12 52  1  6
 13 14  1  0
 13 53  1  0
 13 54  1  0
 14 15  1  0
 14 16  1  6
 14 17  1  0
 15 55  1  0
 15 56  1  0
 15 57  1  0
 16 58  1  0
 17 59  1  0
 17 60  1  0
 18 19  1  0
 18 26  1  0
 18 61  1  6
 19 25  1  0
 19 20  2  0
 20 21  1  0
 20 62  1  0
 21 22  2  0
 21 63  1  0
 22 23  1  0
 22 64  1  0
 23 24  1  0
 23 25  2  0
 25 65  1  0
 26 36  1  0
 26 27  1  6
 27 28  2  0
 27 29  1  0
 29 30  1  0
 29 66  1  0
 30 36  2  0
 30 31  1  0
 31 32  2  0
 31 67  1  0
 32 33  1  0
 32 68  1  0
 33 34  1  0
 33 35  2  0
 35 36  1  0
 35 69  1  0
M  CHG  1   7   1
M  END
>  <i_m_ct_stereo_status>  (164) 
1

>  <s_m_source_file>  (164) 
/var/tmp/pbs.5076255.sched01/tmp6h9xbnrx/445q66801d.sdf

>  <i_m_source_file_index>  (164) 
22

>  <i_lp_mmshare_version>  (164) 
48012

>  <i_f3d_flags>  (164) 
0

>  <s_epik_input>  (164) 
Q2xjKFtjSF0xKVtjSF1bY0hdYyhbTkhdQzI9TyljMVtDQEBdMjNbQ0BIXShbQ0gyXUMoW0NIM10pKFtDSDNdKVtDSDNdKVtOSF1bQ0BASF0oQyg9TylbTkhdW0NAQEhdKFtDSDJdNClbQ0gyXVtDQEBdNChbQ0gzXSlbT0hdKVtDQEhdM2M1W2NIXVtjSF1bY0hdYyhDbClbY0hdNQ==

>  <s_epik_cmdline>  (164) 
J2VwaWtfcHl0aG9uJywgJy1waHQnLCAnMi4wJywgJy1waCcsICc3LjAnLCAnLXRuJywgJzgnLCAnLW1hJywgJzIwMCcsICctaW1hZScsICc8aW5maWxlLm1hZT4nLCAnLW9tYWUnLCAnPG91dGZpbGUubWFlPic=

>  <r_epik_Ionization_Penalty>  (164) 
0.0908668

>  <r_epik_Ionization_Penalty_Charging>  (164) 
0.0908626

>  <r_epik_Ionization_Penalty_Neutral>  (164) 
4.19444e-06

>  <r_epik_State_Penalty>  (164) 
0.0812167

>  <r_epik_Charging_Adjusted_Penalty>  (164) 
0.172079

>  <i_epik_Tot_Q>  (164) 
1

>  <i_epik_Tot_abs_Q>  (164) 
1

>  <s_lp_Force_Field>  (164) 
OPLS3e

>  <r_lp_Energy>  (164) 
55.2659

>  <b_lp_Chiralities_Consistent>  (164) 
1

>  <s_lp_Variant>  (164) 
42:0-1

>  <s_i_glide_gridfile>  (164) 
pfpi4k_grid

>  <i_i_glide_lignum>  (164) 
22

>  <i_i_glide_rotatable_bonds>  (164) 
7

>  <r_i_docking_score>  (164) 
-3.09332

>  <r_i_glide_ligand_efficiency>  (164) 
-0.0859256

>  <r_i_glide_ligand_efficiency_sa>  (164) 
-0.28372

>  <r_i_glide_ligand_efficiency_ln>  (164) 
-0.674879

>  <r_i_glide_gscore>  (164) 
-3.09332

>  <r_i_glide_lipo>  (164) 
-0.274272

>  <r_i_glide_hbond>  (164) 
-0.137061

>  <r_i_glide_metal>  (164) 
-0

>  <r_i_glide_rewards>  (164) 
-0.149855

>  <r_i_glide_evdw>  (164) 
-37.1455

>  <r_i_glide_ecoul>  (164) 
-7.2942

>  <r_i_glide_erotb>  (164) 
0.36498

>  <r_i_glide_esite>  (164) 
-0.057752

>  <r_i_glide_emodel>  (164) 
-47.8434

>  <r_i_glide_energy>  (164) 
-44.4397

>  <r_i_glide_einternal>  (164) 
2.23232

>  <r_i_glide_intrahb_reward>  (164) 
-0

>  <i_i_glide_confnum>  (164) 
2

>  <i_i_glide_posenum>  (164) 
1

>  <r_i_glide_eff_state_penalty>  (164) 
0

>  <ligand_id>  (164) 
42

>  <original_smiles>  (164) 
CC(C)(C)CC1NC(C(=O)NC2CC(C)(O)C2)C(c2cccc(Cl)c2)C12C(=O)Nc1ccc(Cl)cc12

>  <smiles>  (164) 
[H]OC1(C([H])([H])[H])C([H])([H])C([H])(N([H])C(=O)C2([H])C([H])(c3c([H])c([H])c([H])c(Cl)c3[H])C3(C(=O)N([H])c4c([H])c([H])c(Cl)c([H])c43)C([H])(C([H])([H])C(C([H])([H])[H])(C([H])([H])[H])C([H])([H])[H])[N+]2([H])[H])C1([H])[H]

$$$$
42:0:2
     RDKit          3D

 70 74  0  0  1  0  0  0  0  0999 V2000
    5.6048   -4.7127    6.3573 C   0  0  0  0  0  0  0  0  0  0  0  0
    4.6152   -3.5326    6.3502 C   0  0  0  0  0  0  0  0  0  0  0  0
    3.3112   -3.9784    7.0431 C   0  0  0  0  0  0  0  0  0  0  0  0
    5.2430   -2.3609    7.1434 C   0  0  0  0  0  0  0  0  0  0  0  0
    4.3776   -3.1716    4.8626 C   0  0  0  0  0  0  0  0  0  0  0  0
    3.4608   -1.9743    4.5894 C   0  0  2  0  0  0  0  0  0  0  0  0
    2.0365   -2.2568    4.8653 N   0  0  0  0  0  0  0  0  0  0  0  0
    1.1974   -1.5858    3.8559 C   0  0  1  0  0  0  0  0  0  0  0  0
    0.1070   -0.7790    4.5935 C   0  0  0  0  0  0  0  0  0  0  0  0
   -0.0955   -0.9850    5.7946 O   0  0  0  0  0  0  0  0  0  0  0  0
   -0.5805    0.1206    3.8729 N   0  0  0  0  0  0  0  0  0  0  0  0
   -1.4285    1.1364    4.4651 C   0  0  2  0  0  0  0  0  0  0  0  0
   -1.8628    2.1987    3.4453 C   0  0  0  0  0  0  0  0  0  0  0  0
   -1.4734    3.2854    4.4615 C   0  0  1  0  0  0  0  0  0  0  0  0
   -0.7372    4.4955    3.8928 C   0  0  0  0  0  0  0  0  0  0  0  0
   -2.5528    3.7329    5.2599 O   0  0  0  0  0  0  0  0  0  0  0  0
   -0.6013    2.2338    5.1543 C   0  0  0  0  0  0  0  0  0  0  0  0
    2.1745   -0.7211    2.9767 C   0  0  1  0  0  0  0  0  0  0  0  0
    2.3272    0.7476    3.3639 C   0  0  0  0  0  0  0  0  0  0  0  0
    2.1866    1.7479    2.3828 C   0  0  0  0  0  0  0  0  0  0  0  0
    2.2829    3.1056    2.7374 C   0  0  0  0  0  0  0  0  0  0  0  0
    2.5114    3.4797    4.0771 C   0  0  0  0  0  0  0  0  0  0  0  0
    2.6489    2.4875    5.0671 C   0  0  0  0  0  0  0  0  0  0  0  0
    2.8090    2.9052    6.7249 Cl  0  0  0  0  0  0  0  0  0  0  0  0
    2.5583    1.1327    4.7066 C   0  0  0  0  0  0  0  0  0  0  0  0
    3.4940   -1.4915    3.1357 C   0  0  1  0  0  0  0  0  0  0  0  0
    4.8535   -0.7701    2.9093 C   0  0  0  0  0  0  0  0  0  0  0  0
    5.1949    0.2212    3.5734 O   0  0  0  0  0  0  0  0  0  0  0  0
    5.5695   -1.5097    2.0027 N   0  0  0  0  0  0  0  0  0  0  0  0
    4.8407   -2.6515    1.5411 C   0  0  0  0  0  0  0  0  0  0  0  0
    5.2547   -3.6544    0.6386 C   0  0  0  0  0  0  0  0  0  0  0  0
    4.3078   -4.6409    0.3317 C   0  0  0  0  0  0  0  0  0  0  0  0
    3.0244   -4.6385    0.8957 C   0  0  0  0  0  0  0  0  0  0  0  0
    1.9032   -5.8664    0.4934 Cl  0  0  0  0  0  0  0  0  0  0  0  0
    2.6579   -3.6454    1.8142 C   0  0  0  0  0  0  0  0  0  0  0  0
    3.5995   -2.6576    2.1392 C   0  0  0  0  0  0  0  0  0  0  0  0
    5.8214   -5.0483    7.3737 H   0  0  0  0  0  0  0  0  0  0  0  0
    6.5514   -4.4356    5.8872 H   0  0  0  0  0  0  0  0  0  0  0  0
    5.1984   -5.5605    5.8019 H   0  0  0  0  0  0  0  0  0  0  0  0
    2.7586   -4.6897    6.4277 H   0  0  0  0  0  0  0  0  0  0  0  0
    2.6523   -3.1371    7.2621 H   0  0  0  0  0  0  0  0  0  0  0  0
    3.5180   -4.4619    7.9982 H   0  0  0  0  0  0  0  0  0  0  0  0
    5.5288   -2.6745    8.1493 H   0  0  0  0  0  0  0  0  0  0  0  0
    4.5555   -1.5232    7.2690 H   0  0  0  0  0  0  0  0  0  0  0  0
    6.1402   -1.9752    6.6560 H   0  0  0  0  0  0  0  0  0  0  0  0
    5.3643   -2.9377    4.4578 H   0  0  0  0  0  0  0  0  0  0  0  0
    4.0371   -4.0544    4.3208 H   0  0  0  0  0  0  0  0  0  0  0  0
    3.7609   -1.1680    5.2538 H   0  0  0  0  0  0  0  0  0  0  0  0
    1.9349   -3.2599    4.7328 H   0  0  0  0  0  0  0  0  0  0  0  0
    0.6546   -2.3280    3.2568 H   0  0  0  0  0  0  0  0  0  0  0  0
   -0.2663    0.2850    2.9245 H   0  0  0  0  0  0  0  0  0  0  0  0
   -2.2330    0.7395    5.0925 H   0  0  0  0  0  0  0  0  0  0  0  0
   -1.2359    2.2336    2.5466 H   0  0  0  0  0  0  0  0  0  0  0  0
   -2.9230    2.1725    3.1986 H   0  0  0  0  0  0  0  0  0  0  0  0
    0.0856    4.1706    3.2617 H   0  0  0  0  0  0  0  0  0  0  0  0
   -0.3028    5.1277    4.6702 H   0  0  0  0  0  0  0  0  0  0  0  0
   -1.3676    5.1007    3.2419 H   0  0  0  0  0  0  0  0  0  0  0  0
   -2.9958    2.9737    5.5716 H   0  0  0  0  0  0  0  0  0  0  0  0
   -0.6306    2.2365    6.2504 H   0  0  0  0  0  0  0  0  0  0  0  0
    0.3919    2.2973    4.7614 H   0  0  0  0  0  0  0  0  0  0  0  0
    1.8509   -0.7581    1.9358 H   0  0  0  0  0  0  0  0  0  0  0  0
    1.9780    1.4894    1.3561 H   0  0  0  0  0  0  0  0  0  0  0  0
    2.1252    3.8689    1.9905 H   0  0  0  0  0  0  0  0  0  0  0  0
    2.5050    4.5155    4.3639 H   0  0  0  0  0  0  0  0  0  0  0  0
    2.5610    0.4150    5.5018 H   0  0  0  0  0  0  0  0  0  0  0  0
    6.5402   -1.2958    1.7886 H   0  0  0  0  0  0  0  0  0  0  0  0
    6.2447   -3.6231    0.2294 H   0  0  0  0  0  0  0  0  0  0  0  0
    4.5848   -5.3920   -0.3599 H   0  0  0  0  0  0  0  0  0  0  0  0
    1.6837   -3.6877    2.2443 H   0  0  0  0  0  0  0  0  0  0  0  0
    1.7789   -2.0066    5.8123 H   0  0  0  0  0  0  0  0  0  0  0  0
  1  2  1  0
  1 37  1  0
  1 38  1  0
  1 39  1  0
  2  3  1  0
  2  4  1  0
  2  5  1  0
  3 40  1  0
  3 41  1  0
  3 42  1  0
  4 43  1  0
  4 44  1  0
  4 45  1  0
  5  6  1  0
  5 46  1  0
  5 47  1  0
  6 26  1  0
  6  7  1  0
  6 48  1  1
  7  8  1  0
  7 49  1  0
  7 70  1  0
  8  9  1  0
  8 18  1  0
  8 50  1  6
  9 10  2  0
  9 11  1  0
 11 12  1  0
 11 51  1  0
 12 17  1  0
 12 13  1  0
 12 52  1  1
 13 14  1  0
 13 53  1  0
 13 54  1  0
 14 15  1  0
 14 16  1  1
 14 17  1  0
 15 55  1  0
 15 56  1  0
 15 57  1  0
 16 58  1  0
 17 59  1  0
 17 60  1  0
 18 19  1  0
 18 26  1  0
 18 61  1  6
 19 25  1  0
 19 20  2  0
 20 21  1  0
 20 62  1  0
 21 22  2  0
 21 63  1  0
 22 23  1  0
 22 64  1  0
 23 24  1  0
 23 25  2  0
 25 65  1  0
 26 36  1  0
 26 27  1  1
 27 28  2  0
 27 29  1  0
 29 30  1  0
 29 66  1  0
 30 36  2  0
 30 31  1  0
 31 32  2  0
 31 67  1  0
 32 33  1  0
 32 68  1  0
 33 34  1  0
 33 35  2  0
 35 36  1  0
 35 69  1  0
M  CHG  1   7   1
M  END
>  <i_m_ct_stereo_status>  (165) 
1

>  <s_m_source_file>  (165) 
/var/tmp/pbs.5076255.sched01/tmp6h9xbnrx/445q66801d.sdf

>  <i_m_source_file_index>  (165) 
22

>  <i_lp_mmshare_version>  (165) 
48012

>  <i_f3d_flags>  (165) 
0

>  <s_epik_input>  (165) 
Q2xjKFtjSF0xKVtjSF1bY0hdYyhbTkhdQzI9TyljMVtDQEBdMjNbQ0BIXShbQ0gyXUMoW0NIM10pKFtDSDNdKVtDSDNdKVtOSF1bQ0BASF0oQyg9TylbTkhdW0NAQEhdKFtDSDJdNClbQ0gyXVtDQEBdNChbQ0gzXSlbT0hdKVtDQEhdM2M1W2NIXVtjSF1bY0hdYyhDbClbY0hdNQ==

>  <s_epik_cmdline>  (165) 
J2VwaWtfcHl0aG9uJywgJy1waHQnLCAnMi4wJywgJy1waCcsICc3LjAnLCAnLXRuJywgJzgnLCAnLW1hJywgJzIwMCcsICctaW1hZScsICc8aW5maWxlLm1hZT4nLCAnLW9tYWUnLCAnPG91dGZpbGUubWFlPic=

>  <r_epik_Ionization_Penalty>  (165) 
0.0908668

>  <r_epik_Ionization_Penalty_Charging>  (165) 
0.0908626

>  <r_epik_Ionization_Penalty_Neutral>  (165) 
4.19444e-06

>  <r_epik_State_Penalty>  (165) 
0.0812167

>  <r_epik_Charging_Adjusted_Penalty>  (165) 
0.172079

>  <i_epik_Tot_Q>  (165) 
1

>  <i_epik_Tot_abs_Q>  (165) 
1

>  <s_lp_Force_Field>  (165) 
OPLS3e

>  <r_lp_Energy>  (165) 
55.2659

>  <b_lp_Chiralities_Consistent>  (165) 
1

>  <s_lp_Variant>  (165) 
42:0-1

>  <s_i_glide_gridfile>  (165) 
pfpi4k_grid

>  <i_i_glide_lignum>  (165) 
22

>  <i_i_glide_rotatable_bonds>  (165) 
7

>  <r_i_docking_score>  (165) 
-2.17362

>  <r_i_glide_ligand_efficiency>  (165) 
-0.0603782

>  <r_i_glide_ligand_efficiency_sa>  (165) 
-0.199364

>  <r_i_glide_ligand_efficiency_ln>  (165) 
-0.474224

>  <r_i_glide_gscore>  (165) 
-2.17362

>  <r_i_glide_lipo>  (165) 
-0.180764

>  <r_i_glide_hbond>  (165) 
-0.0102677

>  <r_i_glide_metal>  (165) 
-0

>  <r_i_glide_rewards>  (165) 
-0.137584

>  <r_i_glide_evdw>  (165) 
-27.9888

>  <r_i_glide_ecoul>  (165) 
-7.95578

>  <r_i_glide_erotb>  (165) 
0.36498

>  <r_i_glide_esite>  (165) 
-0.0340984

>  <r_i_glide_emodel>  (165) 
-36.7624

>  <r_i_glide_energy>  (165) 
-35.9446

>  <r_i_glide_einternal>  (165) 
1.52479

>  <r_i_glide_intrahb_reward>  (165) 
-0

>  <i_i_glide_confnum>  (165) 
5

>  <i_i_glide_posenum>  (165) 
4

>  <r_i_glide_eff_state_penalty>  (165) 
0

>  <ligand_id>  (165) 
42

>  <original_smiles>  (165) 
CC(C)(C)CC1NC(C(=O)NC2CC(C)(O)C2)C(c2cccc(Cl)c2)C12C(=O)Nc1ccc(Cl)cc12

>  <smiles>  (165) 
[H]OC1(C([H])([H])[H])C([H])([H])C([H])(N([H])C(=O)C2([H])C([H])(c3c([H])c([H])c([H])c(Cl)c3[H])C3(C(=O)N([H])c4c([H])c([H])c(Cl)c([H])c43)C([H])(C([H])([H])C(C([H])([H])[H])(C([H])([H])[H])C([H])([H])[H])[N+]2([H])[H])C1([H])[H]

$$$$
42:1:0
     RDKit          3D

 69 73  0  0  1  0  0  0  0  0999 V2000
    4.2335   -7.8350    8.4353 C   0  0  0  0  0  0  0  0  0  0  0  0
    2.8221   -7.4587    7.9284 C   0  0  0  0  0  0  0  0  0  0  0  0
    1.7829   -8.1691    8.8293 C   0  0  0  0  0  0  0  0  0  0  0  0
    2.6241   -5.9345    8.0509 C   0  0  0  0  0  0  0  0  0  0  0  0
    2.6290   -7.9243    6.4645 C   0  0  0  0  0  0  0  0  0  0  0  0
    3.6157   -7.3603    5.4122 C   0  0  2  0  0  0  0  0  0  0  0  0
    3.2500   -5.9880    5.0366 N   0  0  0  0  0  0  0  0  0  0  0  0
    3.6565   -5.7798    3.6414 C   0  0  1  0  0  0  0  0  0  0  0  0
    4.5346   -4.5248    3.4248 C   0  0  0  0  0  0  0  0  0  0  0  0
    5.2072   -4.0425    4.3431 O   0  0  0  0  0  0  0  0  0  0  0  0
    4.5114   -4.0155    2.1846 N   0  0  0  0  0  0  0  0  0  0  0  0
    5.4649   -3.0240    1.7277 C   0  0  2  0  0  0  0  0  0  0  0  0
    5.0219   -2.3090    0.4502 C   0  0  0  0  0  0  0  0  0  0  0  0
    6.4209   -2.5624   -0.1134 C   0  0  1  0  0  0  0  0  0  0  0  0
    6.4838   -3.0106   -1.5608 C   0  0  0  0  0  0  0  0  0  0  0  0
    7.3176   -1.4739    0.0641 O   0  0  0  0  0  0  0  0  0  0  0  0
    6.5961   -3.6681    0.9232 C   0  0  0  0  0  0  0  0  0  0  0  0
    4.2608   -7.1213    3.1313 C   0  0  1  0  0  0  0  0  0  0  0  0
    5.7848   -7.1611    3.0825 C   0  0  0  0  0  0  0  0  0  0  0  0
    6.4333   -7.5655    1.8958 C   0  0  0  0  0  0  0  0  0  0  0  0
    7.8405   -7.5496    1.8168 C   0  0  0  0  0  0  0  0  0  0  0  0
    8.6074   -7.1298    2.9252 C   0  0  0  0  0  0  0  0  0  0  0  0
    7.9715   -6.7355    4.1113 C   0  0  0  0  0  0  0  0  0  0  0  0
    8.8847   -6.2181    5.4811 Cl  0  0  0  0  0  0  0  0  0  0  0  0
    6.5727   -6.7504    4.1849 C   0  0  0  0  0  0  0  0  0  0  0  0
    3.6424   -8.1293    4.1069 C   0  0  1  0  0  0  0  0  0  0  0  0
    4.3514   -9.4974    4.3568 C   0  0  0  0  0  0  0  0  0  0  0  0
    5.5478   -9.5552    4.7714 O   0  0  0  0  0  0  0  0  0  0  0  0
    3.3993  -10.4811    4.0891 N   0  0  0  0  0  0  0  0  0  0  0  0
    2.1312   -9.9379    3.6784 C   0  0  0  0  0  0  0  0  0  0  0  0
    0.9607  -10.6321    3.3789 C   0  0  0  0  0  0  0  0  0  0  0  0
   -0.1218   -9.8262    3.0018 C   0  0  0  0  0  0  0  0  0  0  0  0
   -0.0284   -8.4247    2.9546 C   0  0  0  0  0  0  0  0  0  0  0  0
   -1.3707   -7.4922    2.5042 Cl  0  0  0  0  0  0  0  0  0  0  0  0
    1.1619   -7.7788    3.2970 C   0  0  0  0  0  0  0  0  0  0  0  0
    2.2490   -8.5700    3.6610 C   0  0  0  0  0  0  0  0  0  0  0  0
    4.3777   -7.5323    9.4746 H   0  0  0  0  0  0  0  0  0  0  0  0
    5.0306   -7.3456    7.8696 H   0  0  0  0  0  0  0  0  0  0  0  0
    4.4056   -8.9129    8.3742 H   0  0  0  0  0  0  0  0  0  0  0  0
    1.8184   -9.2518    8.7002 H   0  0  0  0  0  0  0  0  0  0  0  0
    0.7701   -7.8414    8.5992 H   0  0  0  0  0  0  0  0  0  0  0  0
    1.9731   -7.9547    9.8826 H   0  0  0  0  0  0  0  0  0  0  0  0
    2.8149   -5.5860    9.0657 H   0  0  0  0  0  0  0  0  0  0  0  0
    1.6107   -5.6441    7.7688 H   0  0  0  0  0  0  0  0  0  0  0  0
    3.3178   -5.3803    7.4163 H   0  0  0  0  0  0  0  0  0  0  0  0
    2.7568   -9.0073    6.4869 H   0  0  0  0  0  0  0  0  0  0  0  0
    1.5985   -7.7716    6.1525 H   0  0  0  0  0  0  0  0  0  0  0  0
    4.6065   -7.3537    5.8391 H   0  0  0  0  0  0  0  0  0  0  0  0
    2.2647   -5.8674    5.1344 H   0  0  0  0  0  0  0  0  0  0  0  0
    2.7522   -5.5623    3.0575 H   0  0  0  0  0  0  0  0  0  0  0  0
    3.9592   -4.4876    1.4835 H   0  0  0  0  0  0  0  0  0  0  0  0
    5.8112   -2.3382    2.5054 H   0  0  0  0  0  0  0  0  0  0  0  0
    4.2373   -2.8382   -0.1011 H   0  0  0  0  0  0  0  0  0  0  0  0
    4.7650   -1.2612    0.5946 H   0  0  0  0  0  0  0  0  0  0  0  0
    5.8114   -3.8587   -1.7244 H   0  0  0  0  0  0  0  0  0  0  0  0
    7.4815   -3.3399   -1.8446 H   0  0  0  0  0  0  0  0  0  0  0  0
    6.1704   -2.2265   -2.2450 H   0  0  0  0  0  0  0  0  0  0  0  0
    7.2495   -1.1895    0.9574 H   0  0  0  0  0  0  0  0  0  0  0  0
    7.5523   -3.7027    1.4422 H   0  0  0  0  0  0  0  0  0  0  0  0
    6.3245   -4.6534    0.5335 H   0  0  0  0  0  0  0  0  0  0  0  0
    3.9060   -7.3262    2.1204 H   0  0  0  0  0  0  0  0  0  0  0  0
    5.8597   -7.8857    1.0395 H   0  0  0  0  0  0  0  0  0  0  0  0
    8.3393   -7.8667    0.9138 H   0  0  0  0  0  0  0  0  0  0  0  0
    9.6828   -7.1114    2.8852 H   0  0  0  0  0  0  0  0  0  0  0  0
    6.1237   -6.3808    5.0860 H   0  0  0  0  0  0  0  0  0  0  0  0
    3.5934  -11.4809    4.2747 H   0  0  0  0  0  0  0  0  0  0  0  0
    0.9359  -11.6941    3.4440 H   0  0  0  0  0  0  0  0  0  0  0  0
   -1.0358  -10.2884    2.7492 H   0  0  0  0  0  0  0  0  0  0  0  0
    1.1854   -6.7017    3.2830 H   0  0  0  0  0  0  0  0  0  0  0  0
  1  2  1  0
  1 37  1  0
  1 38  1  0
  1 39  1  0
  2  3  1  0
  2  4  1  0
  2  5  1  0
  3 40  1  0
  3 41  1  0
  3 42  1  0
  4 43  1  0
  4 44  1  0
  4 45  1  0
  5  6  1  0
  5 46  1  0
  5 47  1  0
  6 26  1  0
  6  7  1  0
  6 48  1  1
  7  8  1  0
  7 49  1  0
  8  9  1  0
  8 18  1  0
  8 50  1  6
  9 10  2  0
  9 11  1  0
 11 12  1  0
 11 51  1  0
 12 17  1  0
 12 13  1  0
 12 52  1  1
 13 14  1  0
 13 53  1  0
 13 54  1  0
 14 15  1  0
 14 16  1  6
 14 17  1  0
 15 55  1  0
 15 56  1  0
 15 57  1  0
 16 58  1  0
 17 59  1  0
 17 60  1  0
 18 19  1  0
 18 26  1  0
 18 61  1  6
 19 25  1  0
 19 20  2  0
 20 21  1  0
 20 62  1  0
 21 22  2  0
 21 63  1  0
 22 23  1  0
 22 64  1  0
 23 24  1  0
 23 25  2  0
 25 65  1  0
 26 36  1  0
 26 27  1  1
 27 28  2  0
 27 29  1  0
 29 30  1  0
 29 66  1  0
 30 36  2  0
 30 31  1  0
 31 32  2  0
 31 67  1  0
 32 33  1  0
 32 68  1  0
 33 34  1  0
 33 35  2  0
 35 36  1  0
 35 69  1  0
M  END
>  <i_m_ct_stereo_status>  (166) 
1

>  <s_m_source_file>  (166) 
/var/tmp/pbs.5076255.sched01/tmp6h9xbnrx/445q66801d.sdf

>  <i_m_source_file_index>  (166) 
23

>  <i_lp_mmshare_version>  (166) 
48012

>  <i_f3d_flags>  (166) 
0

>  <s_epik_input>  (166) 
Q2xjKFtjSF0xKVtjSF1bY0hdYyhbTkhdQzI9TyljMVtDQEBdMjNbQ0BIXShbQ0gyXUMoW0NIM10pKFtDSDNdKVtDSDNdKVtOSF1bQ0BASF0oQyg9TylbTkhdW0NAQEhdKFtDSDJdNClbQ0gyXVtDQEBdNChbQ0gzXSlbT0hdKVtDQEhdM2M1W2NIXVtjSF1bY0hdYyhDbClbY0hdNQ==

>  <s_epik_cmdline>  (166) 
J2VwaWtfcHl0aG9uJywgJy1waHQnLCAnMi4wJywgJy1waCcsICc3LjAnLCAnLXRuJywgJzgnLCAnLW1hJywgJzIwMCcsICctaW1hZScsICc8aW5maWxlLm1hZT4nLCAnLW9tYWUnLCAnPG91dGZpbGUubWFlPic=

>  <r_epik_Ionization_Penalty>  (166) 
1.15575

>  <r_epik_Ionization_Penalty_Charging>  (166) 
0

>  <r_epik_Ionization_Penalty_Neutral>  (166) 
1.15575

>  <r_epik_State_Penalty>  (166) 
1.21754

>  <r_epik_Charging_Adjusted_Penalty>  (166) 
1.21754

>  <i_epik_Tot_Q>  (166) 
0

>  <i_epik_Tot_abs_Q>  (166) 
0

>  <s_lp_Force_Field>  (166) 
OPLS3e

>  <r_lp_Energy>  (166) 
50.2804

>  <b_lp_Chiralities_Consistent>  (166) 
1

>  <s_lp_Variant>  (166) 
42:0-2

>  <s_i_glide_gridfile>  (166) 
pfpi4k_grid

>  <i_i_glide_lignum>  (166) 
23

>  <i_i_glide_rotatable_bonds>  (166) 
7

>  <r_i_docking_score>  (166) 
-2.37031

>  <r_i_glide_ligand_efficiency>  (166) 
-0.0658419

>  <r_i_glide_ligand_efficiency_sa>  (166) 
-0.217405

>  <r_i_glide_ligand_efficiency_ln>  (166) 
-0.517137

>  <r_i_glide_gscore>  (166) 
-2.37031

>  <r_i_glide_lipo>  (166) 
-0.462042

>  <r_i_glide_hbond>  (166) 
-0.101689

>  <r_i_glide_metal>  (166) 
-0

>  <r_i_glide_rewards>  (166) 
-0.00563426

>  <r_i_glide_evdw>  (166) 
-27.0373

>  <r_i_glide_ecoul>  (166) 
-5.33998

>  <r_i_glide_erotb>  (166) 
0.366259

>  <r_i_glide_esite>  (166) 
-0.0143382

>  <r_i_glide_emodel>  (166) 
-35.6396

>  <r_i_glide_energy>  (166) 
-32.3773

>  <r_i_glide_einternal>  (166) 
0.506588

>  <r_i_glide_intrahb_reward>  (166) 
-0

>  <i_i_glide_confnum>  (166) 
2

>  <i_i_glide_posenum>  (166) 
2

>  <r_i_glide_eff_state_penalty>  (166) 
0

>  <ligand_id>  (166) 
42

>  <original_smiles>  (166) 
CC(C)(C)CC1NC(C(=O)NC2CC(C)(O)C2)C(c2cccc(Cl)c2)C12C(=O)Nc1ccc(Cl)cc12

>  <smiles>  (166) 
[H]OC1(C([H])([H])[H])C([H])([H])C([H])(N([H])C(=O)C2([H])N([H])C([H])(C([H])([H])C(C([H])([H])[H])(C([H])([H])[H])C([H])([H])[H])C3(C(=O)N([H])c4c([H])c([H])c(Cl)c([H])c43)C2([H])c2c([H])c([H])c([H])c(Cl)c2[H])C1([H])[H]

$$$$
42:1:1
     RDKit          3D

 69 73  0  0  1  0  0  0  0  0999 V2000
    2.4674   -6.1889    8.0305 C   0  0  0  0  0  0  0  0  0  0  0  0
    2.8521   -7.6724    7.9048 C   0  0  0  0  0  0  0  0  0  0  0  0
    4.2879   -7.8758    8.4486 C   0  0  0  0  0  0  0  0  0  0  0  0
    1.8769   -8.5073    8.7687 C   0  0  0  0  0  0  0  0  0  0  0  0
    2.7045   -8.1139    6.4300 C   0  0  0  0  0  0  0  0  0  0  0  0
    3.6285   -7.4316    5.3945 C   0  0  2  0  0  0  0  0  0  0  0  0
    3.1602   -6.0791    5.0557 N   0  0  0  0  0  0  0  0  0  0  0  0
    3.5367   -5.7989    3.6664 C   0  0  1  0  0  0  0  0  0  0  0  0
    4.2834   -4.4578    3.4863 C   0  0  0  0  0  0  0  0  0  0  0  0
    5.1825   -4.1176    4.2608 O   0  0  0  0  0  0  0  0  0  0  0  0
    3.8934   -3.7162    2.4402 N   0  0  0  0  0  0  0  0  0  0  0  0
    4.6890   -2.6250    1.9132 C   0  0  2  0  0  0  0  0  0  0  0  0
    3.8648   -1.5633    1.1894 C   0  0  0  0  0  0  0  0  0  0  0  0
    4.8739   -1.6344    0.0308 C   0  0  1  0  0  0  0  0  0  0  0  0
    4.2740   -1.6428   -1.3583 C   0  0  0  0  0  0  0  0  0  0  0  0
    5.9002   -0.6518    0.0673 O   0  0  0  0  0  0  0  0  0  0  0  0
    5.3049   -3.0019    0.5670 C   0  0  0  0  0  0  0  0  0  0  0  0
    4.2414   -7.0724    3.1136 C   0  0  1  0  0  0  0  0  0  0  0  0
    5.7595   -6.9929    3.0578 C   0  0  0  0  0  0  0  0  0  0  0  0
    6.4336   -7.3053    1.8587 C   0  0  0  0  0  0  0  0  0  0  0  0
    7.8340   -7.1738    1.7772 C   0  0  0  0  0  0  0  0  0  0  0  0
    8.5738   -6.7361    2.8987 C   0  0  0  0  0  0  0  0  0  0  0  0
    7.9085   -6.4378    4.1005 C   0  0  0  0  0  0  0  0  0  0  0  0
    8.7678   -5.8773    5.4869 Cl  0  0  0  0  0  0  0  0  0  0  0  0
    6.5196   -6.5653    4.1714 C   0  0  0  0  0  0  0  0  0  0  0  0
    3.7053   -8.1551    4.0650 C   0  0  1  0  0  0  0  0  0  0  0  0
    4.5341   -9.4618    4.2768 C   0  0  0  0  0  0  0  0  0  0  0  0
    5.7044   -9.4454    4.6880 O   0  0  0  0  0  0  0  0  0  0  0  0
    3.6636  -10.5156    3.9889 N   0  0  0  0  0  0  0  0  0  0  0  0
    2.3617  -10.0622    3.5993 C   0  0  0  0  0  0  0  0  0  0  0  0
    1.2264  -10.8408    3.2746 C   0  0  0  0  0  0  0  0  0  0  0  0
    0.0814  -10.1184    2.9179 C   0  0  0  0  0  0  0  0  0  0  0  0
    0.0513   -8.7148    2.9065 C   0  0  0  0  0  0  0  0  0  0  0  0
   -1.3589   -7.8924    2.4391 Cl  0  0  0  0  0  0  0  0  0  0  0  0
    1.1891   -7.9808    3.2719 C   0  0  0  0  0  0  0  0  0  0  0  0
    2.3451   -8.6936    3.6101 C   0  0  0  0  0  0  0  0  0  0  0  0
    2.5077   -5.8437    9.0628 H   0  0  0  0  0  0  0  0  0  0  0  0
    1.4601   -6.0111    7.6461 H   0  0  0  0  0  0  0  0  0  0  0  0
    3.1545   -5.5493    7.4742 H   0  0  0  0  0  0  0  0  0  0  0  0
    5.0474   -7.3870    7.8381 H   0  0  0  0  0  0  0  0  0  0  0  0
    4.5523   -8.9322    8.5130 H   0  0  0  0  0  0  0  0  0  0  0  0
    4.3892   -7.4488    9.4481 H   0  0  0  0  0  0  0  0  0  0  0  0
    1.8580   -8.1460    9.7990 H   0  0  0  0  0  0  0  0  0  0  0  0
    2.1626   -9.5606    8.7939 H   0  0  0  0  0  0  0  0  0  0  0  0
    0.8588   -8.4568    8.3786 H   0  0  0  0  0  0  0  0  0  0  0  0
    2.9090   -9.1831    6.4122 H   0  0  0  0  0  0  0  0  0  0  0  0
    1.6651   -8.0208    6.1175 H   0  0  0  0  0  0  0  0  0  0  0  0
    4.6150   -7.3594    5.8202 H   0  0  0  0  0  0  0  0  0  0  0  0
    2.1674   -6.0496    5.1575 H   0  0  0  0  0  0  0  0  0  0  0  0
    2.6090   -5.6583    3.1041 H   0  0  0  0  0  0  0  0  0  0  0  0
    3.1299   -4.0527    1.8697 H   0  0  0  0  0  0  0  0  0  0  0  0
    5.4078   -2.1996    2.6186 H   0  0  0  0  0  0  0  0  0  0  0  0
    2.8599   -1.9064    0.9098 H   0  0  0  0  0  0  0  0  0  0  0  0
    3.8236   -0.6080    1.7107 H   0  0  0  0  0  0  0  0  0  0  0  0
    3.4911   -2.4053   -1.4373 H   0  0  0  0  0  0  0  0  0  0  0  0
    5.0216   -1.8743   -2.1119 H   0  0  0  0  0  0  0  0  0  0  0  0
    3.8145   -0.6887   -1.6040 H   0  0  0  0  0  0  0  0  0  0  0  0
    5.4776    0.1885   -0.0414 H   0  0  0  0  0  0  0  0  0  0  0  0
    6.3768   -3.1846    0.6047 H   0  0  0  0  0  0  0  0  0  0  0  0
    4.7777   -3.8301    0.0817 H   0  0  0  0  0  0  0  0  0  0  0  0
    3.8908   -7.2812    2.1008 H   0  0  0  0  0  0  0  0  0  0  0  0
    5.8829   -7.6311    0.9922 H   0  0  0  0  0  0  0  0  0  0  0  0
    8.3529   -7.4198    0.8631 H   0  0  0  0  0  0  0  0  0  0  0  0
    9.6456   -6.6255    2.8445 H   0  0  0  0  0  0  0  0  0  0  0  0
    6.0491   -6.2873    5.0964 H   0  0  0  0  0  0  0  0  0  0  0  0
    3.9181  -11.4885    4.1372 H   0  0  0  0  0  0  0  0  0  0  0  0
    1.2844  -11.9067    3.3031 H   0  0  0  0  0  0  0  0  0  0  0  0
   -0.7815  -10.6681    2.6456 H   0  0  0  0  0  0  0  0  0  0  0  0
    1.1306   -6.9104    3.2857 H   0  0  0  0  0  0  0  0  0  0  0  0
  1  2  1  0
  1 37  1  0
  1 38  1  0
  1 39  1  0
  2  3  1  0
  2  4  1  0
  2  5  1  0
  3 40  1  0
  3 41  1  0
  3 42  1  0
  4 43  1  0
  4 44  1  0
  4 45  1  0
  5  6  1  0
  5 46  1  0
  5 47  1  0
  6 26  1  0
  6  7  1  0
  6 48  1  1
  7  8  1  0
  7 49  1  0
  8  9  1  0
  8 18  1  0
  8 50  1  6
  9 10  2  0
  9 11  1  0
 11 12  1  0
 11 51  1  0
 12 17  1  0
 12 13  1  0
 12 52  1  1
 13 14  1  0
 13 53  1  0
 13 54  1  0
 14 15  1  0
 14 16  1  6
 14 17  1  0
 15 55  1  0
 15 56  1  0
 15 57  1  0
 16 58  1  0
 17 59  1  0
 17 60  1  0
 18 19  1  0
 18 26  1  0
 18 61  1  6
 19 25  1  0
 19 20  2  0
 20 21  1  0
 20 62  1  0
 21 22  2  0
 21 63  1  0
 22 23  1  0
 22 64  1  0
 23 24  1  0
 23 25  2  0
 25 65  1  0
 26 36  1  0
 26 27  1  1
 27 28  2  0
 27 29  1  0
 29 30  1  0
 29 66  1  0
 30 36  2  0
 30 31  1  0
 31 32  2  0
 31 67  1  0
 32 33  1  0
 32 68  1  0
 33 34  1  0
 33 35  2  0
 35 36  1  0
 35 69  1  0
M  END
>  <i_m_ct_stereo_status>  (167) 
1

>  <s_m_source_file>  (167) 
/var/tmp/pbs.5076255.sched01/tmp6h9xbnrx/445q66801d.sdf

>  <i_m_source_file_index>  (167) 
23

>  <i_lp_mmshare_version>  (167) 
48012

>  <i_f3d_flags>  (167) 
0

>  <s_epik_input>  (167) 
Q2xjKFtjSF0xKVtjSF1bY0hdYyhbTkhdQzI9TyljMVtDQEBdMjNbQ0BIXShbQ0gyXUMoW0NIM10pKFtDSDNdKVtDSDNdKVtOSF1bQ0BASF0oQyg9TylbTkhdW0NAQEhdKFtDSDJdNClbQ0gyXVtDQEBdNChbQ0gzXSlbT0hdKVtDQEhdM2M1W2NIXVtjSF1bY0hdYyhDbClbY0hdNQ==

>  <s_epik_cmdline>  (167) 
J2VwaWtfcHl0aG9uJywgJy1waHQnLCAnMi4wJywgJy1waCcsICc3LjAnLCAnLXRuJywgJzgnLCAnLW1hJywgJzIwMCcsICctaW1hZScsICc8aW5maWxlLm1hZT4nLCAnLW9tYWUnLCAnPG91dGZpbGUubWFlPic=

>  <r_epik_Ionization_Penalty>  (167) 
1.15575

>  <r_epik_Ionization_Penalty_Charging>  (167) 
0

>  <r_epik_Ionization_Penalty_Neutral>  (167) 
1.15575

>  <r_epik_State_Penalty>  (167) 
1.21754

>  <r_epik_Charging_Adjusted_Penalty>  (167) 
1.21754

>  <i_epik_Tot_Q>  (167) 
0

>  <i_epik_Tot_abs_Q>  (167) 
0

>  <s_lp_Force_Field>  (167) 
OPLS3e

>  <r_lp_Energy>  (167) 
50.2804

>  <b_lp_Chiralities_Consistent>  (167) 
1

>  <s_lp_Variant>  (167) 
42:0-2

>  <s_i_glide_gridfile>  (167) 
pfpi4k_grid

>  <i_i_glide_lignum>  (167) 
23

>  <i_i_glide_rotatable_bonds>  (167) 
7

>  <r_i_docking_score>  (167) 
-2.36583

>  <r_i_glide_ligand_efficiency>  (167) 
-0.0657175

>  <r_i_glide_ligand_efficiency_sa>  (167) 
-0.216994

>  <r_i_glide_ligand_efficiency_ln>  (167) 
-0.51616

>  <r_i_glide_gscore>  (167) 
-2.36583

>  <r_i_glide_lipo>  (167) 
-0.3755

>  <r_i_glide_hbond>  (167) 
-0.241388

>  <r_i_glide_metal>  (167) 
-0

>  <r_i_glide_rewards>  (167) 
-0.00230181

>  <r_i_glide_evdw>  (167) 
-27.2223

>  <r_i_glide_ecoul>  (167) 
-4.9084

>  <r_i_glide_erotb>  (167) 
0.366259

>  <r_i_glide_esite>  (167) 
-0.0155214

>  <r_i_glide_emodel>  (167) 
-34.7271

>  <r_i_glide_energy>  (167) 
-32.1307

>  <r_i_glide_einternal>  (167) 
1.76445

>  <r_i_glide_intrahb_reward>  (167) 
-0

>  <i_i_glide_confnum>  (167) 
2

>  <i_i_glide_posenum>  (167) 
30

>  <r_i_glide_eff_state_penalty>  (167) 
0

>  <ligand_id>  (167) 
42

>  <original_smiles>  (167) 
CC(C)(C)CC1NC(C(=O)NC2CC(C)(O)C2)C(c2cccc(Cl)c2)C12C(=O)Nc1ccc(Cl)cc12

>  <smiles>  (167) 
[H]OC1(C([H])([H])[H])C([H])([H])C([H])(N([H])C(=O)C2([H])N([H])C([H])(C([H])([H])C(C([H])([H])[H])(C([H])([H])[H])C([H])([H])[H])C3(C(=O)N([H])c4c([H])c([H])c(Cl)c([H])c43)C2([H])c2c([H])c([H])c([H])c(Cl)c2[H])C1([H])[H]

$$$$
42:1:2
     RDKit          3D

 69 73  0  0  1  0  0  0  0  0999 V2000
    5.7532   -4.6964    6.4694 C   0  0  0  0  0  0  0  0  0  0  0  0
    4.7911   -3.4952    6.4055 C   0  0  0  0  0  0  0  0  0  0  0  0
    3.5399   -3.8123    7.2454 C   0  0  0  0  0  0  0  0  0  0  0  0
    5.5091   -2.2588    6.9933 C   0  0  0  0  0  0  0  0  0  0  0  0
    4.4278   -3.2960    4.9206 C   0  0  0  0  0  0  0  0  0  0  0  0
    3.4990   -2.1247    4.5739 C   0  0  2  0  0  0  0  0  0  0  0  0
    2.0928   -2.4244    4.8495 N   0  0  0  0  0  0  0  0  0  0  0  0
    1.2526   -1.7000    3.8715 C   0  0  1  0  0  0  0  0  0  0  0  0
    0.1359   -0.8618    4.5225 C   0  0  0  0  0  0  0  0  0  0  0  0
   -0.1701   -1.0162    5.7062 O   0  0  0  0  0  0  0  0  0  0  0  0
   -0.4605    0.0392    3.7275 N   0  0  0  0  0  0  0  0  0  0  0  0
   -1.2753    1.1366    4.2241 C   0  0  2  0  0  0  0  0  0  0  0  0
   -1.5052    2.2252    3.1591 C   0  0  0  0  0  0  0  0  0  0  0  0
   -1.1102    3.2912    4.1983 C   0  0  1  0  0  0  0  0  0  0  0  0
   -0.2705    4.4459    3.7029 C   0  0  0  0  0  0  0  0  0  0  0  0
   -2.1743    3.8593    4.8887 O   0  0  0  0  0  0  0  0  0  0  0  0
   -0.4432    2.1716    4.9855 C   0  0  0  0  0  0  0  0  0  0  0  0
    2.2290   -0.9415    2.9236 C   0  0  1  0  0  0  0  0  0  0  0  0
    2.4203    0.5378    3.2213 C   0  0  0  0  0  0  0  0  0  0  0  0
    2.2139    1.4620    2.1914 C   0  0  0  0  0  0  0  0  0  0  0  0
    2.3495    2.8286    2.4635 C   0  0  0  0  0  0  0  0  0  0  0  0
    2.6842    3.2853    3.7601 C   0  0  0  0  0  0  0  0  0  0  0  0
    2.8921    2.3601    4.7925 C   0  0  0  0  0  0  0  0  0  0  0  0
    3.1062    2.8984    6.4046 Cl  0  0  0  0  0  0  0  0  0  0  0  0
    2.7368    0.9989    4.5224 C   0  0  0  0  0  0  0  0  0  0  0  0
    3.5299   -1.7340    3.0992 C   0  0  1  0  0  0  0  0  0  0  0  0
    4.8914   -1.0827    2.7569 C   0  0  0  0  0  0  0  0  0  0  0  0
    5.2878   -0.0434    3.3672 O   0  0  0  0  0  0  0  0  0  0  0  0
    5.5255   -1.8136    1.8874 N   0  0  0  0  0  0  0  0  0  0  0  0
    4.7737   -2.9858    1.4963 C   0  0  0  0  0  0  0  0  0  0  0  0
    5.0912   -4.0357    0.6234 C   0  0  0  0  0  0  0  0  0  0  0  0
    4.1210   -5.0540    0.4349 C   0  0  0  0  0  0  0  0  0  0  0  0
    2.8936   -5.0158    1.1136 C   0  0  0  0  0  0  0  0  0  0  0  0
    1.7455   -6.2866    0.9289 Cl  0  0  0  0  0  0  0  0  0  0  0  0
    2.6118   -3.9734    2.0027 C   0  0  0  0  0  0  0  0  0  0  0  0
    3.5713   -2.9519    2.1796 C   0  0  0  0  0  0  0  0  0  0  0  0
    6.0535   -4.9135    7.4961 H   0  0  0  0  0  0  0  0  0  0  0  0
    6.6606   -4.5084    5.8904 H   0  0  0  0  0  0  0  0  0  0  0  0
    5.2857   -5.5950    6.0607 H   0  0  0  0  0  0  0  0  0  0  0  0
    2.9480   -4.6077    6.7912 H   0  0  0  0  0  0  0  0  0  0  0  0
    2.8931   -2.9405    7.3534 H   0  0  0  0  0  0  0  0  0  0  0  0
    3.8114   -4.1328    8.2511 H   0  0  0  0  0  0  0  0  0  0  0  0
    5.8779   -2.4581    8.0001 H   0  0  0  0  0  0  0  0  0  0  0  0
    4.8498   -1.3940    7.0755 H   0  0  0  0  0  0  0  0  0  0  0  0
    6.3639   -1.9603    6.3852 H   0  0  0  0  0  0  0  0  0  0  0  0
    5.3718   -3.1342    4.4020 H   0  0  0  0  0  0  0  0  0  0  0  0
    4.0261   -4.2166    4.4983 H   0  0  0  0  0  0  0  0  0  0  0  0
    3.8165   -1.2844    5.1763 H   0  0  0  0  0  0  0  0  0  0  0  0
    1.9669   -3.4192    4.7547 H   0  0  0  0  0  0  0  0  0  0  0  0
    0.6970   -2.4416    3.2961 H   0  0  0  0  0  0  0  0  0  0  0  0
   -0.0911    0.1328    2.7888 H   0  0  0  0  0  0  0  0  0  0  0  0
   -2.1813    0.8229    4.7540 H   0  0  0  0  0  0  0  0  0  0  0  0
   -0.7954    2.1817    2.3261 H   0  0  0  0  0  0  0  0  0  0  0  0
   -2.5381    2.2808    2.7945 H   0  0  0  0  0  0  0  0  0  0  0  0
    0.4925    4.0614    3.0954 H   0  0  0  0  0  0  0  0  0  0  0  0
    0.1884    4.9998    4.5060 H   0  0  0  0  0  0  0  0  0  0  0  0
   -0.7975    5.1093    3.0312 H   0  0  0  0  0  0  0  0  0  0  0  0
   -2.7649    3.1520    5.1490 H   0  0  0  0  0  0  0  0  0  0  0  0
   -0.5606    2.1750    6.0669 H   0  0  0  0  0  0  0  0  0  0  0  0
    0.5716    2.1099    4.7106 H   0  0  0  0  0  0  0  0  0  0  0  0
    1.8802   -1.0365    1.8863 H   0  0  0  0  0  0  0  0  0  0  0  0
    1.9047    1.1522    1.2080 H   0  0  0  0  0  0  0  0  0  0  0  0
    2.1148    3.5522    1.6807 H   0  0  0  0  0  0  0  0  0  0  0  0
    2.6620    4.3529    3.9715 H   0  0  0  0  0  0  0  0  0  0  0  0
    2.7692    0.3435    5.3526 H   0  0  0  0  0  0  0  0  0  0  0  0
    6.4766   -1.6749    1.5638 H   0  0  0  0  0  0  0  0  0  0  0  0
    6.0525   -4.0488    0.1107 H   0  0  0  0  0  0  0  0  0  0  0  0
    4.3434   -5.8443   -0.2410 H   0  0  0  0  0  0  0  0  0  0  0  0
    1.6745   -3.9871    2.5303 H   0  0  0  0  0  0  0  0  0  0  0  0
  1  2  1  0
  1 37  1  0
  1 38  1  0
  1 39  1  0
  2  3  1  0
  2  4  1  0
  2  5  1  0
  3 40  1  0
  3 41  1  0
  3 42  1  0
  4 43  1  0
  4 44  1  0
  4 45  1  0
  5  6  1  0
  5 46  1  0
  5 47  1  0
  6 26  1  0
  6  7  1  0
  6 48  1  1
  7  8  1  0
  7 49  1  0
  8  9  1  0
  8 18  1  0
  8 50  1  6
  9 10  2  0
  9 11  1  0
 11 12  1  0
 11 51  1  0
 12 17  1  0
 12 13  1  0
 12 52  1  1
 13 14  1  0
 13 53  1  0
 13 54  1  0
 14 15  1  0
 14 16  1  1
 14 17  1  0
 15 55  1  0
 15 56  1  0
 15 57  1  0
 16 58  1  0
 17 59  1  0
 17 60  1  0
 18 19  1  0
 18 26  1  0
 18 61  1  6
 19 25  1  0
 19 20  2  0
 20 21  1  0
 20 62  1  0
 21 22  2  0
 21 63  1  0
 22 23  1  0
 22 64  1  0
 23 24  1  0
 23 25  2  0
 25 65  1  0
 26 36  1  0
 26 27  1  1
 27 28  2  0
 27 29  1  0
 29 30  1  0
 29 66  1  0
 30 36  2  0
 30 31  1  0
 31 32  2  0
 31 67  1  0
 32 33  1  0
 32 68  1  0
 33 34  1  0
 33 35  2  0
 35 36  1  0
 35 69  1  0
M  END
>  <i_m_ct_stereo_status>  (168) 
1

>  <s_m_source_file>  (168) 
/var/tmp/pbs.5076255.sched01/tmp6h9xbnrx/445q66801d.sdf

>  <i_m_source_file_index>  (168) 
23

>  <i_lp_mmshare_version>  (168) 
48012

>  <i_f3d_flags>  (168) 
0

>  <s_epik_input>  (168) 
Q2xjKFtjSF0xKVtjSF1bY0hdYyhbTkhdQzI9TyljMVtDQEBdMjNbQ0BIXShbQ0gyXUMoW0NIM10pKFtDSDNdKVtDSDNdKVtOSF1bQ0BASF0oQyg9TylbTkhdW0NAQEhdKFtDSDJdNClbQ0gyXVtDQEBdNChbQ0gzXSlbT0hdKVtDQEhdM2M1W2NIXVtjSF1bY0hdYyhDbClbY0hdNQ==

>  <s_epik_cmdline>  (168) 
J2VwaWtfcHl0aG9uJywgJy1waHQnLCAnMi4wJywgJy1waCcsICc3LjAnLCAnLXRuJywgJzgnLCAnLW1hJywgJzIwMCcsICctaW1hZScsICc8aW5maWxlLm1hZT4nLCAnLW9tYWUnLCAnPG91dGZpbGUubWFlPic=

>  <r_epik_Ionization_Penalty>  (168) 
1.15575

>  <r_epik_Ionization_Penalty_Charging>  (168) 
0

>  <r_epik_Ionization_Penalty_Neutral>  (168) 
1.15575

>  <r_epik_State_Penalty>  (168) 
1.21754

>  <r_epik_Charging_Adjusted_Penalty>  (168) 
1.21754

>  <i_epik_Tot_Q>  (168) 
0

>  <i_epik_Tot_abs_Q>  (168) 
0

>  <s_lp_Force_Field>  (168) 
OPLS3e

>  <r_lp_Energy>  (168) 
50.2804

>  <b_lp_Chiralities_Consistent>  (168) 
1

>  <s_lp_Variant>  (168) 
42:0-2

>  <s_i_glide_gridfile>  (168) 
pfpi4k_grid

>  <i_i_glide_lignum>  (168) 
23

>  <i_i_glide_rotatable_bonds>  (168) 
7

>  <r_i_docking_score>  (168) 
-2.27893

>  <r_i_glide_ligand_efficiency>  (168) 
-0.0633035

>  <r_i_glide_ligand_efficiency_sa>  (168) 
-0.209024

>  <r_i_glide_ligand_efficiency_ln>  (168) 
-0.4972

>  <r_i_glide_gscore>  (168) 
-2.27893

>  <r_i_glide_lipo>  (168) 
-0.165744

>  <r_i_glide_hbond>  (168) 
-0.00677302

>  <r_i_glide_metal>  (168) 
-0

>  <r_i_glide_rewards>  (168) 
-0.123185

>  <r_i_glide_evdw>  (168) 
-28.946

>  <r_i_glide_ecoul>  (168) 
-6.48295

>  <r_i_glide_erotb>  (168) 
0.366259

>  <r_i_glide_esite>  (168) 
-0.0333382

>  <r_i_glide_emodel>  (168) 
-35.571

>  <r_i_glide_energy>  (168) 
-35.4289

>  <r_i_glide_einternal>  (168) 
2.37492

>  <r_i_glide_intrahb_reward>  (168) 
-0

>  <i_i_glide_confnum>  (168) 
6

>  <i_i_glide_posenum>  (168) 
40

>  <r_i_glide_eff_state_penalty>  (168) 
0

>  <ligand_id>  (168) 
42

>  <original_smiles>  (168) 
CC(C)(C)CC1NC(C(=O)NC2CC(C)(O)C2)C(c2cccc(Cl)c2)C12C(=O)Nc1ccc(Cl)cc12

>  <smiles>  (168) 
[H]OC1(C([H])([H])[H])C([H])([H])C([H])(N([H])C(=O)C2([H])N([H])C([H])(C([H])([H])C(C([H])([H])[H])(C([H])([H])[H])C([H])([H])[H])C3(C(=O)N([H])c4c([H])c([H])c(Cl)c([H])c43)C2([H])c2c([H])c([H])c([H])c(Cl)c2[H])C1([H])[H]

$$$$
43:0:0
     RDKit          3D

 21 23  0  0  1  0  0  0  0  0999 V2000
    2.4517   -5.9216    0.8503 C   0  0  0  0  0  0  0  0  0  0  0  0
    2.7686   -4.7668    0.1185 C   0  0  0  0  0  0  0  0  0  0  0  0
    4.0621   -4.2192    0.2172 C   0  0  0  0  0  0  0  0  0  0  0  0
    4.4367   -3.0204   -0.5283 C   0  0  0  0  0  0  0  0  0  0  0  0
    5.3894   -2.0476   -0.2837 C   0  0  0  0  0  0  0  0  0  0  0  0
    5.4336   -1.0451   -1.2681 N   0  0  0  0  0  0  0  0  0  0  0  0
    4.4830   -1.4380   -2.0634 C   0  0  0  0  0  0  0  0  0  0  0  0
    4.0787   -0.7526   -3.2560 C   0  0  0  0  0  0  0  0  0  0  0  0
    3.0187   -1.6066   -3.7860 C   0  0  0  0  0  0  0  0  0  0  0  0
    2.6563   -3.0514   -2.7904 S   0  0  0  0  0  0  0  0  0  0  0  0
    3.8618   -2.5755   -1.7162 N   0  0  0  0  0  0  0  0  0  0  0  0
    4.9761   -4.8646    1.0836 C   0  0  0  0  0  0  0  0  0  0  0  0
    4.5574   -6.0187    1.7797 C   0  0  0  0  0  0  0  0  0  0  0  0
    3.3196   -6.5417    1.6699 N   0  0  0  0  0  0  0  0  0  0  0  0
    1.4682   -6.3595    0.7698 H   0  0  0  0  0  0  0  0  0  0  0  0
    2.0207   -4.3203   -0.5110 H   0  0  0  0  0  0  0  0  0  0  0  0
    6.0673   -1.9781    0.5558 H   0  0  0  0  0  0  0  0  0  0  0  0
    4.4660    0.1745   -3.6603 H   0  0  0  0  0  0  0  0  0  0  0  0
    2.4626   -1.4386   -4.7049 H   0  0  0  0  0  0  0  0  0  0  0  0
    5.9817   -4.4895    1.2206 H   0  0  0  0  0  0  0  0  0  0  0  0
    5.2293   -6.5353    2.4492 H   0  0  0  0  0  0  0  0  0  0  0  0
  1 14  2  0
  1  2  1  0
  1 15  1  0
  2  3  2  0
  2 16  1  0
  3  4  1  0
  3 12  1  0
  4 11  1  0
  4  5  2  0
  5  6  1  0
  5 17  1  0
  6  7  2  0
  7 11  1  0
  7  8  1  0
  8  9  2  0
  8 18  1  0
  9 10  1  0
  9 19  1  0
 10 11  1  0
 12 13  2  0
 12 20  1  0
 13 14  1  0
 13 21  1  0
M  END
>  <i_m_ct_stereo_status>  (169) 
1

>  <s_m_source_file>  (169) 
/var/tmp/pbs.5076255.sched01/tmp6h9xbnrx/445q66801d.sdf

>  <i_m_source_file_index>  (169) 
24

>  <i_lp_mmshare_version>  (169) 
48012

>  <i_f3d_flags>  (169) 
0

>  <s_epik_input>  (169) 
W2NIXTFbY0hdbltjSF1bY0hdYzEtYyhbY0hdbjIpbihjMjMpc1tjSF1bY0hdMw==

>  <s_epik_cmdline>  (169) 
J2VwaWtfcHl0aG9uJywgJy1waHQnLCAnMi4wJywgJy1waCcsICc3LjAnLCAnLXRuJywgJzgnLCAnLW1hJywgJzIwMCcsICctaW1hZScsICc8aW5maWxlLm1hZT4nLCAnLW9tYWUnLCAnPG91dGZpbGUubWFlPic=

>  <r_epik_Ionization_Penalty>  (169) 
0.0310431

>  <r_epik_Ionization_Penalty_Charging>  (169) 
0.0263339

>  <r_epik_Ionization_Penalty_Neutral>  (169) 
0.00470924

>  <r_epik_State_Penalty>  (169) 
0.0214906

>  <r_epik_Charging_Adjusted_Penalty>  (169) 
0.0478244

>  <i_epik_Tot_Q>  (169) 
0

>  <i_epik_Tot_abs_Q>  (169) 
0

>  <s_lp_Force_Field>  (169) 
OPLS3e

>  <r_lp_Energy>  (169) 
13.4433

>  <b_lp_Chiralities_Consistent>  (169) 
1

>  <s_lp_Variant>  (169) 
43:0-1

>  <s_i_glide_gridfile>  (169) 
pfpi4k_grid

>  <i_i_glide_lignum>  (169) 
24

>  <i_i_glide_rotatable_bonds>  (169) 
1

>  <r_i_docking_score>  (169) 
-3.38171

>  <r_i_glide_ligand_efficiency>  (169) 
-0.241551

>  <r_i_glide_ligand_efficiency_sa>  (169) 
-0.582172

>  <r_i_glide_ligand_efficiency_ln>  (169) 
-0.929282

>  <r_i_glide_gscore>  (169) 
-3.38171

>  <r_i_glide_lipo>  (169) 
-0.482575

>  <r_i_glide_hbond>  (169) 
-0.00725894

>  <r_i_glide_metal>  (169) 
-0

>  <r_i_glide_rewards>  (169) 
-2.03694

>  <r_i_glide_evdw>  (169) 
-21.7911

>  <r_i_glide_ecoul>  (169) 
-0.684222

>  <r_i_glide_erotb>  (169) 
0.404118

>  <r_i_glide_esite>  (169) 
-0.0668636

>  <r_i_glide_emodel>  (169) 
-27.0851

>  <r_i_glide_energy>  (169) 
-22.4753

>  <r_i_glide_einternal>  (169) 
0.564326

>  <r_i_glide_intrahb_reward>  (169) 
-0

>  <i_i_glide_confnum>  (169) 
1

>  <i_i_glide_posenum>  (169) 
36

>  <r_i_glide_eff_state_penalty>  (169) 
0

>  <ligand_id>  (169) 
43

>  <original_smiles>  (169) 
c1cc(-c2cnc3ccsn23)ccn1

>  <smiles>  (169) 
[H]c1nc([H])c([H])c(-c2c([H])nc3c([H])c([H])sn23)c1[H]

$$$$
43:0:1
     RDKit          3D

 21 23  0  0  1  0  0  0  0  0999 V2000
    3.6072   -4.7921    2.9567 C   0  0  0  0  0  0  0  0  0  0  0  0
    4.0716   -3.7911    2.0851 C   0  0  0  0  0  0  0  0  0  0  0  0
    3.7205   -3.8421    0.7190 C   0  0  0  0  0  0  0  0  0  0  0  0
    4.2181   -2.8140   -0.1996 C   0  0  0  0  0  0  0  0  0  0  0  0
    5.2343   -1.8803   -0.0458 C   0  0  0  0  0  0  0  0  0  0  0  0
    5.4265   -1.0569   -1.1743 N   0  0  0  0  0  0  0  0  0  0  0  0
    4.4969   -1.5088   -1.9595 C   0  0  0  0  0  0  0  0  0  0  0  0
    4.1940   -1.0014   -3.2677 C   0  0  0  0  0  0  0  0  0  0  0  0
    3.1029   -1.8490   -3.7239 C   0  0  0  0  0  0  0  0  0  0  0  0
    2.5450   -3.0537   -2.5250 S   0  0  0  0  0  0  0  0  0  0  0  0
    3.7500   -2.5228   -1.4727 N   0  0  0  0  0  0  0  0  0  0  0  0
    2.9105   -4.9252    0.3086 C   0  0  0  0  0  0  0  0  0  0  0  0
    2.5058   -5.8833    1.2544 C   0  0  0  0  0  0  0  0  0  0  0  0
    2.8324   -5.8202    2.5583 N   0  0  0  0  0  0  0  0  0  0  0  0
    3.8665   -4.7633    4.0029 H   0  0  0  0  0  0  0  0  0  0  0  0
    4.6917   -2.9936    2.4689 H   0  0  0  0  0  0  0  0  0  0  0  0
    5.8576   -1.7364    0.8204 H   0  0  0  0  0  0  0  0  0  0  0  0
    4.6356   -0.1733   -3.8035 H   0  0  0  0  0  0  0  0  0  0  0  0
    2.6203   -1.7697   -4.6892 H   0  0  0  0  0  0  0  0  0  0  0  0
    2.6154   -5.0557   -0.7164 H   0  0  0  0  0  0  0  0  0  0  0  0
    1.8931   -6.7215    0.9551 H   0  0  0  0  0  0  0  0  0  0  0  0
  1 14  2  0
  1  2  1  0
  1 15  1  0
  2  3  2  0
  2 16  1  0
  3  4  1  0
  3 12  1  0
  4 11  1  0
  4  5  2  0
  5  6  1  0
  5 17  1  0
  6  7  2  0
  7 11  1  0
  7  8  1  0
  8  9  2  0
  8 18  1  0
  9 10  1  0
  9 19  1  0
 10 11  1  0
 12 13  2  0
 12 20  1  0
 13 14  1  0
 13 21  1  0
M  END
>  <i_m_ct_stereo_status>  (170) 
1

>  <s_m_source_file>  (170) 
/var/tmp/pbs.5076255.sched01/tmp6h9xbnrx/445q66801d.sdf

>  <i_m_source_file_index>  (170) 
24

>  <i_lp_mmshare_version>  (170) 
48012

>  <i_f3d_flags>  (170) 
0

>  <s_epik_input>  (170) 
W2NIXTFbY0hdbltjSF1bY0hdYzEtYyhbY0hdbjIpbihjMjMpc1tjSF1bY0hdMw==

>  <s_epik_cmdline>  (170) 
J2VwaWtfcHl0aG9uJywgJy1waHQnLCAnMi4wJywgJy1waCcsICc3LjAnLCAnLXRuJywgJzgnLCAnLW1hJywgJzIwMCcsICctaW1hZScsICc8aW5maWxlLm1hZT4nLCAnLW9tYWUnLCAnPG91dGZpbGUubWFlPic=

>  <r_epik_Ionization_Penalty>  (170) 
0.0310431

>  <r_epik_Ionization_Penalty_Charging>  (170) 
0.0263339

>  <r_epik_Ionization_Penalty_Neutral>  (170) 
0.00470924

>  <r_epik_State_Penalty>  (170) 
0.0214906

>  <r_epik_Charging_Adjusted_Penalty>  (170) 
0.0478244

>  <i_epik_Tot_Q>  (170) 
0

>  <i_epik_Tot_abs_Q>  (170) 
0

>  <s_lp_Force_Field>  (170) 
OPLS3e

>  <r_lp_Energy>  (170) 
13.4433

>  <b_lp_Chiralities_Consistent>  (170) 
1

>  <s_lp_Variant>  (170) 
43:0-1

>  <s_i_glide_gridfile>  (170) 
pfpi4k_grid

>  <i_i_glide_lignum>  (170) 
24

>  <i_i_glide_rotatable_bonds>  (170) 
1

>  <r_i_docking_score>  (170) 
-3.28752

>  <r_i_glide_ligand_efficiency>  (170) 
-0.234823

>  <r_i_glide_ligand_efficiency_sa>  (170) 
-0.565957

>  <r_i_glide_ligand_efficiency_ln>  (170) 
-0.9034

>  <r_i_glide_gscore>  (170) 
-3.28752

>  <r_i_glide_lipo>  (170) 
-0.366389

>  <r_i_glide_hbond>  (170) 
-0.00317207

>  <r_i_glide_metal>  (170) 
-0

>  <r_i_glide_rewards>  (170) 
-2.03694

>  <r_i_glide_evdw>  (170) 
-19.978

>  <r_i_glide_ecoul>  (170) 
-1.42554

>  <r_i_glide_erotb>  (170) 
0.404118

>  <r_i_glide_esite>  (170) 
-0.0724081

>  <r_i_glide_emodel>  (170) 
-26.1516

>  <r_i_glide_energy>  (170) 
-21.4035

>  <r_i_glide_einternal>  (170) 
0.079199

>  <r_i_glide_intrahb_reward>  (170) 
-0

>  <i_i_glide_confnum>  (170) 
4

>  <i_i_glide_posenum>  (170) 
5

>  <r_i_glide_eff_state_penalty>  (170) 
0

>  <ligand_id>  (170) 
43

>  <original_smiles>  (170) 
c1cc(-c2cnc3ccsn23)ccn1

>  <smiles>  (170) 
[H]c1nc([H])c([H])c(-c2c([H])nc3c([H])c([H])sn23)c1[H]

$$$$
43:0:2
     RDKit          3D

 21 23  0  0  1  0  0  0  0  0999 V2000
    0.0332   -2.4913    6.6169 C   0  0  0  0  0  0  0  0  0  0  0  0
    0.4259   -3.2091    5.4722 C   0  0  0  0  0  0  0  0  0  0  0  0
    0.2157   -4.6048    5.4201 C   0  0  0  0  0  0  0  0  0  0  0  0
    0.6383   -5.3560    4.2349 C   0  0  0  0  0  0  0  0  0  0  0  0
    1.4465   -4.9834    3.1740 C   0  0  0  0  0  0  0  0  0  0  0  0
    1.5818   -5.9811    2.1893 N   0  0  0  0  0  0  0  0  0  0  0  0
    0.8773   -6.9331    2.7185 C   0  0  0  0  0  0  0  0  0  0  0  0
    0.6829   -8.2266    2.1358 C   0  0  0  0  0  0  0  0  0  0  0  0
   -0.2022   -8.8994    3.0793 C   0  0  0  0  0  0  0  0  0  0  0  0
   -0.6687   -7.9083    4.4953 S   0  0  0  0  0  0  0  0  0  0  0  0
    0.2757   -6.6534    3.8915 N   0  0  0  0  0  0  0  0  0  0  0  0
   -0.3907   -5.2034    6.5471 C   0  0  0  0  0  0  0  0  0  0  0  0
   -0.7542   -4.3997    7.6427 C   0  0  0  0  0  0  0  0  0  0  0  0
   -0.5624   -3.0655    7.6830 N   0  0  0  0  0  0  0  0  0  0  0  0
    0.1919   -1.4248    6.6712 H   0  0  0  0  0  0  0  0  0  0  0  0
    0.8845   -2.6801    4.6487 H   0  0  0  0  0  0  0  0  0  0  0  0
    1.9443   -4.0336    3.0306 H   0  0  0  0  0  0  0  0  0  0  0  0
    1.0945   -8.6196    1.2168 H   0  0  0  0  0  0  0  0  0  0  0  0
   -0.5764   -9.9116    2.9864 H   0  0  0  0  0  0  0  0  0  0  0  0
   -0.5730   -6.2607    6.6002 H   0  0  0  0  0  0  0  0  0  0  0  0
   -1.2113   -4.8426    8.5148 H   0  0  0  0  0  0  0  0  0  0  0  0
  1 14  2  0
  1  2  1  0
  1 15  1  0
  2  3  2  0
  2 16  1  0
  3  4  1  0
  3 12  1  0
  4 11  1  0
  4  5  2  0
  5  6  1  0
  5 17  1  0
  6  7  2  0
  7 11  1  0
  7  8  1  0
  8  9  2  0
  8 18  1  0
  9 10  1  0
  9 19  1  0
 10 11  1  0
 12 13  2  0
 12 20  1  0
 13 14  1  0
 13 21  1  0
M  END
>  <i_m_ct_stereo_status>  (171) 
1

>  <s_m_source_file>  (171) 
/var/tmp/pbs.5076255.sched01/tmp6h9xbnrx/445q66801d.sdf

>  <i_m_source_file_index>  (171) 
24

>  <i_lp_mmshare_version>  (171) 
48012

>  <i_f3d_flags>  (171) 
0

>  <s_epik_input>  (171) 
W2NIXTFbY0hdbltjSF1bY0hdYzEtYyhbY0hdbjIpbihjMjMpc1tjSF1bY0hdMw==

>  <s_epik_cmdline>  (171) 
J2VwaWtfcHl0aG9uJywgJy1waHQnLCAnMi4wJywgJy1waCcsICc3LjAnLCAnLXRuJywgJzgnLCAnLW1hJywgJzIwMCcsICctaW1hZScsICc8aW5maWxlLm1hZT4nLCAnLW9tYWUnLCAnPG91dGZpbGUubWFlPic=

>  <r_epik_Ionization_Penalty>  (171) 
0.0310431

>  <r_epik_Ionization_Penalty_Charging>  (171) 
0.0263339

>  <r_epik_Ionization_Penalty_Neutral>  (171) 
0.00470924

>  <r_epik_State_Penalty>  (171) 
0.0214906

>  <r_epik_Charging_Adjusted_Penalty>  (171) 
0.0478244

>  <i_epik_Tot_Q>  (171) 
0

>  <i_epik_Tot_abs_Q>  (171) 
0

>  <s_lp_Force_Field>  (171) 
OPLS3e

>  <r_lp_Energy>  (171) 
13.4433

>  <b_lp_Chiralities_Consistent>  (171) 
1

>  <s_lp_Variant>  (171) 
43:0-1

>  <s_i_glide_gridfile>  (171) 
pfpi4k_grid

>  <i_i_glide_lignum>  (171) 
24

>  <i_i_glide_rotatable_bonds>  (171) 
1

>  <r_i_docking_score>  (171) 
-3.10045

>  <r_i_glide_ligand_efficiency>  (171) 
-0.221461

>  <r_i_glide_ligand_efficiency_sa>  (171) 
-0.533752

>  <r_i_glide_ligand_efficiency_ln>  (171) 
-0.851992

>  <r_i_glide_gscore>  (171) 
-3.10045

>  <r_i_glide_lipo>  (171) 
-0.0407281

>  <r_i_glide_hbond>  (171) 
-0.0621863

>  <r_i_glide_metal>  (171) 
-0

>  <r_i_glide_rewards>  (171) 
-2.03694

>  <r_i_glide_evdw>  (171) 
-14.9095

>  <r_i_glide_ecoul>  (171) 
-3.59887

>  <r_i_glide_erotb>  (171) 
0.404118

>  <r_i_glide_esite>  (171) 
-0.0794072

>  <r_i_glide_emodel>  (171) 
-22.9964

>  <r_i_glide_energy>  (171) 
-18.5083

>  <r_i_glide_einternal>  (171) 
0.0523334

>  <r_i_glide_intrahb_reward>  (171) 
-0

>  <i_i_glide_confnum>  (171) 
4

>  <i_i_glide_posenum>  (171) 
26

>  <r_i_glide_eff_state_penalty>  (171) 
0

>  <ligand_id>  (171) 
43

>  <original_smiles>  (171) 
c1cc(-c2cnc3ccsn23)ccn1

>  <smiles>  (171) 
[H]c1nc([H])c([H])c(-c2c([H])nc3c([H])c([H])sn23)c1[H]

$$$$
43:1:0
     RDKit          3D

 22 24  0  0  1  0  0  0  0  0999 V2000
   -0.1122   -4.6944    7.6218 C   0  0  0  0  0  0  0  0  0  0  0  0
    0.0596   -6.0780    7.4381 C   0  0  0  0  0  0  0  0  0  0  0  0
    0.3150   -6.5913    6.1429 C   0  0  0  0  0  0  0  0  0  0  0  0
    0.4939   -8.0540    5.9328 C   0  0  0  0  0  0  0  0  0  0  0  0
    0.7388   -9.0160    6.9136 C   0  0  0  0  0  0  0  0  0  0  0  0
    0.8250  -10.2550    6.2960 N   0  0  0  0  0  0  0  0  0  0  0  0
    0.6397  -10.0368    4.9980 C   0  0  0  0  0  0  0  0  0  0  0  0
    0.6354  -10.9585    3.8906 C   0  0  0  0  0  0  0  0  0  0  0  0
    0.3666  -10.1142    2.7387 C   0  0  0  0  0  0  0  0  0  0  0  0
    0.1628   -8.3846    3.1102 S   0  0  0  0  0  0  0  0  0  0  0  0
    0.4330   -8.7354    4.7371 N   0  0  0  0  0  0  0  0  0  0  0  0
    0.3923   -5.6380    5.1002 C   0  0  0  0  0  0  0  0  0  0  0  0
    0.2165   -4.2707    5.3876 C   0  0  0  0  0  0  0  0  0  0  0  0
   -0.0515   -3.8009    6.6193 N   0  0  0  0  0  0  0  0  0  0  0  0
   -0.3126   -4.2916    8.6015 H   0  0  0  0  0  0  0  0  0  0  0  0
   -0.0153   -6.7275    8.2926 H   0  0  0  0  0  0  0  0  0  0  0  0
    0.8634   -8.9074    7.9771 H   0  0  0  0  0  0  0  0  0  0  0  0
    0.7795  -12.0338    3.9009 H   0  0  0  0  0  0  0  0  0  0  0  0
    0.2805  -10.4639    1.7158 H   0  0  0  0  0  0  0  0  0  0  0  0
    0.6062   -5.9233    4.0857 H   0  0  0  0  0  0  0  0  0  0  0  0
    0.2721   -3.5347    4.6006 H   0  0  0  0  0  0  0  0  0  0  0  0
    1.0177  -11.1621    6.7568 H   0  0  0  0  0  0  0  0  0  0  0  0
  1 14  2  0
  1  2  1  0
  1 15  1  0
  2  3  2  0
  2 16  1  0
  3  4  1  0
  3 12  1  0
  4 11  1  0
  4  5  2  0
  5  6  1  0
  5 17  1  0
  6  7  2  0
  6 22  1  0
  7 11  1  0
  7  8  1  0
  8  9  2  0
  8 18  1  0
  9 10  1  0
  9 19  1  0
 10 11  1  0
 12 13  2  0
 12 20  1  0
 13 14  1  0
 13 21  1  0
M  CHG  1   6   1
M  END
>  <i_m_ct_stereo_status>  (172) 
1

>  <s_m_source_file>  (172) 
/var/tmp/pbs.5076255.sched01/tmp6h9xbnrx/445q66801d.sdf

>  <i_m_source_file_index>  (172) 
25

>  <i_lp_mmshare_version>  (172) 
48012

>  <i_f3d_flags>  (172) 
0

>  <s_epik_input>  (172) 
W2NIXTFbY0hdbltjSF1bY0hdYzEtYyhbY0hdbjIpbihjMjMpc1tjSF1bY0hdMw==

>  <s_epik_cmdline>  (172) 
J2VwaWtfcHl0aG9uJywgJy1waHQnLCAnMi4wJywgJy1waCcsICc3LjAnLCAnLXRuJywgJzgnLCAnLW1hJywgJzIwMCcsICctaW1hZScsICc8aW5maWxlLm1hZT4nLCAnLW9tYWUnLCAnPG91dGZpbGUubWFlPic=

>  <r_epik_Ionization_Penalty>  (172) 
1.85896

>  <r_epik_Ionization_Penalty_Charging>  (172) 
0

>  <r_epik_Ionization_Penalty_Neutral>  (172) 
1.85896

>  <r_epik_State_Penalty>  (172) 
1.97582

>  <r_epik_Charging_Adjusted_Penalty>  (172) 
1.97582

>  <i_epik_Tot_Q>  (172) 
1

>  <i_epik_Tot_abs_Q>  (172) 
1

>  <s_lp_Force_Field>  (172) 
OPLS3e

>  <r_lp_Energy>  (172) 
16.3191

>  <b_lp_Chiralities_Consistent>  (172) 
1

>  <s_lp_Variant>  (172) 
43:0-2

>  <s_i_glide_gridfile>  (172) 
pfpi4k_grid

>  <i_i_glide_lignum>  (172) 
25

>  <i_i_glide_rotatable_bonds>  (172) 
1

>  <r_i_docking_score>  (172) 
-4.10304

>  <r_i_glide_ligand_efficiency>  (172) 
-0.293074

>  <r_i_glide_ligand_efficiency_sa>  (172) 
-0.706351

>  <r_i_glide_ligand_efficiency_ln>  (172) 
-1.1275

>  <r_i_glide_gscore>  (172) 
-4.10304

>  <r_i_glide_lipo>  (172) 
-0.0884637

>  <r_i_glide_hbond>  (172) 
-0.18094

>  <r_i_glide_metal>  (172) 
-0

>  <r_i_glide_rewards>  (172) 
-2.03007

>  <r_i_glide_evdw>  (172) 
-14.1147

>  <r_i_glide_ecoul>  (172) 
-8.60172

>  <r_i_glide_erotb>  (172) 
0.400763

>  <r_i_glide_esite>  (172) 
-0.208339

>  <r_i_glide_emodel>  (172) 
-31.5477

>  <r_i_glide_energy>  (172) 
-22.7164

>  <r_i_glide_einternal>  (172) 
0.0617645

>  <r_i_glide_intrahb_reward>  (172) 
-0

>  <i_i_glide_confnum>  (172) 
1

>  <i_i_glide_posenum>  (172) 
23

>  <r_i_glide_eff_state_penalty>  (172) 
0

>  <ligand_id>  (172) 
43

>  <original_smiles>  (172) 
c1cc(-c2cnc3ccsn23)ccn1

>  <smiles>  (172) 
[H]c1nc([H])c([H])c(-c2c([H])[n+]([H])c3c([H])c([H])sn23)c1[H]

$$$$
43:1:1
     RDKit          3D

 22 24  0  0  1  0  0  0  0  0999 V2000
    0.6110   -7.9397    9.4966 C   0  0  0  0  0  0  0  0  0  0  0  0
    0.7865   -8.7933    8.3898 C   0  0  0  0  0  0  0  0  0  0  0  0
    0.6230   -8.2801    7.0801 C   0  0  0  0  0  0  0  0  0  0  0  0
    0.8221   -9.1518    5.9015 C   0  0  0  0  0  0  0  0  0  0  0  0
    1.6883  -10.2367    5.7993 C   0  0  0  0  0  0  0  0  0  0  0  0
    1.5361  -10.7978    4.5409 N   0  0  0  0  0  0  0  0  0  0  0  0
    0.6144  -10.0629    3.9279 C   0  0  0  0  0  0  0  0  0  0  0  0
    0.0503  -10.2071    2.6189 C   0  0  0  0  0  0  0  0  0  0  0  0
   -0.9187   -9.1261    2.5321 C   0  0  0  0  0  0  0  0  0  0  0  0
   -1.0377   -8.1178    4.0067 S   0  0  0  0  0  0  0  0  0  0  0  0
    0.1624   -9.0636    4.7006 N   0  0  0  0  0  0  0  0  0  0  0  0
    0.2928   -6.9116    6.9702 C   0  0  0  0  0  0  0  0  0  0  0  0
    0.1350   -6.1397    8.1400 C   0  0  0  0  0  0  0  0  0  0  0  0
    0.2656   -6.6444    9.3826 N   0  0  0  0  0  0  0  0  0  0  0  0
    0.7309   -8.3075   10.5055 H   0  0  0  0  0  0  0  0  0  0  0  0
    1.0494   -9.8277    8.5550 H   0  0  0  0  0  0  0  0  0  0  0  0
    2.3630  -10.6496    6.5382 H   0  0  0  0  0  0  0  0  0  0  0  0
    0.2594  -10.9468    1.8563 H   0  0  0  0  0  0  0  0  0  0  0  0
   -1.5464   -8.9124    1.6774 H   0  0  0  0  0  0  0  0  0  0  0  0
    0.1695   -6.4415    6.0067 H   0  0  0  0  0  0  0  0  0  0  0  0
   -0.1149   -5.0913    8.0838 H   0  0  0  0  0  0  0  0  0  0  0  0
    2.0058  -11.6194    4.1806 H   0  0  0  0  0  0  0  0  0  0  0  0
  1 14  2  0
  1  2  1  0
  1 15  1  0
  2  3  2  0
  2 16  1  0
  3  4  1  0
  3 12  1  0
  4 11  1  0
  4  5  2  0
  5  6  1  0
  5 17  1  0
  6  7  2  0
  6 22  1  0
  7 11  1  0
  7  8  1  0
  8  9  2  0
  8 18  1  0
  9 10  1  0
  9 19  1  0
 10 11  1  0
 12 13  2  0
 12 20  1  0
 13 14  1  0
 13 21  1  0
M  CHG  1   6   1
M  END
>  <i_m_ct_stereo_status>  (173) 
1

>  <s_m_source_file>  (173) 
/var/tmp/pbs.5076255.sched01/tmp6h9xbnrx/445q66801d.sdf

>  <i_m_source_file_index>  (173) 
25

>  <i_lp_mmshare_version>  (173) 
48012

>  <i_f3d_flags>  (173) 
0

>  <s_epik_input>  (173) 
W2NIXTFbY0hdbltjSF1bY0hdYzEtYyhbY0hdbjIpbihjMjMpc1tjSF1bY0hdMw==

>  <s_epik_cmdline>  (173) 
J2VwaWtfcHl0aG9uJywgJy1waHQnLCAnMi4wJywgJy1waCcsICc3LjAnLCAnLXRuJywgJzgnLCAnLW1hJywgJzIwMCcsICctaW1hZScsICc8aW5maWxlLm1hZT4nLCAnLW9tYWUnLCAnPG91dGZpbGUubWFlPic=

>  <r_epik_Ionization_Penalty>  (173) 
1.85896

>  <r_epik_Ionization_Penalty_Charging>  (173) 
0

>  <r_epik_Ionization_Penalty_Neutral>  (173) 
1.85896

>  <r_epik_State_Penalty>  (173) 
1.97582

>  <r_epik_Charging_Adjusted_Penalty>  (173) 
1.97582

>  <i_epik_Tot_Q>  (173) 
1

>  <i_epik_Tot_abs_Q>  (173) 
1

>  <s_lp_Force_Field>  (173) 
OPLS3e

>  <r_lp_Energy>  (173) 
16.3191

>  <b_lp_Chiralities_Consistent>  (173) 
1

>  <s_lp_Variant>  (173) 
43:0-2

>  <s_i_glide_gridfile>  (173) 
pfpi4k_grid

>  <i_i_glide_lignum>  (173) 
25

>  <i_i_glide_rotatable_bonds>  (173) 
1

>  <r_i_docking_score>  (173) 
-4.00143

>  <r_i_glide_ligand_efficiency>  (173) 
-0.285816

>  <r_i_glide_ligand_efficiency_sa>  (173) 
-0.688858

>  <r_i_glide_ligand_efficiency_ln>  (173) 
-1.09958

>  <r_i_glide_gscore>  (173) 
-4.00143

>  <r_i_glide_lipo>  (173) 
-0.22913

>  <r_i_glide_hbond>  (173) 
-0.234618

>  <r_i_glide_metal>  (173) 
-0

>  <r_i_glide_rewards>  (173) 
-2.03007

>  <r_i_glide_evdw>  (173) 
-15.6377

>  <r_i_glide_ecoul>  (173) 
-6.75928

>  <r_i_glide_erotb>  (173) 
0.400763

>  <r_i_glide_esite>  (173) 
-0.112597

>  <r_i_glide_emodel>  (173) 
-30.753

>  <r_i_glide_energy>  (173) 
-22.397

>  <r_i_glide_einternal>  (173) 
0.594191

>  <r_i_glide_intrahb_reward>  (173) 
-0

>  <i_i_glide_confnum>  (173) 
1

>  <i_i_glide_posenum>  (173) 
35

>  <r_i_glide_eff_state_penalty>  (173) 
0

>  <ligand_id>  (173) 
43

>  <original_smiles>  (173) 
c1cc(-c2cnc3ccsn23)ccn1

>  <smiles>  (173) 
[H]c1nc([H])c([H])c(-c2c([H])[n+]([H])c3c([H])c([H])sn23)c1[H]

$$$$
43:1:2
     RDKit          3D

 22 24  0  0  1  0  0  0  0  0999 V2000
   -2.5676    2.9090    6.6403 C   0  0  0  0  0  0  0  0  0  0  0  0
   -2.1093    2.5300    5.3654 C   0  0  0  0  0  0  0  0  0  0  0  0
   -0.8181    1.9667    5.2234 C   0  0  0  0  0  0  0  0  0  0  0  0
   -0.3251    1.5473    3.8818 C   0  0  0  0  0  0  0  0  0  0  0  0
   -1.0598    1.4918    2.6967 C   0  0  0  0  0  0  0  0  0  0  0  0
   -0.2151    1.0564    1.6783 N   0  0  0  0  0  0  0  0  0  0  0  0
    0.9702    0.8694    2.2481 C   0  0  0  0  0  0  0  0  0  0  0  0
    2.2053    0.4174    1.6654 C   0  0  0  0  0  0  0  0  0  0  0  0
    3.1325    0.4264    2.7894 C   0  0  0  0  0  0  0  0  0  0  0  0
    2.4338    0.9489    4.3382 S   0  0  0  0  0  0  0  0  0  0  0  0
    0.9540    1.1490    3.5583 N   0  0  0  0  0  0  0  0  0  0  0  0
   -0.0657    1.8324    6.4139 C   0  0  0  0  0  0  0  0  0  0  0  0
   -0.6104    2.2516    7.6421 C   0  0  0  0  0  0  0  0  0  0  0  0
   -1.8450    2.7677    7.7592 N   0  0  0  0  0  0  0  0  0  0  0  0
   -3.5504    3.3238    6.7697 H   0  0  0  0  0  0  0  0  0  0  0  0
   -2.7671    2.6609    4.5247 H   0  0  0  0  0  0  0  0  0  0  0  0
   -2.1031    1.7229    2.5290 H   0  0  0  0  0  0  0  0  0  0  0  0
    2.3813    0.1443    0.6333 H   0  0  0  0  0  0  0  0  0  0  0  0
    4.1704    0.1496    2.7462 H   0  0  0  0  0  0  0  0  0  0  0  0
    0.9248    1.4144    6.4326 H   0  0  0  0  0  0  0  0  0  0  0  0
   -0.0465    2.1638    8.5558 H   0  0  0  0  0  0  0  0  0  0  0  0
   -0.4455    0.9114    0.6946 H   0  0  0  0  0  0  0  0  0  0  0  0
  1 14  2  0
  1  2  1  0
  1 15  1  0
  2  3  2  0
  2 16  1  0
  3  4  1  0
  3 12  1  0
  4 11  1  0
  4  5  2  0
  5  6  1  0
  5 17  1  0
  6  7  2  0
  6 22  1  0
  7 11  1  0
  7  8  1  0
  8  9  2  0
  8 18  1  0
  9 10  1  0
  9 19  1  0
 10 11  1  0
 12 13  2  0
 12 20  1  0
 13 14  1  0
 13 21  1  0
M  CHG  1   6   1
M  END
>  <i_m_ct_stereo_status>  (174) 
1

>  <s_m_source_file>  (174) 
/var/tmp/pbs.5076255.sched01/tmp6h9xbnrx/445q66801d.sdf

>  <i_m_source_file_index>  (174) 
25

>  <i_lp_mmshare_version>  (174) 
48012

>  <i_f3d_flags>  (174) 
0

>  <s_epik_input>  (174) 
W2NIXTFbY0hdbltjSF1bY0hdYzEtYyhbY0hdbjIpbihjMjMpc1tjSF1bY0hdMw==

>  <s_epik_cmdline>  (174) 
J2VwaWtfcHl0aG9uJywgJy1waHQnLCAnMi4wJywgJy1waCcsICc3LjAnLCAnLXRuJywgJzgnLCAnLW1hJywgJzIwMCcsICctaW1hZScsICc8aW5maWxlLm1hZT4nLCAnLW9tYWUnLCAnPG91dGZpbGUubWFlPic=

>  <r_epik_Ionization_Penalty>  (174) 
1.85896

>  <r_epik_Ionization_Penalty_Charging>  (174) 
0

>  <r_epik_Ionization_Penalty_Neutral>  (174) 
1.85896

>  <r_epik_State_Penalty>  (174) 
1.97582

>  <r_epik_Charging_Adjusted_Penalty>  (174) 
1.97582

>  <i_epik_Tot_Q>  (174) 
1

>  <i_epik_Tot_abs_Q>  (174) 
1

>  <s_lp_Force_Field>  (174) 
OPLS3e

>  <r_lp_Energy>  (174) 
16.3191

>  <b_lp_Chiralities_Consistent>  (174) 
1

>  <s_lp_Variant>  (174) 
43:0-2

>  <s_i_glide_gridfile>  (174) 
pfpi4k_grid

>  <i_i_glide_lignum>  (174) 
25

>  <i_i_glide_rotatable_bonds>  (174) 
1

>  <r_i_docking_score>  (174) 
-3.86377

>  <r_i_glide_ligand_efficiency>  (174) 
-0.275983

>  <r_i_glide_ligand_efficiency_sa>  (174) 
-0.665159

>  <r_i_glide_ligand_efficiency_ln>  (174) 
-1.06175

>  <r_i_glide_gscore>  (174) 
-3.86377

>  <r_i_glide_lipo>  (174) 
-0.215637

>  <r_i_glide_hbond>  (174) 
-0.2

>  <r_i_glide_metal>  (174) 
-0

>  <r_i_glide_rewards>  (174) 
-2.03007

>  <r_i_glide_evdw>  (174) 
-14.9788

>  <r_i_glide_ecoul>  (174) 
-6.03847

>  <r_i_glide_erotb>  (174) 
0.400763

>  <r_i_glide_esite>  (174) 
-0.164115

>  <r_i_glide_emodel>  (174) 
-29.3453

>  <r_i_glide_energy>  (174) 
-21.0173

>  <r_i_glide_einternal>  (174) 
0.00667047

>  <r_i_glide_intrahb_reward>  (174) 
-0

>  <i_i_glide_confnum>  (174) 
5

>  <i_i_glide_posenum>  (174) 
18

>  <r_i_glide_eff_state_penalty>  (174) 
0

>  <ligand_id>  (174) 
43

>  <original_smiles>  (174) 
c1cc(-c2cnc3ccsn23)ccn1

>  <smiles>  (174) 
[H]c1nc([H])c([H])c(-c2c([H])[n+]([H])c3c([H])c([H])sn23)c1[H]

$$$$
44:0:0
     RDKit          3D

 26 27  0  0  1  0  0  0  0  0999 V2000
   -9.9550   -3.4621   -5.9993 C   0  0  0  0  0  0  0  0  0  0  0  0
   -9.2590   -4.6461   -6.4754 N   0  0  0  0  0  0  0  0  0  0  0  0
   -8.1115   -5.2283   -5.9284 C   0  0  0  0  0  0  0  0  0  0  0  0
   -7.4934   -4.7296   -4.8260 O   0  0  0  0  0  0  0  0  0  0  0  0
   -7.8123   -6.3045   -6.7034 C   0  0  0  0  0  0  0  0  0  0  0  0
   -8.7355   -6.4375   -7.7366 C   0  0  0  0  0  0  0  0  0  0  0  0
   -9.6237   -5.4148   -7.5844 C   0  0  0  0  0  0  0  0  0  0  0  0
  -10.7049   -5.0858   -8.3397 O   0  0  0  0  0  0  0  0  0  0  0  0
   -8.4546   -7.6227   -8.6099 C   0  0  0  0  0  0  0  0  0  0  0  0
   -9.5872   -8.6571   -8.5550 C   0  0  0  0  0  0  0  0  0  0  0  0
   -8.1272   -7.2036  -10.0497 C   0  0  0  0  0  0  0  0  0  0  0  0
   -7.2076   -8.1242   -7.8725 C   0  0  0  0  0  0  0  0  0  0  0  0
   -6.8530   -7.3837   -6.7979 C   0  0  0  0  0  0  0  0  0  0  0  0
   -9.4697   -3.0455   -5.1175 H   0  0  0  0  0  0  0  0  0  0  0  0
  -10.9810   -3.7176   -5.7483 H   0  0  0  0  0  0  0  0  0  0  0  0
   -9.9642   -2.7046   -6.7817 H   0  0  0  0  0  0  0  0  0  0  0  0
   -7.9982   -3.9926   -4.5185 H   0  0  0  0  0  0  0  0  0  0  0  0
  -11.4883   -5.4567   -7.9466 H   0  0  0  0  0  0  0  0  0  0  0  0
   -9.7971   -8.9560   -7.5278 H   0  0  0  0  0  0  0  0  0  0  0  0
   -9.3311   -9.5584   -9.1118 H   0  0  0  0  0  0  0  0  0  0  0  0
  -10.5089   -8.2537   -8.9754 H   0  0  0  0  0  0  0  0  0  0  0  0
   -7.3179   -6.4762  -10.0735 H   0  0  0  0  0  0  0  0  0  0  0  0
   -8.9914   -6.7454  -10.5284 H   0  0  0  0  0  0  0  0  0  0  0  0
   -7.8199   -8.0560  -10.6544 H   0  0  0  0  0  0  0  0  0  0  0  0
   -6.6746   -9.0001   -8.2102 H   0  0  0  0  0  0  0  0  0  0  0  0
   -6.0180   -7.5324   -6.1266 H   0  0  0  0  0  0  0  0  0  0  0  0
  1  2  1  0
  1 14  1  0
  1 15  1  0
  1 16  1  0
  2  7  1  0
  2  3  1  0
  3  4  1  0
  3  5  2  0
  4 17  1  0
  5 13  1  0
  5  6  1  0
  6  7  2  0
  6  9  1  0
  7  8  1  0
  8 18  1  0
  9 10  1  0
  9 11  1  0
  9 12  1  0
 10 19  1  0
 10 20  1  0
 10 21  1  0
 11 22  1  0
 11 23  1  0
 11 24  1  0
 12 13  2  0
 12 25  1  0
 13 26  1  0
M  END
>  <i_m_ct_stereo_status>  (175) 
1

>  <s_m_source_file>  (175) 
/var/tmp/pbs.5076255.sched01/tmp6h9xbnrx/445q66801d.sdf

>  <i_m_source_file_index>  (175) 
26

>  <i_lp_mmshare_version>  (175) 
48012

>  <i_f3d_flags>  (175) 
0

>  <s_epik_input>  (175) 
W09IXWMxbihbQ0gzXSljKFtPSF0pYyhjMTIpQyhbQ0gzXSkoW0NIM10pW0NIXT1bQ0hdMg==

>  <s_epik_cmdline>  (175) 
J2VwaWtfcHl0aG9uJywgJy1waHQnLCAnMi4wJywgJy1waCcsICc3LjAnLCAnLXRuJywgJzgnLCAnLW1hJywgJzIwMCcsICctaW1hZScsICc8aW5maWxlLm1hZT4nLCAnLW9tYWUnLCAnPG91dGZpbGUubWFlPic=

>  <r_lp_tautomer_probability>  (175) 
1

>  <r_epik_Ionization_Penalty>  (175) 
0.00021916

>  <r_epik_Ionization_Penalty_Charging>  (175) 
0

>  <r_epik_Ionization_Penalty_Neutral>  (175) 
0.00021916

>  <r_epik_State_Penalty>  (175) 
-0

>  <r_epik_Charging_Adjusted_Penalty>  (175) 
0

>  <i_epik_Tot_Q>  (175) 
0

>  <i_epik_Tot_abs_Q>  (175) 
0

>  <s_lp_Force_Field>  (175) 
OPLS3e

>  <r_lp_Energy>  (175) 
-0.924286

>  <b_lp_Chiralities_Consistent>  (175) 
1

>  <s_lp_Variant>  (175) 
44:0-1

>  <s_i_glide_gridfile>  (175) 
pfpi4k_grid

>  <i_i_glide_lignum>  (175) 
26

>  <i_i_glide_rotatable_bonds>  (175) 
2

>  <r_i_docking_score>  (175) 
-6.28836

>  <r_i_glide_ligand_efficiency>  (175) 
-0.48372

>  <r_i_glide_ligand_efficiency_sa>  (175) 
-1.13739

>  <r_i_glide_ligand_efficiency_ln>  (175) 
-1.76394

>  <r_i_glide_gscore>  (175) 
-6.28836

>  <r_i_glide_lipo>  (175) 
-1.88028

>  <r_i_glide_hbond>  (175) 
-0.0972614

>  <r_i_glide_metal>  (175) 
-0

>  <r_i_glide_rewards>  (175) 
-2.94652

>  <r_i_glide_evdw>  (175) 
-20.2459

>  <r_i_glide_ecoul>  (175) 
-2.34672

>  <r_i_glide_erotb>  (175) 
0

>  <r_i_glide_esite>  (175) 
0

>  <r_i_glide_emodel>  (175) 
-31.5183

>  <r_i_glide_energy>  (175) 
-22.5926

>  <r_i_glide_einternal>  (175) 
2.67765

>  <r_i_glide_intrahb_reward>  (175) 
-0

>  <i_i_glide_confnum>  (175) 
2

>  <i_i_glide_posenum>  (175) 
1

>  <r_i_glide_eff_state_penalty>  (175) 
0

>  <ligand_id>  (175) 
44

>  <original_smiles>  (175) 
Cn1c(O)c2c(c1O)C(C)(C)C=C2

>  <smiles>  (175) 
[H]Oc1c2c(c(O[H])n1C([H])([H])[H])C(C([H])([H])[H])(C([H])([H])[H])C([H])=C2[H]

$$$$
44:0:1
     RDKit          3D

 26 27  0  0  1  0  0  0  0  0999 V2000
    4.2490   -2.5776    1.7730 C   0  0  0  0  0  0  0  0  0  0  0  0
    4.1692   -2.2857    0.3553 N   0  0  0  0  0  0  0  0  0  0  0  0
    4.3717   -1.0468   -0.2514 C   0  0  0  0  0  0  0  0  0  0  0  0
    4.6782    0.0740    0.4689 O   0  0  0  0  0  0  0  0  0  0  0  0
    4.2030   -1.2519   -1.5896 C   0  0  0  0  0  0  0  0  0  0  0  0
    3.8887   -2.5865   -1.8545 C   0  0  0  0  0  0  0  0  0  0  0  0
    3.8703   -3.2180   -0.6427 C   0  0  0  0  0  0  0  0  0  0  0  0
    3.6159   -4.5209   -0.3333 O   0  0  0  0  0  0  0  0  0  0  0  0
    3.6846   -2.8410   -3.3196 C   0  0  0  0  0  0  0  0  0  0  0  0
    4.7356   -3.8122   -3.8741 C   0  0  0  0  0  0  0  0  0  0  0  0
    2.2534   -3.2934   -3.6337 C   0  0  0  0  0  0  0  0  0  0  0  0
    3.9287   -1.4116   -3.8154 C   0  0  0  0  0  0  0  0  0  0  0  0
    4.2140   -0.5279   -2.8394 C   0  0  0  0  0  0  0  0  0  0  0  0
    4.4953   -1.6787    2.3385 H   0  0  0  0  0  0  0  0  0  0  0  0
    5.0204   -3.3308    1.9441 H   0  0  0  0  0  0  0  0  0  0  0  0
    3.2887   -2.9648    2.1171 H   0  0  0  0  0  0  0  0  0  0  0  0
    4.9007    0.7636   -0.1496 H   0  0  0  0  0  0  0  0  0  0  0  0
    3.4258   -4.9709   -1.1543 H   0  0  0  0  0  0  0  0  0  0  0  0
    5.7446   -3.4608   -3.6517 H   0  0  0  0  0  0  0  0  0  0  0  0
    4.6512   -3.9398   -4.9527 H   0  0  0  0  0  0  0  0  0  0  0  0
    4.6258   -4.7967   -3.4238 H   0  0  0  0  0  0  0  0  0  0  0  0
    1.5221   -2.5886   -3.2407 H   0  0  0  0  0  0  0  0  0  0  0  0
    2.0425   -4.2532   -3.1700 H   0  0  0  0  0  0  0  0  0  0  0  0
    2.0793   -3.3971   -4.7062 H   0  0  0  0  0  0  0  0  0  0  0  0
    3.8576   -1.1515   -4.8594 H   0  0  0  0  0  0  0  0  0  0  0  0
    4.4087    0.5296   -2.9396 H   0  0  0  0  0  0  0  0  0  0  0  0
  1  2  1  0
  1 14  1  0
  1 15  1  0
  1 16  1  0
  2  7  1  0
  2  3  1  0
  3  4  1  0
  3  5  2  0
  4 17  1  0
  5 13  1  0
  5  6  1  0
  6  7  2  0
  6  9  1  0
  7  8  1  0
  8 18  1  0
  9 10  1  0
  9 11  1  0
  9 12  1  0
 10 19  1  0
 10 20  1  0
 10 21  1  0
 11 22  1  0
 11 23  1  0
 11 24  1  0
 12 13  2  0
 12 25  1  0
 13 26  1  0
M  END
>  <i_m_ct_stereo_status>  (176) 
1

>  <s_m_source_file>  (176) 
/var/tmp/pbs.5076255.sched01/tmp6h9xbnrx/445q66801d.sdf

>  <i_m_source_file_index>  (176) 
26

>  <i_lp_mmshare_version>  (176) 
48012

>  <i_f3d_flags>  (176) 
0

>  <s_epik_input>  (176) 
W09IXWMxbihbQ0gzXSljKFtPSF0pYyhjMTIpQyhbQ0gzXSkoW0NIM10pW0NIXT1bQ0hdMg==

>  <s_epik_cmdline>  (176) 
J2VwaWtfcHl0aG9uJywgJy1waHQnLCAnMi4wJywgJy1waCcsICc3LjAnLCAnLXRuJywgJzgnLCAnLW1hJywgJzIwMCcsICctaW1hZScsICc8aW5maWxlLm1hZT4nLCAnLW9tYWUnLCAnPG91dGZpbGUubWFlPic=

>  <r_lp_tautomer_probability>  (176) 
1

>  <r_epik_Ionization_Penalty>  (176) 
0.00021916

>  <r_epik_Ionization_Penalty_Charging>  (176) 
0

>  <r_epik_Ionization_Penalty_Neutral>  (176) 
0.00021916

>  <r_epik_State_Penalty>  (176) 
-0

>  <r_epik_Charging_Adjusted_Penalty>  (176) 
0

>  <i_epik_Tot_Q>  (176) 
0

>  <i_epik_Tot_abs_Q>  (176) 
0

>  <s_lp_Force_Field>  (176) 
OPLS3e

>  <r_lp_Energy>  (176) 
-0.924286

>  <b_lp_Chiralities_Consistent>  (176) 
1

>  <s_lp_Variant>  (176) 
44:0-1

>  <s_i_glide_gridfile>  (176) 
pfpi4k_grid

>  <i_i_glide_lignum>  (176) 
26

>  <i_i_glide_rotatable_bonds>  (176) 
2

>  <r_i_docking_score>  (176) 
-5.44619

>  <r_i_glide_ligand_efficiency>  (176) 
-0.418938

>  <r_i_glide_ligand_efficiency_sa>  (176) 
-0.985064

>  <r_i_glide_ligand_efficiency_ln>  (176) 
-1.52771

>  <r_i_glide_gscore>  (176) 
-5.44619

>  <r_i_glide_lipo>  (176) 
-0.703843

>  <r_i_glide_hbond>  (176) 
-0.608

>  <r_i_glide_metal>  (176) 
-0

>  <r_i_glide_rewards>  (176) 
-2.18717

>  <r_i_glide_evdw>  (176) 
-18.1046

>  <r_i_glide_ecoul>  (176) 
-6.88241

>  <r_i_glide_erotb>  (176) 
0

>  <r_i_glide_esite>  (176) 
-0.00959396

>  <r_i_glide_emodel>  (176) 
-33.8883

>  <r_i_glide_energy>  (176) 
-24.987

>  <r_i_glide_einternal>  (176) 
0.0643884

>  <r_i_glide_intrahb_reward>  (176) 
-0

>  <i_i_glide_confnum>  (176) 
2

>  <i_i_glide_posenum>  (176) 
32

>  <r_i_glide_eff_state_penalty>  (176) 
0

>  <ligand_id>  (176) 
44

>  <original_smiles>  (176) 
Cn1c(O)c2c(c1O)C(C)(C)C=C2

>  <smiles>  (176) 
[H]Oc1c2c(c(O[H])n1C([H])([H])[H])C(C([H])([H])[H])(C([H])([H])[H])C([H])=C2[H]

$$$$
44:0:2
     RDKit          3D

 26 27  0  0  1  0  0  0  0  0999 V2000
    3.6378   -2.8403    1.9215 C   0  0  0  0  0  0  0  0  0  0  0  0
    3.7809   -2.4881    0.5216 N   0  0  0  0  0  0  0  0  0  0  0  0
    4.1072   -1.2405   -0.0106 C   0  0  0  0  0  0  0  0  0  0  0  0
    4.3321   -0.1551    0.7730 O   0  0  0  0  0  0  0  0  0  0  0  0
    4.1358   -1.3921   -1.3581 C   0  0  0  0  0  0  0  0  0  0  0  0
    3.8363   -2.7006   -1.7146 C   0  0  0  0  0  0  0  0  0  0  0  0
    3.6109   -3.3689   -0.5436 C   0  0  0  0  0  0  0  0  0  0  0  0
    3.2752   -4.6653   -0.3234 O   0  0  0  0  0  0  0  0  0  0  0  0
    3.8490   -2.8961   -3.2016 C   0  0  0  0  0  0  0  0  0  0  0  0
    4.9459   -3.8683   -3.6437 C   0  0  0  0  0  0  0  0  0  0  0  0
    2.4683   -3.2864   -3.7290 C   0  0  0  0  0  0  0  0  0  0  0  0
    4.1979   -1.4650   -3.6016 C   0  0  0  0  0  0  0  0  0  0  0  0
    4.3555   -0.6271   -2.5617 C   0  0  0  0  0  0  0  0  0  0  0  0
    3.8196   -1.9816    2.5665 H   0  0  0  0  0  0  0  0  0  0  0  0
    4.3517   -3.6260    2.1703 H   0  0  0  0  0  0  0  0  0  0  0  0
    2.6289   -3.2119    2.0999 H   0  0  0  0  0  0  0  0  0  0  0  0
    4.0478   -0.3831    1.6429 H   0  0  0  0  0  0  0  0  0  0  0  0
    3.2269   -5.0881   -1.1788 H   0  0  0  0  0  0  0  0  0  0  0  0
    5.9199   -3.5581   -3.2642 H   0  0  0  0  0  0  0  0  0  0  0  0
    5.0130   -3.9426   -4.7281 H   0  0  0  0  0  0  0  0  0  0  0  0
    4.7495   -4.8666   -3.2582 H   0  0  0  0  0  0  0  0  0  0  0  0
    1.7028   -2.5666   -3.4323 H   0  0  0  0  0  0  0  0  0  0  0  0
    2.1738   -4.2548   -3.3577 H   0  0  0  0  0  0  0  0  0  0  0  0
    2.4678   -3.3506   -4.8103 H   0  0  0  0  0  0  0  0  0  0  0  0
    4.3014   -1.1654   -4.6321 H   0  0  0  0  0  0  0  0  0  0  0  0
    4.5946    0.4238   -2.5916 H   0  0  0  0  0  0  0  0  0  0  0  0
  1  2  1  0
  1 14  1  0
  1 15  1  0
  1 16  1  0
  2  7  1  0
  2  3  1  0
  3  4  1  0
  3  5  2  0
  4 17  1  0
  5 13  1  0
  5  6  1  0
  6  7  2  0
  6  9  1  0
  7  8  1  0
  8 18  1  0
  9 10  1  0
  9 11  1  0
  9 12  1  0
 10 19  1  0
 10 20  1  0
 10 21  1  0
 11 22  1  0
 11 23  1  0
 11 24  1  0
 12 13  2  0
 12 25  1  0
 13 26  1  0
M  END
>  <i_m_ct_stereo_status>  (177) 
1

>  <s_m_source_file>  (177) 
/var/tmp/pbs.5076255.sched01/tmp6h9xbnrx/445q66801d.sdf

>  <i_m_source_file_index>  (177) 
26

>  <i_lp_mmshare_version>  (177) 
48012

>  <i_f3d_flags>  (177) 
0

>  <s_epik_input>  (177) 
W09IXWMxbihbQ0gzXSljKFtPSF0pYyhjMTIpQyhbQ0gzXSkoW0NIM10pW0NIXT1bQ0hdMg==

>  <s_epik_cmdline>  (177) 
J2VwaWtfcHl0aG9uJywgJy1waHQnLCAnMi4wJywgJy1waCcsICc3LjAnLCAnLXRuJywgJzgnLCAnLW1hJywgJzIwMCcsICctaW1hZScsICc8aW5maWxlLm1hZT4nLCAnLW9tYWUnLCAnPG91dGZpbGUubWFlPic=

>  <r_lp_tautomer_probability>  (177) 
1

>  <r_epik_Ionization_Penalty>  (177) 
0.00021916

>  <r_epik_Ionization_Penalty_Charging>  (177) 
0

>  <r_epik_Ionization_Penalty_Neutral>  (177) 
0.00021916

>  <r_epik_State_Penalty>  (177) 
-0

>  <r_epik_Charging_Adjusted_Penalty>  (177) 
0

>  <i_epik_Tot_Q>  (177) 
0

>  <i_epik_Tot_abs_Q>  (177) 
0

>  <s_lp_Force_Field>  (177) 
OPLS3e

>  <r_lp_Energy>  (177) 
-0.924286

>  <b_lp_Chiralities_Consistent>  (177) 
1

>  <s_lp_Variant>  (177) 
44:0-1

>  <s_i_glide_gridfile>  (177) 
pfpi4k_grid

>  <i_i_glide_lignum>  (177) 
26

>  <i_i_glide_rotatable_bonds>  (177) 
2

>  <r_i_docking_score>  (177) 
-4.67458

>  <r_i_glide_ligand_efficiency>  (177) 
-0.359583

>  <r_i_glide_ligand_efficiency_sa>  (177) 
-0.8455

>  <r_i_glide_ligand_efficiency_ln>  (177) 
-1.31126

>  <r_i_glide_gscore>  (177) 
-4.67458

>  <r_i_glide_lipo>  (177) 
-0.664241

>  <r_i_glide_hbond>  (177) 
-0.32

>  <r_i_glide_metal>  (177) 
-0

>  <r_i_glide_rewards>  (177) 
-2.18717

>  <r_i_glide_evdw>  (177) 
-18.5878

>  <r_i_glide_ecoul>  (177) 
-3.70853

>  <r_i_glide_erotb>  (177) 
0

>  <r_i_glide_esite>  (177) 
-0.0175011

>  <r_i_glide_emodel>  (177) 
-29.8741

>  <r_i_glide_energy>  (177) 
-22.2963

>  <r_i_glide_einternal>  (177) 
0.116914

>  <r_i_glide_intrahb_reward>  (177) 
-0

>  <i_i_glide_confnum>  (177) 
2

>  <i_i_glide_posenum>  (177) 
2

>  <r_i_glide_eff_state_penalty>  (177) 
0

>  <ligand_id>  (177) 
44

>  <original_smiles>  (177) 
Cn1c(O)c2c(c1O)C(C)(C)C=C2

>  <smiles>  (177) 
[H]Oc1c2c(c(O[H])n1C([H])([H])[H])C(C([H])([H])[H])(C([H])([H])[H])C([H])=C2[H]

$$$$
46:0:0
     RDKit          3D

 97103  0  0  1  0  0  0  0  0999 V2000
    0.1672   -5.9487    5.1747 C   0  0  0  0  0  0  0  0  0  0  0  0
    0.4557   -6.0254    3.8633 C   0  0  0  0  0  0  0  0  0  0  0  0
   -0.2007   -7.0918    2.9992 C   0  0  0  0  0  0  0  0  0  0  0  0
    1.4317   -5.0806    3.1522 C   0  0  2  0  0  0  0  0  0  0  0  0
    2.3530   -5.7794    2.1537 C   0  0  0  0  0  0  0  0  0  0  0  0
    3.3575   -4.6840    1.8244 C   0  0  0  0  0  0  0  0  0  0  0  0
    3.6927   -4.0378    3.1857 C   0  0  1  0  0  0  0  0  0  0  0  0
    4.9200   -4.7921    3.7548 C   0  0  0  0  0  0  0  0  0  0  0  0
    4.0247   -2.5344    3.0166 C   0  0  0  0  0  0  0  0  0  0  0  0
    3.9997   -1.6907    4.3238 C   0  0  0  0  0  0  0  0  0  0  0  0
    2.8635   -2.0366    5.3502 C   0  0  2  0  0  0  0  0  0  0  0  0
    3.4876   -2.9307    6.4737 C   0  0  0  0  0  0  0  0  0  0  0  0
    1.8503   -2.8816    4.5719 C   0  0  0  0  0  0  0  0  0  0  0  0
    0.6336   -2.4076    4.2679 C   0  0  0  0  0  0  0  0  0  0  0  0
    0.1368   -1.0144    4.5857 C   0  0  0  0  0  0  0  0  0  0  0  0
    1.1872    0.0056    5.1364 C   0  0  1  0  0  0  0  0  0  0  0  0
    0.5224    1.3819    5.6814 C   0  0  2  0  0  0  0  0  0  0  0  0
   -0.8937    1.5429    5.0586 C   0  0  0  0  0  0  0  0  0  0  0  0
    1.4008    2.6422    5.1503 C   0  0  1  0  0  0  0  0  0  0  0  0
    1.3859    3.0252    3.6014 C   0  0  1  0  0  0  0  0  0  0  0  0
    1.4801    1.8990    2.5529 C   0  0  0  0  0  0  0  0  0  0  0  0
    0.1853    3.6895    3.2970 O   0  0  0  0  0  0  0  0  0  0  0  0
    2.5793    3.9485    3.2690 C   0  0  0  0  0  0  0  0  0  0  0  0
    2.6684    5.2344    4.0930 C   0  0  1  0  0  0  0  0  0  0  0  0
    1.6869    6.3259    3.6471 C   0  0  0  0  0  0  0  0  0  0  0  0
    2.6216    4.9188    5.5860 C   0  0  0  0  0  0  0  0  0  0  0  0
    1.4744    3.9709    6.0104 C   0  0  2  0  0  0  0  0  0  0  0  0
    1.8811    3.5931    7.3198 O   0  0  0  0  0  0  0  0  0  0  0  0
    0.9005    4.1979    8.3099 O   0  0  0  0  0  0  0  0  0  0  0  0
   -0.3963    3.7120    7.9799 C   0  0  1  0  0  0  0  0  0  0  0  0
   -0.8124    4.0747    6.6774 O   0  0  0  0  0  0  0  0  0  0  0  0
    0.3239    4.8197    6.0081 O   0  0  0  0  0  0  0  0  0  0  0  0
   -0.6286    2.1839    8.1458 C   0  0  0  0  0  0  0  0  0  0  0  0
   -0.4452    1.9037    9.6629 C   0  0  0  0  0  0  0  0  0  0  0  0
   -2.1405    1.9264    7.8927 C   0  0  0  0  0  0  0  0  0  0  0  0
    0.3554    1.2539    7.2876 C   0  0  1  0  0  0  0  0  0  0  0  0
    0.2435   -0.2279    7.7137 C   0  0  0  0  0  0  0  0  0  0  0  0
    1.4165   -1.1468    7.3106 C   0  0  0  0  0  0  0  0  0  0  0  0
    2.2232   -0.7296    6.0516 C   0  0  1  0  0  0  0  0  0  0  0  0
    3.4117    0.2025    6.4636 C   0  0  0  0  0  0  0  0  0  0  0  0
    2.3968   -4.2343    4.0412 C   0  0  1  0  0  0  0  0  0  0  0  0
   -0.5266   -6.6432    5.6274 H   0  0  0  0  0  0  0  0  0  0  0  0
    0.6066   -5.2048    5.8202 H   0  0  0  0  0  0  0  0  0  0  0  0
    0.5373   -7.8156    2.6501 H   0  0  0  0  0  0  0  0  0  0  0  0
   -0.6799   -6.6561    2.1228 H   0  0  0  0  0  0  0  0  0  0  0  0
   -0.9583   -7.6483    3.5550 H   0  0  0  0  0  0  0  0  0  0  0  0
    0.8397   -4.4216    2.5330 H   0  0  0  0  0  0  0  0  0  0  0  0
    2.8546   -6.6355    2.6070 H   0  0  0  0  0  0  0  0  0  0  0  0
    1.8323   -6.1196    1.2580 H   0  0  0  0  0  0  0  0  0  0  0  0
    4.2238   -5.0776    1.2924 H   0  0  0  0  0  0  0  0  0  0  0  0
    2.8758   -3.9629    1.1624 H   0  0  0  0  0  0  0  0  0  0  0  0
    5.4130   -4.2536    4.5589 H   0  0  0  0  0  0  0  0  0  0  0  0
    5.6889   -4.9318    2.9953 H   0  0  0  0  0  0  0  0  0  0  0  0
    4.6537   -5.7823    4.1226 H   0  0  0  0  0  0  0  0  0  0  0  0
    5.0017   -2.4221    2.5402 H   0  0  0  0  0  0  0  0  0  0  0  0
    3.3113   -2.0896    2.3210 H   0  0  0  0  0  0  0  0  0  0  0  0
    4.9762   -1.7232    4.8080 H   0  0  0  0  0  0  0  0  0  0  0  0
    3.8913   -0.6701    3.9646 H   0  0  0  0  0  0  0  0  0  0  0  0
    4.1204   -2.3914    7.1744 H   0  0  0  0  0  0  0  0  0  0  0  0
    4.1162   -3.7251    6.0915 H   0  0  0  0  0  0  0  0  0  0  0  0
    2.7294   -3.4447    7.0624 H   0  0  0  0  0  0  0  0  0  0  0  0
   -0.0809   -2.9823    3.7104 H   0  0  0  0  0  0  0  0  0  0  0  0
   -0.2555   -0.6464    3.6380 H   0  0  0  0  0  0  0  0  0  0  0  0
   -0.7186   -1.1583    5.2369 H   0  0  0  0  0  0  0  0  0  0  0  0
    1.8018    0.2355    4.2829 H   0  0  0  0  0  0  0  0  0  0  0  0
   -1.3098    2.5334    5.1771 H   0  0  0  0  0  0  0  0  0  0  0  0
   -1.6154    0.8475    5.4859 H   0  0  0  0  0  0  0  0  0  0  0  0
   -0.9257    1.4020    3.9836 H   0  0  0  0  0  0  0  0  0  0  0  0
    2.4139    2.2819    5.2887 H   0  0  0  0  0  0  0  0  0  0  0  0
    2.4275    1.3618    2.5801 H   0  0  0  0  0  0  0  0  0  0  0  0
    1.4124    2.3241    1.5507 H   0  0  0  0  0  0  0  0  0  0  0  0
    0.6663    1.1824    2.6058 H   0  0  0  0  0  0  0  0  0  0  0  0
    0.2115    3.9352    2.3228 H   0  0  0  0  0  0  0  0  0  0  0  0
    3.4989    3.3929    3.4625 H   0  0  0  0  0  0  0  0  0  0  0  0
    2.6126    4.2012    2.2054 H   0  0  0  0  0  0  0  0  0  0  0  0
    3.6407    5.6722    3.8773 H   0  0  0  0  0  0  0  0  0  0  0  0
    0.6394    6.0963    3.8435 H   0  0  0  0  0  0  0  0  0  0  0  0
    1.7526    6.4497    2.5665 H   0  0  0  0  0  0  0  0  0  0  0  0
    1.9105    7.2970    4.0931 H   0  0  0  0  0  0  0  0  0  0  0  0
    3.5703    4.4598    5.8548 H   0  0  0  0  0  0  0  0  0  0  0  0
    2.5607    5.8505    6.1482 H   0  0  0  0  0  0  0  0  0  0  0  0
   -1.0694    4.2319    8.6683 H   0  0  0  0  0  0  0  0  0  0  0  0
   -0.9288    0.9809    9.9756 H   0  0  0  0  0  0  0  0  0  0  0  0
   -0.9101    2.6673   10.2856 H   0  0  0  0  0  0  0  0  0  0  0  0
    0.6052    1.8475    9.9429 H   0  0  0  0  0  0  0  0  0  0  0  0
   -2.3417    0.8749    7.8391 H   0  0  0  0  0  0  0  0  0  0  0  0
   -2.5367    2.3565    6.9763 H   0  0  0  0  0  0  0  0  0  0  0  0
   -2.7590    2.3229    8.6985 H   0  0  0  0  0  0  0  0  0  0  0  0
    1.3033    1.4996    7.7320 H   0  0  0  0  0  0  0  0  0  0  0  0
    0.1079   -0.3768    8.7790 H   0  0  0  0  0  0  0  0  0  0  0  0
   -0.6492   -0.6412    7.2573 H   0  0  0  0  0  0  0  0  0  0  0  0
    2.1026   -1.1515    8.1621 H   0  0  0  0  0  0  0  0  0  0  0  0
    1.0269   -2.1607    7.2322 H   0  0  0  0  0  0  0  0  0  0  0  0
    3.1429    1.0262    7.1070 H   0  0  0  0  0  0  0  0  0  0  0  0
    3.9043    0.6586    5.6104 H   0  0  0  0  0  0  0  0  0  0  0  0
    4.1911   -0.3165    7.0098 H   0  0  0  0  0  0  0  0  0  0  0  0
    2.6490   -4.8510    4.9020 H   0  0  0  0  0  0  0  0  0  0  0  0
  1  2  2  0
  1 42  1  0
  1 43  1  0
  2  3  1  0
  2  4  1  0
  3 44  1  0
  3 45  1  0
  3 46  1  0
  4 41  1  0
  4  5  1  0
  4 47  1  6
  5  6  1  0
  5 48  1  0
  5 49  1  0
  6  7  1  0
  6 50  1  0
  6 51  1  0
  7 41  1  0
  7  8  1  1
  7  9  1  0
  8 52  1  0
  8 53  1  0
  8 54  1  0
  9 10  1  0
  9 55  1  0
  9 56  1  0
 10 11  1  0
 10 57  1  0
 10 58  1  0
 11 39  1  0
 11 12  1  1
 11 13  1  0
 12 59  1  0
 12 60  1  0
 12 61  1  0
 13 14  2  0
 13 41  1  0
 14 15  1  0
 14 62  1  0
 15 16  1  0
 15 63  1  0
 15 64  1  0
 16 39  1  0
 16 17  1  0
 16 65  1  6
 17 36  1  0
 17 18  1  6
 17 19  1  0
 18 66  1  0
 18 67  1  0
 18 68  1  0
 19 27  1  0
 19 20  1  0
 19 69  1  6
 20 21  1  0
 20 22  1  6
 20 23  1  0
 21 70  1  0
 21 71  1  0
 21 72  1  0
 22 73  1  0
 23 24  1  0
 23 74  1  0
 23 75  1  0
 24 25  1  0
 24 26  1  0
 24 76  1  1
 25 77  1  0
 25 78  1  0
 25 79  1  0
 27 26  1  6
 26 80  1  0
 26 81  1  0
 27 32  1  0
 27 28  1  0
 28 29  1  0
 29 30  1  0
 30 31  1  0
 30 33  1  0
 30 82  1  1
 31 32  1  0
 33 34  1  0
 33 35  1  0
 33 36  1  0
 34 83  1  0
 34 84  1  0
 34 85  1  0
 35 86  1  0
 35 87  1  0
 35 88  1  0
 36 37  1  0
 36 89  1  1
 37 38  1  0
 37 90  1  0
 37 91  1  0
 38 39  1  0
 38 92  1  0
 38 93  1  0
 39 40  1  1
 40 94  1  0
 40 95  1  0
 40 96  1  0
 41 97  1  1
M  END
>  <i_m_ct_stereo_status>  (178) 
1

>  <s_m_source_file>  (178) 
/var/tmp/pbs.5076255.sched01/tmp6h9xbnrx/445q66801d.sdf

>  <i_m_source_file_index>  (178) 
30

>  <i_lp_mmshare_version>  (178) 
48012

>  <i_f3d_flags>  (178) 
0

>  <s_epik_input>  (178) 
W0NIMl09QyhbQ0gzXSlbQ0BASF0xW0NIMl1bQ0gyXVtDQEBdKFtDSDNdKShbQ0gyXVtDSDJdMilbQ0BIXTFDKD1bQ0hdW0NIMl0zKVtDQF0yKFtDSDNdKVtDQF0oW0NIM10pKFtDSDJdW0NIMl1bQ0BASF00QyhbQ0gzXSkoW0NIM10pW0NAQEhdKE9PNSlPTzYpW0NAQEhdM1tDQF00KFtDSDNdKVtDQEhdKFtDQF01NjcpW0NAQF0oW0NIM10pKFtPSF0pW0NIMl1bQ0BASF0oW0NIM10pW0NIMl03

>  <s_epik_cmdline>  (178) 
J2VwaWtfcHl0aG9uJywgJy1waHQnLCAnMi4wJywgJy1waCcsICc3LjAnLCAnLXRuJywgJzgnLCAnLW1hJywgJzIwMCcsICctaW1hZScsICc8aW5maWxlLm1hZT4nLCAnLW9tYWUnLCAnPG91dGZpbGUubWFlPic=

>  <r_lp_tautomer_probability>  (178) 
1

>  <r_epik_Ionization_Penalty>  (178) 
7.57792e-08

>  <r_epik_Ionization_Penalty_Charging>  (178) 
0

>  <r_epik_Ionization_Penalty_Neutral>  (178) 
7.57792e-08

>  <r_epik_State_Penalty>  (178) 
-0

>  <r_epik_Charging_Adjusted_Penalty>  (178) 
0

>  <i_epik_Tot_Q>  (178) 
0

>  <i_epik_Tot_abs_Q>  (178) 
0

>  <s_epik_Chemistry_Notes>  (178) 
This compound contains an acetal/aminal-like group ( X-CH(R)-Y where X, Y are N, S, or O) that may be acid/base labile, releasing an aldehyde.

>  <s_lp_Force_Field>  (178) 
OPLS3e

>  <r_lp_Energy>  (178) 
124.319

>  <b_lp_Chiralities_Consistent>  (178) 
1

>  <s_lp_Variant>  (178) 
46:0-1

>  <s_i_glide_gridfile>  (178) 
pfpi4k_grid

>  <i_i_glide_lignum>  (178) 
30

>  <i_i_glide_rotatable_bonds>  (178) 
2

>  <r_i_docking_score>  (178) 
-2.28406

>  <r_i_glide_ligand_efficiency>  (178) 
-0.0557088

>  <r_i_glide_ligand_efficiency_sa>  (178) 
-0.192096

>  <r_i_glide_ligand_efficiency_ln>  (178) 
-0.484571

>  <r_i_glide_gscore>  (178) 
-2.28406

>  <r_i_glide_lipo>  (178) 
-0.0519559

>  <r_i_glide_hbond>  (178) 
0

>  <r_i_glide_metal>  (178) 
-0

>  <r_i_glide_rewards>  (178) 
0

>  <r_i_glide_evdw>  (178) 
-27.1693

>  <r_i_glide_ecoul>  (178) 
-6.25121

>  <r_i_glide_erotb>  (178) 
0.064398

>  <r_i_glide_esite>  (178) 
-0.000358663

>  <r_i_glide_emodel>  (178) 
-36.4387

>  <r_i_glide_energy>  (178) 
-33.4205

>  <r_i_glide_einternal>  (178) 
0.471502

>  <r_i_glide_intrahb_reward>  (178) 
-0

>  <i_i_glide_confnum>  (178) 
1

>  <i_i_glide_posenum>  (178) 
39

>  <r_i_glide_eff_state_penalty>  (178) 
0

>  <ligand_id>  (178) 
46

>  <original_smiles>  (178) 
C=C(C)C1CCC2(C)CCC3(C)C(=CCC4C5(C)C6C(C)(O)CC(C)CC67OOC(OO7)C(C)(C)C5CCC43C)C12

>  <smiles>  (178) 
[H]OC1(C([H])([H])[H])C([H])([H])C([H])(C([H])([H])[H])C([H])([H])C23OOC([H])(OO2)C(C([H])([H])[H])(C([H])([H])[H])C2([H])C([H])([H])C([H])([H])C4(C([H])([H])[H])C([H])(C([H])([H])C([H])=C5C6([H])C([H])(C(=C([H])[H])C([H])([H])[H])C([H])([H])C([H])([H])C6(C([H])([H])[H])C([H])([H])C([H])([H])C54C([H])([H])[H])C2(C([H])([H])[H])C31[H]

$$$$
46:0:1
     RDKit          3D

 97103  0  0  1  0  0  0  0  0999 V2000
    1.5331   -6.6231    4.6566 C   0  0  0  0  0  0  0  0  0  0  0  0
    1.2437   -6.4971    3.3475 C   0  0  0  0  0  0  0  0  0  0  0  0
    0.2316   -7.4231    2.6970 C   0  0  0  0  0  0  0  0  0  0  0  0
    1.8681   -5.4420    2.4294 C   0  0  2  0  0  0  0  0  0  0  0  0
    2.4498   -6.0129    1.1387 C   0  0  0  0  0  0  0  0  0  0  0  0
    3.2283   -4.8302    0.5756 C   0  0  0  0  0  0  0  0  0  0  0  0
    3.9468   -4.2127    1.7954 C   0  0  1  0  0  0  0  0  0  0  0  0
    5.3406   -4.8867    1.8921 C   0  0  0  0  0  0  0  0  0  0  0  0
    4.1121   -2.6799    1.6329 C   0  0  0  0  0  0  0  0  0  0  0  0
    4.4505   -1.9008    2.9387 C   0  0  0  0  0  0  0  0  0  0  0  0
    3.7402   -2.3852    4.2514 C   0  0  2  0  0  0  0  0  0  0  0  0
    4.7502   -3.2771    5.0488 C   0  0  0  0  0  0  0  0  0  0  0  0
    2.5858   -3.2793    3.7769 C   0  0  0  0  0  0  0  0  0  0  0  0
    1.3083   -2.8941    3.9173 C   0  0  0  0  0  0  0  0  0  0  0  0
    0.8462   -1.5628    4.4681 C   0  0  0  0  0  0  0  0  0  0  0  0
    1.9521   -0.4826    4.7233 C   0  0  1  0  0  0  0  0  0  0  0  0
    1.4063    0.8068    5.5470 C   0  0  2  0  0  0  0  0  0  0  0  0
   -0.1407    0.8737    5.4265 C   0  0  0  0  0  0  0  0  0  0  0  0
    1.9889    2.1587    4.8523 C   0  0  1  0  0  0  0  0  0  0  0  0
    1.4530    2.6088    3.4222 C   0  0  1  0  0  0  0  0  0  0  0  0
    1.2598    1.5422    2.3179 C   0  0  0  0  0  0  0  0  0  0  0  0
    0.1702    3.1957    3.5172 O   0  0  0  0  0  0  0  0  0  0  0  0
    2.4156    3.6402    2.7956 C   0  0  0  0  0  0  0  0  0  0  0  0
    2.6616    4.9020    3.6185 C   0  0  1  0  0  0  0  0  0  0  0  0
    1.5140    5.9333    3.5544 C   0  0  0  0  0  0  0  0  0  0  0  0
    3.1219    4.5145    5.0298 C   0  0  0  0  0  0  0  0  0  0  0  0
    2.2538    3.4479    5.7264 C   0  0  2  0  0  0  0  0  0  0  0  0
    3.0845    3.0563    6.8162 O   0  0  0  0  0  0  0  0  0  0  0  0
    2.4345    3.5085    8.1180 O   0  0  0  0  0  0  0  0  0  0  0  0
    1.1291    2.9310    8.1858 C   0  0  1  0  0  0  0  0  0  0  0  0
    0.3008    3.3275    7.1106 O   0  0  0  0  0  0  0  0  0  0  0  0
    1.1063    4.1932    6.1566 O   0  0  0  0  0  0  0  0  0  0  0  0
    1.0702    1.3850    8.3051 C   0  0  0  0  0  0  0  0  0  0  0  0
    1.7577    1.0577    9.6600 C   0  0  0  0  0  0  0  0  0  0  0  0
   -0.4143    0.9775    8.5407 C   0  0  0  0  0  0  0  0  0  0  0  0
    1.7802    0.5869    7.1099 C   0  0  1  0  0  0  0  0  0  0  0  0
    1.8960   -0.9212    7.4433 C   0  0  0  0  0  0  0  0  0  0  0  0
    2.9545   -1.7048    6.6298 C   0  0  0  0  0  0  0  0  0  0  0  0
    3.2749   -1.1734    5.2081 C   0  0  1  0  0  0  0  0  0  0  0  0
    4.4702   -0.1632    5.2804 C   0  0  0  0  0  0  0  0  0  0  0  0
    3.0162   -4.5549    3.0044 C   0  0  1  0  0  0  0  0  0  0  0  0
    1.0592   -7.3902    5.2526 H   0  0  0  0  0  0  0  0  0  0  0  0
    2.2337   -5.9794    5.1660 H   0  0  0  0  0  0  0  0  0  0  0  0
    0.7083   -8.0758    1.9603 H   0  0  0  0  0  0  0  0  0  0  0  0
   -0.5506   -6.8594    2.1890 H   0  0  0  0  0  0  0  0  0  0  0  0
   -0.2511   -8.0696    3.4339 H   0  0  0  0  0  0  0  0  0  0  0  0
    1.0475   -4.8156    2.1048 H   0  0  0  0  0  0  0  0  0  0  0  0
    3.1259   -6.8487    1.3437 H   0  0  0  0  0  0  0  0  0  0  0  0
    1.6909   -6.3602    0.4360 H   0  0  0  0  0  0  0  0  0  0  0  0
    3.8994   -5.1253   -0.2337 H   0  0  0  0  0  0  0  0  0  0  0  0
    2.5181   -4.1210    0.1498 H   0  0  0  0  0  0  0  0  0  0  0  0
    6.0334   -4.3447    2.5307 H   0  0  0  0  0  0  0  0  0  0  0  0
    5.8345   -4.9318    0.9187 H   0  0  0  0  0  0  0  0  0  0  0  0
    5.2737   -5.9123    2.2579 H   0  0  0  0  0  0  0  0  0  0  0  0
    4.8685   -2.4670    0.8720 H   0  0  0  0  0  0  0  0  0  0  0  0
    3.1815   -2.2678    1.2363 H   0  0  0  0  0  0  0  0  0  0  0  0
    5.5343   -1.8683    3.0804 H   0  0  0  0  0  0  0  0  0  0  0  0
    4.1663   -0.8781    2.7024 H   0  0  0  0  0  0  0  0  0  0  0  0
    5.5412   -2.7183    5.5445 H   0  0  0  0  0  0  0  0  0  0  0  0
    5.2734   -3.9987    4.4341 H   0  0  0  0  0  0  0  0  0  0  0  0
    4.2589   -3.8760    5.8129 H   0  0  0  0  0  0  0  0  0  0  0  0
    0.4883   -3.5068    3.5834 H   0  0  0  0  0  0  0  0  0  0  0  0
    0.1425   -1.1904    3.7196 H   0  0  0  0  0  0  0  0  0  0  0  0
    0.2612   -1.8050    5.3478 H   0  0  0  0  0  0  0  0  0  0  0  0
    2.2378   -0.1648    3.7357 H   0  0  0  0  0  0  0  0  0  0  0  0
   -0.5584    1.8170    5.7402 H   0  0  0  0  0  0  0  0  0  0  0  0
   -0.6306    0.1018    6.0119 H   0  0  0  0  0  0  0  0  0  0  0  0
   -0.5102    0.7773    4.4118 H   0  0  0  0  0  0  0  0  0  0  0  0
    3.0098    1.8773    4.6307 H   0  0  0  0  0  0  0  0  0  0  0  0
    2.1970    1.0827    2.0031 H   0  0  0  0  0  0  0  0  0  0  0  0
    0.8365    1.9970    1.4158 H   0  0  0  0  0  0  0  0  0  0  0  0
    0.5592    0.7553    2.5833 H   0  0  0  0  0  0  0  0  0  0  0  0
   -0.0199    3.5809    2.6663 H   0  0  0  0  0  0  0  0  0  0  0  0
    3.3840    3.1604    2.6693 H   0  0  0  0  0  0  0  0  0  0  0  0
    2.1226    3.9292    1.7850 H   0  0  0  0  0  0  0  0  0  0  0  0
    3.4872    5.4230    3.1350 H   0  0  0  0  0  0  0  0  0  0  0  0
    0.6079    5.6011    4.0653 H   0  0  0  0  0  0  0  0  0  0  0  0
    1.2357    6.1373    2.5140 H   0  0  0  0  0  0  0  0  0  0  0  0
    1.8094    6.8886    3.9993 H   0  0  0  0  0  0  0  0  0  0  0  0
    4.1382    4.1312    4.9402 H   0  0  0  0  0  0  0  0  0  0  0  0
    3.1970    5.4166    5.6437 H   0  0  0  0  0  0  0  0  0  0  0  0
    0.6910    3.3692    9.0778 H   0  0  0  0  0  0  0  0  0  0  0  0
    1.4640    0.0840   10.0437 H   0  0  0  0  0  0  0  0  0  0  0  0
    1.4686    1.7522   10.4452 H   0  0  0  0  0  0  0  0  0  0  0  0
    2.8416    1.0796    9.5790 H   0  0  0  0  0  0  0  0  0  0  0  0
   -0.5396   -0.1045    8.5206 H   0  0  0  0  0  0  0  0  0  0  0  0
   -1.1136    1.4072    7.8264 H   0  0  0  0  0  0  0  0  0  0  0  0
   -0.7694    1.3097    9.5181 H   0  0  0  0  0  0  0  0  0  0  0  0
    2.8036    0.8869    7.2444 H   0  0  0  0  0  0  0  0  0  0  0  0
    2.1398   -1.1238    8.4858 H   0  0  0  0  0  0  0  0  0  0  0  0
    0.9293   -1.3940    7.2974 H   0  0  0  0  0  0  0  0  0  0  0  0
    3.8727   -1.7018    7.2201 H   0  0  0  0  0  0  0  0  0  0  0  0
    2.6149   -2.7423    6.6074 H   0  0  0  0  0  0  0  0  0  0  0  0
    4.3724    0.6042    6.0314 H   0  0  0  0  0  0  0  0  0  0  0  0
    4.6264    0.3726    4.3472 H   0  0  0  0  0  0  0  0  0  0  0  0
    5.4159   -0.6361    5.5073 H   0  0  0  0  0  0  0  0  0  0  0  0
    3.5928   -5.1794    3.6833 H   0  0  0  0  0  0  0  0  0  0  0  0
  1  2  2  0
  1 42  1  0
  1 43  1  0
  2  3  1  0
  2  4  1  0
  3 44  1  0
  3 45  1  0
  3 46  1  0
  4 41  1  0
  4  5  1  0
  4 47  1  6
  5  6  1  0
  5 48  1  0
  5 49  1  0
  6  7  1  0
  6 50  1  0
  6 51  1  0
  7 41  1  0
  7  8  1  1
  7  9  1  0
  8 52  1  0
  8 53  1  0
  8 54  1  0
  9 10  1  0
  9 55  1  0
  9 56  1  0
 10 11  1  0
 10 57  1  0
 10 58  1  0
 11 39  1  0
 11 12  1  1
 11 13  1  0
 12 59  1  0
 12 60  1  0
 12 61  1  0
 13 14  2  0
 13 41  1  0
 14 15  1  0
 14 62  1  0
 15 16  1  0
 15 63  1  0
 15 64  1  0
 16 39  1  0
 16 17  1  0
 16 65  1  6
 17 36  1  0
 17 18  1  1
 17 19  1  0
 18 66  1  0
 18 67  1  0
 18 68  1  0
 19 27  1  0
 19 20  1  0
 19 69  1  6
 20 21  1  0
 20 22  1  1
 20 23  1  0
 21 70  1  0
 21 71  1  0
 21 72  1  0
 22 73  1  0
 23 24  1  0
 23 74  1  0
 23 75  1  0
 24 25  1  0
 24 26  1  0
 24 76  1  6
 25 77  1  0
 25 78  1  0
 25 79  1  0
 27 26  1  6
 26 80  1  0
 26 81  1  0
 27 32  1  0
 27 28  1  0
 28 29  1  0
 29 30  1  0
 30 31  1  0
 30 33  1  0
 30 82  1  1
 31 32  1  0
 33 34  1  0
 33 35  1  0
 33 36  1  0
 34 83  1  0
 34 84  1  0
 34 85  1  0
 35 86  1  0
 35 87  1  0
 35 88  1  0
 36 37  1  0
 36 89  1  6
 37 38  1  0
 37 90  1  0
 37 91  1  0
 38 39  1  0
 38 92  1  0
 38 93  1  0
 39 40  1  1
 40 94  1  0
 40 95  1  0
 40 96  1  0
 41 97  1  1
M  END
>  <i_m_ct_stereo_status>  (179) 
1

>  <s_m_source_file>  (179) 
/var/tmp/pbs.5076255.sched01/tmp6h9xbnrx/445q66801d.sdf

>  <i_m_source_file_index>  (179) 
30

>  <i_lp_mmshare_version>  (179) 
48012

>  <i_f3d_flags>  (179) 
0

>  <s_epik_input>  (179) 
W0NIMl09QyhbQ0gzXSlbQ0BASF0xW0NIMl1bQ0gyXVtDQEBdKFtDSDNdKShbQ0gyXVtDSDJdMilbQ0BIXTFDKD1bQ0hdW0NIMl0zKVtDQF0yKFtDSDNdKVtDQF0oW0NIM10pKFtDSDJdW0NIMl1bQ0BASF00QyhbQ0gzXSkoW0NIM10pW0NAQEhdKE9PNSlPTzYpW0NAQEhdM1tDQF00KFtDSDNdKVtDQEhdKFtDQF01NjcpW0NAQF0oW0NIM10pKFtPSF0pW0NIMl1bQ0BASF0oW0NIM10pW0NIMl03

>  <s_epik_cmdline>  (179) 
J2VwaWtfcHl0aG9uJywgJy1waHQnLCAnMi4wJywgJy1waCcsICc3LjAnLCAnLXRuJywgJzgnLCAnLW1hJywgJzIwMCcsICctaW1hZScsICc8aW5maWxlLm1hZT4nLCAnLW9tYWUnLCAnPG91dGZpbGUubWFlPic=

>  <r_lp_tautomer_probability>  (179) 
1

>  <r_epik_Ionization_Penalty>  (179) 
7.57792e-08

>  <r_epik_Ionization_Penalty_Charging>  (179) 
0

>  <r_epik_Ionization_Penalty_Neutral>  (179) 
7.57792e-08

>  <r_epik_State_Penalty>  (179) 
-0

>  <r_epik_Charging_Adjusted_Penalty>  (179) 
0

>  <i_epik_Tot_Q>  (179) 
0

>  <i_epik_Tot_abs_Q>  (179) 
0

>  <s_epik_Chemistry_Notes>  (179) 
This compound contains an acetal/aminal-like group ( X-CH(R)-Y where X, Y are N, S, or O) that may be acid/base labile, releasing an aldehyde.

>  <s_lp_Force_Field>  (179) 
OPLS3e

>  <r_lp_Energy>  (179) 
124.319

>  <b_lp_Chiralities_Consistent>  (179) 
1

>  <s_lp_Variant>  (179) 
46:0-1

>  <s_i_glide_gridfile>  (179) 
pfpi4k_grid

>  <i_i_glide_lignum>  (179) 
30

>  <i_i_glide_rotatable_bonds>  (179) 
2

>  <r_i_docking_score>  (179) 
-2.03842

>  <r_i_glide_ligand_efficiency>  (179) 
-0.0497176

>  <r_i_glide_ligand_efficiency_sa>  (179) 
-0.171437

>  <r_i_glide_ligand_efficiency_ln>  (179) 
-0.432458

>  <r_i_glide_gscore>  (179) 
-2.03842

>  <r_i_glide_lipo>  (179) 
-0.131902

>  <r_i_glide_hbond>  (179) 
0

>  <r_i_glide_metal>  (179) 
-0

>  <r_i_glide_rewards>  (179) 
0

>  <r_i_glide_evdw>  (179) 
-28.9682

>  <r_i_glide_ecoul>  (179) 
-3.48338

>  <r_i_glide_erotb>  (179) 
0.064398

>  <r_i_glide_esite>  (179) 
0

>  <r_i_glide_emodel>  (179) 
-36.0226

>  <r_i_glide_energy>  (179) 
-32.4516

>  <r_i_glide_einternal>  (179) 
0.0717448

>  <r_i_glide_intrahb_reward>  (179) 
-0

>  <i_i_glide_confnum>  (179) 
3

>  <i_i_glide_posenum>  (179) 
26

>  <r_i_glide_eff_state_penalty>  (179) 
0

>  <ligand_id>  (179) 
46

>  <original_smiles>  (179) 
C=C(C)C1CCC2(C)CCC3(C)C(=CCC4C5(C)C6C(C)(O)CC(C)CC67OOC(OO7)C(C)(C)C5CCC43C)C12

>  <smiles>  (179) 
[H]OC1(C([H])([H])[H])C([H])([H])C([H])(C([H])([H])[H])C([H])([H])C23OOC([H])(OO2)C(C([H])([H])[H])(C([H])([H])[H])C2([H])C([H])([H])C([H])([H])C4(C([H])([H])[H])C([H])(C([H])([H])C([H])=C5C6([H])C([H])(C(=C([H])[H])C([H])([H])[H])C([H])([H])C([H])([H])C6(C([H])([H])[H])C([H])([H])C([H])([H])C54C([H])([H])[H])C2(C([H])([H])[H])C31[H]

$$$$
46:0:2
     RDKit          3D

 97103  0  0  1  0  0  0  0  0999 V2000
    1.4466    2.2360    2.2635 C   0  0  0  0  0  0  0  0  0  0  0  0
    1.6180    0.9077    2.4043 C   0  0  0  0  0  0  0  0  0  0  0  0
    2.8029    0.2370    1.7404 C   0  0  0  0  0  0  0  0  0  0  0  0
    0.6386   -0.0082    3.1560 C   0  0  2  0  0  0  0  0  0  0  0  0
   -0.5840    0.6975    3.7498 C   0  0  0  0  0  0  0  0  0  0  0  0
   -1.1592   -0.3478    4.6886 C   0  0  0  0  0  0  0  0  0  0  0  0
    0.0709   -0.9488    5.4041 C   0  0  1  0  0  0  0  0  0  0  0  0
    0.2940   -0.1296    6.7017 C   0  0  0  0  0  0  0  0  0  0  0  0
   -0.1768   -2.4383    5.7584 C   0  0  0  0  0  0  0  0  0  0  0  0
    1.0939   -3.2627    6.1191 C   0  0  0  0  0  0  0  0  0  0  0  0
    2.3902   -2.9539    5.2905 C   0  0  2  0  0  0  0  0  0  0  0  0
    3.2991   -2.0079    6.1430 C   0  0  0  0  0  0  0  0  0  0  0  0
    1.8966   -2.1745    4.0617 C   0  0  0  0  0  0  0  0  0  0  0  0
    1.9204   -2.7265    2.8430 C   0  0  0  0  0  0  0  0  0  0  0  0
    2.3866   -4.1253    2.5131 C   0  0  0  0  0  0  0  0  0  0  0  0
    2.6365   -5.0818    3.7212 C   0  0  1  0  0  0  0  0  0  0  0  0
    3.3427   -6.4774    3.2861 C   0  0  2  0  0  0  0  0  0  0  0  0
    3.1286   -6.7102    1.7631 C   0  0  0  0  0  0  0  0  0  0  0  0
    2.6005   -7.6988    4.0639 C   0  0  1  0  0  0  0  0  0  0  0  0
    1.1146   -8.1029    3.6617 C   0  0  1  0  0  0  0  0  0  0  0  0
    0.0685   -6.9972    3.3922 C   0  0  0  0  0  0  0  0  0  0  0  0
    1.1309   -8.8234    2.4500 O   0  0  0  0  0  0  0  0  0  0  0  0
    0.4675   -8.9760    4.7583 C   0  0  0  0  0  0  0  0  0  0  0  0
    1.2343  -10.2523    5.1057 C   0  0  1  0  0  0  0  0  0  0  0  0
    1.0396  -11.4041    4.0965 C   0  0  0  0  0  0  0  0  0  0  0  0
    2.6937   -9.9184    5.4458 C   0  0  0  0  0  0  0  0  0  0  0  0
    3.4089   -9.0095    4.4255 C   0  0  2  0  0  0  0  0  0  0  0  0
    4.5684   -8.5999    5.1454 O   0  0  0  0  0  0  0  0  0  0  0  0
    5.7982   -9.2098    4.4869 O   0  0  0  0  0  0  0  0  0  0  0  0
    5.8246   -8.7927    3.1211 C   0  0  1  0  0  0  0  0  0  0  0  0
    4.6779   -9.2004    2.4035 O   0  0  0  0  0  0  0  0  0  0  0  0
    3.7241   -9.9034    3.3517 O   0  0  0  0  0  0  0  0  0  0  0  0
    6.0372   -7.2732    2.8762 C   0  0  0  0  0  0  0  0  0  0  0  0
    7.4488   -6.9654    3.4500 C   0  0  0  0  0  0  0  0  0  0  0  0
    6.2065   -7.0506    1.3446 C   0  0  0  0  0  0  0  0  0  0  0  0
    4.9341   -6.3236    3.5490 C   0  0  1  0  0  0  0  0  0  0  0  0
    5.3610   -4.8396    3.4649 C   0  0  0  0  0  0  0  0  0  0  0  0
    4.6715   -3.8844    4.4677 C   0  0  0  0  0  0  0  0  0  0  0  0
    3.2413   -4.2756    4.9232 C   0  0  1  0  0  0  0  0  0  0  0  0
    3.3208   -5.1445    6.2225 C   0  0  0  0  0  0  0  0  0  0  0  0
    1.2372   -0.7966    4.3658 C   0  0  1  0  0  0  0  0  0  0  0  0
    2.1455    2.8293    1.6936 H   0  0  0  0  0  0  0  0  0  0  0  0
    0.6062    2.7738    2.6803 H   0  0  0  0  0  0  0  0  0  0  0  0
    2.4559   -0.4218    0.9397 H   0  0  0  0  0  0  0  0  0  0  0  0
    3.3822   -0.3415    2.4550 H   0  0  0  0  0  0  0  0  0  0  0  0
    3.4736    0.9631    1.2828 H   0  0  0  0  0  0  0  0  0  0  0  0
    0.2122   -0.6906    2.4236 H   0  0  0  0  0  0  0  0  0  0  0  0
   -0.2999    1.5742    4.3378 H   0  0  0  0  0  0  0  0  0  0  0  0
   -1.2972    1.0125    2.9869 H   0  0  0  0  0  0  0  0  0  0  0  0
   -1.9049    0.0804    5.3591 H   0  0  0  0  0  0  0  0  0  0  0  0
   -1.6647   -1.0967    4.0828 H   0  0  0  0  0  0  0  0  0  0  0  0
    0.9379   -0.6323    7.4198 H   0  0  0  0  0  0  0  0  0  0  0  0
   -0.6408    0.0435    7.2377 H   0  0  0  0  0  0  0  0  0  0  0  0
    0.7213    0.8526    6.4941 H   0  0  0  0  0  0  0  0  0  0  0  0
   -0.9067   -2.5160    6.5681 H   0  0  0  0  0  0  0  0  0  0  0  0
   -0.6417   -2.9237    4.8986 H   0  0  0  0  0  0  0  0  0  0  0  0
    1.2983   -3.1826    7.1895 H   0  0  0  0  0  0  0  0  0  0  0  0
    0.7792   -4.2922    5.9676 H   0  0  0  0  0  0  0  0  0  0  0  0
    3.8050   -2.5065    6.9671 H   0  0  0  0  0  0  0  0  0  0  0  0
    2.7629   -1.1889    6.6053 H   0  0  0  0  0  0  0  0  0  0  0  0
    4.0696   -1.5258    5.5452 H   0  0  0  0  0  0  0  0  0  0  0  0
    1.5561   -2.2050    1.9748 H   0  0  0  0  0  0  0  0  0  0  0  0
    1.5891   -4.5353    1.8969 H   0  0  0  0  0  0  0  0  0  0  0  0
    3.2436   -4.0002    1.8602 H   0  0  0  0  0  0  0  0  0  0  0  0
    1.6497   -5.2949    4.0909 H   0  0  0  0  0  0  0  0  0  0  0  0
    3.3579   -7.7132    1.4406 H   0  0  0  0  0  0  0  0  0  0  0  0
    3.7322   -6.0417    1.1550 H   0  0  0  0  0  0  0  0  0  0  0  0
    2.1043   -6.5880    1.4330 H   0  0  0  0  0  0  0  0  0  0  0  0
    2.4628   -7.2894    5.0547 H   0  0  0  0  0  0  0  0  0  0  0  0
   -0.1587   -6.4089    4.2825 H   0  0  0  0  0  0  0  0  0  0  0  0
   -0.8816   -7.4373    3.0729 H   0  0  0  0  0  0  0  0  0  0  0  0
    0.3519   -6.3210    2.5919 H   0  0  0  0  0  0  0  0  0  0  0  0
    0.2947   -9.2416    2.3206 H   0  0  0  0  0  0  0  0  0  0  0  0
    0.4135   -8.3846    5.6737 H   0  0  0  0  0  0  0  0  0  0  0  0
   -0.5683   -9.2378    4.5245 H   0  0  0  0  0  0  0  0  0  0  0  0
    0.7778  -10.6508    6.0114 H   0  0  0  0  0  0  0  0  0  0  0  0
    1.5136  -11.2222    3.1280 H   0  0  0  0  0  0  0  0  0  0  0  0
   -0.0245  -11.5790    3.9233 H   0  0  0  0  0  0  0  0  0  0  0  0
    1.4536  -12.3354    4.4923 H   0  0  0  0  0  0  0  0  0  0  0  0
    2.6913   -9.4216    6.4151 H   0  0  0  0  0  0  0  0  0  0  0  0
    3.2488  -10.8493    5.5951 H   0  0  0  0  0  0  0  0  0  0  0  0
    6.6600   -9.3400    2.6904 H   0  0  0  0  0  0  0  0  0  0  0  0
    7.8756   -6.0599    3.0256 H   0  0  0  0  0  0  0  0  0  0  0  0
    8.1709   -7.7408    3.2034 H   0  0  0  0  0  0  0  0  0  0  0  0
    7.4308   -6.8591    4.5318 H   0  0  0  0  0  0  0  0  0  0  0  0
    6.2430   -5.9935    1.0788 H   0  0  0  0  0  0  0  0  0  0  0  0
    5.4238   -7.5093    0.7429 H   0  0  0  0  0  0  0  0  0  0  0  0
    7.1383   -7.4890    0.9824 H   0  0  0  0  0  0  0  0  0  0  0  0
    5.1125   -6.5115    4.5922 H   0  0  0  0  0  0  0  0  0  0  0  0
    6.4233   -4.6949    3.6265 H   0  0  0  0  0  0  0  0  0  0  0  0
    5.1941   -4.4707    2.4568 H   0  0  0  0  0  0  0  0  0  0  0  0
    5.3152   -3.8227    5.3470 H   0  0  0  0  0  0  0  0  0  0  0  0
    4.6939   -2.8936    4.0093 H   0  0  0  0  0  0  0  0  0  0  0  0
    4.0151   -5.9681    6.1759 H   0  0  0  0  0  0  0  0  0  0  0  0
    2.3669   -5.5934    6.4873 H   0  0  0  0  0  0  0  0  0  0  0  0
    3.6332   -4.5837    7.0930 H   0  0  0  0  0  0  0  0  0  0  0  0
    2.0125   -0.1524    4.7859 H   0  0  0  0  0  0  0  0  0  0  0  0
  1  2  2  0
  1 42  1  0
  1 43  1  0
  2  3  1  0
  2  4  1  0
  3 44  1  0
  3 45  1  0
  3 46  1  0
  4 41  1  0
  4  5  1  0
  4 47  1  6
  5  6  1  0
  5 48  1  0
  5 49  1  0
  6  7  1  0
  6 50  1  0
  6 51  1  0
  7 41  1  0
  7  8  1  1
  7  9  1  0
  8 52  1  0
  8 53  1  0
  8 54  1  0
  9 10  1  0
  9 55  1  0
  9 56  1  0
 10 11  1  0
 10 57  1  0
 10 58  1  0
 11 39  1  0
 11 12  1  1
 11 13  1  0
 12 59  1  0
 12 60  1  0
 12 61  1  0
 13 14  2  0
 13 41  1  0
 14 15  1  0
 14 62  1  0
 15 16  1  0
 15 63  1  0
 15 64  1  0
 16 39  1  0
 16 17  1  0
 16 65  1  1
 17 36  1  0
 17 18  1  6
 17 19  1  0
 18 66  1  0
 18 67  1  0
 18 68  1  0
 19 27  1  0
 19 20  1  0
 19 69  1  1
 20 21  1  0
 20 22  1  6
 20 23  1  0
 21 70  1  0
 21 71  1  0
 21 72  1  0
 22 73  1  0
 23 24  1  0
 23 74  1  0
 23 75  1  0
 24 25  1  0
 24 26  1  0
 24 76  1  1
 25 77  1  0
 25 78  1  0
 25 79  1  0
 27 26  1  1
 26 80  1  0
 26 81  1  0
 27 32  1  0
 27 28  1  0
 28 29  1  0
 29 30  1  0
 30 31  1  0
 30 33  1  0
 30 82  1  6
 31 32  1  0
 33 34  1  0
 33 35  1  0
 33 36  1  0
 34 83  1  0
 34 84  1  0
 34 85  1  0
 35 86  1  0
 35 87  1  0
 35 88  1  0
 36 37  1  0
 36 89  1  1
 37 38  1  0
 37 90  1  0
 37 91  1  0
 38 39  1  0
 38 92  1  0
 38 93  1  0
 39 40  1  1
 40 94  1  0
 40 95  1  0
 40 96  1  0
 41 97  1  1
M  END
>  <i_m_ct_stereo_status>  (180) 
1

>  <s_m_source_file>  (180) 
/var/tmp/pbs.5076255.sched01/tmp6h9xbnrx/445q66801d.sdf

>  <i_m_source_file_index>  (180) 
30

>  <i_lp_mmshare_version>  (180) 
48012

>  <i_f3d_flags>  (180) 
0

>  <s_epik_input>  (180) 
W0NIMl09QyhbQ0gzXSlbQ0BASF0xW0NIMl1bQ0gyXVtDQEBdKFtDSDNdKShbQ0gyXVtDSDJdMilbQ0BIXTFDKD1bQ0hdW0NIMl0zKVtDQF0yKFtDSDNdKVtDQF0oW0NIM10pKFtDSDJdW0NIMl1bQ0BASF00QyhbQ0gzXSkoW0NIM10pW0NAQEhdKE9PNSlPTzYpW0NAQEhdM1tDQF00KFtDSDNdKVtDQEhdKFtDQF01NjcpW0NAQF0oW0NIM10pKFtPSF0pW0NIMl1bQ0BASF0oW0NIM10pW0NIMl03

>  <s_epik_cmdline>  (180) 
J2VwaWtfcHl0aG9uJywgJy1waHQnLCAnMi4wJywgJy1waCcsICc3LjAnLCAnLXRuJywgJzgnLCAnLW1hJywgJzIwMCcsICctaW1hZScsICc8aW5maWxlLm1hZT4nLCAnLW9tYWUnLCAnPG91dGZpbGUubWFlPic=

>  <r_lp_tautomer_probability>  (180) 
1

>  <r_epik_Ionization_Penalty>  (180) 
7.57792e-08

>  <r_epik_Ionization_Penalty_Charging>  (180) 
0

>  <r_epik_Ionization_Penalty_Neutral>  (180) 
7.57792e-08

>  <r_epik_State_Penalty>  (180) 
-0

>  <r_epik_Charging_Adjusted_Penalty>  (180) 
0

>  <i_epik_Tot_Q>  (180) 
0

>  <i_epik_Tot_abs_Q>  (180) 
0

>  <s_epik_Chemistry_Notes>  (180) 
This compound contains an acetal/aminal-like group ( X-CH(R)-Y where X, Y are N, S, or O) that may be acid/base labile, releasing an aldehyde.

>  <s_lp_Force_Field>  (180) 
OPLS3e

>  <r_lp_Energy>  (180) 
124.319

>  <b_lp_Chiralities_Consistent>  (180) 
1

>  <s_lp_Variant>  (180) 
46:0-1

>  <s_i_glide_gridfile>  (180) 
pfpi4k_grid

>  <i_i_glide_lignum>  (180) 
30

>  <i_i_glide_rotatable_bonds>  (180) 
2

>  <r_i_docking_score>  (180) 
-2.00279

>  <r_i_glide_ligand_efficiency>  (180) 
-0.0488485

>  <r_i_glide_ligand_efficiency_sa>  (180) 
-0.16844

>  <r_i_glide_ligand_efficiency_ln>  (180) 
-0.424899

>  <r_i_glide_gscore>  (180) 
-2.00279

>  <r_i_glide_lipo>  (180) 
-0.320468

>  <r_i_glide_hbond>  (180) 
0

>  <r_i_glide_metal>  (180) 
-0

>  <r_i_glide_rewards>  (180) 
0

>  <r_i_glide_evdw>  (180) 
-33.9873

>  <r_i_glide_ecoul>  (180) 
-0.294553

>  <r_i_glide_erotb>  (180) 
0.064398

>  <r_i_glide_esite>  (180) 
-0.00317398

>  <r_i_glide_emodel>  (180) 
-37.5303

>  <r_i_glide_energy>  (180) 
-34.2818

>  <r_i_glide_einternal>  (180) 
0.42493

>  <r_i_glide_intrahb_reward>  (180) 
-0

>  <i_i_glide_confnum>  (180) 
4

>  <i_i_glide_posenum>  (180) 
7

>  <r_i_glide_eff_state_penalty>  (180) 
0

>  <ligand_id>  (180) 
46

>  <original_smiles>  (180) 
C=C(C)C1CCC2(C)CCC3(C)C(=CCC4C5(C)C6C(C)(O)CC(C)CC67OOC(OO7)C(C)(C)C5CCC43C)C12

>  <smiles>  (180) 
[H]OC1(C([H])([H])[H])C([H])([H])C([H])(C([H])([H])[H])C([H])([H])C23OOC([H])(OO2)C(C([H])([H])[H])(C([H])([H])[H])C2([H])C([H])([H])C([H])([H])C4(C([H])([H])[H])C([H])(C([H])([H])C([H])=C5C6([H])C([H])(C(=C([H])[H])C([H])([H])[H])C([H])([H])C([H])([H])C6(C([H])([H])[H])C([H])([H])C([H])([H])C54C([H])([H])[H])C2(C([H])([H])[H])C31[H]

$$$$
48:0:0
     RDKit          3D

 32 37  0  0  1  0  0  0  0  0999 V2000
    2.9210   -2.8796   -2.4791 C   0  0  0  0  0  0  0  0  0  0  0  0
    3.4565   -1.3774   -2.4258 C   0  0  0  0  0  0  0  0  0  0  0  0
    4.3672   -1.4464   -1.2071 C   0  0  1  0  0  0  0  0  0  0  0  0
    5.5368   -2.3737   -1.6956 C   0  0  0  0  0  0  0  0  0  0  0  0
    5.6467   -3.5007   -0.7187 C   0  0  1  0  0  0  0  0  0  0  0  0
    5.8701   -3.0320    0.7201 C   0  0  1  0  0  0  0  0  0  0  0  0
    5.8975   -1.4832    0.9119 C   0  0  0  0  0  0  0  0  0  0  0  0
    4.6215   -0.9085    0.2504 C   0  0  2  0  0  0  0  0  0  0  0  0
    3.4122   -1.6243    0.8397 C   0  0  2  0  0  0  0  0  0  0  0  0
    3.5466   -2.8453    1.7549 C   0  0  0  0  0  0  0  0  0  0  0  0
    4.5692   -3.7690    1.1051 C   0  0  1  0  0  0  0  0  0  0  0  0
    4.2731   -4.0864   -0.3878 C   0  0  1  0  0  0  0  0  0  0  0  0
    3.0180   -3.3741   -0.9929 C   0  0  1  0  0  0  0  0  0  0  0  0
    3.1781   -2.0162   -0.5179 N   0  0  2  0  0  0  0  0  0  0  0  0
    3.4738   -3.5172   -3.1623 H   0  0  0  0  0  0  0  0  0  0  0  0
    1.8870   -2.8735   -2.8219 H   0  0  0  0  0  0  0  0  0  0  0  0
    3.9913   -1.0838   -3.3335 H   0  0  0  0  0  0  0  0  0  0  0  0
    2.6378   -0.6581   -2.3168 H   0  0  0  0  0  0  0  0  0  0  0  0
    5.4443   -2.7527   -2.7193 H   0  0  0  0  0  0  0  0  0  0  0  0
    6.4627   -1.8080   -1.7234 H   0  0  0  0  0  0  0  0  0  0  0  0
    6.3637   -4.2605   -0.9885 H   0  0  0  0  0  0  0  0  0  0  0  0
    6.7239   -3.5540    1.1577 H   0  0  0  0  0  0  0  0  0  0  0  0
    5.9402   -1.2304    1.9752 H   0  0  0  0  0  0  0  0  0  0  0  0
    6.8040   -1.0537    0.4773 H   0  0  0  0  0  0  0  0  0  0  0  0
    4.5141    0.1621    0.2880 H   0  0  0  0  0  0  0  0  0  0  0  0
    2.6545   -0.9040    1.1379 H   0  0  0  0  0  0  0  0  0  0  0  0
    3.8844   -2.5249    2.7399 H   0  0  0  0  0  0  0  0  0  0  0  0
    2.5853   -3.3494    1.9080 H   0  0  0  0  0  0  0  0  0  0  0  0
    4.7834   -4.6711    1.6623 H   0  0  0  0  0  0  0  0  0  0  0  0
    4.2888   -5.1586   -0.5542 H   0  0  0  0  0  0  0  0  0  0  0  0
    2.0899   -3.8300   -0.6621 H   0  0  0  0  0  0  0  0  0  0  0  0
    2.3380   -1.4878   -0.7834 H   0  0  0  0  0  0  0  0  0  0  0  0
  1 13  1  0
  1  2  1  0
  1 15  1  0
  1 16  1  0
  3  2  1  6
  2 17  1  0
  2 18  1  0
  3  8  1  0
  3 14  1  0
  3  4  1  0
  4  5  1  0
  4 19  1  0
  4 20  1  0
  5 12  1  0
  5  6  1  0
  5 21  1  6
  6 11  1  0
  6  7  1  0
  6 22  1  1
  7  8  1  0
  7 23  1  0
  7 24  1  0
  8  9  1  0
  8 25  1  6
  9 14  1  0
  9 10  1  0
  9 26  1  1
 10 11  1  0
 10 27  1  0
 10 28  1  0
 11 12  1  0
 11 29  1  1
 12 13  1  0
 12 30  1  1
 13 14  1  0
 13 31  1  1
 14 32  1  6
M  CHG  1  14   1
M  END
>  <i_m_ct_stereo_status>  (181) 
1

>  <s_m_source_file>  (181) 
/var/tmp/pbs.5076255.sched01/tmp6h9xbnrx/445q66801d.sdf

>  <i_m_source_file_index>  (181) 
32

>  <i_lp_mmshare_version>  (181) 
48012

>  <i_f3d_flags>  (181) 
0

>  <s_epik_input>  (181) 
W0NAXTEyM1tDQEhdNFtDQEhdNU4zW0NAQEhdKFtDSDJdW0NIMl0xKVtDQEhdNltDQEBIXShbQ0gyXTIpW0NAQEhdKFtDSDJdNClbQ0BIXTZbQ0gyXTU=

>  <s_epik_cmdline>  (181) 
J2VwaWtfcHl0aG9uJywgJy1waHQnLCAnMi4wJywgJy1waCcsICc3LjAnLCAnLXRuJywgJzgnLCAnLW1hJywgJzIwMCcsICctaW1hZScsICc8aW5maWxlLm1hZT4nLCAnLW9tYWUnLCAnPG91dGZpbGUubWFlPic=

>  <r_lp_tautomer_probability>  (181) 
1

>  <r_epik_Ionization_Penalty>  (181) 
2.83846e-05

>  <r_epik_Ionization_Penalty_Charging>  (181) 
2.83846e-05

>  <r_epik_Ionization_Penalty_Neutral>  (181) 
0

>  <r_epik_State_Penalty>  (181) 
-0

>  <r_epik_Charging_Adjusted_Penalty>  (181) 
2.83846e-05

>  <i_epik_Tot_Q>  (181) 
1

>  <i_epik_Tot_abs_Q>  (181) 
1

>  <s_lp_Force_Field>  (181) 
OPLS3e

>  <r_lp_Energy>  (181) 
137.241

>  <b_lp_Chiralities_Consistent>  (181) 
1

>  <s_lp_Variant>  (181) 
48:0-1

>  <s_i_glide_gridfile>  (181) 
pfpi4k_grid

>  <i_i_glide_lignum>  (181) 
32

>  <i_i_glide_rotatable_bonds>  (181) 
0

>  <r_i_docking_score>  (181) 
-4.71399

>  <r_i_glide_ligand_efficiency>  (181) 
-0.336714

>  <r_i_glide_ligand_efficiency_sa>  (181) 
-0.811528

>  <r_i_glide_ligand_efficiency_ln>  (181) 
-1.29539

>  <r_i_glide_gscore>  (181) 
-4.71399

>  <r_i_glide_lipo>  (181) 
-0.426202

>  <r_i_glide_hbond>  (181) 
-0.2

>  <r_i_glide_metal>  (181) 
-0

>  <r_i_glide_rewards>  (181) 
-2.1253

>  <r_i_glide_evdw>  (181) 
-18.8144

>  <r_i_glide_ecoul>  (181) 
-6.14511

>  <r_i_glide_erotb>  (181) 
0

>  <r_i_glide_esite>  (181) 
-0.1

>  <r_i_glide_emodel>  (181) 
-33.3745

>  <r_i_glide_energy>  (181) 
-24.9595

>  <r_i_glide_einternal>  (181) 
0

>  <r_i_glide_intrahb_reward>  (181) 
-0

>  <i_i_glide_confnum>  (181) 
1

>  <i_i_glide_posenum>  (181) 
1

>  <r_i_glide_eff_state_penalty>  (181) 
0

>  <ligand_id>  (181) 
48

>  <original_smiles>  (181) 
C1CC23CC4C5CC2C2CC5C4C1N23

>  <smiles>  (181) 
[H]C1([H])C2([H])C3([H])C([H])([H])C4([H])C1([H])C15C([H])([H])C([H])([H])C([H])(C3([H])C2([H])C1([H])[H])[N+]45[H]

$$$$
48:0:1
     RDKit          3D

 32 37  0  0  1  0  0  0  0  0999 V2000
    4.2922   -2.7522   -3.3116 C   0  0  0  0  0  0  0  0  0  0  0  0
    2.9222   -2.6203   -2.5113 C   0  0  0  0  0  0  0  0  0  0  0  0
    3.4538   -2.5472   -1.0858 C   0  0  1  0  0  0  0  0  0  0  0  0
    4.1842   -1.1561   -1.0403 C   0  0  0  0  0  0  0  0  0  0  0  0
    5.5820   -1.4008   -0.5813 C   0  0  1  0  0  0  0  0  0  0  0  0
    5.6497   -2.1029    0.7802 C   0  0  1  0  0  0  0  0  0  0  0  0
    4.2552   -2.4642    1.3980 C   0  0  0  0  0  0  0  0  0  0  0  0
    3.4475   -3.2404    0.3241 C   0  0  2  0  0  0  0  0  0  0  0  0
    4.2793   -4.4243   -0.1596 C   0  0  2  0  0  0  0  0  0  0  0  0
    5.7478   -4.5978    0.2677 C   0  0  0  0  0  0  0  0  0  0  0  0
    6.4238   -3.2453    0.0861 C   0  0  1  0  0  0  0  0  0  0  0  0
    6.2066   -2.5961   -1.3083 C   0  0  1  0  0  0  0  0  0  0  0  0
    5.2698   -3.4174   -2.2803 C   0  0  1  0  0  0  0  0  0  0  0  0
    4.1786   -3.7939   -1.4349 N   0  0  2  0  0  0  0  0  0  0  0  0
    4.6596   -1.7953   -3.6966 H   0  0  0  0  0  0  0  0  0  0  0  0
    4.1388   -3.3939   -4.1793 H   0  0  0  0  0  0  0  0  0  0  0  0
    2.3499   -1.7323   -2.7870 H   0  0  0  0  0  0  0  0  0  0  0  0
    2.2472   -3.4700   -2.6750 H   0  0  0  0  0  0  0  0  0  0  0  0
    4.1739   -0.5865   -1.9707 H   0  0  0  0  0  0  0  0  0  0  0  0
    3.6667   -0.5034   -0.3386 H   0  0  0  0  0  0  0  0  0  0  0  0
    6.2171   -0.5170   -0.5816 H   0  0  0  0  0  0  0  0  0  0  0  0
    6.3062   -1.5614    1.4618 H   0  0  0  0  0  0  0  0  0  0  0  0
    4.3870   -3.0644    2.3004 H   0  0  0  0  0  0  0  0  0  0  0  0
    3.7330   -1.5578    1.7201 H   0  0  0  0  0  0  0  0  0  0  0  0
    2.4371   -3.5109    0.6235 H   0  0  0  0  0  0  0  0  0  0  0  0
    3.6957   -5.3327   -0.1443 H   0  0  0  0  0  0  0  0  0  0  0  0
    5.7970   -4.9233    1.3063 H   0  0  0  0  0  0  0  0  0  0  0  0
    6.2344   -5.3747   -0.3146 H   0  0  0  0  0  0  0  0  0  0  0  0
    7.4773   -3.2324    0.3753 H   0  0  0  0  0  0  0  0  0  0  0  0
    7.1631   -2.3114   -1.7532 H   0  0  0  0  0  0  0  0  0  0  0  0
    5.7924   -4.2630   -2.7129 H   0  0  0  0  0  0  0  0  0  0  0  0
    3.5685   -4.3948   -1.9781 H   0  0  0  0  0  0  0  0  0  0  0  0
  1 13  1  0
  1  2  1  0
  1 15  1  0
  1 16  1  0
  3  2  1  6
  2 17  1  0
  2 18  1  0
  3  8  1  0
  3 14  1  0
  3  4  1  0
  4  5  1  0
  4 19  1  0
  4 20  1  0
  5 12  1  0
  5  6  1  0
  5 21  1  1
  6 11  1  0
  6  7  1  0
  6 22  1  1
  7  8  1  0
  7 23  1  0
  7 24  1  0
  8  9  1  0
  8 25  1  1
  9 14  1  0
  9 10  1  0
  9 26  1  6
 10 11  1  0
 10 27  1  0
 10 28  1  0
 11 12  1  0
 11 29  1  1
 12 13  1  0
 12 30  1  6
 13 14  1  0
 13 31  1  6
 14 32  1  6
M  CHG  1  14   1
M  END
>  <i_m_ct_stereo_status>  (182) 
1

>  <s_m_source_file>  (182) 
/var/tmp/pbs.5076255.sched01/tmp6h9xbnrx/445q66801d.sdf

>  <i_m_source_file_index>  (182) 
32

>  <i_lp_mmshare_version>  (182) 
48012

>  <i_f3d_flags>  (182) 
0

>  <s_epik_input>  (182) 
W0NAXTEyM1tDQEhdNFtDQEhdNU4zW0NAQEhdKFtDSDJdW0NIMl0xKVtDQEhdNltDQEBIXShbQ0gyXTIpW0NAQEhdKFtDSDJdNClbQ0BIXTZbQ0gyXTU=

>  <s_epik_cmdline>  (182) 
J2VwaWtfcHl0aG9uJywgJy1waHQnLCAnMi4wJywgJy1waCcsICc3LjAnLCAnLXRuJywgJzgnLCAnLW1hJywgJzIwMCcsICctaW1hZScsICc8aW5maWxlLm1hZT4nLCAnLW9tYWUnLCAnPG91dGZpbGUubWFlPic=

>  <r_lp_tautomer_probability>  (182) 
1

>  <r_epik_Ionization_Penalty>  (182) 
2.83846e-05

>  <r_epik_Ionization_Penalty_Charging>  (182) 
2.83846e-05

>  <r_epik_Ionization_Penalty_Neutral>  (182) 
0

>  <r_epik_State_Penalty>  (182) 
-0

>  <r_epik_Charging_Adjusted_Penalty>  (182) 
2.83846e-05

>  <i_epik_Tot_Q>  (182) 
1

>  <i_epik_Tot_abs_Q>  (182) 
1

>  <s_lp_Force_Field>  (182) 
OPLS3e

>  <r_lp_Energy>  (182) 
137.241

>  <b_lp_Chiralities_Consistent>  (182) 
1

>  <s_lp_Variant>  (182) 
48:0-1

>  <s_i_glide_gridfile>  (182) 
pfpi4k_grid

>  <i_i_glide_lignum>  (182) 
32

>  <i_i_glide_rotatable_bonds>  (182) 
0

>  <r_i_docking_score>  (182) 
-4.42825

>  <r_i_glide_ligand_efficiency>  (182) 
-0.316304

>  <r_i_glide_ligand_efficiency_sa>  (182) 
-0.762337

>  <r_i_glide_ligand_efficiency_ln>  (182) 
-1.21687

>  <r_i_glide_gscore>  (182) 
-4.42825

>  <r_i_glide_lipo>  (182) 
-0.570593

>  <r_i_glide_hbond>  (182) 
0

>  <r_i_glide_metal>  (182) 
-0

>  <r_i_glide_rewards>  (182) 
-2.1253

>  <r_i_glide_evdw>  (182) 
-20.061

>  <r_i_glide_ecoul>  (182) 
-4.64439

>  <r_i_glide_erotb>  (182) 
0

>  <r_i_glide_esite>  (182) 
-0.0326433

>  <r_i_glide_emodel>  (182) 
-32.6007

>  <r_i_glide_energy>  (182) 
-24.7054

>  <r_i_glide_einternal>  (182) 
0

>  <r_i_glide_intrahb_reward>  (182) 
-0

>  <i_i_glide_confnum>  (182) 
2

>  <i_i_glide_posenum>  (182) 
31

>  <r_i_glide_eff_state_penalty>  (182) 
0

>  <ligand_id>  (182) 
48

>  <original_smiles>  (182) 
C1CC23CC4C5CC2C2CC5C4C1N23

>  <smiles>  (182) 
[H]C1([H])C2([H])C3([H])C([H])([H])C4([H])C1([H])C15C([H])([H])C([H])([H])C([H])(C3([H])C2([H])C1([H])[H])[N+]45[H]

$$$$
48:0:2
     RDKit          3D

 32 37  0  0  1  0  0  0  0  0999 V2000
    4.2752   -3.3955   -3.8920 C   0  0  0  0  0  0  0  0  0  0  0  0
    2.8326   -3.0822   -3.3114 C   0  0  0  0  0  0  0  0  0  0  0  0
    3.2176   -2.5205   -1.9525 C   0  0  1  0  0  0  0  0  0  0  0  0
    3.8925   -1.1609   -2.3311 C   0  0  0  0  0  0  0  0  0  0  0  0
    5.2248   -1.1419   -1.6798 C   0  0  1  0  0  0  0  0  0  0  0  0
    5.1880   -1.3458   -0.1616 C   0  0  1  0  0  0  0  0  0  0  0  0
    3.7569   -1.5754    0.4214 C   0  0  0  0  0  0  0  0  0  0  0  0
    3.1020   -2.7182   -0.3956 C   0  0  2  0  0  0  0  0  0  0  0  0
    4.0169   -3.9368   -0.3864 C   0  0  2  0  0  0  0  0  0  0  0  0
    5.4394   -3.8657    0.2007 C   0  0  0  0  0  0  0  0  0  0  0  0
    6.0741   -2.5978   -0.3583 C   0  0  1  0  0  0  0  0  0  0  0  0
    5.9718   -2.4575   -1.9026 C   0  0  1  0  0  0  0  0  0  0  0  0
    5.1690   -3.6069   -2.6196 C   0  0  1  0  0  0  0  0  0  0  0  0
    4.0175   -3.7542   -1.7945 N   0  0  2  0  0  0  0  0  0  0  0  0
    4.6180   -2.5885   -4.5405 H   0  0  0  0  0  0  0  0  0  0  0  0
    4.2500   -4.2978   -4.5010 H   0  0  0  0  0  0  0  0  0  0  0  0
    2.2706   -2.3758   -3.9261 H   0  0  0  0  0  0  0  0  0  0  0  0
    2.2051   -3.9766   -3.2419 H   0  0  0  0  0  0  0  0  0  0  0  0
    3.9746   -0.9426   -3.3969 H   0  0  0  0  0  0  0  0  0  0  0  0
    3.2762   -0.3470   -1.9816 H   0  0  0  0  0  0  0  0  0  0  0  0
    5.8151   -0.2626   -1.9366 H   0  0  0  0  0  0  0  0  0  0  0  0
    5.7566   -0.5638    0.3438 H   0  0  0  0  0  0  0  0  0  0  0  0
    3.8124   -1.8296    1.4821 H   0  0  0  0  0  0  0  0  0  0  0  0
    3.1660   -0.6551    0.3640 H   0  0  0  0  0  0  0  0  0  0  0  0
    2.0808   -2.9560   -0.1121 H   0  0  0  0  0  0  0  0  0  0  0  0
    3.4589   -4.8177   -0.1181 H   0  0  0  0  0  0  0  0  0  0  0  0
    5.3891   -3.8264    1.2887 H   0  0  0  0  0  0  0  0  0  0  0  0
    6.0176   -4.7498   -0.0554 H   0  0  0  0  0  0  0  0  0  0  0  0
    7.0901   -2.4120   -0.0066 H   0  0  0  0  0  0  0  0  0  0  0  0
    6.9645   -2.2750   -2.3241 H   0  0  0  0  0  0  0  0  0  0  0  0
    5.7659   -4.5065   -2.6941 H   0  0  0  0  0  0  0  0  0  0  0  0
    3.4832   -4.5344   -2.1681 H   0  0  0  0  0  0  0  0  0  0  0  0
  1 13  1  0
  1  2  1  0
  1 15  1  0
  1 16  1  0
  3  2  1  6
  2 17  1  0
  2 18  1  0
  3  8  1  0
  3 14  1  0
  3  4  1  0
  4  5  1  0
  4 19  1  0
  4 20  1  0
  5 12  1  0
  5  6  1  0
  5 21  1  1
  6 11  1  0
  6  7  1  0
  6 22  1  1
  7  8  1  0
  7 23  1  0
  7 24  1  0
  8  9  1  0
  8 25  1  6
  9 14  1  0
  9 10  1  0
  9 26  1  6
 10 11  1  0
 10 27  1  0
 10 28  1  0
 11 12  1  0
 11 29  1  6
 12 13  1  0
 12 30  1  6
 13 14  1  0
 13 31  1  6
 14 32  1  6
M  CHG  1  14   1
M  END
>  <i_m_ct_stereo_status>  (183) 
1

>  <s_m_source_file>  (183) 
/var/tmp/pbs.5076255.sched01/tmp6h9xbnrx/445q66801d.sdf

>  <i_m_source_file_index>  (183) 
32

>  <i_lp_mmshare_version>  (183) 
48012

>  <i_f3d_flags>  (183) 
0

>  <s_epik_input>  (183) 
W0NAXTEyM1tDQEhdNFtDQEhdNU4zW0NAQEhdKFtDSDJdW0NIMl0xKVtDQEhdNltDQEBIXShbQ0gyXTIpW0NAQEhdKFtDSDJdNClbQ0BIXTZbQ0gyXTU=

>  <s_epik_cmdline>  (183) 
J2VwaWtfcHl0aG9uJywgJy1waHQnLCAnMi4wJywgJy1waCcsICc3LjAnLCAnLXRuJywgJzgnLCAnLW1hJywgJzIwMCcsICctaW1hZScsICc8aW5maWxlLm1hZT4nLCAnLW9tYWUnLCAnPG91dGZpbGUubWFlPic=

>  <r_lp_tautomer_probability>  (183) 
1

>  <r_epik_Ionization_Penalty>  (183) 
2.83846e-05

>  <r_epik_Ionization_Penalty_Charging>  (183) 
2.83846e-05

>  <r_epik_Ionization_Penalty_Neutral>  (183) 
0

>  <r_epik_State_Penalty>  (183) 
-0

>  <r_epik_Charging_Adjusted_Penalty>  (183) 
2.83846e-05

>  <i_epik_Tot_Q>  (183) 
1

>  <i_epik_Tot_abs_Q>  (183) 
1

>  <s_lp_Force_Field>  (183) 
OPLS3e

>  <r_lp_Energy>  (183) 
137.241

>  <b_lp_Chiralities_Consistent>  (183) 
1

>  <s_lp_Variant>  (183) 
48:0-1

>  <s_i_glide_gridfile>  (183) 
pfpi4k_grid

>  <i_i_glide_lignum>  (183) 
32

>  <i_i_glide_rotatable_bonds>  (183) 
0

>  <r_i_docking_score>  (183) 
-4.36653

>  <r_i_glide_ligand_efficiency>  (183) 
-0.311895

>  <r_i_glide_ligand_efficiency_sa>  (183) 
-0.751712

>  <r_i_glide_ligand_efficiency_ln>  (183) 
-1.19991

>  <r_i_glide_gscore>  (183) 
-4.36653

>  <r_i_glide_lipo>  (183) 
-0.423811

>  <r_i_glide_hbond>  (183) 
0

>  <r_i_glide_metal>  (183) 
-0

>  <r_i_glide_rewards>  (183) 
-2.1253

>  <r_i_glide_evdw>  (183) 
-18.5006

>  <r_i_glide_ecoul>  (183) 
-5.70501

>  <r_i_glide_erotb>  (183) 
0

>  <r_i_glide_esite>  (183) 
-0.0366378

>  <r_i_glide_emodel>  (183) 
-31.9681

>  <r_i_glide_energy>  (183) 
-24.2056

>  <r_i_glide_einternal>  (183) 
0

>  <r_i_glide_intrahb_reward>  (183) 
-0

>  <i_i_glide_confnum>  (183) 
2

>  <i_i_glide_posenum>  (183) 
8

>  <r_i_glide_eff_state_penalty>  (183) 
0

>  <ligand_id>  (183) 
48

>  <original_smiles>  (183) 
C1CC23CC4C5CC2C2CC5C4C1N23

>  <smiles>  (183) 
[H]C1([H])C2([H])C3([H])C([H])([H])C4([H])C1([H])C15C([H])([H])C([H])([H])C([H])(C3([H])C2([H])C1([H])[H])[N+]45[H]

$$$$
49:1:0
     RDKit          3D

 62 69  0  0  1  0  0  0  0  0999 V2000
    1.1158   -0.9536    2.5364 C   0  0  0  0  0  0  0  0  0  0  0  0
    1.8189   -2.0778    3.3208 C   0  0  2  0  0  0  0  0  0  0  0  0
    2.4027   -1.5479    4.6727 C   0  0  0  0  0  0  0  0  0  0  0  0
    3.5256   -2.3808    5.2434 N   0  0  2  0  0  0  0  0  0  0  0  0
    4.8629   -1.7378    5.2436 C   0  0  0  0  0  0  0  0  0  0  0  0
    3.5441   -3.7990    4.7669 C   0  0  1  0  0  0  0  0  0  0  0  0
    2.2191   -4.4692    5.2732 C   0  0  0  0  0  0  0  0  0  0  0  0
    1.7447   -5.3855    4.2021 C   0  0  0  0  0  0  0  0  0  0  0  0
    2.6837   -5.3318    3.2144 C   0  0  0  0  0  0  0  0  0  0  0  0
    2.6652   -6.5294    2.5776 N   0  0  0  0  0  0  0  0  0  0  0  0
    1.3298   -6.9974    2.7024 C   0  0  0  0  0  0  0  0  0  0  0  0
    0.6135   -8.0314    2.0760 C   0  0  0  0  0  0  0  0  0  0  0  0
   -0.6945   -8.3490    2.4991 C   0  0  0  0  0  0  0  0  0  0  0  0
   -1.2814   -7.6586    3.5778 C   0  0  0  0  0  0  0  0  0  0  0  0
   -0.5562   -6.6580    4.2512 C   0  0  0  0  0  0  0  0  0  0  0  0
    0.7391   -6.2976    3.8224 C   0  0  0  0  0  0  0  0  0  0  0  0
    3.7980   -7.4503    2.8680 C   0  0  1  0  0  0  0  0  0  0  0  0
    3.6970   -8.8983    2.4165 C   0  0  0  0  0  0  0  0  0  0  0  0
    4.8847   -9.4174    2.1313 C   0  0  0  0  0  0  0  0  0  0  0  0
    5.9885   -8.4232    2.3416 C   0  0  1  0  0  0  0  0  0  0  0  0
    6.9161   -8.4778    1.2787 O   0  0  0  0  0  0  0  0  0  0  0  0
    5.2051   -7.0920    2.3743 C   0  0  2  0  0  0  0  0  0  0  0  0
    5.8236   -6.1135    3.2061 O   0  0  0  0  0  0  0  0  0  0  0  0
    5.9187   -4.9795    2.4631 C   0  0  0  0  0  0  0  0  0  0  0  0
    6.9672   -4.8343    1.5173 C   0  0  0  0  0  0  0  0  0  0  0  0
    8.1012   -5.5809    1.6428 O   0  0  0  0  0  0  0  0  0  0  0  0
    6.8413   -3.9949    0.3886 C   0  0  0  0  0  0  0  0  0  0  0  0
    5.6420   -3.3035    0.1367 C   0  0  0  0  0  0  0  0  0  0  0  0
    4.6191   -3.3933    1.0840 C   0  0  0  0  0  0  0  0  0  0  0  0
    4.8009   -4.1490    2.2669 C   0  0  0  0  0  0  0  0  0  0  0  0
    3.5825   -4.0766    3.2108 C   0  0  2  0  0  0  0  0  0  0  0  0
    2.9910   -2.7618    2.5933 C   0  0  1  0  0  0  0  0  0  0  0  0
    3.2406   -2.7792    1.1071 C   0  0  0  0  0  0  0  0  0  0  0  0
    1.7696   -0.1143    2.2949 H   0  0  0  0  0  0  0  0  0  0  0  0
    0.2705   -0.5579    3.1028 H   0  0  0  0  0  0  0  0  0  0  0  0
    0.7116   -1.3354    1.6031 H   0  0  0  0  0  0  0  0  0  0  0  0
    1.0541   -2.8344    3.5064 H   0  0  0  0  0  0  0  0  0  0  0  0
    2.7398   -0.5155    4.5735 H   0  0  0  0  0  0  0  0  0  0  0  0
    1.5937   -1.5008    5.4045 H   0  0  0  0  0  0  0  0  0  0  0  0
    5.2998   -1.6973    4.2450 H   0  0  0  0  0  0  0  0  0  0  0  0
    5.5467   -2.3022    5.8844 H   0  0  0  0  0  0  0  0  0  0  0  0
    4.8040   -0.7202    5.6397 H   0  0  0  0  0  0  0  0  0  0  0  0
    4.3719   -4.3446    5.2285 H   0  0  0  0  0  0  0  0  0  0  0  0
    2.4324   -5.0507    6.1683 H   0  0  0  0  0  0  0  0  0  0  0  0
    1.4215   -3.7756    5.5491 H   0  0  0  0  0  0  0  0  0  0  0  0
    1.0696   -8.6034    1.2854 H   0  0  0  0  0  0  0  0  0  0  0  0
   -1.2367   -9.1419    1.9971 H   0  0  0  0  0  0  0  0  0  0  0  0
   -2.2886   -7.9043    3.8903 H   0  0  0  0  0  0  0  0  0  0  0  0
   -0.9956   -6.1330    5.0817 H   0  0  0  0  0  0  0  0  0  0  0  0
    3.8500   -7.5304    3.9527 H   0  0  0  0  0  0  0  0  0  0  0  0
    2.7850   -9.4762    2.4127 H   0  0  0  0  0  0  0  0  0  0  0  0
    5.0618  -10.4379    1.8152 H   0  0  0  0  0  0  0  0  0  0  0  0
    6.4828   -8.6259    3.2901 H   0  0  0  0  0  0  0  0  0  0  0  0
    7.6475   -9.0212    1.5409 H   0  0  0  0  0  0  0  0  0  0  0  0
    5.0652   -6.7830    1.3339 H   0  0  0  0  0  0  0  0  0  0  0  0
    8.0610   -6.1925    2.3645 H   0  0  0  0  0  0  0  0  0  0  0  0
    7.6486   -3.9490   -0.3231 H   0  0  0  0  0  0  0  0  0  0  0  0
    5.5176   -2.7141   -0.7616 H   0  0  0  0  0  0  0  0  0  0  0  0
    3.7418   -1.9915    2.7816 H   0  0  0  0  0  0  0  0  0  0  0  0
    3.2411   -1.7833    0.6624 H   0  0  0  0  0  0  0  0  0  0  0  0
    2.5210   -3.4141    0.5985 H   0  0  0  0  0  0  0  0  0  0  0  0
    3.3048   -2.4503    6.2257 H   0  0  0  0  0  0  0  0  0  0  0  0
  1  2  1  0
  1 34  1  0
  1 35  1  0
  1 36  1  0
  2 32  1  0
  2  3  1  0
  2 37  1  1
  3  4  1  0
  3 38  1  0
  3 39  1  0
  4  5  1  0
  4  6  1  0
  4 62  1  1
  5 40  1  0
  5 41  1  0
  5 42  1  0
  6 31  1  0
  6  7  1  0
  6 43  1  1
  7  8  1  0
  7 44  1  0
  7 45  1  0
  8 16  1  0
  8  9  2  0
 31  9  1  1
  9 10  1  0
 10 11  1  0
 10 17  1  0
 11 16  2  0
 11 12  1  0
 12 13  2  0
 12 46  1  0
 13 14  1  0
 13 47  1  0
 14 15  2  0
 14 48  1  0
 15 16  1  0
 15 49  1  0
 17 22  1  0
 17 18  1  0
 17 50  1  1
 18 19  2  0
 18 51  1  0
 19 20  1  0
 19 52  1  0
 20 21  1  0
 20 22  1  0
 20 53  1  1
 21 54  1  0
 22 23  1  0
 22 55  1  6
 23 24  1  0
 24 30  2  0
 24 25  1  0
 25 26  1  0
 25 27  2  0
 26 56  1  0
 27 28  1  0
 27 57  1  0
 28 29  2  0
 28 58  1  0
 29 33  1  0
 29 30  1  0
 30 31  1  0
 31 32  1  0
 32 33  1  0
 32 59  1  1
 33 60  1  0
 33 61  1  0
M  CHG  1   4   1
M  END
>  <i_m_ct_stereo_status>  (184) 
1

>  <s_m_source_file>  (184) 
/var/tmp/pbs.5076255.sched01/tmp6h9xbnrx/445q66801d.sdf

>  <i_m_source_file_index>  (184) 
34

>  <i_lp_mmshare_version>  (184) 
48012

>  <i_f3d_flags>  (184) 
0

>  <s_epik_input>  (184) 
W0NAQF0xMjNbQ0BIXTROKFtDSDNdKVtDSDJdW0NAQEhdKFtDSDNdKVtDQEBIXTNbQ0gyXWM1YzJjKGMoW09IXSlbY0hdW2NIXTUpT1tDQEBIXTZbQ0BIXShbQ0hdPVtDSF1bQ0BIXTZbT0hdKW43YzFjKFtDSDJdNCljOGM3W2NIXVtjSF1bY0hdW2NIXTg=

>  <s_epik_cmdline>  (184) 
J2VwaWtfcHl0aG9uJywgJy1waHQnLCAnMi4wJywgJy1waCcsICc3LjAnLCAnLXRuJywgJzgnLCAnLW1hJywgJzIwMCcsICctaW1hZScsICc8aW5maWxlLm1hZT4nLCAnLW9tYWUnLCAnPG91dGZpbGUubWFlPic=

>  <r_lp_tautomer_probability>  (184) 
1

>  <r_epik_Ionization_Penalty>  (184) 
0.0248645

>  <r_epik_Ionization_Penalty_Charging>  (184) 
0.0231147

>  <r_epik_Ionization_Penalty_Neutral>  (184) 
0.00174984

>  <r_epik_State_Penalty>  (184) 
0.0186891

>  <r_epik_Charging_Adjusted_Penalty>  (184) 
0.0418037

>  <i_epik_Tot_Q>  (184) 
1

>  <i_epik_Tot_abs_Q>  (184) 
1

>  <s_lp_Force_Field>  (184) 
OPLS3e

>  <r_lp_Energy>  (184) 
142.694

>  <b_lp_Chiralities_Consistent>  (184) 
1

>  <s_lp_Variant>  (184) 
49:0-2

>  <s_i_glide_gridfile>  (184) 
pfpi4k_grid

>  <i_i_glide_lignum>  (184) 
34

>  <i_i_glide_rotatable_bonds>  (184) 
2

>  <r_i_docking_score>  (184) 
-2.57407

>  <r_i_glide_ligand_efficiency>  (184) 
-0.0780021

>  <r_i_glide_ligand_efficiency_sa>  (184) 
-0.250194

>  <r_i_glide_ligand_efficiency_ln>  (184) 
-0.57246

>  <r_i_glide_gscore>  (184) 
-2.57407

>  <r_i_glide_lipo>  (184) 
-0.412475

>  <r_i_glide_hbond>  (184) 
0

>  <r_i_glide_metal>  (184) 
-0

>  <r_i_glide_rewards>  (184) 
-0.398581

>  <r_i_glide_evdw>  (184) 
-25.9513

>  <r_i_glide_ecoul>  (184) 
-3.07409

>  <r_i_glide_erotb>  (184) 
0

>  <r_i_glide_esite>  (184) 
-0.0043363

>  <r_i_glide_emodel>  (184) 
-34.1585

>  <r_i_glide_energy>  (184) 
-29.0254

>  <r_i_glide_einternal>  (184) 
0.528195

>  <r_i_glide_intrahb_reward>  (184) 
-0

>  <i_i_glide_confnum>  (184) 
1

>  <i_i_glide_posenum>  (184) 
2

>  <r_i_glide_eff_state_penalty>  (184) 
0

>  <ligand_id>  (184) 
49

>  <original_smiles>  (184) 
CC1CN(C)C2Cc3c4n(c5ccccc35)C3C=CC(O)C3Oc3c(O)ccc5c3C42C1C5

>  <smiles>  (184) 
[H]Oc1c([H])c([H])c2c3c1OC1([H])C([H])(O[H])C([H])=C([H])C1([H])n1c4c(c5c([H])c([H])c([H])c([H])c51)C([H])([H])C1([H])C34C([H])(C2([H])[H])C([H])(C([H])([H])[H])C([H])([H])[N+]1([H])C([H])([H])[H]

$$$$
49:1:1
     RDKit          3D

 62 69  0  0  1  0  0  0  0  0999 V2000
   -1.1943   -8.1505    2.3411 C   0  0  0  0  0  0  0  0  0  0  0  0
    0.2239   -8.6043    2.7576 C   0  0  2  0  0  0  0  0  0  0  0  0
    0.3465  -10.1609    2.7731 C   0  0  0  0  0  0  0  0  0  0  0  0
    1.4420  -10.6993    3.6514 N   0  0  2  0  0  0  0  0  0  0  0  0
    1.0031  -11.4448    4.8531 C   0  0  0  0  0  0  0  0  0  0  0  0
    2.5401   -9.7246    3.9182 C   0  0  1  0  0  0  0  0  0  0  0  0
    3.2090   -9.3970    2.5380 C   0  0  0  0  0  0  0  0  0  0  0  0
    3.5644   -7.9529    2.5376 C   0  0  0  0  0  0  0  0  0  0  0  0
    3.2344   -7.4958    3.7796 C   0  0  0  0  0  0  0  0  0  0  0  0
    4.0452   -6.4395    4.0591 N   0  0  0  0  0  0  0  0  0  0  0  0
    4.3872   -5.8834    2.7933 C   0  0  0  0  0  0  0  0  0  0  0  0
    5.0128   -4.6744    2.4171 C   0  0  0  0  0  0  0  0  0  0  0  0
    5.3328   -4.4298    1.0615 C   0  0  0  0  0  0  0  0  0  0  0  0
    5.0629   -5.4071    0.0834 C   0  0  0  0  0  0  0  0  0  0  0  0
    4.4955   -6.6398    0.4568 C   0  0  0  0  0  0  0  0  0  0  0  0
    4.1403   -6.8976    1.7956 C   0  0  0  0  0  0  0  0  0  0  0  0
    5.1250   -6.7208    5.0487 C   0  0  1  0  0  0  0  0  0  0  0  0
    6.2528   -5.7171    5.1956 C   0  0  0  0  0  0  0  0  0  0  0  0
    6.7371   -5.6822    6.4346 C   0  0  0  0  0  0  0  0  0  0  0  0
    6.0272   -6.6498    7.3312 C   0  0  1  0  0  0  0  0  0  0  0  0
    5.7416   -6.0499    8.5735 O   0  0  0  0  0  0  0  0  0  0  0  0
    4.7547   -6.9574    6.5153 C   0  0  2  0  0  0  0  0  0  0  0  0
    4.2789   -8.2853    6.7289 O   0  0  0  0  0  0  0  0  0  0  0  0
    2.9509   -8.1660    7.0297 C   0  0  0  0  0  0  0  0  0  0  0  0
    2.5667   -7.7885    8.3398 C   0  0  0  0  0  0  0  0  0  0  0  0
    3.4477   -7.9516    9.3629 O   0  0  0  0  0  0  0  0  0  0  0  0
    1.3282   -7.1416    8.6032 C   0  0  0  0  0  0  0  0  0  0  0  0
    0.4631   -6.7899    7.5493 C   0  0  0  0  0  0  0  0  0  0  0  0
    0.8131   -7.1709    6.2510 C   0  0  0  0  0  0  0  0  0  0  0  0
    1.9982   -7.9272    6.0295 C   0  0  0  0  0  0  0  0  0  0  0  0
    2.1783   -8.3214    4.5480 C   0  0  2  0  0  0  0  0  0  0  0  0
    0.6825   -8.1288    4.1480 C   0  0  1  0  0  0  0  0  0  0  0  0
    0.1227   -6.9646    4.9255 C   0  0  0  0  0  0  0  0  0  0  0  0
   -1.9865   -8.5374    2.9874 H   0  0  0  0  0  0  0  0  0  0  0  0
   -1.4039   -8.4949    1.3267 H   0  0  0  0  0  0  0  0  0  0  0  0
   -1.2734   -7.0639    2.3254 H   0  0  0  0  0  0  0  0  0  0  0  0
    0.9006   -8.1758    2.0125 H   0  0  0  0  0  0  0  0  0  0  0  0
   -0.5856  -10.6180    3.0775 H   0  0  0  0  0  0  0  0  0  0  0  0
    0.5003  -10.5099    1.7612 H   0  0  0  0  0  0  0  0  0  0  0  0
    0.6134  -10.7903    5.6241 H   0  0  0  0  0  0  0  0  0  0  0  0
    1.8417  -11.9907    5.2789 H   0  0  0  0  0  0  0  0  0  0  0  0
    0.2321  -12.1672    4.6063 H   0  0  0  0  0  0  0  0  0  0  0  0
    3.3117  -10.1781    4.5366 H   0  0  0  0  0  0  0  0  0  0  0  0
    4.1173   -9.9831    2.4293 H   0  0  0  0  0  0  0  0  0  0  0  0
    2.6109   -9.6280    1.6551 H   0  0  0  0  0  0  0  0  0  0  0  0
    5.2488   -3.9408    3.1663 H   0  0  0  0  0  0  0  0  0  0  0  0
    5.7815   -3.4812    0.7763 H   0  0  0  0  0  0  0  0  0  0  0  0
    5.2724   -5.2119   -0.9614 H   0  0  0  0  0  0  0  0  0  0  0  0
    4.2882   -7.3840   -0.2893 H   0  0  0  0  0  0  0  0  0  0  0  0
    5.6502   -7.6106    4.7008 H   0  0  0  0  0  0  0  0  0  0  0  0
    6.6816   -5.1476    4.3854 H   0  0  0  0  0  0  0  0  0  0  0  0
    7.5575   -5.0619    6.7755 H   0  0  0  0  0  0  0  0  0  0  0  0
    6.6615   -7.5310    7.4519 H   0  0  0  0  0  0  0  0  0  0  0  0
    5.2372   -6.6646    9.0868 H   0  0  0  0  0  0  0  0  0  0  0  0
    4.0372   -6.1631    6.7475 H   0  0  0  0  0  0  0  0  0  0  0  0
    4.1645   -8.5180    9.1157 H   0  0  0  0  0  0  0  0  0  0  0  0
    1.0891   -6.8495    9.6128 H   0  0  0  0  0  0  0  0  0  0  0  0
   -0.4497   -6.2343    7.7314 H   0  0  0  0  0  0  0  0  0  0  0  0
    0.1301   -8.8649    4.7351 H   0  0  0  0  0  0  0  0  0  0  0  0
   -0.9627   -7.0052    5.0467 H   0  0  0  0  0  0  0  0  0  0  0  0
    0.4216   -6.0206    4.4819 H   0  0  0  0  0  0  0  0  0  0  0  0
    1.8766  -11.4180    3.0852 H   0  0  0  0  0  0  0  0  0  0  0  0
  1  2  1  0
  1 34  1  0
  1 35  1  0
  1 36  1  0
  2 32  1  0
  2  3  1  0
  2 37  1  6
  3  4  1  0
  3 38  1  0
  3 39  1  0
  4  5  1  0
  4  6  1  0
  4 62  1  6
  5 40  1  0
  5 41  1  0
  5 42  1  0
  6 31  1  0
  6  7  1  0
  6 43  1  1
  7  8  1  0
  7 44  1  0
  7 45  1  0
  8 16  1  0
  8  9  2  0
 31  9  1  6
  9 10  1  0
 10 11  1  0
 10 17  1  0
 11 16  2  0
 11 12  1  0
 12 13  2  0
 12 46  1  0
 13 14  1  0
 13 47  1  0
 14 15  2  0
 14 48  1  0
 15 16  1  0
 15 49  1  0
 17 22  1  0
 17 18  1  0
 17 50  1  6
 18 19  2  0
 18 51  1  0
 19 20  1  0
 19 52  1  0
 20 21  1  0
 20 22  1  0
 20 53  1  1
 21 54  1  0
 22 23  1  0
 22 55  1  1
 23 24  1  0
 24 30  2  0
 24 25  1  0
 25 26  1  0
 25 27  2  0
 26 56  1  0
 27 28  1  0
 27 57  1  0
 28 29  2  0
 28 58  1  0
 29 33  1  0
 29 30  1  0
 30 31  1  0
 31 32  1  0
 32 33  1  0
 32 59  1  1
 33 60  1  0
 33 61  1  0
M  CHG  1   4   1
M  END
>  <i_m_ct_stereo_status>  (185) 
1

>  <s_m_source_file>  (185) 
/var/tmp/pbs.5076255.sched01/tmp6h9xbnrx/445q66801d.sdf

>  <i_m_source_file_index>  (185) 
34

>  <i_lp_mmshare_version>  (185) 
48012

>  <i_f3d_flags>  (185) 
0

>  <s_epik_input>  (185) 
W0NAQF0xMjNbQ0BIXTROKFtDSDNdKVtDSDJdW0NAQEhdKFtDSDNdKVtDQEBIXTNbQ0gyXWM1YzJjKGMoW09IXSlbY0hdW2NIXTUpT1tDQEBIXTZbQ0BIXShbQ0hdPVtDSF1bQ0BIXTZbT0hdKW43YzFjKFtDSDJdNCljOGM3W2NIXVtjSF1bY0hdW2NIXTg=

>  <s_epik_cmdline>  (185) 
J2VwaWtfcHl0aG9uJywgJy1waHQnLCAnMi4wJywgJy1waCcsICc3LjAnLCAnLXRuJywgJzgnLCAnLW1hJywgJzIwMCcsICctaW1hZScsICc8aW5maWxlLm1hZT4nLCAnLW9tYWUnLCAnPG91dGZpbGUubWFlPic=

>  <r_lp_tautomer_probability>  (185) 
1

>  <r_epik_Ionization_Penalty>  (185) 
0.0248645

>  <r_epik_Ionization_Penalty_Charging>  (185) 
0.0231147

>  <r_epik_Ionization_Penalty_Neutral>  (185) 
0.00174984

>  <r_epik_State_Penalty>  (185) 
0.0186891

>  <r_epik_Charging_Adjusted_Penalty>  (185) 
0.0418037

>  <i_epik_Tot_Q>  (185) 
1

>  <i_epik_Tot_abs_Q>  (185) 
1

>  <s_lp_Force_Field>  (185) 
OPLS3e

>  <r_lp_Energy>  (185) 
142.694

>  <b_lp_Chiralities_Consistent>  (185) 
1

>  <s_lp_Variant>  (185) 
49:0-2

>  <s_i_glide_gridfile>  (185) 
pfpi4k_grid

>  <i_i_glide_lignum>  (185) 
34

>  <i_i_glide_rotatable_bonds>  (185) 
2

>  <r_i_docking_score>  (185) 
-2.42057

>  <r_i_glide_ligand_efficiency>  (185) 
-0.0733505

>  <r_i_glide_ligand_efficiency_sa>  (185) 
-0.235274

>  <r_i_glide_ligand_efficiency_ln>  (185) 
-0.538322

>  <r_i_glide_gscore>  (185) 
-2.42057

>  <r_i_glide_lipo>  (185) 
-0.384443

>  <r_i_glide_hbond>  (185) 
0

>  <r_i_glide_metal>  (185) 
-0

>  <r_i_glide_rewards>  (185) 
-0.398581

>  <r_i_glide_evdw>  (185) 
-22.2683

>  <r_i_glide_ecoul>  (185) 
-3.49419

>  <r_i_glide_erotb>  (185) 
0

>  <r_i_glide_esite>  (185) 
0

>  <r_i_glide_emodel>  (185) 
-30.5973

>  <r_i_glide_energy>  (185) 
-25.7625

>  <r_i_glide_einternal>  (185) 
0.43844

>  <r_i_glide_intrahb_reward>  (185) 
-0

>  <i_i_glide_confnum>  (185) 
2

>  <i_i_glide_posenum>  (185) 
19

>  <r_i_glide_eff_state_penalty>  (185) 
0

>  <ligand_id>  (185) 
49

>  <original_smiles>  (185) 
CC1CN(C)C2Cc3c4n(c5ccccc35)C3C=CC(O)C3Oc3c(O)ccc5c3C42C1C5

>  <smiles>  (185) 
[H]Oc1c([H])c([H])c2c3c1OC1([H])C([H])(O[H])C([H])=C([H])C1([H])n1c4c(c5c([H])c([H])c([H])c([H])c51)C([H])([H])C1([H])C34C([H])(C2([H])[H])C([H])(C([H])([H])[H])C([H])([H])[N+]1([H])C([H])([H])[H]

$$$$
49:1:2
     RDKit          3D

 62 69  0  0  1  0  0  0  0  0999 V2000
   -1.1630   -8.1173    2.4896 C   0  0  0  0  0  0  0  0  0  0  0  0
    0.2552   -8.6175    2.8553 C   0  0  2  0  0  0  0  0  0  0  0  0
    0.3374  -10.1770    2.8219 C   0  0  0  0  0  0  0  0  0  0  0  0
    1.4419  -10.7691    3.6519 N   0  0  2  0  0  0  0  0  0  0  0  0
    1.0126  -11.5390    4.8374 C   0  0  0  0  0  0  0  0  0  0  0  0
    2.5652   -9.8323    3.9280 C   0  0  1  0  0  0  0  0  0  0  0  0
    3.2078   -9.4746    2.5432 C   0  0  0  0  0  0  0  0  0  0  0  0
    3.5989   -8.0400    2.5752 C   0  0  0  0  0  0  0  0  0  0  0  0
    3.3147   -7.6212    3.8401 C   0  0  0  0  0  0  0  0  0  0  0  0
    4.1525   -6.5875    4.1356 N   0  0  0  0  0  0  0  0  0  0  0  0
    4.4802   -6.0015    2.8798 C   0  0  0  0  0  0  0  0  0  0  0  0
    5.1303   -4.7968    2.5289 C   0  0  0  0  0  0  0  0  0  0  0  0
    5.4249   -4.5140    1.1763 C   0  0  0  0  0  0  0  0  0  0  0  0
    5.1079   -5.4497    0.1703 C   0  0  0  0  0  0  0  0  0  0  0  0
    4.5157   -6.6826    0.5131 C   0  0  0  0  0  0  0  0  0  0  0  0
    4.1868   -6.9741    1.8512 C   0  0  0  0  0  0  0  0  0  0  0  0
    5.2468   -6.9294    5.0908 C   0  0  1  0  0  0  0  0  0  0  0  0
    6.4083   -5.9627    5.2405 C   0  0  0  0  0  0  0  0  0  0  0  0
    6.9240   -5.9794    6.4659 C   0  0  0  0  0  0  0  0  0  0  0  0
    6.2096   -6.9524    7.3535 C   0  0  1  0  0  0  0  0  0  0  0  0
    6.0025   -6.3930    8.6337 O   0  0  0  0  0  0  0  0  0  0  0  0
    4.9086   -7.2080    6.5591 C   0  0  2  0  0  0  0  0  0  0  0  0
    4.4083   -8.5341    6.7361 O   0  0  0  0  0  0  0  0  0  0  0  0
    3.0878   -8.3928    7.0747 C   0  0  0  0  0  0  0  0  0  0  0  0
    2.7337   -8.0609    8.4038 C   0  0  0  0  0  0  0  0  0  0  0  0
    3.6004   -8.3083    9.4183 O   0  0  0  0  0  0  0  0  0  0  0  0
    1.5230   -7.3805    8.7176 C   0  0  0  0  0  0  0  0  0  0  0  0
    0.6427   -6.9692    7.6989 C   0  0  0  0  0  0  0  0  0  0  0  0
    0.9542   -7.3128    6.3823 C   0  0  0  0  0  0  0  0  0  0  0  0
    2.1201   -8.0901    6.1074 C   0  0  0  0  0  0  0  0  0  0  0  0
    2.2554   -8.4417    4.6104 C   0  0  2  0  0  0  0  0  0  0  0  0
    0.7575   -8.2009    4.2495 C   0  0  1  0  0  0  0  0  0  0  0  0
    0.2410   -7.0501    5.0785 C   0  0  0  0  0  0  0  0  0  0  0  0
   -1.9506   -8.5042    3.1419 H   0  0  0  0  0  0  0  0  0  0  0  0
   -1.4078   -8.4169    1.4711 H   0  0  0  0  0  0  0  0  0  0  0  0
   -1.2156   -7.0297    2.5143 H   0  0  0  0  0  0  0  0  0  0  0  0
    0.9231   -8.1764    2.1108 H   0  0  0  0  0  0  0  0  0  0  0  0
   -0.5971  -10.6203    3.1341 H   0  0  0  0  0  0  0  0  0  0  0  0
    0.4545  -10.4939    1.7966 H   0  0  0  0  0  0  0  0  0  0  0  0
    0.6521  -10.9055    5.6395 H   0  0  0  0  0  0  0  0  0  0  0  0
    1.8435  -12.1166    5.2327 H   0  0  0  0  0  0  0  0  0  0  0  0
    0.2264  -12.2416    4.5877 H   0  0  0  0  0  0  0  0  0  0  0  0
    3.3399  -10.3226    4.5078 H   0  0  0  0  0  0  0  0  0  0  0  0
    4.1017  -10.0745    2.3925 H   0  0  0  0  0  0  0  0  0  0  0  0
    2.5893   -9.6622    1.6658 H   0  0  0  0  0  0  0  0  0  0  0  0
    5.4013   -4.0949    3.2966 H   0  0  0  0  0  0  0  0  0  0  0  0
    5.8948   -3.5666    0.9128 H   0  0  0  0  0  0  0  0  0  0  0  0
    5.3006   -5.2281   -0.8718 H   0  0  0  0  0  0  0  0  0  0  0  0
    4.2699   -7.3971   -0.2521 H   0  0  0  0  0  0  0  0  0  0  0  0
    5.7446   -7.8201    4.7044 H   0  0  0  0  0  0  0  0  0  0  0  0
    6.8364   -5.3808    4.4376 H   0  0  0  0  0  0  0  0  0  0  0  0
    7.7724   -5.3963    6.8047 H   0  0  0  0  0  0  0  0  0  0  0  0
    6.8216   -7.8528    7.4256 H   0  0  0  0  0  0  0  0  0  0  0  0
    5.3955   -5.6711    8.5693 H   0  0  0  0  0  0  0  0  0  0  0  0
    4.2160   -6.4056    6.8332 H   0  0  0  0  0  0  0  0  0  0  0  0
    4.3806   -8.7574    9.1244 H   0  0  0  0  0  0  0  0  0  0  0  0
    1.3224   -7.1151    9.7445 H   0  0  0  0  0  0  0  0  0  0  0  0
   -0.2494   -6.3937    7.9217 H   0  0  0  0  0  0  0  0  0  0  0  0
    0.1970   -8.9409    4.8259 H   0  0  0  0  0  0  0  0  0  0  0  0
   -0.8412   -7.0668    5.2286 H   0  0  0  0  0  0  0  0  0  0  0  0
    0.5558   -6.0993    4.6624 H   0  0  0  0  0  0  0  0  0  0  0  0
    1.8410  -11.4799    3.0563 H   0  0  0  0  0  0  0  0  0  0  0  0
  1  2  1  0
  1 34  1  0
  1 35  1  0
  1 36  1  0
  2 32  1  0
  2  3  1  0
  2 37  1  6
  3  4  1  0
  3 38  1  0
  3 39  1  0
  4  5  1  0
  4  6  1  0
  4 62  1  6
  5 40  1  0
  5 41  1  0
  5 42  1  0
  6 31  1  0
  6  7  1  0
  6 43  1  1
  7  8  1  0
  7 44  1  0
  7 45  1  0
  8 16  1  0
  8  9  2  0
 31  9  1  6
  9 10  1  0
 10 11  1  0
 10 17  1  0
 11 16  2  0
 11 12  1  0
 12 13  2  0
 12 46  1  0
 13 14  1  0
 13 47  1  0
 14 15  2  0
 14 48  1  0
 15 16  1  0
 15 49  1  0
 17 22  1  0
 17 18  1  0
 17 50  1  6
 18 19  2  0
 18 51  1  0
 19 20  1  0
 19 52  1  0
 20 21  1  0
 20 22  1  0
 20 53  1  1
 21 54  1  0
 22 23  1  0
 22 55  1  1
 23 24  1  0
 24 30  2  0
 24 25  1  0
 25 26  1  0
 25 27  2  0
 26 56  1  0
 27 28  1  0
 27 57  1  0
 28 29  2  0
 28 58  1  0
 29 33  1  0
 29 30  1  0
 30 31  1  0
 31 32  1  0
 32 33  1  0
 32 59  1  1
 33 60  1  0
 33 61  1  0
M  CHG  1   4   1
M  END
>  <i_m_ct_stereo_status>  (186) 
1

>  <s_m_source_file>  (186) 
/var/tmp/pbs.5076255.sched01/tmp6h9xbnrx/445q66801d.sdf

>  <i_m_source_file_index>  (186) 
34

>  <i_lp_mmshare_version>  (186) 
48012

>  <i_f3d_flags>  (186) 
0

>  <s_epik_input>  (186) 
W0NAQF0xMjNbQ0BIXTROKFtDSDNdKVtDSDJdW0NAQEhdKFtDSDNdKVtDQEBIXTNbQ0gyXWM1YzJjKGMoW09IXSlbY0hdW2NIXTUpT1tDQEBIXTZbQ0BIXShbQ0hdPVtDSF1bQ0BIXTZbT0hdKW43YzFjKFtDSDJdNCljOGM3W2NIXVtjSF1bY0hdW2NIXTg=

>  <s_epik_cmdline>  (186) 
J2VwaWtfcHl0aG9uJywgJy1waHQnLCAnMi4wJywgJy1waCcsICc3LjAnLCAnLXRuJywgJzgnLCAnLW1hJywgJzIwMCcsICctaW1hZScsICc8aW5maWxlLm1hZT4nLCAnLW9tYWUnLCAnPG91dGZpbGUubWFlPic=

>  <r_lp_tautomer_probability>  (186) 
1

>  <r_epik_Ionization_Penalty>  (186) 
0.0248645

>  <r_epik_Ionization_Penalty_Charging>  (186) 
0.0231147

>  <r_epik_Ionization_Penalty_Neutral>  (186) 
0.00174984

>  <r_epik_State_Penalty>  (186) 
0.0186891

>  <r_epik_Charging_Adjusted_Penalty>  (186) 
0.0418037

>  <i_epik_Tot_Q>  (186) 
1

>  <i_epik_Tot_abs_Q>  (186) 
1

>  <s_lp_Force_Field>  (186) 
OPLS3e

>  <r_lp_Energy>  (186) 
142.694

>  <b_lp_Chiralities_Consistent>  (186) 
1

>  <s_lp_Variant>  (186) 
49:0-2

>  <s_i_glide_gridfile>  (186) 
pfpi4k_grid

>  <i_i_glide_lignum>  (186) 
34

>  <i_i_glide_rotatable_bonds>  (186) 
2

>  <r_i_docking_score>  (186) 
-2.40008

>  <r_i_glide_ligand_efficiency>  (186) 
-0.0727297

>  <r_i_glide_ligand_efficiency_sa>  (186) 
-0.233283

>  <r_i_glide_ligand_efficiency_ln>  (186) 
-0.533765

>  <r_i_glide_gscore>  (186) 
-2.40008

>  <r_i_glide_lipo>  (186) 
-0.389619

>  <r_i_glide_hbond>  (186) 
0

>  <r_i_glide_metal>  (186) 
-0

>  <r_i_glide_rewards>  (186) 
-0.398581

>  <r_i_glide_evdw>  (186) 
-22.1196

>  <r_i_glide_ecoul>  (186) 
-3.37266

>  <r_i_glide_erotb>  (186) 
0

>  <r_i_glide_esite>  (186) 
0

>  <r_i_glide_emodel>  (186) 
-30.3998

>  <r_i_glide_energy>  (186) 
-25.4923

>  <r_i_glide_einternal>  (186) 
0.0430926

>  <r_i_glide_intrahb_reward>  (186) 
-0

>  <i_i_glide_confnum>  (186) 
1

>  <i_i_glide_posenum>  (186) 
1

>  <r_i_glide_eff_state_penalty>  (186) 
0

>  <ligand_id>  (186) 
49

>  <original_smiles>  (186) 
CC1CN(C)C2Cc3c4n(c5ccccc35)C3C=CC(O)C3Oc3c(O)ccc5c3C42C1C5

>  <smiles>  (186) 
[H]Oc1c([H])c([H])c2c3c1OC1([H])C([H])(O[H])C([H])=C([H])C1([H])n1c4c(c5c([H])c([H])c([H])c([H])c51)C([H])([H])C1([H])C34C([H])(C2([H])[H])C([H])(C([H])([H])[H])C([H])([H])[N+]1([H])C([H])([H])[H]

$$$$
49:3:0
     RDKit          3D

 61 68  0  0  1  0  0  0  0  0999 V2000
    5.4255   -2.2250    5.8887 C   0  0  0  0  0  0  0  0  0  0  0  0
    4.4191   -2.3121    4.7163 C   0  0  2  0  0  0  0  0  0  0  0  0
    3.6545   -0.9624    4.5431 C   0  0  0  0  0  0  0  0  0  0  0  0
    2.1797   -1.1218    4.5094 N   0  0  0  0  0  0  0  0  0  0  0  0
    1.4832    0.1661    4.4914 C   0  0  0  0  0  0  0  0  0  0  0  0
    1.6566   -2.1830    3.5914 C   0  0  1  0  0  0  0  0  0  0  0  0
    1.9053   -1.6310    2.1684 C   0  0  0  0  0  0  0  0  0  0  0  0
    2.9210   -2.4786    1.5217 C   0  0  0  0  0  0  0  0  0  0  0  0
    2.9670   -3.6639    2.2162 C   0  0  0  0  0  0  0  0  0  0  0  0
    3.6289   -4.5629    1.4108 N   0  0  0  0  0  0  0  0  0  0  0  0
    4.2433   -3.8545    0.3423 C   0  0  0  0  0  0  0  0  0  0  0  0
    5.0283   -4.2689   -0.7577 C   0  0  0  0  0  0  0  0  0  0  0  0
    5.4577   -3.3303   -1.7229 C   0  0  0  0  0  0  0  0  0  0  0  0
    5.0639   -1.9794   -1.6233 C   0  0  0  0  0  0  0  0  0  0  0  0
    4.2135   -1.5761   -0.5752 C   0  0  0  0  0  0  0  0  0  0  0  0
    3.7887   -2.4917    0.4076 C   0  0  0  0  0  0  0  0  0  0  0  0
    3.2066   -5.9568    1.2157 C   0  0  1  0  0  0  0  0  0  0  0  0
    4.2388   -7.0354    1.0145 C   0  0  0  0  0  0  0  0  0  0  0  0
    3.7137   -8.2295    1.2875 C   0  0  0  0  0  0  0  0  0  0  0  0
    2.2705   -8.1103    1.7323 C   0  0  1  0  0  0  0  0  0  0  0  0
    2.0340   -9.0002    2.8022 O   0  0  0  0  0  0  0  0  0  0  0  0
    2.2384   -6.6250    2.1618 C   0  0  2  0  0  0  0  0  0  0  0  0
    0.9764   -5.9330    2.1661 O   0  0  0  0  0  0  0  0  0  0  0  0
    0.7100   -5.6284    3.4758 C   0  0  0  0  0  0  0  0  0  0  0  0
   -0.0089   -6.5966    4.2220 C   0  0  0  0  0  0  0  0  0  0  0  0
   -0.9589   -7.3466    3.5974 O   0  0  0  0  0  0  0  0  0  0  0  0
    0.3325   -6.8983    5.5656 C   0  0  0  0  0  0  0  0  0  0  0  0
    1.4768   -6.3245    6.1500 C   0  0  0  0  0  0  0  0  0  0  0  0
    2.1511   -5.3256    5.4363 C   0  0  0  0  0  0  0  0  0  0  0  0
    1.6246   -4.8516    4.2115 C   0  0  0  0  0  0  0  0  0  0  0  0
    2.3827   -3.6152    3.6711 C   0  0  2  0  0  0  0  0  0  0  0  0
    3.3590   -3.4149    4.8702 C   0  0  1  0  0  0  0  0  0  0  0  0
    3.5175   -4.7086    5.6246 C   0  0  0  0  0  0  0  0  0  0  0  0
    4.9463   -2.0148    6.8462 H   0  0  0  0  0  0  0  0  0  0  0  0
    6.1504   -1.4300    5.7171 H   0  0  0  0  0  0  0  0  0  0  0  0
    5.9914   -3.1494    5.9992 H   0  0  0  0  0  0  0  0  0  0  0  0
    4.9879   -2.5203    3.8067 H   0  0  0  0  0  0  0  0  0  0  0  0
    3.8798   -0.3010    5.3797 H   0  0  0  0  0  0  0  0  0  0  0  0
    4.0201   -0.4398    3.6601 H   0  0  0  0  0  0  0  0  0  0  0  0
    0.4012    0.0308    4.5175 H   0  0  0  0  0  0  0  0  0  0  0  0
    1.7352    0.7900    3.6314 H   0  0  0  0  0  0  0  0  0  0  0  0
    1.7599    0.7323    5.3800 H   0  0  0  0  0  0  0  0  0  0  0  0
    0.5786   -2.2827    3.7583 H   0  0  0  0  0  0  0  0  0  0  0  0
    0.9833   -1.7104    1.6042 H   0  0  0  0  0  0  0  0  0  0  0  0
    2.1976   -0.5860    2.0895 H   0  0  0  0  0  0  0  0  0  0  0  0
    5.2892   -5.3044   -0.8811 H   0  0  0  0  0  0  0  0  0  0  0  0
    6.0890   -3.6572   -2.5459 H   0  0  0  0  0  0  0  0  0  0  0  0
    5.3934   -1.2544   -2.3556 H   0  0  0  0  0  0  0  0  0  0  0  0
    3.8640   -0.5599   -0.5114 H   0  0  0  0  0  0  0  0  0  0  0  0
    2.6943   -5.9437    0.2603 H   0  0  0  0  0  0  0  0  0  0  0  0
    5.2427   -6.8588    0.6622 H   0  0  0  0  0  0  0  0  0  0  0  0
    4.2329   -9.1766    1.2093 H   0  0  0  0  0  0  0  0  0  0  0  0
    1.6030   -8.3083    0.8859 H   0  0  0  0  0  0  0  0  0  0  0  0
    1.9516   -9.8719    2.4401 H   0  0  0  0  0  0  0  0  0  0  0  0
    2.7779   -6.6333    3.1098 H   0  0  0  0  0  0  0  0  0  0  0  0
   -1.1690   -8.1380    4.0727 H   0  0  0  0  0  0  0  0  0  0  0  0
   -0.1873   -7.6798    6.0929 H   0  0  0  0  0  0  0  0  0  0  0  0
    1.8537   -6.6742    7.1039 H   0  0  0  0  0  0  0  0  0  0  0  0
    2.7549   -3.0162    5.6932 H   0  0  0  0  0  0  0  0  0  0  0  0
    3.7484   -4.5822    6.6862 H   0  0  0  0  0  0  0  0  0  0  0  0
    4.2655   -5.3415    5.1545 H   0  0  0  0  0  0  0  0  0  0  0  0
  1  2  1  0
  1 34  1  0
  1 35  1  0
  1 36  1  0
  2 32  1  0
  2  3  1  0
  2 37  1  6
  3  4  1  0
  3 38  1  0
  3 39  1  0
  4  5  1  0
  4  6  1  0
  5 40  1  0
  5 41  1  0
  5 42  1  0
  6 31  1  0
  6  7  1  0
  6 43  1  1
  7  8  1  0
  7 44  1  0
  7 45  1  0
  8 16  1  0
  8  9  2  0
 31  9  1  6
  9 10  1  0
 10 11  1  0
 10 17  1  0
 11 16  2  0
 11 12  1  0
 12 13  2  0
 12 46  1  0
 13 14  1  0
 13 47  1  0
 14 15  2  0
 14 48  1  0
 15 16  1  0
 15 49  1  0
 17 22  1  0
 17 18  1  0
 17 50  1  6
 18 19  2  0
 18 51  1  0
 19 20  1  0
 19 52  1  0
 20 21  1  0
 20 22  1  0
 20 53  1  6
 21 54  1  0
 22 23  1  0
 22 55  1  1
 23 24  1  0
 24 30  2  0
 24 25  1  0
 25 26  1  0
 25 27  2  0
 26 56  1  0
 27 28  1  0
 27 57  1  0
 28 29  2  0
 28 58  1  0
 29 33  1  0
 29 30  1  0
 30 31  1  0
 31 32  1  0
 32 33  1  0
 32 59  1  1
 33 60  1  0
 33 61  1  0
M  END
>  <i_m_ct_stereo_status>  (187) 
1

>  <s_m_source_file>  (187) 
/var/tmp/pbs.5076255.sched01/tmp6h9xbnrx/445q66801d.sdf

>  <i_m_source_file_index>  (187) 
36

>  <i_lp_mmshare_version>  (187) 
48012

>  <i_f3d_flags>  (187) 
0

>  <s_epik_input>  (187) 
W0NAQF0xMjNbQ0BIXTROKFtDSDNdKVtDSDJdW0NAQEhdKFtDSDNdKVtDQEBIXTNbQ0gyXWM1YzJjKGMoW09IXSlbY0hdW2NIXTUpT1tDQEBIXTZbQ0BIXShbQ0hdPVtDSF1bQ0BIXTZbT0hdKW43YzFjKFtDSDJdNCljOGM3W2NIXVtjSF1bY0hdW2NIXTg=

>  <s_epik_cmdline>  (187) 
J2VwaWtfcHl0aG9uJywgJy1waHQnLCAnMi4wJywgJy1waCcsICc3LjAnLCAnLXRuJywgJzgnLCAnLW1hJywgJzIwMCcsICctaW1hZScsICc8aW5maWxlLm1hZT4nLCAnLW9tYWUnLCAnPG91dGZpbGUubWFlPic=

>  <r_lp_tautomer_probability>  (187) 
1

>  <r_epik_Ionization_Penalty>  (187) 
1.93373

>  <r_epik_Ionization_Penalty_Charging>  (187) 
0

>  <r_epik_Ionization_Penalty_Neutral>  (187) 
1.93373

>  <r_epik_State_Penalty>  (187) 
2.05718

>  <r_epik_Charging_Adjusted_Penalty>  (187) 
2.05718

>  <i_epik_Tot_Q>  (187) 
0

>  <i_epik_Tot_abs_Q>  (187) 
0

>  <s_lp_Force_Field>  (187) 
OPLS3e

>  <r_lp_Energy>  (187) 
135.491

>  <b_lp_Chiralities_Consistent>  (187) 
1

>  <s_lp_Variant>  (187) 
49:0-4

>  <s_i_glide_gridfile>  (187) 
pfpi4k_grid

>  <i_i_glide_lignum>  (187) 
36

>  <i_i_glide_rotatable_bonds>  (187) 
2

>  <r_i_docking_score>  (187) 
-2.62951

>  <r_i_glide_ligand_efficiency>  (187) 
-0.079682

>  <r_i_glide_ligand_efficiency_sa>  (187) 
-0.255583

>  <r_i_glide_ligand_efficiency_ln>  (187) 
-0.584788

>  <r_i_glide_gscore>  (187) 
-2.62951

>  <r_i_glide_lipo>  (187) 
-0.376286

>  <r_i_glide_hbond>  (187) 
-0.0670653

>  <r_i_glide_metal>  (187) 
-0

>  <r_i_glide_rewards>  (187) 
-0.41884

>  <r_i_glide_evdw>  (187) 
-26.7181

>  <r_i_glide_ecoul>  (187) 
-2.87605

>  <r_i_glide_erotb>  (187) 
0

>  <r_i_glide_esite>  (187) 
0

>  <r_i_glide_emodel>  (187) 
-34.5103

>  <r_i_glide_energy>  (187) 
-29.5942

>  <r_i_glide_einternal>  (187) 
0.43148

>  <r_i_glide_intrahb_reward>  (187) 
-0

>  <i_i_glide_confnum>  (187) 
2

>  <i_i_glide_posenum>  (187) 
1

>  <r_i_glide_eff_state_penalty>  (187) 
0

>  <ligand_id>  (187) 
49

>  <original_smiles>  (187) 
CC1CN(C)C2Cc3c4n(c5ccccc35)C3C=CC(O)C3Oc3c(O)ccc5c3C42C1C5

>  <smiles>  (187) 
[H]Oc1c([H])c([H])c2c3c1OC1([H])C([H])(O[H])C([H])=C([H])C1([H])n1c4c(c5c([H])c([H])c([H])c([H])c51)C([H])([H])C1([H])N(C([H])([H])[H])C([H])([H])C([H])(C([H])([H])[H])C([H])(C2([H])[H])C341

$$$$
49:3:1
     RDKit          3D

 61 68  0  0  1  0  0  0  0  0999 V2000
    7.2338   -6.8304    3.5914 C   0  0  0  0  0  0  0  0  0  0  0  0
    5.7834   -6.6273    3.0884 C   0  0  2  0  0  0  0  0  0  0  0  0
    5.1810   -7.9704    2.5759 C   0  0  0  0  0  0  0  0  0  0  0  0
    4.6086   -7.8712    1.2084 N   0  0  0  0  0  0  0  0  0  0  0  0
    4.1820   -9.1796    0.7059 C   0  0  0  0  0  0  0  0  0  0  0  0
    3.6910   -6.7089    0.9642 C   0  0  1  0  0  0  0  0  0  0  0  0
    2.4085   -7.0478    1.7635 C   0  0  0  0  0  0  0  0  0  0  0  0
    2.2927   -6.0743    2.8595 C   0  0  0  0  0  0  0  0  0  0  0  0
    3.0875   -5.0015    2.5327 C   0  0  0  0  0  0  0  0  0  0  0  0
    2.7135   -3.9675    3.3665 N   0  0  0  0  0  0  0  0  0  0  0  0
    1.8729   -4.4840    4.3892 C   0  0  0  0  0  0  0  0  0  0  0  0
    1.2036   -3.8738    5.4787 C   0  0  0  0  0  0  0  0  0  0  0  0
    0.3753   -4.6449    6.3221 C   0  0  0  0  0  0  0  0  0  0  0  0
    0.1624   -6.0120    6.0541 C   0  0  0  0  0  0  0  0  0  0  0  0
    0.7485   -6.6051    4.9176 C   0  0  0  0  0  0  0  0  0  0  0  0
    1.5962   -5.8597    4.0753 C   0  0  0  0  0  0  0  0  0  0  0  0
    2.5303   -2.5836    2.9064 C   0  0  1  0  0  0  0  0  0  0  0  0
    2.8368   -1.4392    3.8322 C   0  0  0  0  0  0  0  0  0  0  0  0
    3.0024   -0.3197    3.1317 C   0  0  0  0  0  0  0  0  0  0  0  0
    2.8828   -0.5730    1.6484 C   0  0  1  0  0  0  0  0  0  0  0  0
    3.9101    0.1227    0.9796 O   0  0  0  0  0  0  0  0  0  0  0  0
    3.1069   -2.0994    1.6012 C   0  0  2  0  0  0  0  0  0  0  0  0
    2.5519   -2.8523    0.5045 O   0  0  0  0  0  0  0  0  0  0  0  0
    3.6101   -3.3601   -0.2062 C   0  0  0  0  0  0  0  0  0  0  0  0
    4.1286   -2.5345   -1.2324 C   0  0  0  0  0  0  0  0  0  0  0  0
    3.2963   -1.6998   -1.9122 O   0  0  0  0  0  0  0  0  0  0  0  0
    5.5260   -2.4224   -1.4586 C   0  0  0  0  0  0  0  0  0  0  0  0
    6.4412   -3.0066   -0.5602 C   0  0  0  0  0  0  0  0  0  0  0  0
    5.9323   -3.8564    0.4308 C   0  0  0  0  0  0  0  0  0  0  0  0
    4.5504   -4.1743    0.4479 C   0  0  0  0  0  0  0  0  0  0  0  0
    4.2054   -5.2826    1.4690 C   0  0  2  0  0  0  0  0  0  0  0  0
    5.6486   -5.6095    1.9434 C   0  0  1  0  0  0  0  0  0  0  0  0
    6.5481   -4.4340    1.6840 C   0  0  0  0  0  0  0  0  0  0  0  0
    7.9073   -7.2002    2.8148 H   0  0  0  0  0  0  0  0  0  0  0  0
    7.2583   -7.5536    4.4054 H   0  0  0  0  0  0  0  0  0  0  0  0
    7.6570   -5.9045    3.9809 H   0  0  0  0  0  0  0  0  0  0  0  0
    5.1847   -6.2617    3.9294 H   0  0  0  0  0  0  0  0  0  0  0  0
    5.9575   -8.7346    2.5387 H   0  0  0  0  0  0  0  0  0  0  0  0
    4.4494   -8.3442    3.2903 H   0  0  0  0  0  0  0  0  0  0  0  0
    3.8166   -9.1175   -0.3192 H   0  0  0  0  0  0  0  0  0  0  0  0
    3.4152   -9.6683    1.3109 H   0  0  0  0  0  0  0  0  0  0  0  0
    5.0382   -9.8517    0.6933 H   0  0  0  0  0  0  0  0  0  0  0  0
    3.4544   -6.6473   -0.1044 H   0  0  0  0  0  0  0  0  0  0  0  0
    1.5513   -6.9315    1.1116 H   0  0  0  0  0  0  0  0  0  0  0  0
    2.3336   -8.0545    2.1671 H   0  0  0  0  0  0  0  0  0  0  0  0
    1.3280   -2.8261    5.6771 H   0  0  0  0  0  0  0  0  0  0  0  0
   -0.0887   -4.1848    7.1951 H   0  0  0  0  0  0  0  0  0  0  0  0
   -0.4431   -6.6158    6.7173 H   0  0  0  0  0  0  0  0  0  0  0  0
    0.5737   -7.6441    4.6879 H   0  0  0  0  0  0  0  0  0  0  0  0
    1.4616   -2.4831    2.7826 H   0  0  0  0  0  0  0  0  0  0  0  0
    2.9023   -1.5163    4.9062 H   0  0  0  0  0  0  0  0  0  0  0  0
    3.2612    0.6469    3.5505 H   0  0  0  0  0  0  0  0  0  0  0  0
    1.8827   -0.2781    1.3171 H   0  0  0  0  0  0  0  0  0  0  0  0
    3.7129    1.0496    1.0216 H   0  0  0  0  0  0  0  0  0  0  0  0
    4.1852   -2.2013    1.7472 H   0  0  0  0  0  0  0  0  0  0  0  0
    2.4337   -1.5986   -1.5093 H   0  0  0  0  0  0  0  0  0  0  0  0
    5.8766   -1.7473   -2.2195 H   0  0  0  0  0  0  0  0  0  0  0  0
    7.5049   -2.7786   -0.5963 H   0  0  0  0  0  0  0  0  0  0  0  0
    6.1300   -6.1468    1.1176 H   0  0  0  0  0  0  0  0  0  0  0  0
    7.5986   -4.6929    1.5193 H   0  0  0  0  0  0  0  0  0  0  0  0
    6.4499   -3.7025    2.4803 H   0  0  0  0  0  0  0  0  0  0  0  0
  1  2  1  0
  1 34  1  0
  1 35  1  0
  1 36  1  0
  2 32  1  0
  2  3  1  0
  2 37  1  1
  3  4  1  0
  3 38  1  0
  3 39  1  0
  4  5  1  0
  4  6  1  0
  5 40  1  0
  5 41  1  0
  5 42  1  0
  6 31  1  0
  6  7  1  0
  6 43  1  6
  7  8  1  0
  7 44  1  0
  7 45  1  0
  8 16  1  0
  8  9  2  0
 31  9  1  1
  9 10  1  0
 10 11  1  0
 10 17  1  0
 11 16  2  0
 11 12  1  0
 12 13  2  0
 12 46  1  0
 13 14  1  0
 13 47  1  0
 14 15  2  0
 14 48  1  0
 15 16  1  0
 15 49  1  0
 17 22  1  0
 17 18  1  0
 17 50  1  6
 18 19  2  0
 18 51  1  0
 19 20  1  0
 19 52  1  0
 20 21  1  0
 20 22  1  0
 20 53  1  6
 21 54  1  0
 22 23  1  0
 22 55  1  1
 23 24  1  0
 24 30  2  0
 24 25  1  0
 25 26  1  0
 25 27  2  0
 26 56  1  0
 27 28  1  0
 27 57  1  0
 28 29  2  0
 28 58  1  0
 29 33  1  0
 29 30  1  0
 30 31  1  0
 31 32  1  0
 32 33  1  0
 32 59  1  6
 33 60  1  0
 33 61  1  0
M  END
>  <i_m_ct_stereo_status>  (188) 
1

>  <s_m_source_file>  (188) 
/var/tmp/pbs.5076255.sched01/tmp6h9xbnrx/445q66801d.sdf

>  <i_m_source_file_index>  (188) 
36

>  <i_lp_mmshare_version>  (188) 
48012

>  <i_f3d_flags>  (188) 
0

>  <s_epik_input>  (188) 
W0NAQF0xMjNbQ0BIXTROKFtDSDNdKVtDSDJdW0NAQEhdKFtDSDNdKVtDQEBIXTNbQ0gyXWM1YzJjKGMoW09IXSlbY0hdW2NIXTUpT1tDQEBIXTZbQ0BIXShbQ0hdPVtDSF1bQ0BIXTZbT0hdKW43YzFjKFtDSDJdNCljOGM3W2NIXVtjSF1bY0hdW2NIXTg=

>  <s_epik_cmdline>  (188) 
J2VwaWtfcHl0aG9uJywgJy1waHQnLCAnMi4wJywgJy1waCcsICc3LjAnLCAnLXRuJywgJzgnLCAnLW1hJywgJzIwMCcsICctaW1hZScsICc8aW5maWxlLm1hZT4nLCAnLW9tYWUnLCAnPG91dGZpbGUubWFlPic=

>  <r_lp_tautomer_probability>  (188) 
1

>  <r_epik_Ionization_Penalty>  (188) 
1.93373

>  <r_epik_Ionization_Penalty_Charging>  (188) 
0

>  <r_epik_Ionization_Penalty_Neutral>  (188) 
1.93373

>  <r_epik_State_Penalty>  (188) 
2.05718

>  <r_epik_Charging_Adjusted_Penalty>  (188) 
2.05718

>  <i_epik_Tot_Q>  (188) 
0

>  <i_epik_Tot_abs_Q>  (188) 
0

>  <s_lp_Force_Field>  (188) 
OPLS3e

>  <r_lp_Energy>  (188) 
135.491

>  <b_lp_Chiralities_Consistent>  (188) 
1

>  <s_lp_Variant>  (188) 
49:0-4

>  <s_i_glide_gridfile>  (188) 
pfpi4k_grid

>  <i_i_glide_lignum>  (188) 
36

>  <i_i_glide_rotatable_bonds>  (188) 
2

>  <r_i_docking_score>  (188) 
-2.57824

>  <r_i_glide_ligand_efficiency>  (188) 
-0.0781284

>  <r_i_glide_ligand_efficiency_sa>  (188) 
-0.250599

>  <r_i_glide_ligand_efficiency_ln>  (188) 
-0.573386

>  <r_i_glide_gscore>  (188) 
-2.57824

>  <r_i_glide_lipo>  (188) 
-0.406127

>  <r_i_glide_hbond>  (188) 
0

>  <r_i_glide_metal>  (188) 
-0

>  <r_i_glide_rewards>  (188) 
-0.406122

>  <r_i_glide_evdw>  (188) 
-27.0572

>  <r_i_glide_ecoul>  (188) 
-2.75418

>  <r_i_glide_erotb>  (188) 
0

>  <r_i_glide_esite>  (188) 
0

>  <r_i_glide_emodel>  (188) 
-34.4532

>  <r_i_glide_energy>  (188) 
-29.8114

>  <r_i_glide_einternal>  (188) 
0.607968

>  <r_i_glide_intrahb_reward>  (188) 
-0

>  <i_i_glide_confnum>  (188) 
2

>  <i_i_glide_posenum>  (188) 
2

>  <r_i_glide_eff_state_penalty>  (188) 
0

>  <ligand_id>  (188) 
49

>  <original_smiles>  (188) 
CC1CN(C)C2Cc3c4n(c5ccccc35)C3C=CC(O)C3Oc3c(O)ccc5c3C42C1C5

>  <smiles>  (188) 
[H]Oc1c([H])c([H])c2c3c1OC1([H])C([H])(O[H])C([H])=C([H])C1([H])n1c4c(c5c([H])c([H])c([H])c([H])c51)C([H])([H])C1([H])N(C([H])([H])[H])C([H])([H])C([H])(C([H])([H])[H])C([H])(C2([H])[H])C341

$$$$
49:3:2
     RDKit          3D

 61 68  0  0  1  0  0  0  0  0999 V2000
    7.0629   -7.0673    3.7869 C   0  0  0  0  0  0  0  0  0  0  0  0
    5.6778   -6.8157    3.1453 C   0  0  2  0  0  0  0  0  0  0  0  0
    5.0525   -8.1516    2.6406 C   0  0  0  0  0  0  0  0  0  0  0  0
    4.6108   -8.0908    1.2265 N   0  0  0  0  0  0  0  0  0  0  0  0
    4.1587   -9.3970    0.7389 C   0  0  0  0  0  0  0  0  0  0  0  0
    3.7874   -6.8973    0.8496 C   0  0  1  0  0  0  0  0  0  0  0  0
    2.4165   -7.1310    1.5371 C   0  0  0  0  0  0  0  0  0  0  0  0
    2.2556   -6.1023    2.5771 C   0  0  0  0  0  0  0  0  0  0  0  0
    3.1347   -5.0871    2.2805 C   0  0  0  0  0  0  0  0  0  0  0  0
    2.7398   -3.9974    3.0260 N   0  0  0  0  0  0  0  0  0  0  0  0
    1.7889   -4.4225    3.9921 C   0  0  0  0  0  0  0  0  0  0  0  0
    1.0637   -3.7304    4.9893 C   0  0  0  0  0  0  0  0  0  0  0  0
    0.1252   -4.4186    5.7882 C   0  0  0  0  0  0  0  0  0  0  0  0
   -0.1419   -5.7832    5.5552 C   0  0  0  0  0  0  0  0  0  0  0  0
    0.5100   -6.4577    4.5046 C   0  0  0  0  0  0  0  0  0  0  0  0
    1.4685   -5.7972    3.7115 C   0  0  0  0  0  0  0  0  0  0  0  0
    2.6743   -2.6294    2.4947 C   0  0  1  0  0  0  0  0  0  0  0  0
    2.9620   -1.4597    3.3958 C   0  0  0  0  0  0  0  0  0  0  0  0
    3.2491   -0.3840    2.6679 C   0  0  0  0  0  0  0  0  0  0  0  0
    3.2442   -0.7013    1.1930 C   0  0  1  0  0  0  0  0  0  0  0  0
    4.3628   -0.0895    0.5889 O   0  0  0  0  0  0  0  0  0  0  0  0
    3.3851   -2.2393    1.2252 C   0  0  2  0  0  0  0  0  0  0  0  0
    2.8923   -3.0169    0.1151 O   0  0  0  0  0  0  0  0  0  0  0  0
    3.9838   -3.6052   -0.4722 C   0  0  0  0  0  0  0  0  0  0  0  0
    4.6430   -2.8599   -1.4830 C   0  0  0  0  0  0  0  0  0  0  0  0
    3.9166   -2.0482   -2.2992 O   0  0  0  0  0  0  0  0  0  0  0  0
    6.0602   -2.8186   -1.5719 C   0  0  0  0  0  0  0  0  0  0  0  0
    6.8524   -3.4004   -0.5670 C   0  0  0  0  0  0  0  0  0  0  0  0
    6.2084   -4.1798    0.4010 C   0  0  0  0  0  0  0  0  0  0  0  0
    4.8187   -4.4333    0.2990 C   0  0  0  0  0  0  0  0  0  0  0  0
    4.3245   -5.4713    1.3332 C   0  0  2  0  0  0  0  0  0  0  0  0
    5.7003   -5.8484    1.9502 C   0  0  1  0  0  0  0  0  0  0  0  0
    6.6802   -4.7318    1.7241 C   0  0  0  0  0  0  0  0  0  0  0  0
    7.7805   -7.5059    3.0906 H   0  0  0  0  0  0  0  0  0  0  0  0
    6.9766   -7.7518    4.6296 H   0  0  0  0  0  0  0  0  0  0  0  0
    7.4991   -6.1464    4.1724 H   0  0  0  0  0  0  0  0  0  0  0  0
    5.0266   -6.3832    3.9103 H   0  0  0  0  0  0  0  0  0  0  0  0
    5.7864   -8.9545    2.7055 H   0  0  0  0  0  0  0  0  0  0  0  0
    4.2392   -8.4546    3.2979 H   0  0  0  0  0  0  0  0  0  0  0  0
    3.8778   -9.3613   -0.3139 H   0  0  0  0  0  0  0  0  0  0  0  0
    3.3198   -9.8166    1.2970 H   0  0  0  0  0  0  0  0  0  0  0  0
    4.9822  -10.1037    0.8315 H   0  0  0  0  0  0  0  0  0  0  0  0
    3.6933   -6.8840   -0.2384 H   0  0  0  0  0  0  0  0  0  0  0  0
    1.6251   -7.0002    0.8076 H   0  0  0  0  0  0  0  0  0  0  0  0
    2.2516   -8.1139    1.9747 H   0  0  0  0  0  0  0  0  0  0  0  0
    1.2203   -2.6796    5.1489 H   0  0  0  0  0  0  0  0  0  0  0  0
   -0.3917   -3.8934    6.5890 H   0  0  0  0  0  0  0  0  0  0  0  0
   -0.8448   -6.3124    6.1822 H   0  0  0  0  0  0  0  0  0  0  0  0
    0.2971   -7.4956    4.3035 H   0  0  0  0  0  0  0  0  0  0  0  0
    1.6264   -2.4825    2.2701 H   0  0  0  0  0  0  0  0  0  0  0  0
    2.9237   -1.4893    4.4741 H   0  0  0  0  0  0  0  0  0  0  0  0
    3.5161    0.5890    3.0633 H   0  0  0  0  0  0  0  0  0  0  0  0
    2.2922   -0.3650    0.7727 H   0  0  0  0  0  0  0  0  0  0  0  0
    4.1587    0.8260    0.4538 H   0  0  0  0  0  0  0  0  0  0  0  0
    4.4391   -2.3862    1.4704 H   0  0  0  0  0  0  0  0  0  0  0  0
    4.4396   -1.4751   -2.8351 H   0  0  0  0  0  0  0  0  0  0  0  0
    6.5356   -2.2202   -2.3285 H   0  0  0  0  0  0  0  0  0  0  0  0
    7.9233   -3.2342   -0.5238 H   0  0  0  0  0  0  0  0  0  0  0  0
    6.2232   -6.4470    1.1950 H   0  0  0  0  0  0  0  0  0  0  0  0
    7.7252   -5.0518    1.6665 H   0  0  0  0  0  0  0  0  0  0  0  0
    6.5578   -3.9644    2.4824 H   0  0  0  0  0  0  0  0  0  0  0  0
  1  2  1  0
  1 34  1  0
  1 35  1  0
  1 36  1  0
  2 32  1  0
  2  3  1  0
  2 37  1  1
  3  4  1  0
  3 38  1  0
  3 39  1  0
  4  5  1  0
  4  6  1  0
  5 40  1  0
  5 41  1  0
  5 42  1  0
  6 31  1  0
  6  7  1  0
  6 43  1  6
  7  8  1  0
  7 44  1  0
  7 45  1  0
  8 16  1  0
  8  9  2  0
 31  9  1  1
  9 10  1  0
 10 11  1  0
 10 17  1  0
 11 16  2  0
 11 12  1  0
 12 13  2  0
 12 46  1  0
 13 14  1  0
 13 47  1  0
 14 15  2  0
 14 48  1  0
 15 16  1  0
 15 49  1  0
 17 22  1  0
 17 18  1  0
 17 50  1  6
 18 19  2  0
 18 51  1  0
 19 20  1  0
 19 52  1  0
 20 21  1  0
 20 22  1  0
 20 53  1  6
 21 54  1  0
 22 23  1  0
 22 55  1  1
 23 24  1  0
 24 30  2  0
 24 25  1  0
 25 26  1  0
 25 27  2  0
 26 56  1  0
 27 28  1  0
 27 57  1  0
 28 29  2  0
 28 58  1  0
 29 33  1  0
 29 30  1  0
 30 31  1  0
 31 32  1  0
 32 33  1  0
 32 59  1  6
 33 60  1  0
 33 61  1  0
M  END
>  <i_m_ct_stereo_status>  (189) 
1

>  <s_m_source_file>  (189) 
/var/tmp/pbs.5076255.sched01/tmp6h9xbnrx/445q66801d.sdf

>  <i_m_source_file_index>  (189) 
36

>  <i_lp_mmshare_version>  (189) 
48012

>  <i_f3d_flags>  (189) 
0

>  <s_epik_input>  (189) 
W0NAQF0xMjNbQ0BIXTROKFtDSDNdKVtDSDJdW0NAQEhdKFtDSDNdKVtDQEBIXTNbQ0gyXWM1YzJjKGMoW09IXSlbY0hdW2NIXTUpT1tDQEBIXTZbQ0BIXShbQ0hdPVtDSF1bQ0BIXTZbT0hdKW43YzFjKFtDSDJdNCljOGM3W2NIXVtjSF1bY0hdW2NIXTg=

>  <s_epik_cmdline>  (189) 
J2VwaWtfcHl0aG9uJywgJy1waHQnLCAnMi4wJywgJy1waCcsICc3LjAnLCAnLXRuJywgJzgnLCAnLW1hJywgJzIwMCcsICctaW1hZScsICc8aW5maWxlLm1hZT4nLCAnLW9tYWUnLCAnPG91dGZpbGUubWFlPic=

>  <r_lp_tautomer_probability>  (189) 
1

>  <r_epik_Ionization_Penalty>  (189) 
1.93373

>  <r_epik_Ionization_Penalty_Charging>  (189) 
0

>  <r_epik_Ionization_Penalty_Neutral>  (189) 
1.93373

>  <r_epik_State_Penalty>  (189) 
2.05718

>  <r_epik_Charging_Adjusted_Penalty>  (189) 
2.05718

>  <i_epik_Tot_Q>  (189) 
0

>  <i_epik_Tot_abs_Q>  (189) 
0

>  <s_lp_Force_Field>  (189) 
OPLS3e

>  <r_lp_Energy>  (189) 
135.491

>  <b_lp_Chiralities_Consistent>  (189) 
1

>  <s_lp_Variant>  (189) 
49:0-4

>  <s_i_glide_gridfile>  (189) 
pfpi4k_grid

>  <i_i_glide_lignum>  (189) 
36

>  <i_i_glide_rotatable_bonds>  (189) 
2

>  <r_i_docking_score>  (189) 
-2.23682

>  <r_i_glide_ligand_efficiency>  (189) 
-0.0677826

>  <r_i_glide_ligand_efficiency_sa>  (189) 
-0.217415

>  <r_i_glide_ligand_efficiency_ln>  (189) 
-0.497458

>  <r_i_glide_gscore>  (189) 
-2.23682

>  <r_i_glide_lipo>  (189) 
-0.554209

>  <r_i_glide_hbond>  (189) 
0

>  <r_i_glide_metal>  (189) 
-0

>  <r_i_glide_rewards>  (189) 
-0.405453

>  <r_i_glide_evdw>  (189) 
-27.9191

>  <r_i_glide_ecoul>  (189) 
0.799215

>  <r_i_glide_erotb>  (189) 
0

>  <r_i_glide_esite>  (189) 
-0.00109014

>  <r_i_glide_emodel>  (189) 
-31.2763

>  <r_i_glide_energy>  (189) 
-27.1199

>  <r_i_glide_einternal>  (189) 
0.283536

>  <r_i_glide_intrahb_reward>  (189) 
-0

>  <i_i_glide_confnum>  (189) 
2

>  <i_i_glide_posenum>  (189) 
24

>  <r_i_glide_eff_state_penalty>  (189) 
0

>  <ligand_id>  (189) 
49

>  <original_smiles>  (189) 
CC1CN(C)C2Cc3c4n(c5ccccc35)C3C=CC(O)C3Oc3c(O)ccc5c3C42C1C5

>  <smiles>  (189) 
[H]Oc1c([H])c([H])c2c3c1OC1([H])C([H])(O[H])C([H])=C([H])C1([H])n1c4c(c5c([H])c([H])c([H])c([H])c51)C([H])([H])C1([H])N(C([H])([H])[H])C([H])([H])C([H])(C([H])([H])[H])C([H])(C2([H])[H])C341

$$$$
52:0:0
     RDKit          3D

 24 26  0  0  1  0  0  0  0  0999 V2000
    6.5862   -3.9125    1.2520 C   0  0  0  0  0  0  0  0  0  0  0  0
    5.9928   -3.6820   -0.0649 N   0  0  0  0  0  0  0  0  0  0  0  0
    4.9047   -4.3082   -0.5331 C   0  0  0  0  0  0  0  0  0  0  0  0
    4.2436   -5.1568    0.0667 O   0  0  0  0  0  0  0  0  0  0  0  0
    4.5642   -3.8275   -1.9433 C   0  0  2  0  0  0  0  0  0  0  0  0
    5.6417   -2.7507   -2.2139 C   0  0  2  0  0  0  0  0  0  0  0  0
    6.4521   -2.7610   -0.9195 C   0  0  0  0  0  0  0  0  0  0  0  0
    7.3960   -1.9979   -0.7172 O   0  0  0  0  0  0  0  0  0  0  0  0
    4.7941   -1.4707   -2.4617 C   0  0  1  0  0  0  0  0  0  0  0  0
    4.0323   -1.6854   -3.7550 C   0  0  0  0  0  0  0  0  0  0  0  0
    3.1052   -2.6192   -3.5200 C   0  0  0  0  0  0  0  0  0  0  0  0
    3.2382   -3.0256   -2.0678 C   0  0  2  0  0  0  0  0  0  0  0  0
    3.6362   -1.6664   -1.4755 C   0  0  0  0  0  0  0  0  0  0  0  0
    6.1100   -4.7296    1.7921 H   0  0  0  0  0  0  0  0  0  0  0  0
    6.5038   -3.0177    1.8665 H   0  0  0  0  0  0  0  0  0  0  0  0
    7.6446   -4.1559    1.1585 H   0  0  0  0  0  0  0  0  0  0  0  0
    4.6192   -4.6553   -2.6497 H   0  0  0  0  0  0  0  0  0  0  0  0
    6.2787   -3.0036   -3.0634 H   0  0  0  0  0  0  0  0  0  0  0  0
    5.3037   -0.5106   -2.3770 H   0  0  0  0  0  0  0  0  0  0  0  0
    4.2439   -1.1792   -4.6856 H   0  0  0  0  0  0  0  0  0  0  0  0
    2.3951   -3.0433   -4.2153 H   0  0  0  0  0  0  0  0  0  0  0  0
    2.3444   -3.4814   -1.6379 H   0  0  0  0  0  0  0  0  0  0  0  0
    3.9187   -1.6845   -0.4206 H   0  0  0  0  0  0  0  0  0  0  0  0
    2.8624   -0.9078   -1.5972 H   0  0  0  0  0  0  0  0  0  0  0  0
  1 14  1  0
  1 15  1  0
  1 16  1  0
  1  2  1  0
  2  7  1  0
  2  3  1  0
  3  4  2  0
  3  5  1  0
  5 12  1  0
  5 17  1  6
  5  6  1  0
  6  9  1  0
  6 18  1  6
  6  7  1  0
  7  8  2  0
  9 13  1  0
  9 10  1  0
  9 19  1  6
 10 11  2  0
 10 20  1  0
 11 12  1  0
 11 21  1  0
 12 13  1  0
 12 22  1  1
 13 23  1  0
 13 24  1  0
M  END
>  <i_m_ct_stereo_status>  (190) 
1

>  <s_m_source_file>  (190) 
/var/tmp/pbs.5076255.sched01/tmp6h9xbnrx/445q66801d.sdf

>  <i_m_source_file_index>  (190) 
40

>  <i_lp_mmshare_version>  (190) 
48012

>  <i_f3d_flags>  (190) 
0

>  <s_epik_input>  (190) 
W09IXWMxbihbQ0gzXSljKFtPSF0pYyhjMTIpW0NASF0zW0NIXT1bQ0hdW0NAQEhdMltDSDJdMw==

>  <s_epik_cmdline>  (190) 
J2VwaWtfcHl0aG9uJywgJy1waHQnLCAnMi4wJywgJy1waCcsICc3LjAnLCAnLXRuJywgJzgnLCAnLW1hJywgJzIwMCcsICctaW1hZScsICc8aW5maWxlLm1hZT4nLCAnLW9tYWUnLCAnPG91dGZpbGUubWFlPic=

>  <r_lp_tautomer_probability>  (190) 
1

>  <r_epik_Ionization_Penalty>  (190) 
7.33081e-11

>  <r_epik_Ionization_Penalty_Charging>  (190) 
0

>  <r_epik_Ionization_Penalty_Neutral>  (190) 
7.33081e-11

>  <r_epik_State_Penalty>  (190) 
-0

>  <r_epik_Charging_Adjusted_Penalty>  (190) 
0

>  <i_epik_Tot_Q>  (190) 
0

>  <i_epik_Tot_abs_Q>  (190) 
0

>  <s_lp_Force_Field>  (190) 
OPLS3e

>  <r_lp_Energy>  (190) 
16.4568

>  <b_lp_Chiralities_Consistent>  (190) 
1

>  <s_lp_Variant>  (190) 
52:0-1

>  <s_i_glide_gridfile>  (190) 
pfpi4k_grid

>  <i_i_glide_lignum>  (190) 
40

>  <i_i_glide_rotatable_bonds>  (190) 
0

>  <r_i_docking_score>  (190) 
-4.41544

>  <r_i_glide_ligand_efficiency>  (190) 
-0.339649

>  <r_i_glide_ligand_efficiency_sa>  (190) 
-0.798629

>  <r_i_glide_ligand_efficiency_ln>  (190) 
-1.23857

>  <r_i_glide_gscore>  (190) 
-4.41544

>  <r_i_glide_lipo>  (190) 
-0.527895

>  <r_i_glide_hbond>  (190) 
-0.16

>  <r_i_glide_metal>  (190) 
-0

>  <r_i_glide_rewards>  (190) 
-2.34841

>  <r_i_glide_evdw>  (190) 
-18.4456

>  <r_i_glide_ecoul>  (190) 
-2.98788

>  <r_i_glide_erotb>  (190) 
0

>  <r_i_glide_esite>  (190) 
-0.00867263

>  <r_i_glide_emodel>  (190) 
-27.5172

>  <r_i_glide_energy>  (190) 
-21.4335

>  <r_i_glide_einternal>  (190) 
0

>  <r_i_glide_intrahb_reward>  (190) 
-0

>  <i_i_glide_confnum>  (190) 
2

>  <i_i_glide_posenum>  (190) 
32

>  <r_i_glide_eff_state_penalty>  (190) 
0

>  <ligand_id>  (190) 
52

>  <original_smiles>  (190) 
Cn1c(O)c2c(c1O)C1C=CC2C1

>  <smiles>  (190) 
[H]C1=C([H])C2([H])C([H])([H])C1([H])C1([H])C(=O)N(C([H])([H])[H])C(=O)C21[H]

$$$$
52:0:1
     RDKit          3D

 24 26  0  0  1  0  0  0  0  0999 V2000
    5.5135   -2.4130    2.1369 C   0  0  0  0  0  0  0  0  0  0  0  0
    5.1832   -2.7046    0.7452 N   0  0  0  0  0  0  0  0  0  0  0  0
    4.1372   -3.4494    0.3518 C   0  0  0  0  0  0  0  0  0  0  0  0
    3.3046   -3.9894    1.0794 O   0  0  0  0  0  0  0  0  0  0  0  0
    4.0948   -3.5596   -1.1690 C   0  0  2  0  0  0  0  0  0  0  0  0
    5.3008   -2.7031   -1.6190 C   0  0  2  0  0  0  0  0  0  0  0  0
    5.8772   -2.2182   -0.2927 C   0  0  0  0  0  0  0  0  0  0  0  0
    6.8562   -1.4733   -0.2334 O   0  0  0  0  0  0  0  0  0  0  0  0
    4.6363   -1.6049   -2.4977 C   0  0  1  0  0  0  0  0  0  0  0  0
    4.0916   -2.3026   -3.7263 C   0  0  0  0  0  0  0  0  0  0  0  0
    3.0503   -3.0455   -3.3402 C   0  0  0  0  0  0  0  0  0  0  0  0
    2.8920   -2.8453   -1.8479 C   0  0  2  0  0  0  0  0  0  0  0  0
    3.3129   -1.3681   -1.7611 C   0  0  0  0  0  0  0  0  0  0  0  0
    4.8736   -2.9453    2.8407 H   0  0  0  0  0  0  0  0  0  0  0  0
    5.4143   -1.3457    2.3350 H   0  0  0  0  0  0  0  0  0  0  0  0
    6.5422   -2.7050    2.3418 H   0  0  0  0  0  0  0  0  0  0  0  0
    4.1985   -4.6021   -1.4654 H   0  0  0  0  0  0  0  0  0  0  0  0
    6.0475   -3.2803   -2.1648 H   0  0  0  0  0  0  0  0  0  0  0  0
    5.2195   -0.7062   -2.6972 H   0  0  0  0  0  0  0  0  0  0  0  0
    4.5148   -2.2169   -4.7128 H   0  0  0  0  0  0  0  0  0  0  0  0
    2.4361   -3.7039   -3.9388 H   0  0  0  0  0  0  0  0  0  0  0  0
    1.8981   -3.0684   -1.4593 H   0  0  0  0  0  0  0  0  0  0  0  0
    3.4103   -0.9788   -0.7473 H   0  0  0  0  0  0  0  0  0  0  0  0
    2.6368   -0.7061   -2.3097 H   0  0  0  0  0  0  0  0  0  0  0  0
  1 14  1  0
  1 15  1  0
  1 16  1  0
  1  2  1  0
  2  7  1  0
  2  3  1  0
  3  4  2  0
  3  5  1  0
  5 12  1  0
  5 17  1  1
  5  6  1  0
  6  9  1  0
  6 18  1  6
  6  7  1  0
  7  8  2  0
  9 13  1  0
  9 10  1  0
  9 19  1  6
 10 11  2  0
 10 20  1  0
 11 12  1  0
 11 21  1  0
 12 13  1  0
 12 22  1  1
 13 23  1  0
 13 24  1  0
M  END
>  <i_m_ct_stereo_status>  (191) 
1

>  <s_m_source_file>  (191) 
/var/tmp/pbs.5076255.sched01/tmp6h9xbnrx/445q66801d.sdf

>  <i_m_source_file_index>  (191) 
40

>  <i_lp_mmshare_version>  (191) 
48012

>  <i_f3d_flags>  (191) 
0

>  <s_epik_input>  (191) 
W09IXWMxbihbQ0gzXSljKFtPSF0pYyhjMTIpW0NASF0zW0NIXT1bQ0hdW0NAQEhdMltDSDJdMw==

>  <s_epik_cmdline>  (191) 
J2VwaWtfcHl0aG9uJywgJy1waHQnLCAnMi4wJywgJy1waCcsICc3LjAnLCAnLXRuJywgJzgnLCAnLW1hJywgJzIwMCcsICctaW1hZScsICc8aW5maWxlLm1hZT4nLCAnLW9tYWUnLCAnPG91dGZpbGUubWFlPic=

>  <r_lp_tautomer_probability>  (191) 
1

>  <r_epik_Ionization_Penalty>  (191) 
7.33081e-11

>  <r_epik_Ionization_Penalty_Charging>  (191) 
0

>  <r_epik_Ionization_Penalty_Neutral>  (191) 
7.33081e-11

>  <r_epik_State_Penalty>  (191) 
-0

>  <r_epik_Charging_Adjusted_Penalty>  (191) 
0

>  <i_epik_Tot_Q>  (191) 
0

>  <i_epik_Tot_abs_Q>  (191) 
0

>  <s_lp_Force_Field>  (191) 
OPLS3e

>  <r_lp_Energy>  (191) 
16.4568

>  <b_lp_Chiralities_Consistent>  (191) 
1

>  <s_lp_Variant>  (191) 
52:0-1

>  <s_i_glide_gridfile>  (191) 
pfpi4k_grid

>  <i_i_glide_lignum>  (191) 
40

>  <i_i_glide_rotatable_bonds>  (191) 
0

>  <r_i_docking_score>  (191) 
-3.73404

>  <r_i_glide_ligand_efficiency>  (191) 
-0.287234

>  <r_i_glide_ligand_efficiency_sa>  (191) 
-0.675383

>  <r_i_glide_ligand_efficiency_ln>  (191) 
-1.04743

>  <r_i_glide_gscore>  (191) 
-3.73404

>  <r_i_glide_lipo>  (191) 
-0.335897

>  <r_i_glide_hbond>  (191) 
-0.115945

>  <r_i_glide_metal>  (191) 
-0

>  <r_i_glide_rewards>  (191) 
-2.27835

>  <r_i_glide_evdw>  (191) 
-16.4874

>  <r_i_glide_ecoul>  (191) 
-1.11157

>  <r_i_glide_erotb>  (191) 
0

>  <r_i_glide_esite>  (191) 
-0.0127463

>  <r_i_glide_emodel>  (191) 
-22.746

>  <r_i_glide_energy>  (191) 
-17.599

>  <r_i_glide_einternal>  (191) 
0

>  <r_i_glide_intrahb_reward>  (191) 
-0

>  <i_i_glide_confnum>  (191) 
1

>  <i_i_glide_posenum>  (191) 
2

>  <r_i_glide_eff_state_penalty>  (191) 
0

>  <ligand_id>  (191) 
52

>  <original_smiles>  (191) 
Cn1c(O)c2c(c1O)C1C=CC2C1

>  <smiles>  (191) 
[H]C1=C([H])C2([H])C([H])([H])C1([H])C1([H])C(=O)N(C([H])([H])[H])C(=O)C21[H]

$$$$
52:0:2
     RDKit          3D

 24 26  0  0  1  0  0  0  0  0999 V2000
    4.2056   -0.4317   -3.0607 C   0  0  0  0  0  0  0  0  0  0  0  0
    4.3754   -1.6236   -2.2312 N   0  0  0  0  0  0  0  0  0  0  0  0
    5.1315   -1.6900   -1.1260 C   0  0  0  0  0  0  0  0  0  0  0  0
    5.8144   -0.7890   -0.6478 O   0  0  0  0  0  0  0  0  0  0  0  0
    5.0938   -3.0777   -0.5053 C   0  0  2  0  0  0  0  0  0  0  0  0
    4.1285   -3.8377   -1.4395 C   0  0  2  0  0  0  0  0  0  0  0  0
    3.7457   -2.7795   -2.4757 C   0  0  0  0  0  0  0  0  0  0  0  0
    2.9878   -3.0048   -3.4192 O   0  0  0  0  0  0  0  0  0  0  0  0
    2.9934   -4.2706   -0.4696 C   0  0  1  0  0  0  0  0  0  0  0  0
    3.6021   -5.2825    0.4810 C   0  0  0  0  0  0  0  0  0  0  0  0
    4.4356   -4.6192    1.2887 C   0  0  0  0  0  0  0  0  0  0  0  0
    4.3915   -3.1629    0.8773 C   0  0  2  0  0  0  0  0  0  0  0  0
    2.9091   -3.0664    0.4806 C   0  0  0  0  0  0  0  0  0  0  0  0
    4.8197    0.3983   -2.7198 H   0  0  0  0  0  0  0  0  0  0  0  0
    3.1699   -0.0950   -3.0411 H   0  0  0  0  0  0  0  0  0  0  0  0
    4.4598   -0.6421   -4.0994 H   0  0  0  0  0  0  0  0  0  0  0  0
    6.0987   -3.5038   -0.4949 H   0  0  0  0  0  0  0  0  0  0  0  0
    4.6158   -4.6781   -1.9346 H   0  0  0  0  0  0  0  0  0  0  0  0
    2.0539   -4.5756   -0.9285 H   0  0  0  0  0  0  0  0  0  0  0  0
    3.4110   -6.3452    0.4563 H   0  0  0  0  0  0  0  0  0  0  0  0
    5.0699   -5.0225    2.0659 H   0  0  0  0  0  0  0  0  0  0  0  0
    4.7201   -2.4568    1.6385 H   0  0  0  0  0  0  0  0  0  0  0  0
    2.6164   -2.1276    0.0074 H   0  0  0  0  0  0  0  0  0  0  0  0
    2.2346   -3.2374    1.3233 H   0  0  0  0  0  0  0  0  0  0  0  0
  1 14  1  0
  1 15  1  0
  1 16  1  0
  1  2  1  0
  2  7  1  0
  2  3  1  0
  3  4  2  0
  3  5  1  0
  5 12  1  0
  5 17  1  1
  5  6  1  0
  6  9  1  0
  6 18  1  6
  6  7  1  0
  7  8  2  0
  9 13  1  0
  9 10  1  0
  9 19  1  6
 10 11  2  0
 10 20  1  0
 11 12  1  0
 11 21  1  0
 12 13  1  0
 12 22  1  1
 13 23  1  0
 13 24  1  0
M  END
>  <i_m_ct_stereo_status>  (192) 
1

>  <s_m_source_file>  (192) 
/var/tmp/pbs.5076255.sched01/tmp6h9xbnrx/445q66801d.sdf

>  <i_m_source_file_index>  (192) 
40

>  <i_lp_mmshare_version>  (192) 
48012

>  <i_f3d_flags>  (192) 
0

>  <s_epik_input>  (192) 
W09IXWMxbihbQ0gzXSljKFtPSF0pYyhjMTIpW0NASF0zW0NIXT1bQ0hdW0NAQEhdMltDSDJdMw==

>  <s_epik_cmdline>  (192) 
J2VwaWtfcHl0aG9uJywgJy1waHQnLCAnMi4wJywgJy1waCcsICc3LjAnLCAnLXRuJywgJzgnLCAnLW1hJywgJzIwMCcsICctaW1hZScsICc8aW5maWxlLm1hZT4nLCAnLW9tYWUnLCAnPG91dGZpbGUubWFlPic=

>  <r_lp_tautomer_probability>  (192) 
1

>  <r_epik_Ionization_Penalty>  (192) 
7.33081e-11

>  <r_epik_Ionization_Penalty_Charging>  (192) 
0

>  <r_epik_Ionization_Penalty_Neutral>  (192) 
7.33081e-11

>  <r_epik_State_Penalty>  (192) 
-0

>  <r_epik_Charging_Adjusted_Penalty>  (192) 
0

>  <i_epik_Tot_Q>  (192) 
0

>  <i_epik_Tot_abs_Q>  (192) 
0

>  <s_lp_Force_Field>  (192) 
OPLS3e

>  <r_lp_Energy>  (192) 
16.4568

>  <b_lp_Chiralities_Consistent>  (192) 
1

>  <s_lp_Variant>  (192) 
52:0-1

>  <s_i_glide_gridfile>  (192) 
pfpi4k_grid

>  <i_i_glide_lignum>  (192) 
40

>  <i_i_glide_rotatable_bonds>  (192) 
0

>  <r_i_docking_score>  (192) 
-3.57282

>  <r_i_glide_ligand_efficiency>  (192) 
-0.274832

>  <r_i_glide_ligand_efficiency_sa>  (192) 
-0.646222

>  <r_i_glide_ligand_efficiency_ln>  (192) 
-1.00221

>  <r_i_glide_gscore>  (192) 
-3.57282

>  <r_i_glide_lipo>  (192) 
-0.266821

>  <r_i_glide_hbond>  (192) 
-0.0296756

>  <r_i_glide_metal>  (192) 
-0

>  <r_i_glide_rewards>  (192) 
-2.20091

>  <r_i_glide_evdw>  (192) 
-17.9969

>  <r_i_glide_ecoul>  (192) 
-0.662253

>  <r_i_glide_erotb>  (192) 
0

>  <r_i_glide_esite>  (192) 
-0.0762297

>  <r_i_glide_emodel>  (192) 
-23.5751

>  <r_i_glide_energy>  (192) 
-18.6591

>  <r_i_glide_einternal>  (192) 
0

>  <r_i_glide_intrahb_reward>  (192) 
-0

>  <i_i_glide_confnum>  (192) 
1

>  <i_i_glide_posenum>  (192) 
1

>  <r_i_glide_eff_state_penalty>  (192) 
0

>  <ligand_id>  (192) 
52

>  <original_smiles>  (192) 
Cn1c(O)c2c(c1O)C1C=CC2C1

>  <smiles>  (192) 
[H]C1=C([H])C2([H])C([H])([H])C1([H])C1([H])C(=O)N(C([H])([H])[H])C(=O)C21[H]

$$$$
52:1:0
     RDKit          3D

 24 26  0  0  1  0  0  0  0  0999 V2000
    2.4962   -3.1850   -3.8328 C   0  0  0  0  0  0  0  0  0  0  0  0
    3.0647   -2.6579   -2.5880 N   0  0  0  0  0  0  0  0  0  0  0  0
    4.0460   -1.7432   -2.5309 C   0  0  0  0  0  0  0  0  0  0  0  0
    4.6137   -1.2304   -3.4910 O   0  0  0  0  0  0  0  0  0  0  0  0
    4.3953   -1.3965   -1.0839 C   0  0  1  0  0  0  0  0  0  0  0  0
    3.4450   -2.3069   -0.2766 C   0  0  1  0  0  0  0  0  0  0  0  0
    2.6803   -3.0600   -1.3676 C   0  0  0  0  0  0  0  0  0  0  0  0
    1.8173   -3.8978   -1.1121 O   0  0  0  0  0  0  0  0  0  0  0  0
    4.4205   -3.1469    0.6017 C   0  0  1  0  0  0  0  0  0  0  0  0
    5.2815   -4.0439   -0.2657 C   0  0  0  0  0  0  0  0  0  0  0  0
    6.1018   -3.2587   -0.9671 C   0  0  0  0  0  0  0  0  0  0  0  0
    5.7993   -1.8248   -0.5696 C   0  0  2  0  0  0  0  0  0  0  0  0
    5.4509   -2.0479    0.9070 C   0  0  0  0  0  0  0  0  0  0  0  0
    2.9131   -2.7118   -4.7201 H   0  0  0  0  0  0  0  0  0  0  0  0
    1.4153   -3.0459   -3.8482 H   0  0  0  0  0  0  0  0  0  0  0  0
    2.6961   -4.2527   -3.9227 H   0  0  0  0  0  0  0  0  0  0  0  0
    4.2086   -0.3408   -0.8893 H   0  0  0  0  0  0  0  0  0  0  0  0
    2.7536   -1.7231    0.3326 H   0  0  0  0  0  0  0  0  0  0  0  0
    3.9891   -3.6228    1.4845 H   0  0  0  0  0  0  0  0  0  0  0  0
    5.1944   -5.1221   -0.3141 H   0  0  0  0  0  0  0  0  0  0  0  0
    6.8305   -3.5499   -1.7090 H   0  0  0  0  0  0  0  0  0  0  0  0
    6.6098   -1.1176   -0.7229 H   0  0  0  0  0  0  0  0  0  0  0  0
    5.0309   -1.1663    1.3974 H   0  0  0  0  0  0  0  0  0  0  0  0
    6.2978   -2.4061    1.4938 H   0  0  0  0  0  0  0  0  0  0  0  0
  1 14  1  0
  1 15  1  0
  1 16  1  0
  1  2  1  0
  2  7  1  0
  2  3  1  0
  3  4  2  0
  3  5  1  0
  5 12  1  0
  5 17  1  6
  5  6  1  0
  6  9  1  0
  6 18  1  1
  6  7  1  0
  7  8  2  0
  9 13  1  0
  9 10  1  0
  9 19  1  1
 10 11  2  0
 10 20  1  0
 11 12  1  0
 11 21  1  0
 12 13  1  0
 12 22  1  1
 13 23  1  0
 13 24  1  0
M  END
>  <i_m_ct_stereo_status>  (193) 
1

>  <s_m_source_file>  (193) 
/var/tmp/pbs.5076255.sched01/tmp6h9xbnrx/445q66801d.sdf

>  <i_m_source_file_index>  (193) 
41

>  <i_lp_mmshare_version>  (193) 
48012

>  <i_f3d_flags>  (193) 
0

>  <s_epik_input>  (193) 
W09IXWMxbihbQ0gzXSljKFtPSF0pYyhjMTIpW0NASF0zW0NIXT1bQ0hdW0NAQEhdMltDSDJdMw==

>  <s_epik_cmdline>  (193) 
J2VwaWtfcHl0aG9uJywgJy1waHQnLCAnMi4wJywgJy1waCcsICc3LjAnLCAnLXRuJywgJzgnLCAnLW1hJywgJzIwMCcsICctaW1hZScsICc8aW5maWxlLm1hZT4nLCAnLW9tYWUnLCAnPG91dGZpbGUubWFlPic=

>  <r_lp_tautomer_probability>  (193) 
1

>  <r_epik_Ionization_Penalty>  (193) 
7.33081e-11

>  <r_epik_Ionization_Penalty_Charging>  (193) 
0

>  <r_epik_Ionization_Penalty_Neutral>  (193) 
7.33081e-11

>  <r_epik_State_Penalty>  (193) 
-0

>  <r_epik_Charging_Adjusted_Penalty>  (193) 
0

>  <i_epik_Tot_Q>  (193) 
0

>  <i_epik_Tot_abs_Q>  (193) 
0

>  <s_lp_Force_Field>  (193) 
OPLS3e

>  <r_lp_Energy>  (193) 
17.7898

>  <b_lp_Chiralities_Consistent>  (193) 
1

>  <s_lp_Variant>  (193) 
52:0-2

>  <s_i_glide_gridfile>  (193) 
pfpi4k_grid

>  <i_i_glide_lignum>  (193) 
41

>  <i_i_glide_rotatable_bonds>  (193) 
0

>  <r_i_docking_score>  (193) 
-3.91743

>  <r_i_glide_ligand_efficiency>  (193) 
-0.301341

>  <r_i_glide_ligand_efficiency_sa>  (193) 
-0.708553

>  <r_i_glide_ligand_efficiency_ln>  (193) 
-1.09887

>  <r_i_glide_gscore>  (193) 
-3.91743

>  <r_i_glide_lipo>  (193) 
-0.400726

>  <r_i_glide_hbond>  (193) 
-0.00650533

>  <r_i_glide_metal>  (193) 
-0

>  <r_i_glide_rewards>  (193) 
-2.20091

>  <r_i_glide_evdw>  (193) 
-18.3356

>  <r_i_glide_ecoul>  (193) 
-2.1997

>  <r_i_glide_erotb>  (193) 
0

>  <r_i_glide_esite>  (193) 
-0.0625534

>  <r_i_glide_emodel>  (193) 
-25.9081

>  <r_i_glide_energy>  (193) 
-20.5353

>  <r_i_glide_einternal>  (193) 
0

>  <r_i_glide_intrahb_reward>  (193) 
-0

>  <i_i_glide_confnum>  (193) 
2

>  <i_i_glide_posenum>  (193) 
4

>  <r_i_glide_eff_state_penalty>  (193) 
0

>  <ligand_id>  (193) 
52

>  <original_smiles>  (193) 
Cn1c(O)c2c(c1O)C1C=CC2C1

>  <smiles>  (193) 
[H]C1=C([H])C2([H])C([H])([H])C1([H])C1([H])C(=O)N(C([H])([H])[H])C(=O)C21[H]

$$$$
52:1:1
     RDKit          3D

 24 26  0  0  1  0  0  0  0  0999 V2000
    2.5499   -3.5994   -4.1498 C   0  0  0  0  0  0  0  0  0  0  0  0
    3.0352   -2.7895   -3.0545 N   0  0  0  0  0  0  0  0  0  0  0  0
    3.8339   -1.7317   -3.2841 C   0  0  0  0  0  0  0  0  0  0  0  0
    4.2215   -1.3109   -4.3610 O   0  0  0  0  0  0  0  0  0  0  0  0
    4.1481   -1.0478   -1.9860 C   0  0  1  0  0  0  0  0  0  0  0  0
    3.4139   -1.8866   -0.9184 C   0  0  1  0  0  0  0  0  0  0  0  0
    2.7282   -2.9715   -1.7461 C   0  0  0  0  0  0  0  0  0  0  0  0
    1.9853   -3.8164   -1.2345 O   0  0  0  0  0  0  0  0  0  0  0  0
    4.5641   -2.3442    0.0322 C   0  0  1  0  0  0  0  0  0  0  0  0
    5.5546   -3.2424   -0.7029 C   0  0  0  0  0  0  0  0  0  0  0  0
    6.1664   -2.4875   -1.6242 C   0  0  0  0  0  0  0  0  0  0  0  0
    5.5815   -1.0954   -1.5008 C   0  0  2  0  0  0  0  0  0  0  0  0
    5.3470   -1.0215    0.0104 C   0  0  0  0  0  0  0  0  0  0  0  0
    2.8849   -3.2383   -5.1152 H   0  0  0  0  0  0  0  0  0  0  0  0
    1.4233   -3.5016   -4.1748 H   0  0  0  0  0  0  0  0  0  0  0  0
    2.8827   -4.6309   -4.0834 H   0  0  0  0  0  0  0  0  0  0  0  0
    3.8792   -0.0047   -2.1287 H   0  0  0  0  0  0  0  0  0  0  0  0
    2.6817   -1.3149   -0.3518 H   0  0  0  0  0  0  0  0  0  0  0  0
    4.2634   -2.6764    1.0303 H   0  0  0  0  0  0  0  0  0  0  0  0
    5.6808   -4.3046   -0.5299 H   0  0  0  0  0  0  0  0  0  0  0  0
    6.8982   -2.7718   -2.3754 H   0  0  0  0  0  0  0  0  0  0  0  0
    6.0986   -0.2781   -1.9477 H   0  0  0  0  0  0  0  0  0  0  0  0
    4.7684   -0.1433    0.3227 H   0  0  0  0  0  0  0  0  0  0  0  0
    6.2764   -1.0474    0.5830 H   0  0  0  0  0  0  0  0  0  0  0  0
  1 14  1  0
  1 15  1  0
  1 16  1  0
  1  2  1  0
  2  7  1  0
  2  3  1  0
  3  4  2  0
  3  5  1  0
  5 12  1  0
  5 17  1  6
  5  6  1  0
  6  9  1  0
  6 18  1  1
  6  7  1  0
  7  8  2  0
  9 13  1  0
  9 10  1  0
  9 19  1  1
 10 11  2  0
 10 20  1  0
 11 12  1  0
 11 21  1  0
 12 13  1  0
 12 22  1  6
 13 23  1  0
 13 24  1  0
M  END
>  <i_m_ct_stereo_status>  (194) 
1

>  <s_m_source_file>  (194) 
/var/tmp/pbs.5076255.sched01/tmp6h9xbnrx/445q66801d.sdf

>  <i_m_source_file_index>  (194) 
41

>  <i_lp_mmshare_version>  (194) 
48012

>  <i_f3d_flags>  (194) 
0

>  <s_epik_input>  (194) 
W09IXWMxbihbQ0gzXSljKFtPSF0pYyhjMTIpW0NASF0zW0NIXT1bQ0hdW0NAQEhdMltDSDJdMw==

>  <s_epik_cmdline>  (194) 
J2VwaWtfcHl0aG9uJywgJy1waHQnLCAnMi4wJywgJy1waCcsICc3LjAnLCAnLXRuJywgJzgnLCAnLW1hJywgJzIwMCcsICctaW1hZScsICc8aW5maWxlLm1hZT4nLCAnLW9tYWUnLCAnPG91dGZpbGUubWFlPic=

>  <r_lp_tautomer_probability>  (194) 
1

>  <r_epik_Ionization_Penalty>  (194) 
7.33081e-11

>  <r_epik_Ionization_Penalty_Charging>  (194) 
0

>  <r_epik_Ionization_Penalty_Neutral>  (194) 
7.33081e-11

>  <r_epik_State_Penalty>  (194) 
-0

>  <r_epik_Charging_Adjusted_Penalty>  (194) 
0

>  <i_epik_Tot_Q>  (194) 
0

>  <i_epik_Tot_abs_Q>  (194) 
0

>  <s_lp_Force_Field>  (194) 
OPLS3e

>  <r_lp_Energy>  (194) 
17.7898

>  <b_lp_Chiralities_Consistent>  (194) 
1

>  <s_lp_Variant>  (194) 
52:0-2

>  <s_i_glide_gridfile>  (194) 
pfpi4k_grid

>  <i_i_glide_lignum>  (194) 
41

>  <i_i_glide_rotatable_bonds>  (194) 
0

>  <r_i_docking_score>  (194) 
-3.91288

>  <r_i_glide_ligand_efficiency>  (194) 
-0.300991

>  <r_i_glide_ligand_efficiency_sa>  (194) 
-0.70773

>  <r_i_glide_ligand_efficiency_ln>  (194) 
-1.0976

>  <r_i_glide_gscore>  (194) 
-3.91288

>  <r_i_glide_lipo>  (194) 
-0.0808831

>  <r_i_glide_hbond>  (194) 
-0.271936

>  <r_i_glide_metal>  (194) 
-0

>  <r_i_glide_rewards>  (194) 
-2.42052

>  <r_i_glide_evdw>  (194) 
-12.0801

>  <r_i_glide_ecoul>  (194) 
-3.52932

>  <r_i_glide_erotb>  (194) 
0

>  <r_i_glide_esite>  (194) 
-0.00613408

>  <r_i_glide_emodel>  (194) 
-19.9153

>  <r_i_glide_energy>  (194) 
-15.6094

>  <r_i_glide_einternal>  (194) 
0

>  <r_i_glide_intrahb_reward>  (194) 
-0

>  <i_i_glide_confnum>  (194) 
1

>  <i_i_glide_posenum>  (194) 
7

>  <r_i_glide_eff_state_penalty>  (194) 
0

>  <ligand_id>  (194) 
52

>  <original_smiles>  (194) 
Cn1c(O)c2c(c1O)C1C=CC2C1

>  <smiles>  (194) 
[H]C1=C([H])C2([H])C([H])([H])C1([H])C1([H])C(=O)N(C([H])([H])[H])C(=O)C21[H]

$$$$
52:1:2
     RDKit          3D

 24 26  0  0  1  0  0  0  0  0999 V2000
    6.6456   -1.8003   -0.0811 C   0  0  0  0  0  0  0  0  0  0  0  0
    5.4282   -2.0425   -0.8614 N   0  0  0  0  0  0  0  0  0  0  0  0
    5.3205   -2.8757   -1.9098 C   0  0  0  0  0  0  0  0  0  0  0  0
    6.2578   -3.4426   -2.4578 O   0  0  0  0  0  0  0  0  0  0  0  0
    3.8772   -2.9723   -2.4062 C   0  0  1  0  0  0  0  0  0  0  0  0
    3.1752   -1.9110   -1.5429 C   0  0  1  0  0  0  0  0  0  0  0  0
    4.2775   -1.4084   -0.6063 C   0  0  0  0  0  0  0  0  0  0  0  0
    4.1065   -0.5355    0.2403 O   0  0  0  0  0  0  0  0  0  0  0  0
    2.6361   -0.9155   -2.6195 C   0  0  1  0  0  0  0  0  0  0  0  0
    3.7642   -0.2643   -3.3765 C   0  0  0  0  0  0  0  0  0  0  0  0
    4.2844   -1.1902   -4.1684 C   0  0  0  0  0  0  0  0  0  0  0  0
    3.6061   -2.5097   -3.8807 C   0  0  2  0  0  0  0  0  0  0  0  0
    2.2118   -1.9493   -3.7021 C   0  0  0  0  0  0  0  0  0  0  0  0
    7.4771   -2.4222   -0.3972 H   0  0  0  0  0  0  0  0  0  0  0  0
    6.4899   -2.0046    0.9800 H   0  0  0  0  0  0  0  0  0  0  0  0
    6.9635   -0.7641   -0.1781 H   0  0  0  0  0  0  0  0  0  0  0  0
    3.4284   -3.9447   -2.1941 H   0  0  0  0  0  0  0  0  0  0  0  0
    2.3699   -2.3799   -0.9659 H   0  0  0  0  0  0  0  0  0  0  0  0
    1.9237   -0.1568   -2.3374 H   0  0  0  0  0  0  0  0  0  0  0  0
    4.0393    0.7747   -3.2814 H   0  0  0  0  0  0  0  0  0  0  0  0
    5.0825   -1.0419   -4.8677 H   0  0  0  0  0  0  0  0  0  0  0  0
    3.7324   -3.2857   -4.6416 H   0  0  0  0  0  0  0  0  0  0  0  0
    1.4635   -2.6935   -3.3771 H   0  0  0  0  0  0  0  0  0  0  0  0
    1.8419   -1.4768   -4.6157 H   0  0  0  0  0  0  0  0  0  0  0  0
  1 14  1  0
  1 15  1  0
  1 16  1  0
  1  2  1  0
  2  7  1  0
  2  3  1  0
  3  4  2  0
  3  5  1  0
  5 12  1  0
  5 17  1  6
  5  6  1  0
  6  9  1  0
  6 18  1  1
  6  7  1  0
  7  8  2  0
  9 13  1  0
  9 10  1  0
  9 19  1  1
 10 11  2  0
 10 20  1  0
 11 12  1  0
 11 21  1  0
 12 13  1  0
 12 22  1  6
 13 23  1  0
 13 24  1  0
M  END
>  <i_m_ct_stereo_status>  (195) 
1

>  <s_m_source_file>  (195) 
/var/tmp/pbs.5076255.sched01/tmp6h9xbnrx/445q66801d.sdf

>  <i_m_source_file_index>  (195) 
41

>  <i_lp_mmshare_version>  (195) 
48012

>  <i_f3d_flags>  (195) 
0

>  <s_epik_input>  (195) 
W09IXWMxbihbQ0gzXSljKFtPSF0pYyhjMTIpW0NASF0zW0NIXT1bQ0hdW0NAQEhdMltDSDJdMw==

>  <s_epik_cmdline>  (195) 
J2VwaWtfcHl0aG9uJywgJy1waHQnLCAnMi4wJywgJy1waCcsICc3LjAnLCAnLXRuJywgJzgnLCAnLW1hJywgJzIwMCcsICctaW1hZScsICc8aW5maWxlLm1hZT4nLCAnLW9tYWUnLCAnPG91dGZpbGUubWFlPic=

>  <r_lp_tautomer_probability>  (195) 
1

>  <r_epik_Ionization_Penalty>  (195) 
7.33081e-11

>  <r_epik_Ionization_Penalty_Charging>  (195) 
0

>  <r_epik_Ionization_Penalty_Neutral>  (195) 
7.33081e-11

>  <r_epik_State_Penalty>  (195) 
-0

>  <r_epik_Charging_Adjusted_Penalty>  (195) 
0

>  <i_epik_Tot_Q>  (195) 
0

>  <i_epik_Tot_abs_Q>  (195) 
0

>  <s_lp_Force_Field>  (195) 
OPLS3e

>  <r_lp_Energy>  (195) 
17.7898

>  <b_lp_Chiralities_Consistent>  (195) 
1

>  <s_lp_Variant>  (195) 
52:0-2

>  <s_i_glide_gridfile>  (195) 
pfpi4k_grid

>  <i_i_glide_lignum>  (195) 
41

>  <i_i_glide_rotatable_bonds>  (195) 
0

>  <r_i_docking_score>  (195) 
-3.46072

>  <r_i_glide_ligand_efficiency>  (195) 
-0.266209

>  <r_i_glide_ligand_efficiency_sa>  (195) 
-0.625947

>  <r_i_glide_ligand_efficiency_ln>  (195) 
-0.970763

>  <r_i_glide_gscore>  (195) 
-3.46072

>  <r_i_glide_lipo>  (195) 
-0.456549

>  <r_i_glide_hbond>  (195) 
0

>  <r_i_glide_metal>  (195) 
-0

>  <r_i_glide_rewards>  (195) 
-2.28866

>  <r_i_glide_evdw>  (195) 
-11.8091

>  <r_i_glide_ecoul>  (195) 
-0.361715

>  <r_i_glide_erotb>  (195) 
0

>  <r_i_glide_esite>  (195) 
-0.0708022

>  <r_i_glide_emodel>  (195) 
-16.6685

>  <r_i_glide_energy>  (195) 
-12.1709

>  <r_i_glide_einternal>  (195) 
0

>  <r_i_glide_intrahb_reward>  (195) 
-0

>  <i_i_glide_confnum>  (195) 
2

>  <i_i_glide_posenum>  (195) 
8

>  <r_i_glide_eff_state_penalty>  (195) 
0

>  <ligand_id>  (195) 
52

>  <original_smiles>  (195) 
Cn1c(O)c2c(c1O)C1C=CC2C1

>  <smiles>  (195) 
[H]C1=C([H])C2([H])C([H])([H])C1([H])C1([H])C(=O)N(C([H])([H])[H])C(=O)C21[H]

$$$$
53:0:0
     RDKit          3D

 40 42  0  0  1  0  0  0  0  0999 V2000
    7.3429   -4.0451    0.7208 C   0  0  0  0  0  0  0  0  0  0  0  0
    6.1611   -4.5051    0.0800 O   0  0  0  0  0  0  0  0  0  0  0  0
    5.0702   -4.6970    0.9726 C   0  0  2  0  0  0  0  0  0  0  0  0
    5.2810   -5.9139    1.8532 C   0  0  0  0  0  0  0  0  0  0  0  0
    3.8753   -6.3797    2.1911 C   0  0  0  0  0  0  0  0  0  0  0  0
    3.0070   -5.9090    1.0973 N   0  0  0  0  0  0  0  0  0  0  0  0
    1.7176   -6.2755    0.9029 C   0  0  0  0  0  0  0  0  0  0  0  0
    1.0144   -5.8823   -0.0338 O   0  0  0  0  0  0  0  0  0  0  0  0
    1.0590   -7.1610    1.9127 C   0  0  0  0  0  0  0  0  0  0  0  0
    1.5864   -8.4237    2.2883 C   0  0  0  0  0  0  0  0  0  0  0  0
    0.7008   -8.8831    3.2131 C   0  0  0  0  0  0  0  0  0  0  0  0
    0.6649  -10.1177    4.0394 C   0  0  0  0  0  0  0  0  0  0  0  0
   -0.3246   -8.0070    3.3626 O   0  0  0  0  0  0  0  0  0  0  0  0
   -0.0911   -6.9186    2.5116 N   0  0  0  0  0  0  0  0  0  0  0  0
    3.7446   -4.9690    0.2308 C   0  0  1  0  0  0  0  0  0  0  0  0
    2.9680   -3.6526   -0.0584 C   0  0  0  0  0  0  0  0  0  0  0  0
    3.6415   -2.7965   -1.0264 N   0  0  0  0  0  0  0  0  0  0  0  0
    4.7606   -2.0823   -0.7548 N   0  0  0  0  0  0  0  0  0  0  0  0
    5.0193   -1.4057   -1.8293 N   0  0  0  0  0  0  0  0  0  0  0  0
    4.0066   -1.6885   -2.6928 C   0  0  0  0  0  0  0  0  0  0  0  0
    3.8638   -1.0259   -4.0172 C   0  0  0  0  0  0  0  0  0  0  0  0
    3.1331   -2.5713   -2.2494 N   0  0  0  0  0  0  0  0  0  0  0  0
    8.1104   -3.8566   -0.0298 H   0  0  0  0  0  0  0  0  0  0  0  0
    7.7327   -4.7844    1.4225 H   0  0  0  0  0  0  0  0  0  0  0  0
    7.1625   -3.1134    1.2595 H   0  0  0  0  0  0  0  0  0  0  0  0
    4.9510   -3.8260    1.6206 H   0  0  0  0  0  0  0  0  0  0  0  0
    5.7818   -6.6958    1.2831 H   0  0  0  0  0  0  0  0  0  0  0  0
    5.8812   -5.7147    2.7421 H   0  0  0  0  0  0  0  0  0  0  0  0
    3.9055   -7.4616    2.2995 H   0  0  0  0  0  0  0  0  0  0  0  0
    3.5318   -5.9288    3.1260 H   0  0  0  0  0  0  0  0  0  0  0  0
    2.4779   -8.9177    1.9429 H   0  0  0  0  0  0  0  0  0  0  0  0
    1.5654  -10.7132    3.8818 H   0  0  0  0  0  0  0  0  0  0  0  0
   -0.1921  -10.7288    3.7690 H   0  0  0  0  0  0  0  0  0  0  0  0
    0.6018   -9.8734    5.1005 H   0  0  0  0  0  0  0  0  0  0  0  0
    3.9656   -5.4832   -0.7075 H   0  0  0  0  0  0  0  0  0  0  0  0
    1.9730   -3.8310   -0.4687 H   0  0  0  0  0  0  0  0  0  0  0  0
    2.8219   -3.0858    0.8636 H   0  0  0  0  0  0  0  0  0  0  0  0
    2.8632   -1.1816   -4.4232 H   0  0  0  0  0  0  0  0  0  0  0  0
    4.6025   -1.4316   -4.7047 H   0  0  0  0  0  0  0  0  0  0  0  0
    4.0320    0.0460   -3.9024 H   0  0  0  0  0  0  0  0  0  0  0  0
  1  2  1  0
  1 23  1  0
  1 24  1  0
  1 25  1  0
  2  3  1  0
  3 15  1  0
  3  4  1  0
  3 26  1  1
  4  5  1  0
  4 27  1  0
  4 28  1  0
  5  6  1  0
  5 29  1  0
  5 30  1  0
  6  7  1  0
  6 15  1  0
  7  8  2  0
  7  9  1  0
  9 14  2  0
  9 10  1  0
 10 11  2  0
 10 31  1  0
 11 12  1  0
 11 13  1  0
 12 32  1  0
 12 33  1  0
 12 34  1  0
 13 14  1  0
 15 16  1  0
 15 35  1  6
 16 17  1  0
 16 36  1  0
 16 37  1  0
 17 22  1  0
 17 18  1  0
 18 19  2  0
 19 20  1  0
 20 21  1  0
 20 22  2  0
 21 38  1  0
 21 39  1  0
 21 40  1  0
M  END
>  <i_m_ct_stereo_status>  (196) 
1

>  <s_m_source_file>  (196) 
/var/tmp/pbs.5076255.sched01/tmp6h9xbnrx/445q66801d.sdf

>  <i_m_source_file_index>  (196) 
42

>  <i_lp_mmshare_version>  (196) 
48012

>  <i_f3d_flags>  (196) 
0

>  <s_epik_input>  (196) 
bjFvYyhbQ0gzXSlbY0hdYzFDKD1PKU4oW0NIMl1bQ0gyXVtDQEhdMk9bQ0gzXSlbQ0BIXTJbQ0gyXW4zbm5jKG4zKVtDSDNd

>  <s_epik_cmdline>  (196) 
J2VwaWtfcHl0aG9uJywgJy1waHQnLCAnMi4wJywgJy1waCcsICc3LjAnLCAnLXRuJywgJzgnLCAnLW1hJywgJzIwMCcsICctaW1hZScsICc8aW5maWxlLm1hZT4nLCAnLW9tYWUnLCAnPG91dGZpbGUubWFlPic=

>  <r_lp_tautomer_probability>  (196) 
1

>  <r_epik_Ionization_Penalty>  (196) 
5.59753e-08

>  <r_epik_Ionization_Penalty_Charging>  (196) 
0

>  <r_epik_Ionization_Penalty_Neutral>  (196) 
5.59753e-08

>  <r_epik_State_Penalty>  (196) 
-0

>  <r_epik_Charging_Adjusted_Penalty>  (196) 
0

>  <i_epik_Tot_Q>  (196) 
0

>  <i_epik_Tot_abs_Q>  (196) 
0

>  <s_lp_Force_Field>  (196) 
OPLS3e

>  <r_lp_Energy>  (196) 
9.83609

>  <b_lp_Chiralities_Consistent>  (196) 
1

>  <s_lp_Variant>  (196) 
53:0-1

>  <s_i_glide_gridfile>  (196) 
pfpi4k_grid

>  <i_i_glide_lignum>  (196) 
42

>  <i_i_glide_rotatable_bonds>  (196) 
5

>  <r_i_docking_score>  (196) 
-3.82417

>  <r_i_glide_ligand_efficiency>  (196) 
-0.173826

>  <r_i_glide_ligand_efficiency_sa>  (196) 
-0.487067

>  <r_i_glide_ligand_efficiency_ln>  (196) 
-0.934766

>  <r_i_glide_gscore>  (196) 
-3.82417

>  <r_i_glide_lipo>  (196) 
-0.35889

>  <r_i_glide_hbond>  (196) 
-0.463092

>  <r_i_glide_metal>  (196) 
-0

>  <r_i_glide_rewards>  (196) 
-1.32054

>  <r_i_glide_evdw>  (196) 
-29.0012

>  <r_i_glide_ecoul>  (196) 
-4.77069

>  <r_i_glide_erotb>  (196) 
0.787375

>  <r_i_glide_esite>  (196) 
-0.303355

>  <r_i_glide_emodel>  (196) 
-42.1082

>  <r_i_glide_energy>  (196) 
-33.7719

>  <r_i_glide_einternal>  (196) 
0.639852

>  <r_i_glide_intrahb_reward>  (196) 
-0

>  <i_i_glide_confnum>  (196) 
3

>  <i_i_glide_posenum>  (196) 
1

>  <r_i_glide_eff_state_penalty>  (196) 
0

>  <ligand_id>  (196) 
53

>  <original_smiles>  (196) 
COC1CCN(C(=O)c2cc(C)on2)C1Cn1nnc(C)n1

>  <smiles>  (196) 
[H]c1c(C(=O)N2C([H])([H])C([H])([H])C([H])(OC([H])([H])[H])C2([H])C([H])([H])n2nnc(C([H])([H])[H])n2)noc1C([H])([H])[H]

$$$$
53:0:1
     RDKit          3D

 40 42  0  0  1  0  0  0  0  0999 V2000
    2.1498   -3.6666    3.8201 C   0  0  0  0  0  0  0  0  0  0  0  0
    2.4469   -3.4066    2.4584 O   0  0  0  0  0  0  0  0  0  0  0  0
    3.8364   -3.4177    2.1575 C   0  0  2  0  0  0  0  0  0  0  0  0
    4.5696   -2.1973    2.6820 C   0  0  0  0  0  0  0  0  0  0  0  0
    5.7394   -2.0434    1.7186 C   0  0  0  0  0  0  0  0  0  0  0  0
    5.2945   -2.6322    0.4502 N   0  0  0  0  0  0  0  0  0  0  0  0
    6.0132   -2.5064   -0.6921 C   0  0  0  0  0  0  0  0  0  0  0  0
    7.2170   -2.2624   -0.6820 O   0  0  0  0  0  0  0  0  0  0  0  0
    5.2338   -2.4396   -1.9846 C   0  0  0  0  0  0  0  0  0  0  0  0
    4.3878   -1.3254   -2.2296 C   0  0  0  0  0  0  0  0  0  0  0  0
    3.8294   -1.5809   -3.4298 C   0  0  0  0  0  0  0  0  0  0  0  0
    2.8723   -0.8479   -4.2932 C   0  0  0  0  0  0  0  0  0  0  0  0
    4.2912   -2.7520   -3.9246 O   0  0  0  0  0  0  0  0  0  0  0  0
    5.2263   -3.2744   -3.0114 N   0  0  0  0  0  0  0  0  0  0  0  0
    4.0535   -3.3921    0.6336 C   0  0  1  0  0  0  0  0  0  0  0  0
    4.1260   -4.8213    0.0097 C   0  0  0  0  0  0  0  0  0  0  0  0
    3.0646   -5.6922    0.4864 N   0  0  0  0  0  0  0  0  0  0  0  0
    1.7847   -5.5184    0.0901 N   0  0  0  0  0  0  0  0  0  0  0  0
    1.0891   -6.3210    0.8398 N   0  0  0  0  0  0  0  0  0  0  0  0
    2.0001   -6.9680    1.6214 C   0  0  0  0  0  0  0  0  0  0  0  0
    1.6076   -7.9877    2.6284 C   0  0  0  0  0  0  0  0  0  0  0  0
    3.2602   -6.6241    1.4296 N   0  0  0  0  0  0  0  0  0  0  0  0
    1.0699   -3.6949    3.9743 H   0  0  0  0  0  0  0  0  0  0  0  0
    2.5568   -2.8875    4.4638 H   0  0  0  0  0  0  0  0  0  0  0  0
    2.5584   -4.6295    4.1270 H   0  0  0  0  0  0  0  0  0  0  0  0
    4.3352   -4.2944    2.5752 H   0  0  0  0  0  0  0  0  0  0  0  0
    3.9150   -1.3285    2.6255 H   0  0  0  0  0  0  0  0  0  0  0  0
    4.8833   -2.3252    3.7190 H   0  0  0  0  0  0  0  0  0  0  0  0
    6.0188   -0.9961    1.6220 H   0  0  0  0  0  0  0  0  0  0  0  0
    6.6079   -2.5978    2.0660 H   0  0  0  0  0  0  0  0  0  0  0  0
    4.2218   -0.4694   -1.5998 H   0  0  0  0  0  0  0  0  0  0  0  0
    2.5857    0.1077   -3.8535 H   0  0  0  0  0  0  0  0  0  0  0  0
    1.9930   -1.4683   -4.4207 H   0  0  0  0  0  0  0  0  0  0  0  0
    3.3195   -0.6706   -5.2671 H   0  0  0  0  0  0  0  0  0  0  0  0
    3.2441   -2.7969    0.1884 H   0  0  0  0  0  0  0  0  0  0  0  0
    4.0518   -4.7841   -1.0714 H   0  0  0  0  0  0  0  0  0  0  0  0
    5.0863   -5.2947    0.2477 H   0  0  0  0  0  0  0  0  0  0  0  0
    2.4426   -8.1691    3.3016 H   0  0  0  0  0  0  0  0  0  0  0  0
    1.3935   -8.9270    2.1171 H   0  0  0  0  0  0  0  0  0  0  0  0
    0.7363   -7.6492    3.2019 H   0  0  0  0  0  0  0  0  0  0  0  0
  1  2  1  0
  1 23  1  0
  1 24  1  0
  1 25  1  0
  2  3  1  0
  3 15  1  0
  3  4  1  0
  3 26  1  1
  4  5  1  0
  4 27  1  0
  4 28  1  0
  5  6  1  0
  5 29  1  0
  5 30  1  0
  6  7  1  0
  6 15  1  0
  7  8  2  0
  7  9  1  0
  9 14  2  0
  9 10  1  0
 10 11  2  0
 10 31  1  0
 11 12  1  0
 11 13  1  0
 12 32  1  0
 12 33  1  0
 12 34  1  0
 13 14  1  0
 15 16  1  0
 15 35  1  6
 16 17  1  0
 16 36  1  0
 16 37  1  0
 17 22  1  0
 17 18  1  0
 18 19  2  0
 19 20  1  0
 20 21  1  0
 20 22  2  0
 21 38  1  0
 21 39  1  0
 21 40  1  0
M  END
>  <i_m_ct_stereo_status>  (197) 
1

>  <s_m_source_file>  (197) 
/var/tmp/pbs.5076255.sched01/tmp6h9xbnrx/445q66801d.sdf

>  <i_m_source_file_index>  (197) 
42

>  <i_lp_mmshare_version>  (197) 
48012

>  <i_f3d_flags>  (197) 
0

>  <s_epik_input>  (197) 
bjFvYyhbQ0gzXSlbY0hdYzFDKD1PKU4oW0NIMl1bQ0gyXVtDQEhdMk9bQ0gzXSlbQ0BIXTJbQ0gyXW4zbm5jKG4zKVtDSDNd

>  <s_epik_cmdline>  (197) 
J2VwaWtfcHl0aG9uJywgJy1waHQnLCAnMi4wJywgJy1waCcsICc3LjAnLCAnLXRuJywgJzgnLCAnLW1hJywgJzIwMCcsICctaW1hZScsICc8aW5maWxlLm1hZT4nLCAnLW9tYWUnLCAnPG91dGZpbGUubWFlPic=

>  <r_lp_tautomer_probability>  (197) 
1

>  <r_epik_Ionization_Penalty>  (197) 
5.59753e-08

>  <r_epik_Ionization_Penalty_Charging>  (197) 
0

>  <r_epik_Ionization_Penalty_Neutral>  (197) 
5.59753e-08

>  <r_epik_State_Penalty>  (197) 
-0

>  <r_epik_Charging_Adjusted_Penalty>  (197) 
0

>  <i_epik_Tot_Q>  (197) 
0

>  <i_epik_Tot_abs_Q>  (197) 
0

>  <s_lp_Force_Field>  (197) 
OPLS3e

>  <r_lp_Energy>  (197) 
9.83609

>  <b_lp_Chiralities_Consistent>  (197) 
1

>  <s_lp_Variant>  (197) 
53:0-1

>  <s_i_glide_gridfile>  (197) 
pfpi4k_grid

>  <i_i_glide_lignum>  (197) 
42

>  <i_i_glide_rotatable_bonds>  (197) 
5

>  <r_i_docking_score>  (197) 
-3.67863

>  <r_i_glide_ligand_efficiency>  (197) 
-0.16721

>  <r_i_glide_ligand_efficiency_sa>  (197) 
-0.46853

>  <r_i_glide_ligand_efficiency_ln>  (197) 
-0.89919

>  <r_i_glide_gscore>  (197) 
-3.67863

>  <r_i_glide_lipo>  (197) 
-0.438879

>  <r_i_glide_hbond>  (197) 
-0.16

>  <r_i_glide_metal>  (197) 
-0

>  <r_i_glide_rewards>  (197) 
-1.367

>  <r_i_glide_evdw>  (197) 
-28.2076

>  <r_i_glide_ecoul>  (197) 
-5.5681

>  <r_i_glide_erotb>  (197) 
0.787375

>  <r_i_glide_esite>  (197) 
-0.254527

>  <r_i_glide_emodel>  (197) 
-37.8023

>  <r_i_glide_energy>  (197) 
-33.7757

>  <r_i_glide_einternal>  (197) 
8.33498

>  <r_i_glide_intrahb_reward>  (197) 
-0

>  <i_i_glide_confnum>  (197) 
2

>  <i_i_glide_posenum>  (197) 
36

>  <r_i_glide_eff_state_penalty>  (197) 
0

>  <ligand_id>  (197) 
53

>  <original_smiles>  (197) 
COC1CCN(C(=O)c2cc(C)on2)C1Cn1nnc(C)n1

>  <smiles>  (197) 
[H]c1c(C(=O)N2C([H])([H])C([H])([H])C([H])(OC([H])([H])[H])C2([H])C([H])([H])n2nnc(C([H])([H])[H])n2)noc1C([H])([H])[H]

$$$$
53:0:2
     RDKit          3D

 40 42  0  0  1  0  0  0  0  0999 V2000
    8.3244   -5.9541    1.3336 C   0  0  0  0  0  0  0  0  0  0  0  0
    7.1198   -5.7433    0.6054 O   0  0  0  0  0  0  0  0  0  0  0  0
    5.9513   -5.7904    1.4162 C   0  0  2  0  0  0  0  0  0  0  0  0
    5.7173   -7.1647    2.0057 C   0  0  0  0  0  0  0  0  0  0  0  0
    4.2211   -7.2301    2.2157 C   0  0  0  0  0  0  0  0  0  0  0  0
    3.6114   -6.3187    1.2356 N   0  0  0  0  0  0  0  0  0  0  0  0
    2.2887   -6.2414    0.9520 C   0  0  0  0  0  0  0  0  0  0  0  0
    1.8226   -5.5008    0.0859 O   0  0  0  0  0  0  0  0  0  0  0  0
    1.2985   -7.0030    1.7714 C   0  0  0  0  0  0  0  0  0  0  0  0
    1.4118   -8.3948    2.0087 C   0  0  0  0  0  0  0  0  0  0  0  0
    0.3281   -8.6744    2.7841 C   0  0  0  0  0  0  0  0  0  0  0  0
   -0.1083   -9.9301    3.4247 C   0  0  0  0  0  0  0  0  0  0  0  0
   -0.4403   -7.5716    2.9504 O   0  0  0  0  0  0  0  0  0  0  0  0
    0.1833   -6.5139    2.2807 N   0  0  0  0  0  0  0  0  0  0  0  0
    4.6643   -5.4923    0.6044 C   0  0  1  0  0  0  0  0  0  0  0  0
    4.3500   -3.9619    0.6050 C   0  0  0  0  0  0  0  0  0  0  0  0
    4.2231   -3.3968   -0.7359 N   0  0  0  0  0  0  0  0  0  0  0  0
    5.2535   -2.8329   -1.4068 N   0  0  0  0  0  0  0  0  0  0  0  0
    4.7575   -2.4290   -2.5376 N   0  0  0  0  0  0  0  0  0  0  0  0
    3.4388   -2.7553   -2.4983 C   0  0  0  0  0  0  0  0  0  0  0  0
    2.4841   -2.4621   -3.6054 C   0  0  0  0  0  0  0  0  0  0  0  0
    3.0539   -3.3520   -1.3920 N   0  0  0  0  0  0  0  0  0  0  0  0
    9.1773   -5.8748    0.6591 H   0  0  0  0  0  0  0  0  0  0  0  0
    8.3641   -6.9449    1.7930 H   0  0  0  0  0  0  0  0  0  0  0  0
    8.4366   -5.2034    2.1180 H   0  0  0  0  0  0  0  0  0  0  0  0
    6.0447   -5.0901    2.2487 H   0  0  0  0  0  0  0  0  0  0  0  0
    5.9934   -7.9299    1.2839 H   0  0  0  0  0  0  0  0  0  0  0  0
    6.2720   -7.3582    2.9224 H   0  0  0  0  0  0  0  0  0  0  0  0
    3.9545   -8.2772    2.0842 H   0  0  0  0  0  0  0  0  0  0  0  0
    3.9506   -6.9001    3.2212 H   0  0  0  0  0  0  0  0  0  0  0  0
    2.1510   -9.1020    1.6720 H   0  0  0  0  0  0  0  0  0  0  0  0
    0.6440  -10.7015    3.2688 H   0  0  0  0  0  0  0  0  0  0  0  0
   -1.0416  -10.2608    2.9808 H   0  0  0  0  0  0  0  0  0  0  0  0
   -0.2305   -9.7899    4.4980 H   0  0  0  0  0  0  0  0  0  0  0  0
    4.8007   -5.8626   -0.4164 H   0  0  0  0  0  0  0  0  0  0  0  0
    3.4334   -3.7356    1.1571 H   0  0  0  0  0  0  0  0  0  0  0  0
    5.1230   -3.3889    1.1157 H   0  0  0  0  0  0  0  0  0  0  0  0
    1.4634   -2.6645   -3.2860 H   0  0  0  0  0  0  0  0  0  0  0  0
    2.6912   -3.0914   -4.4705 H   0  0  0  0  0  0  0  0  0  0  0  0
    2.5680   -1.4125   -3.8903 H   0  0  0  0  0  0  0  0  0  0  0  0
  1  2  1  0
  1 23  1  0
  1 24  1  0
  1 25  1  0
  2  3  1  0
  3 15  1  0
  3  4  1  0
  3 26  1  1
  4  5  1  0
  4 27  1  0
  4 28  1  0
  5  6  1  0
  5 29  1  0
  5 30  1  0
  6  7  1  0
  6 15  1  0
  7  8  2  0
  7  9  1  0
  9 14  2  0
  9 10  1  0
 10 11  2  0
 10 31  1  0
 11 12  1  0
 11 13  1  0
 12 32  1  0
 12 33  1  0
 12 34  1  0
 13 14  1  0
 15 16  1  0
 15 35  1  6
 16 17  1  0
 16 36  1  0
 16 37  1  0
 17 22  1  0
 17 18  1  0
 18 19  2  0
 19 20  1  0
 20 21  1  0
 20 22  2  0
 21 38  1  0
 21 39  1  0
 21 40  1  0
M  END
>  <i_m_ct_stereo_status>  (198) 
1

>  <s_m_source_file>  (198) 
/var/tmp/pbs.5076255.sched01/tmp6h9xbnrx/445q66801d.sdf

>  <i_m_source_file_index>  (198) 
42

>  <i_lp_mmshare_version>  (198) 
48012

>  <i_f3d_flags>  (198) 
0

>  <s_epik_input>  (198) 
bjFvYyhbQ0gzXSlbY0hdYzFDKD1PKU4oW0NIMl1bQ0gyXVtDQEhdMk9bQ0gzXSlbQ0BIXTJbQ0gyXW4zbm5jKG4zKVtDSDNd

>  <s_epik_cmdline>  (198) 
J2VwaWtfcHl0aG9uJywgJy1waHQnLCAnMi4wJywgJy1waCcsICc3LjAnLCAnLXRuJywgJzgnLCAnLW1hJywgJzIwMCcsICctaW1hZScsICc8aW5maWxlLm1hZT4nLCAnLW9tYWUnLCAnPG91dGZpbGUubWFlPic=

>  <r_lp_tautomer_probability>  (198) 
1

>  <r_epik_Ionization_Penalty>  (198) 
5.59753e-08

>  <r_epik_Ionization_Penalty_Charging>  (198) 
0

>  <r_epik_Ionization_Penalty_Neutral>  (198) 
5.59753e-08

>  <r_epik_State_Penalty>  (198) 
-0

>  <r_epik_Charging_Adjusted_Penalty>  (198) 
0

>  <i_epik_Tot_Q>  (198) 
0

>  <i_epik_Tot_abs_Q>  (198) 
0

>  <s_lp_Force_Field>  (198) 
OPLS3e

>  <r_lp_Energy>  (198) 
9.83609

>  <b_lp_Chiralities_Consistent>  (198) 
1

>  <s_lp_Variant>  (198) 
53:0-1

>  <s_i_glide_gridfile>  (198) 
pfpi4k_grid

>  <i_i_glide_lignum>  (198) 
42

>  <i_i_glide_rotatable_bonds>  (198) 
5

>  <r_i_docking_score>  (198) 
-3.46362

>  <r_i_glide_ligand_efficiency>  (198) 
-0.157437

>  <r_i_glide_ligand_efficiency_sa>  (198) 
-0.441146

>  <r_i_glide_ligand_efficiency_ln>  (198) 
-0.846636

>  <r_i_glide_gscore>  (198) 
-3.46362

>  <r_i_glide_lipo>  (198) 
-0.531043

>  <r_i_glide_hbond>  (198) 
-0.0716488

>  <r_i_glide_metal>  (198) 
-0

>  <r_i_glide_rewards>  (198) 
-1.44136

>  <r_i_glide_evdw>  (198) 
-28.8524

>  <r_i_glide_ecoul>  (198) 
-3.67406

>  <r_i_glide_erotb>  (198) 
0.787375

>  <r_i_glide_esite>  (198) 
-0.213217

>  <r_i_glide_emodel>  (198) 
-37.9044

>  <r_i_glide_energy>  (198) 
-32.5265

>  <r_i_glide_einternal>  (198) 
4.65492

>  <r_i_glide_intrahb_reward>  (198) 
-0

>  <i_i_glide_confnum>  (198) 
3

>  <i_i_glide_posenum>  (198) 
40

>  <r_i_glide_eff_state_penalty>  (198) 
0

>  <ligand_id>  (198) 
53

>  <original_smiles>  (198) 
COC1CCN(C(=O)c2cc(C)on2)C1Cn1nnc(C)n1

>  <smiles>  (198) 
[H]c1c(C(=O)N2C([H])([H])C([H])([H])C([H])(OC([H])([H])[H])C2([H])C([H])([H])n2nnc(C([H])([H])[H])n2)noc1C([H])([H])[H]

$$$$
54:0:0
     RDKit          3D

 61 68  0  0  1  0  0  0  0  0999 V2000
   -0.0472    0.5581    2.2811 C   0  0  0  0  0  0  0  0  0  0  0  0
    0.7160   -0.1978    3.0798 C   0  0  0  0  0  0  0  0  0  0  0  0
    1.0810   -0.0315    4.5152 C   0  0  0  0  0  0  0  0  0  0  0  0
    2.1954   -1.0330    4.1450 C   0  0  1  0  0  0  0  0  0  0  0  0
    1.4973   -1.4742    2.8513 C   0  0  2  0  0  0  0  0  0  0  0  0
    2.6000   -1.4345    1.7919 C   0  0  1  0  0  0  0  0  0  0  0  0
    3.4068   -0.3194    2.2896 N   0  0  0  0  0  0  0  0  0  0  0  0
    3.5767   -0.4986    3.7237 C   0  0  2  0  0  0  0  0  0  0  0  0
    4.8601   -1.3591    4.0132 C   0  0  1  0  0  0  0  0  0  0  0  0
    5.7455   -0.4651    4.6593 O   0  0  0  0  0  0  0  0  0  0  0  0
    4.6193   -2.4831    5.0435 C   0  0  0  0  0  0  0  0  0  0  0  0
    4.4651   -3.8054    4.8268 C   0  0  0  0  0  0  0  0  0  0  0  0
    4.4362   -4.3641    3.4778 C   0  0  2  0  0  0  0  0  0  0  0  0
    3.2312   -3.8511    2.6944 C   0  0  2  0  0  0  0  0  0  0  0  0
    3.5205   -5.3539    2.8169 C   0  0  0  0  0  0  0  0  0  0  0  0
    4.0237   -6.1841    1.6472 C   0  0  0  0  0  0  0  0  0  0  0  0
    2.6150   -6.2138    3.6815 C   0  0  0  0  0  0  0  0  0  0  0  0
    3.4860   -2.7492    1.6138 C   0  0  1  0  0  0  0  0  0  0  0  0
    3.1521   -3.3371    0.2210 C   0  0  0  0  0  0  0  0  0  0  0  0
    3.5205   -2.4295   -0.9323 C   0  0  0  0  0  0  0  0  0  0  0  0
    2.7400   -2.4687   -2.1164 C   0  0  0  0  0  0  0  0  0  0  0  0
    3.0851   -1.5749   -3.1240 C   0  0  0  0  0  0  0  0  0  0  0  0
    4.1298   -0.6890   -3.0136 C   0  0  0  0  0  0  0  0  0  0  0  0
    4.9462   -0.6876   -1.8905 C   0  0  0  0  0  0  0  0  0  0  0  0
    4.6234   -1.5437   -0.8141 C   0  0  0  0  0  0  0  0  0  0  0  0
    5.4624   -1.4466    0.4494 C   0  0  0  0  0  0  0  0  0  0  0  0
    4.9923   -2.3498    1.6021 C   0  0  1  0  0  0  0  0  0  0  0  0
    5.5370   -1.7753    2.8197 O   0  0  0  0  0  0  0  0  0  0  0  0
    4.2081    0.0908   -4.1158 O   0  0  0  0  0  0  0  0  0  0  0  0
    3.2678   -0.4164   -4.9881 C   0  0  0  0  0  0  0  0  0  0  0  0
    2.5022   -1.3882   -4.3169 O   0  0  0  0  0  0  0  0  0  0  0  0
   -0.1973    0.2599    1.2625 H   0  0  0  0  0  0  0  0  0  0  0  0
   -0.5505    1.4413    2.6352 H   0  0  0  0  0  0  0  0  0  0  0  0
    1.4595    0.9434    4.8294 H   0  0  0  0  0  0  0  0  0  0  0  0
    0.3887   -0.4503    5.2467 H   0  0  0  0  0  0  0  0  0  0  0  0
    2.1824   -1.8298    4.8774 H   0  0  0  0  0  0  0  0  0  0  0  0
    0.8801   -2.3704    2.9144 H   0  0  0  0  0  0  0  0  0  0  0  0
    2.1983   -1.0997    0.8474 H   0  0  0  0  0  0  0  0  0  0  0  0
    4.2770   -0.2069    1.7965 H   0  0  0  0  0  0  0  0  0  0  0  0
    3.7256    0.4792    4.1837 H   0  0  0  0  0  0  0  0  0  0  0  0
    6.0225    0.1629    4.0109 H   0  0  0  0  0  0  0  0  0  0  0  0
    4.6184   -2.1627    6.0736 H   0  0  0  0  0  0  0  0  0  0  0  0
    4.3655   -4.4893    5.6564 H   0  0  0  0  0  0  0  0  0  0  0  0
    5.4514   -4.4594    3.1072 H   0  0  0  0  0  0  0  0  0  0  0  0
    2.3774   -3.6578    3.3159 H   0  0  0  0  0  0  0  0  0  0  0  0
    3.2177   -6.3568    0.9332 H   0  0  0  0  0  0  0  0  0  0  0  0
    4.4044   -7.1526    1.9776 H   0  0  0  0  0  0  0  0  0  0  0  0
    4.8408   -5.6750    1.1424 H   0  0  0  0  0  0  0  0  0  0  0  0
    1.7318   -6.5183    3.1222 H   0  0  0  0  0  0  0  0  0  0  0  0
    2.2925   -5.6563    4.5556 H   0  0  0  0  0  0  0  0  0  0  0  0
    3.1370   -7.1061    4.0271 H   0  0  0  0  0  0  0  0  0  0  0  0
    3.7300   -4.2328    0.0137 H   0  0  0  0  0  0  0  0  0  0  0  0
    2.1030   -3.6185    0.1643 H   0  0  0  0  0  0  0  0  0  0  0  0
    1.8584   -3.0838   -2.2033 H   0  0  0  0  0  0  0  0  0  0  0  0
    5.7803   -0.0061   -1.8447 H   0  0  0  0  0  0  0  0  0  0  0  0
    6.4927   -1.6866    0.1944 H   0  0  0  0  0  0  0  0  0  0  0  0
    5.4828   -0.3998    0.7553 H   0  0  0  0  0  0  0  0  0  0  0  0
    5.5259   -3.2724    1.3731 H   0  0  0  0  0  0  0  0  0  0  0  0
    2.6558    0.3619   -5.4651 H   0  0  0  0  0  0  0  0  0  0  0  0
    3.7864   -0.9560   -5.7813 H   0  0  0  0  0  0  0  0  0  0  0  0
    2.8166    0.4888    2.1989 H   0  0  0  0  0  0  0  0  0  0  0  0
  1  2  2  0
  1 32  1  0
  1 33  1  0
  2  5  1  0
  2  3  1  0
  3  4  1  0
  3 34  1  0
  3 35  1  0
  4  8  1  0
  4  5  1  0
  4 36  1  1
  5  6  1  0
  5 37  1  1
  6 18  1  0
  6  7  1  0
  6 38  1  6
  7  8  1  0
  7 39  1  0
  7 61  1  0
  8  9  1  0
  8 40  1  1
  9 28  1  0
  9 10  1  1
  9 11  1  0
 10 41  1  0
 11 12  2  3
 11 42  1  0
 12 13  1  0
 12 43  1  0
 13 15  1  0
 13 14  1  0
 13 44  1  6
 14 15  1  0
 14 18  1  0
 14 45  1  1
 15 16  1  0
 15 17  1  0
 16 46  1  0
 16 47  1  0
 16 48  1  0
 17 49  1  0
 17 50  1  0
 17 51  1  0
 18 27  1  0
 18 19  1  6
 19 20  1  0
 19 52  1  0
 19 53  1  0
 20 25  2  0
 20 21  1  0
 21 22  2  0
 21 54  1  0
 22 31  1  0
 22 23  1  0
 23 24  2  0
 23 29  1  0
 24 25  1  0
 24 55  1  0
 25 26  1  0
 26 27  1  0
 26 56  1  0
 26 57  1  0
 27 28  1  0
 27 58  1  6
 29 30  1  0
 30 31  1  0
 30 59  1  0
 30 60  1  0
M  CHG  1   7   1
M  END
>  <i_m_ct_stereo_status>  (199) 
1

>  <s_m_source_file>  (199) 
/var/tmp/pbs.5076255.sched01/tmp6h9xbnrx/445q66801d.sdf

>  <i_m_source_file_index>  (199) 
43

>  <i_lp_mmshare_version>  (199) 
48012

>  <i_f3d_flags>  (199) 
0

>  <s_epik_input>  (199) 
W0NIM11DMShbQ0gzXSlbQ0BIXTJbQ0BIXTEvW0NIXT1bQ0hdXFtDQF0oW09IXSkoW0NAQEhdKFtOSF0zKVtDQEhdKFtDQEBIXTRbQ0BASF0zW0NAQF0yNTYpW0NIMl1DND1bQ0gyXSlPW0NAQEhdNltDSDJdYzdjKFtDSDJdNSlbY0hdYzhjKFtjSF03KU9bQ0gyXU84

>  <s_epik_cmdline>  (199) 
J2VwaWtfcHl0aG9uJywgJy1waHQnLCAnMi4wJywgJy1waCcsICc3LjAnLCAnLXRuJywgJzgnLCAnLW1hJywgJzIwMCcsICctaW1hZScsICc8aW5maWxlLm1hZT4nLCAnLW9tYWUnLCAnPG91dGZpbGUubWFlPic=

>  <r_lp_tautomer_probability>  (199) 
1

>  <r_epik_Ionization_Penalty>  (199) 
0.0147133

>  <r_epik_Ionization_Penalty_Charging>  (199) 
0.0146951

>  <r_epik_Ionization_Penalty_Neutral>  (199) 
1.8188e-05

>  <r_epik_State_Penalty>  (199) 
0.0115083

>  <r_epik_Charging_Adjusted_Penalty>  (199) 
0.0262034

>  <i_epik_Tot_Q>  (199) 
1

>  <i_epik_Tot_abs_Q>  (199) 
1

>  <s_epik_Chemistry_Notes>  (199) 
This compound contains an acetal/aminal-like group ( X-CH(R)-Y where X, Y are N, S, or O) that may be acid/base labile, releasing an aldehyde.

>  <s_lp_Force_Field>  (199) 
OPLS3e

>  <r_lp_Energy>  (199) 
113.014

>  <b_lp_Chiralities_Consistent>  (199) 
1

>  <s_lp_Variant>  (199) 
54:0-1

>  <s_i_glide_gridfile>  (199) 
pfpi4k_grid

>  <i_i_glide_lignum>  (199) 
43

>  <i_i_glide_rotatable_bonds>  (199) 
1

>  <r_i_docking_score>  (199) 
-2.66779

>  <r_i_glide_ligand_efficiency>  (199) 
-0.0860578

>  <r_i_glide_ligand_efficiency_sa>  (199) 
-0.27034

>  <r_i_glide_ligand_efficiency_ln>  (199) 
-0.601669

>  <r_i_glide_gscore>  (199) 
-2.66779

>  <r_i_glide_lipo>  (199) 
-0.369786

>  <r_i_glide_hbond>  (199) 
0

>  <r_i_glide_metal>  (199) 
-0

>  <r_i_glide_rewards>  (199) 
-0.839772

>  <r_i_glide_evdw>  (199) 
-23.7012

>  <r_i_glide_ecoul>  (199) 
-1.81912

>  <r_i_glide_erotb>  (199) 
0

>  <r_i_glide_esite>  (199) 
-0.000303133

>  <r_i_glide_emodel>  (199) 
-30.1819

>  <r_i_glide_energy>  (199) 
-25.5204

>  <r_i_glide_einternal>  (199) 
0.0498096

>  <r_i_glide_intrahb_reward>  (199) 
-0

>  <i_i_glide_confnum>  (199) 
1

>  <i_i_glide_posenum>  (199) 
19

>  <r_i_glide_eff_state_penalty>  (199) 
0

>  <ligand_id>  (199) 
54

>  <original_smiles>  (199) 
C=C1CC2C1C1NC2C2(O)C=CC3C(C3(C)C)C13Cc1cc4c(cc1CC3O2)OCO4

>  <smiles>  (199) 
[H]OC12OC3([H])C([H])([H])c4c([H])c5c(c([H])c4C([H])([H])C3(C3([H])C([H])(C([H])=C1[H])C3(C([H])([H])[H])C([H])([H])[H])C1([H])C3([H])C(=C([H])[H])C([H])([H])C3([H])C2([H])[N+]1([H])[H])OC([H])([H])O5

$$$$
54:0:1
     RDKit          3D

 61 68  0  0  1  0  0  0  0  0999 V2000
    0.1097    1.1229    1.9433 C   0  0  0  0  0  0  0  0  0  0  0  0
    0.8454    0.3363    2.7283 C   0  0  0  0  0  0  0  0  0  0  0  0
    1.2474    0.4876    4.1548 C   0  0  0  0  0  0  0  0  0  0  0  0
    2.3100   -0.5624    3.7643 C   0  0  1  0  0  0  0  0  0  0  0  0
    1.5684   -0.9685    2.4832 C   0  0  2  0  0  0  0  0  0  0  0  0
    2.6483   -0.9771    1.4060 C   0  0  1  0  0  0  0  0  0  0  0  0
    3.5232    0.0924    1.8937 N   0  0  0  0  0  0  0  0  0  0  0  0
    3.7163   -0.1058    3.3258 C   0  0  2  0  0  0  0  0  0  0  0  0
    4.9447   -1.0398    3.5781 C   0  0  1  0  0  0  0  0  0  0  0  0
    5.8526   -0.2004    4.2345 O   0  0  0  0  0  0  0  0  0  0  0  0
    4.6705   -2.1514    4.6109 C   0  0  0  0  0  0  0  0  0  0  0  0
    4.4506   -3.4545    4.3951 C   0  0  0  0  0  0  0  0  0  0  0  0
    4.3730   -4.0010    3.0397 C   0  0  2  0  0  0  0  0  0  0  0  0
    3.1817   -3.4239    2.2814 C   0  0  2  0  0  0  0  0  0  0  0  0
    3.3979   -4.9397    2.3912 C   0  0  0  0  0  0  0  0  0  0  0  0
    3.8386   -5.7891    1.2103 C   0  0  0  0  0  0  0  0  0  0  0  0
    2.4691   -5.7601    3.2692 C   0  0  0  0  0  0  0  0  0  0  0  0
    3.4657   -2.3285    1.1921 C   0  0  1  0  0  0  0  0  0  0  0  0
    3.0798   -2.8949   -0.1930 C   0  0  0  0  0  0  0  0  0  0  0  0
    3.4717   -2.0102   -1.3633 C   0  0  0  0  0  0  0  0  0  0  0  0
    2.6853   -2.0006   -2.5438 C   0  0  0  0  0  0  0  0  0  0  0  0
    3.0154   -1.0930   -3.5649 C   0  0  0  0  0  0  0  0  0  0  0  0
    4.1102   -0.2757   -3.4520 C   0  0  0  0  0  0  0  0  0  0  0  0
    4.9372   -0.3415   -2.3285 C   0  0  0  0  0  0  0  0  0  0  0  0
    4.6046   -1.1774   -1.2517 C   0  0  0  0  0  0  0  0  0  0  0  0
    5.4748   -1.1162   -0.0038 C   0  0  0  0  0  0  0  0  0  0  0  0
    4.9932   -2.0065    1.1637 C   0  0  1  0  0  0  0  0  0  0  0  0
    5.5965   -1.4780    2.3758 O   0  0  0  0  0  0  0  0  0  0  0  0
    4.1917    0.5313   -4.5480 O   0  0  0  0  0  0  0  0  0  0  0  0
    3.2346    0.0853   -5.4207 C   0  0  0  0  0  0  0  0  0  0  0  0
    2.3852   -0.7915   -4.7090 O   0  0  0  0  0  0  0  0  0  0  0  0
   -0.0816    0.8761    0.9006 H   0  0  0  0  0  0  0  0  0  0  0  0
   -0.3423    2.0327    2.3141 H   0  0  0  0  0  0  0  0  0  0  0  0
    1.6823    1.4392    4.4661 H   0  0  0  0  0  0  0  0  0  0  0  0
    0.5558    0.0967    4.9034 H   0  0  0  0  0  0  0  0  0  0  0  0
    2.2712   -1.3611    4.4919 H   0  0  0  0  0  0  0  0  0  0  0  0
    0.9120   -1.8374    2.5526 H   0  0  0  0  0  0  0  0  0  0  0  0
    2.2228   -0.5934    0.4809 H   0  0  0  0  0  0  0  0  0  0  0  0
    4.3913    0.1705    1.3888 H   0  0  0  0  0  0  0  0  0  0  0  0
    3.9349    0.8647    3.7796 H   0  0  0  0  0  0  0  0  0  0  0  0
    6.5475   -0.7443    4.5671 H   0  0  0  0  0  0  0  0  0  0  0  0
    4.6916   -1.8288    5.6420 H   0  0  0  0  0  0  0  0  0  0  0  0
    4.3319   -4.1370    5.2217 H   0  0  0  0  0  0  0  0  0  0  0  0
    5.3743   -4.1436    2.6532 H   0  0  0  0  0  0  0  0  0  0  0  0
    2.3494   -3.1959    2.9207 H   0  0  0  0  0  0  0  0  0  0  0  0
    3.0138   -5.9171    0.5088 H   0  0  0  0  0  0  0  0  0  0  0  0
    4.1802   -6.7773    1.5270 H   0  0  0  0  0  0  0  0  0  0  0  0
    4.6681   -5.3165    0.6932 H   0  0  0  0  0  0  0  0  0  0  0  0
    1.5609   -6.0182    2.7273 H   0  0  0  0  0  0  0  0  0  0  0  0
    2.1909   -5.1919    4.1510 H   0  0  0  0  0  0  0  0  0  0  0  0
    2.9527   -6.6788    3.6039 H   0  0  0  0  0  0  0  0  0  0  0  0
    3.6061   -3.8149   -0.4090 H   0  0  0  0  0  0  0  0  0  0  0  0
    2.0156   -3.1196   -0.2290 H   0  0  0  0  0  0  0  0  0  0  0  0
    1.7647   -2.5693   -2.5993 H   0  0  0  0  0  0  0  0  0  0  0  0
    5.8154    0.2525   -2.3090 H   0  0  0  0  0  0  0  0  0  0  0  0
    6.4904   -1.4089   -0.2670 H   0  0  0  0  0  0  0  0  0  0  0  0
    5.5575   -0.0777    0.3238 H   0  0  0  0  0  0  0  0  0  0  0  0
    5.4705   -2.9522    0.9137 H   0  0  0  0  0  0  0  0  0  0  0  0
    2.6583    0.8868   -5.9016 H   0  0  0  0  0  0  0  0  0  0  0  0
    3.6921   -0.5360   -6.1988 H   0  0  0  0  0  0  0  0  0  0  0  0
    2.9725    0.9248    1.8302 H   0  0  0  0  0  0  0  0  0  0  0  0
  1  2  2  0
  1 32  1  0
  1 33  1  0
  2  5  1  0
  2  3  1  0
  3  4  1  0
  3 34  1  0
  3 35  1  0
  4  8  1  0
  4  5  1  0
  4 36  1  1
  5  6  1  0
  5 37  1  1
  6 18  1  0
  6  7  1  0
  6 38  1  6
  7  8  1  0
  7 39  1  0
  7 61  1  0
  8  9  1  0
  8 40  1  1
  9 28  1  0
  9 10  1  1
  9 11  1  0
 10 41  1  0
 11 12  2  3
 11 42  1  0
 12 13  1  0
 12 43  1  0
 13 15  1  0
 13 14  1  0
 13 44  1  6
 14 15  1  0
 14 18  1  0
 14 45  1  1
 15 16  1  0
 15 17  1  0
 16 46  1  0
 16 47  1  0
 16 48  1  0
 17 49  1  0
 17 50  1  0
 17 51  1  0
 18 27  1  0
 18 19  1  6
 19 20  1  0
 19 52  1  0
 19 53  1  0
 20 25  2  0
 20 21  1  0
 21 22  2  0
 21 54  1  0
 22 31  1  0
 22 23  1  0
 23 24  2  0
 23 29  1  0
 24 25  1  0
 24 55  1  0
 25 26  1  0
 26 27  1  0
 26 56  1  0
 26 57  1  0
 27 28  1  0
 27 58  1  6
 29 30  1  0
 30 31  1  0
 30 59  1  0
 30 60  1  0
M  CHG  1   7   1
M  END
>  <i_m_ct_stereo_status>  (200) 
1

>  <s_m_source_file>  (200) 
/var/tmp/pbs.5076255.sched01/tmp6h9xbnrx/445q66801d.sdf

>  <i_m_source_file_index>  (200) 
43

>  <i_lp_mmshare_version>  (200) 
48012

>  <i_f3d_flags>  (200) 
0

>  <s_epik_input>  (200) 
W0NIM11DMShbQ0gzXSlbQ0BIXTJbQ0BIXTEvW0NIXT1bQ0hdXFtDQF0oW09IXSkoW0NAQEhdKFtOSF0zKVtDQEhdKFtDQEBIXTRbQ0BASF0zW0NAQF0yNTYpW0NIMl1DND1bQ0gyXSlPW0NAQEhdNltDSDJdYzdjKFtDSDJdNSlbY0hdYzhjKFtjSF03KU9bQ0gyXU84

>  <s_epik_cmdline>  (200) 
J2VwaWtfcHl0aG9uJywgJy1waHQnLCAnMi4wJywgJy1waCcsICc3LjAnLCAnLXRuJywgJzgnLCAnLW1hJywgJzIwMCcsICctaW1hZScsICc8aW5maWxlLm1hZT4nLCAnLW9tYWUnLCAnPG91dGZpbGUubWFlPic=

>  <r_lp_tautomer_probability>  (200) 
1

>  <r_epik_Ionization_Penalty>  (200) 
0.0147133

>  <r_epik_Ionization_Penalty_Charging>  (200) 
0.0146951

>  <r_epik_Ionization_Penalty_Neutral>  (200) 
1.8188e-05

>  <r_epik_State_Penalty>  (200) 
0.0115083

>  <r_epik_Charging_Adjusted_Penalty>  (200) 
0.0262034

>  <i_epik_Tot_Q>  (200) 
1

>  <i_epik_Tot_abs_Q>  (200) 
1

>  <s_epik_Chemistry_Notes>  (200) 
This compound contains an acetal/aminal-like group ( X-CH(R)-Y where X, Y are N, S, or O) that may be acid/base labile, releasing an aldehyde.

>  <s_lp_Force_Field>  (200) 
OPLS3e

>  <r_lp_Energy>  (200) 
113.014

>  <b_lp_Chiralities_Consistent>  (200) 
1

>  <s_lp_Variant>  (200) 
54:0-1

>  <s_i_glide_gridfile>  (200) 
pfpi4k_grid

>  <i_i_glide_lignum>  (200) 
43

>  <i_i_glide_rotatable_bonds>  (200) 
1

>  <r_i_docking_score>  (200) 
-2.50285

>  <r_i_glide_ligand_efficiency>  (200) 
-0.080737

>  <r_i_glide_ligand_efficiency_sa>  (200) 
-0.253626

>  <r_i_glide_ligand_efficiency_ln>  (200) 
-0.564468

>  <r_i_glide_gscore>  (200) 
-2.50285

>  <r_i_glide_lipo>  (200) 
-0.550298

>  <r_i_glide_hbond>  (200) 
0

>  <r_i_glide_metal>  (200) 
-0

>  <r_i_glide_rewards>  (200) 
-0.812164

>  <r_i_glide_evdw>  (200) 
-17.7031

>  <r_i_glide_ecoul>  (200) 
-1.70153

>  <r_i_glide_erotb>  (200) 
0

>  <r_i_glide_esite>  (200) 
0

>  <r_i_glide_emodel>  (200) 
-23.5665

>  <r_i_glide_energy>  (200) 
-19.4046

>  <r_i_glide_einternal>  (200) 
0.117677

>  <r_i_glide_intrahb_reward>  (200) 
-0

>  <i_i_glide_confnum>  (200) 
1

>  <i_i_glide_posenum>  (200) 
18

>  <r_i_glide_eff_state_penalty>  (200) 
0

>  <ligand_id>  (200) 
54

>  <original_smiles>  (200) 
C=C1CC2C1C1NC2C2(O)C=CC3C(C3(C)C)C13Cc1cc4c(cc1CC3O2)OCO4

>  <smiles>  (200) 
[H]OC12OC3([H])C([H])([H])c4c([H])c5c(c([H])c4C([H])([H])C3(C3([H])C([H])(C([H])=C1[H])C3(C([H])([H])[H])C([H])([H])[H])C1([H])C3([H])C(=C([H])[H])C([H])([H])C3([H])C2([H])[N+]1([H])[H])OC([H])([H])O5

$$$$
54:0:2
     RDKit          3D

 61 68  0  0  1  0  0  0  0  0999 V2000
   -0.4657    0.9719    2.1697 C   0  0  0  0  0  0  0  0  0  0  0  0
    0.2144    0.6297    3.2634 C   0  0  0  0  0  0  0  0  0  0  0  0
    0.3972    1.3335    4.5772 C   0  0  0  0  0  0  0  0  0  0  0  0
    1.5929    0.3625    4.7180 C   0  0  1  0  0  0  0  0  0  0  0  0
    1.0821   -0.5647    3.6055 C   0  0  2  0  0  0  0  0  0  0  0  0
    2.2937   -0.8085    2.7096 C   0  0  1  0  0  0  0  0  0  0  0  0
    2.9909    0.4856    2.8571 N   0  0  0  0  0  0  0  0  0  0  0  0
    3.0042    0.8217    4.2847 C   0  0  2  0  0  0  0  0  0  0  0  0
    4.2768    0.2177    4.9900 C   0  0  1  0  0  0  0  0  0  0  0  0
    5.0478    1.3280    5.3740 O   0  0  0  0  0  0  0  0  0  0  0  0
    3.9462   -0.4804    6.3286 C   0  0  0  0  0  0  0  0  0  0  0  0
    3.8735   -1.7878    6.5891 C   0  0  0  0  0  0  0  0  0  0  0  0
    4.0319   -2.7936    5.5319 C   0  0  2  0  0  0  0  0  0  0  0  0
    2.9106   -2.6837    4.4974 C   0  0  2  0  0  0  0  0  0  0  0  0
    3.2436   -4.0173    5.1861 C   0  0  0  0  0  0  0  0  0  0  0  0
    3.9235   -5.1621    4.4525 C   0  0  0  0  0  0  0  0  0  0  0  0
    2.2712   -4.5870    6.2062 C   0  0  0  0  0  0  0  0  0  0  0  0
    3.2514   -2.0193    3.1168 C   0  0  1  0  0  0  0  0  0  0  0  0
    3.1216   -3.0789    2.0053 C   0  0  0  0  0  0  0  0  0  0  0  0
    3.5709   -2.5829    0.6448 C   0  0  0  0  0  0  0  0  0  0  0  0
    2.9294   -3.0694   -0.5148 C   0  0  0  0  0  0  0  0  0  0  0  0
    3.3560   -2.5936   -1.7597 C   0  0  0  0  0  0  0  0  0  0  0  0
    4.3811   -1.6634   -1.8653 C   0  0  0  0  0  0  0  0  0  0  0  0
    5.0241   -1.1537   -0.7292 C   0  0  0  0  0  0  0  0  0  0  0  0
    4.6215   -1.6190    0.5406 C   0  0  0  0  0  0  0  0  0  0  0  0
    5.3076   -1.0555    1.7687 C   0  0  0  0  0  0  0  0  0  0  0  0
    4.7326   -1.5330    3.1193 C   0  0  1  0  0  0  0  0  0  0  0  0
    5.1125   -0.5445    4.1098 O   0  0  0  0  0  0  0  0  0  0  0  0
    4.6171   -1.3967   -3.1716 O   0  0  0  0  0  0  0  0  0  0  0  0
    3.7677   -2.2589   -3.8856 C   0  0  0  0  0  0  0  0  0  0  0  0
    2.9069   -2.9185   -2.9940 O   0  0  0  0  0  0  0  0  0  0  0  0
   -0.4791    0.3460    1.2852 H   0  0  0  0  0  0  0  0  0  0  0  0
   -1.0376    1.8941    2.1369 H   0  0  0  0  0  0  0  0  0  0  0  0
    0.6943    2.3848    4.5599 H   0  0  0  0  0  0  0  0  0  0  0  0
   -0.3570    1.1533    5.3413 H   0  0  0  0  0  0  0  0  0  0  0  0
    1.5264   -0.1162    5.6882 H   0  0  0  0  0  0  0  0  0  0  0  0
    0.4969   -1.4279    3.9197 H   0  0  0  0  0  0  0  0  0  0  0  0
    1.9638   -0.8815    1.6716 H   0  0  0  0  0  0  0  0  0  0  0  0
    3.9137    0.4932    2.4552 H   0  0  0  0  0  0  0  0  0  0  0  0
    3.0612    1.9111    4.3742 H   0  0  0  0  0  0  0  0  0  0  0  0
    5.1535    1.8775    4.6131 H   0  0  0  0  0  0  0  0  0  0  0  0
    3.7998    0.1972    7.1650 H   0  0  0  0  0  0  0  0  0  0  0  0
    3.6819   -2.1421    7.5959 H   0  0  0  0  0  0  0  0  0  0  0  0
    5.0864   -2.9251    5.3263 H   0  0  0  0  0  0  0  0  0  0  0  0
    1.9785   -2.3571    4.9194 H   0  0  0  0  0  0  0  0  0  0  0  0
    3.2191   -5.6431    3.7725 H   0  0  0  0  0  0  0  0  0  0  0  0
    4.2962   -5.9163    5.1486 H   0  0  0  0  0  0  0  0  0  0  0  0
    4.7773   -4.8009    3.8845 H   0  0  0  0  0  0  0  0  0  0  0  0
    1.4777   -5.1417    5.7053 H   0  0  0  0  0  0  0  0  0  0  0  0
    1.8176   -3.7855    6.7838 H   0  0  0  0  0  0  0  0  0  0  0  0
    2.7818   -5.2551    6.9011 H   0  0  0  0  0  0  0  0  0  0  0  0
    3.7565   -3.9404    2.1964 H   0  0  0  0  0  0  0  0  0  0  0  0
    2.0976   -3.4529    1.9585 H   0  0  0  0  0  0  0  0  0  0  0  0
    2.1171   -3.7877   -0.4614 H   0  0  0  0  0  0  0  0  0  0  0  0
    5.8148   -0.4191   -0.8233 H   0  0  0  0  0  0  0  0  0  0  0  0
    6.3733   -1.2846    1.7271 H   0  0  0  0  0  0  0  0  0  0  0  0
    5.2533    0.0301    1.6946 H   0  0  0  0  0  0  0  0  0  0  0  0
    5.3303   -2.4273    3.2992 H   0  0  0  0  0  0  0  0  0  0  0  0
    3.2116   -1.7181   -4.6538 H   0  0  0  0  0  0  0  0  0  0  0  0
    4.3876   -3.0258   -4.3446 H   0  0  0  0  0  0  0  0  0  0  0  0
    2.3900    1.1648    2.4277 H   0  0  0  0  0  0  0  0  0  0  0  0
  1  2  2  0
  1 32  1  0
  1 33  1  0
  2  5  1  0
  2  3  1  0
  3  4  1  0
  3 34  1  0
  3 35  1  0
  4  8  1  0
  4  5  1  0
  4 36  1  1
  5  6  1  0
  5 37  1  1
  6 18  1  0
  6  7  1  0
  6 38  1  6
  7  8  1  0
  7 39  1  0
  7 61  1  0
  8  9  1  0
  8 40  1  6
  9 28  1  0
  9 10  1  1
  9 11  1  0
 10 41  1  0
 11 12  2  3
 11 42  1  0
 12 13  1  0
 12 43  1  0
 13 15  1  0
 13 14  1  0
 13 44  1  6
 14 15  1  0
 14 18  1  0
 14 45  1  1
 15 16  1  0
 15 17  1  0
 16 46  1  0
 16 47  1  0
 16 48  1  0
 17 49  1  0
 17 50  1  0
 17 51  1  0
 18 27  1  0
 18 19  1  6
 19 20  1  0
 19 52  1  0
 19 53  1  0
 20 25  2  0
 20 21  1  0
 21 22  2  0
 21 54  1  0
 22 31  1  0
 22 23  1  0
 23 24  2  0
 23 29  1  0
 24 25  1  0
 24 55  1  0
 25 26  1  0
 26 27  1  0
 26 56  1  0
 26 57  1  0
 27 28  1  0
 27 58  1  1
 29 30  1  0
 30 31  1  0
 30 59  1  0
 30 60  1  0
M  CHG  1   7   1
M  END
>  <i_m_ct_stereo_status>  (201) 
1

>  <s_m_source_file>  (201) 
/var/tmp/pbs.5076255.sched01/tmp6h9xbnrx/445q66801d.sdf

>  <i_m_source_file_index>  (201) 
43

>  <i_lp_mmshare_version>  (201) 
48012

>  <i_f3d_flags>  (201) 
0

>  <s_epik_input>  (201) 
W0NIM11DMShbQ0gzXSlbQ0BIXTJbQ0BIXTEvW0NIXT1bQ0hdXFtDQF0oW09IXSkoW0NAQEhdKFtOSF0zKVtDQEhdKFtDQEBIXTRbQ0BASF0zW0NAQF0yNTYpW0NIMl1DND1bQ0gyXSlPW0NAQEhdNltDSDJdYzdjKFtDSDJdNSlbY0hdYzhjKFtjSF03KU9bQ0gyXU84

>  <s_epik_cmdline>  (201) 
J2VwaWtfcHl0aG9uJywgJy1waHQnLCAnMi4wJywgJy1waCcsICc3LjAnLCAnLXRuJywgJzgnLCAnLW1hJywgJzIwMCcsICctaW1hZScsICc8aW5maWxlLm1hZT4nLCAnLW9tYWUnLCAnPG91dGZpbGUubWFlPic=

>  <r_lp_tautomer_probability>  (201) 
1

>  <r_epik_Ionization_Penalty>  (201) 
0.0147133

>  <r_epik_Ionization_Penalty_Charging>  (201) 
0.0146951

>  <r_epik_Ionization_Penalty_Neutral>  (201) 
1.8188e-05

>  <r_epik_State_Penalty>  (201) 
0.0115083

>  <r_epik_Charging_Adjusted_Penalty>  (201) 
0.0262034

>  <i_epik_Tot_Q>  (201) 
1

>  <i_epik_Tot_abs_Q>  (201) 
1

>  <s_epik_Chemistry_Notes>  (201) 
This compound contains an acetal/aminal-like group ( X-CH(R)-Y where X, Y are N, S, or O) that may be acid/base labile, releasing an aldehyde.

>  <s_lp_Force_Field>  (201) 
OPLS3e

>  <r_lp_Energy>  (201) 
113.014

>  <b_lp_Chiralities_Consistent>  (201) 
1

>  <s_lp_Variant>  (201) 
54:0-1

>  <s_i_glide_gridfile>  (201) 
pfpi4k_grid

>  <i_i_glide_lignum>  (201) 
43

>  <i_i_glide_rotatable_bonds>  (201) 
1

>  <r_i_docking_score>  (201) 
-2.38807

>  <r_i_glide_ligand_efficiency>  (201) 
-0.0770345

>  <r_i_glide_ligand_efficiency_sa>  (201) 
-0.241995

>  <r_i_glide_ligand_efficiency_ln>  (201) 
-0.538583

>  <r_i_glide_gscore>  (201) 
-2.38807

>  <r_i_glide_lipo>  (201) 
-0.174124

>  <r_i_glide_hbond>  (201) 
0

>  <r_i_glide_metal>  (201) 
-0

>  <r_i_glide_rewards>  (201) 
-0.663348

>  <r_i_glide_evdw>  (201) 
-29.6268

>  <r_i_glide_ecoul>  (201) 
-0.46171

>  <r_i_glide_erotb>  (201) 
0

>  <r_i_glide_esite>  (201) 
0

>  <r_i_glide_emodel>  (201) 
-34.251

>  <r_i_glide_energy>  (201) 
-30.0885

>  <r_i_glide_einternal>  (201) 
0.118941

>  <r_i_glide_intrahb_reward>  (201) 
-0

>  <i_i_glide_confnum>  (201) 
1

>  <i_i_glide_posenum>  (201) 
30

>  <r_i_glide_eff_state_penalty>  (201) 
0

>  <ligand_id>  (201) 
54

>  <original_smiles>  (201) 
C=C1CC2C1C1NC2C2(O)C=CC3C(C3(C)C)C13Cc1cc4c(cc1CC3O2)OCO4

>  <smiles>  (201) 
[H]OC12OC3([H])C([H])([H])c4c([H])c5c(c([H])c4C([H])([H])C3(C3([H])C([H])(C([H])=C1[H])C3(C([H])([H])[H])C([H])([H])[H])C1([H])C3([H])C(=C([H])[H])C([H])([H])C3([H])C2([H])[N+]1([H])[H])OC([H])([H])O5

$$$$
54:1:0
     RDKit          3D

 61 68  0  0  1  0  0  0  0  0999 V2000
    7.9273   -6.7563    6.1304 C   0  0  0  0  0  0  0  0  0  0  0  0
    7.7160   -7.4684    5.0143 C   0  0  0  0  0  0  0  0  0  0  0  0
    8.6786   -8.0951    4.0378 C   0  0  0  0  0  0  0  0  0  0  0  0
    7.4223   -8.8631    3.5609 C   0  0  1  0  0  0  0  0  0  0  0  0
    6.4469   -8.0202    4.4084 C   0  0  2  0  0  0  0  0  0  0  0  0
    5.7246   -7.0749    3.4214 C   0  0  1  0  0  0  0  0  0  0  0  0
    6.5459   -7.2459    2.2065 N   0  0  0  0  0  0  0  0  0  0  0  0
    6.9321   -8.6627    2.1369 C   0  0  2  0  0  0  0  0  0  0  0  0
    5.7185   -9.5734    1.6907 C   0  0  1  0  0  0  0  0  0  0  0  0
    6.2180  -10.6184    0.8841 O   0  0  0  0  0  0  0  0  0  0  0  0
    4.9610  -10.2636    2.8290 C   0  0  0  0  0  0  0  0  0  0  0  0
    3.6247  -10.2917    2.9130 C   0  0  0  0  0  0  0  0  0  0  0  0
    3.0687   -9.6327    4.1095 C   0  0  1  0  0  0  0  0  0  0  0  0
    3.4090   -8.1378    4.1721 C   0  0  2  0  0  0  0  0  0  0  0  0
    1.9447   -8.6027    4.1633 C   0  0  0  0  0  0  0  0  0  0  0  0
    0.9557   -8.4590    3.0062 C   0  0  0  0  0  0  0  0  0  0  0  0
    1.1825   -8.4162    5.4659 C   0  0  0  0  0  0  0  0  0  0  0  0
    4.1782   -7.2847    3.0832 C   0  0  1  0  0  0  0  0  0  0  0  0
    3.5284   -5.8801    3.2167 C   0  0  0  0  0  0  0  0  0  0  0  0
    4.1710   -4.8709    2.2899 C   0  0  0  0  0  0  0  0  0  0  0  0
    4.6122   -3.6139    2.7611 C   0  0  0  0  0  0  0  0  0  0  0  0
    5.2574   -2.7755    1.8421 C   0  0  0  0  0  0  0  0  0  0  0  0
    5.4682   -3.1525    0.5291 C   0  0  0  0  0  0  0  0  0  0  0  0
    5.0408   -4.3959    0.0401 C   0  0  0  0  0  0  0  0  0  0  0  0
    4.3821   -5.2590    0.9452 C   0  0  0  0  0  0  0  0  0  0  0  0
    3.8591   -6.6055    0.5012 C   0  0  0  0  0  0  0  0  0  0  0  0
    3.9770   -7.7466    1.5521 C   0  0  1  0  0  0  0  0  0  0  0  0
    4.8682   -8.7314    0.9466 O   0  0  0  0  0  0  0  0  0  0  0  0
    6.1037   -2.1525   -0.1332 O   0  0  0  0  0  0  0  0  0  0  0  0
    6.1777   -1.0863    0.7785 C   0  0  0  0  0  0  0  0  0  0  0  0
    5.7563   -1.5305    2.0413 O   0  0  0  0  0  0  0  0  0  0  0  0
    7.0980   -6.4332    6.7463 H   0  0  0  0  0  0  0  0  0  0  0  0
    8.9311   -6.4994    6.4388 H   0  0  0  0  0  0  0  0  0  0  0  0
    9.1101   -7.4398    3.2777 H   0  0  0  0  0  0  0  0  0  0  0  0
    9.4452   -8.7524    4.4411 H   0  0  0  0  0  0  0  0  0  0  0  0
    7.5181   -9.9002    3.8758 H   0  0  0  0  0  0  0  0  0  0  0  0
    5.8268   -8.6133    5.0764 H   0  0  0  0  0  0  0  0  0  0  0  0
    5.8933   -6.0607    3.7818 H   0  0  0  0  0  0  0  0  0  0  0  0
    6.0686   -6.9402    1.3681 H   0  0  0  0  0  0  0  0  0  0  0  0
    7.7331   -8.7284    1.3924 H   0  0  0  0  0  0  0  0  0  0  0  0
    5.4754  -11.1998    0.6824 H   0  0  0  0  0  0  0  0  0  0  0  0
    5.4565  -10.3115    3.7824 H   0  0  0  0  0  0  0  0  0  0  0  0
    3.0282  -10.2165    2.0199 H   0  0  0  0  0  0  0  0  0  0  0  0
    3.2152  -10.2286    5.0095 H   0  0  0  0  0  0  0  0  0  0  0  0
    3.7221   -7.7998    5.1558 H   0  0  0  0  0  0  0  0  0  0  0  0
   -0.0051   -8.8972    3.2785 H   0  0  0  0  0  0  0  0  0  0  0  0
    1.2598   -8.9984    2.1196 H   0  0  0  0  0  0  0  0  0  0  0  0
    0.7913   -7.4104    2.7651 H   0  0  0  0  0  0  0  0  0  0  0  0
    0.7683   -7.4103    5.5328 H   0  0  0  0  0  0  0  0  0  0  0  0
    1.8369   -8.5716    6.3223 H   0  0  0  0  0  0  0  0  0  0  0  0
    0.3683   -9.1352    5.5429 H   0  0  0  0  0  0  0  0  0  0  0  0
    2.4647   -5.9325    2.9789 H   0  0  0  0  0  0  0  0  0  0  0  0
    3.5907   -5.5251    4.2479 H   0  0  0  0  0  0  0  0  0  0  0  0
    4.4611   -3.3081    3.7868 H   0  0  0  0  0  0  0  0  0  0  0  0
    5.1881   -4.6764   -0.9953 H   0  0  0  0  0  0  0  0  0  0  0  0
    2.7998   -6.4433    0.2951 H   0  0  0  0  0  0  0  0  0  0  0  0
    4.3044   -6.8959   -0.4530 H   0  0  0  0  0  0  0  0  0  0  0  0
    3.0054   -8.2010    1.4635 H   0  0  0  0  0  0  0  0  0  0  0  0
    7.1880   -0.6791    0.8298 H   0  0  0  0  0  0  0  0  0  0  0  0
    5.4927   -0.3056    0.4461 H   0  0  0  0  0  0  0  0  0  0  0  0
    7.4063   -6.7407    2.3508 H   0  0  0  0  0  0  0  0  0  0  0  0
  1  2  2  0
  1 32  1  0
  1 33  1  0
  2  5  1  0
  2  3  1  0
  3  4  1  0
  3 34  1  0
  3 35  1  0
  4  8  1  0
  4  5  1  0
  4 36  1  1
  5  6  1  0
  5 37  1  1
  6 18  1  0
  6  7  1  0
  6 38  1  1
  7  8  1  0
  7 39  1  0
  7 61  1  0
  8  9  1  0
  8 40  1  6
  9 28  1  0
  9 10  1  6
  9 11  1  0
 10 41  1  0
 11 12  2  3
 11 42  1  0
 12 13  1  0
 12 43  1  0
 13 15  1  0
 13 14  1  0
 13 44  1  1
 14 15  1  0
 14 18  1  0
 14 45  1  1
 15 16  1  0
 15 17  1  0
 16 46  1  0
 16 47  1  0
 16 48  1  0
 17 49  1  0
 17 50  1  0
 17 51  1  0
 18 27  1  0
 18 19  1  6
 19 20  1  0
 19 52  1  0
 19 53  1  0
 20 25  2  0
 20 21  1  0
 21 22  2  0
 21 54  1  0
 22 31  1  0
 22 23  1  0
 23 24  2  0
 23 29  1  0
 24 25  1  0
 24 55  1  0
 25 26  1  0
 26 27  1  0
 26 56  1  0
 26 57  1  0
 27 28  1  0
 27 58  1  1
 29 30  1  0
 30 31  1  0
 30 59  1  0
 30 60  1  0
M  CHG  1   7   1
M  END
>  <i_m_ct_stereo_status>  (202) 
1

>  <s_m_source_file>  (202) 
/var/tmp/pbs.5076255.sched01/tmp6h9xbnrx/445q66801d.sdf

>  <i_m_source_file_index>  (202) 
44

>  <i_lp_mmshare_version>  (202) 
48012

>  <i_f3d_flags>  (202) 
2

>  <s_epik_input>  (202) 
W0NIM11DMShbQ0gzXSlbQ0BIXTJbQ0BIXTEvW0NIXT1bQ0hdXFtDQF0oW09IXSkoW0NAQEhdKFtOSF0zKVtDQEhdKFtDQEBIXTRbQ0BASF0zW0NAQF0yNTYpW0NIMl1DND1bQ0gyXSlPW0NAQEhdNltDSDJdYzdjKFtDSDJdNSlbY0hdYzhjKFtjSF03KU9bQ0gyXU84

>  <s_epik_cmdline>  (202) 
J2VwaWtfcHl0aG9uJywgJy1waHQnLCAnMi4wJywgJy1waCcsICc3LjAnLCAnLXRuJywgJzgnLCAnLW1hJywgJzIwMCcsICctaW1hZScsICc8aW5maWxlLm1hZT4nLCAnLW9tYWUnLCAnPG91dGZpbGUubWFlPic=

>  <r_lp_tautomer_probability>  (202) 
1

>  <r_epik_Ionization_Penalty>  (202) 
0.0147133

>  <r_epik_Ionization_Penalty_Charging>  (202) 
0.0146951

>  <r_epik_Ionization_Penalty_Neutral>  (202) 
1.8188e-05

>  <r_epik_State_Penalty>  (202) 
0.0115083

>  <r_epik_Charging_Adjusted_Penalty>  (202) 
0.0262034

>  <i_epik_Tot_Q>  (202) 
1

>  <i_epik_Tot_abs_Q>  (202) 
1

>  <s_epik_Chemistry_Notes>  (202) 
This compound contains an acetal/aminal-like group ( X-CH(R)-Y where X, Y are N, S, or O) that may be acid/base labile, releasing an aldehyde.

>  <s_lp_Force_Field>  (202) 
OPLS3e

>  <r_lp_Energy>  (202) 
127.406

>  <b_lp_Chiralities_Consistent>  (202) 
0

>  <s_lp_Variant>  (202) 
54:0-2

>  <s_i_glide_gridfile>  (202) 
pfpi4k_grid

>  <i_i_glide_lignum>  (202) 
44

>  <i_i_glide_rotatable_bonds>  (202) 
1

>  <r_i_docking_score>  (202) 
-3.62974

>  <r_i_glide_ligand_efficiency>  (202) 
-0.117088

>  <r_i_glide_ligand_efficiency_sa>  (202) 
-0.367819

>  <r_i_glide_ligand_efficiency_ln>  (202) 
-0.818618

>  <r_i_glide_gscore>  (202) 
-3.62974

>  <r_i_glide_lipo>  (202) 
-0.455403

>  <r_i_glide_hbond>  (202) 
0

>  <r_i_glide_metal>  (202) 
-0

>  <r_i_glide_rewards>  (202) 
-0.696567

>  <r_i_glide_evdw>  (202) 
-25.8262

>  <r_i_glide_ecoul>  (202) 
-7.74757

>  <r_i_glide_erotb>  (202) 
0

>  <r_i_glide_esite>  (202) 
-0.0243238

>  <r_i_glide_emodel>  (202) 
-41.7911

>  <r_i_glide_energy>  (202) 
-33.5738

>  <r_i_glide_einternal>  (202) 
0.000282581

>  <r_i_glide_intrahb_reward>  (202) 
-0

>  <i_i_glide_confnum>  (202) 
1

>  <i_i_glide_posenum>  (202) 
6

>  <r_i_glide_eff_state_penalty>  (202) 
0

>  <ligand_id>  (202) 
54

>  <original_smiles>  (202) 
C=C1CC2C1C1NC2C2(O)C=CC3C(C3(C)C)C13Cc1cc4c(cc1CC3O2)OCO4

>  <smiles>  (202) 
[H]OC12OC3([H])C([H])([H])c4c([H])c5c(c([H])c4C([H])([H])C3(C3([H])C([H])(C([H])=C1[H])C3(C([H])([H])[H])C([H])([H])[H])C1([H])C3([H])C(=C([H])[H])C([H])([H])C3([H])C2([H])[N+]1([H])[H])OC([H])([H])O5

$$$$
54:1:1
     RDKit          3D

 61 68  0  0  1  0  0  0  0  0999 V2000
    6.1349   -5.8921    6.6914 C   0  0  0  0  0  0  0  0  0  0  0  0
    6.1483   -6.6190    5.5702 C   0  0  0  0  0  0  0  0  0  0  0  0
    7.2844   -7.2323    4.7911 C   0  0  0  0  0  0  0  0  0  0  0  0
    6.1566   -8.0421    4.1100 C   0  0  1  0  0  0  0  0  0  0  0  0
    5.0230   -7.2162    4.7499 C   0  0  2  0  0  0  0  0  0  0  0  0
    4.4724   -6.3024    3.6364 C   0  0  1  0  0  0  0  0  0  0  0  0
    5.5047   -6.4639    2.5887 N   0  0  0  0  0  0  0  0  0  0  0  0
    5.9332   -7.8836    2.6134 C   0  0  2  0  0  0  0  0  0  0  0  0
    4.8389   -8.8262    1.9638 C   0  0  1  0  0  0  0  0  0  0  0  0
    5.5065   -9.8497    1.2571 O   0  0  0  0  0  0  0  0  0  0  0  0
    3.9040   -9.5256    2.9527 C   0  0  0  0  0  0  0  0  0  0  0  0
    2.5737   -9.5827    2.8017 C   0  0  0  0  0  0  0  0  0  0  0  0
    1.7990   -8.9213    3.8720 C   0  0  1  0  0  0  0  0  0  0  0  0
    2.0862   -7.4161    3.9740 C   0  0  2  0  0  0  0  0  0  0  0  0
    0.6579   -7.9190    3.7063 C   0  0  0  0  0  0  0  0  0  0  0  0
   -0.1101   -7.8101    2.3908 C   0  0  0  0  0  0  0  0  0  0  0  0
   -0.3321   -7.7399    4.8456 C   0  0  0  0  0  0  0  0  0  0  0  0
    3.0153   -6.5528    3.0339 C   0  0  1  0  0  0  0  0  0  0  0  0
    2.3157   -5.1646    3.0277 C   0  0  0  0  0  0  0  0  0  0  0  0
    3.0891   -4.1464    2.2145 C   0  0  0  0  0  0  0  0  0  0  0  0
    3.4061   -2.8732    2.7351 C   0  0  0  0  0  0  0  0  0  0  0  0
    4.1879   -2.0300    1.9300 C   0  0  0  0  0  0  0  0  0  0  0  0
    4.6392   -2.4200    0.6831 C   0  0  0  0  0  0  0  0  0  0  0  0
    4.3373   -3.6819    0.1482 C   0  0  0  0  0  0  0  0  0  0  0  0
    3.5478   -4.5440    0.9408 C   0  0  0  0  0  0  0  0  0  0  0  0
    3.1512   -5.9107    0.4391 C   0  0  0  0  0  0  0  0  0  0  0  0
    3.1023   -7.0344    1.5066 C   0  0  1  0  0  0  0  0  0  0  0  0
    4.1097   -8.0058    1.0779 O   0  0  0  0  0  0  0  0  0  0  0  0
    5.3573   -1.4157    0.1237 O   0  0  0  0  0  0  0  0  0  0  0  0
    5.2380   -0.3347    1.0103 C   0  0  0  0  0  0  0  0  0  0  0  0
    4.6142   -0.7721    2.1901 O   0  0  0  0  0  0  0  0  0  0  0  0
    5.2018   -5.5839    7.1428 H   0  0  0  0  0  0  0  0  0  0  0  0
    7.0600   -5.6036    7.1742 H   0  0  0  0  0  0  0  0  0  0  0  0
    7.8314   -6.5698    4.1149 H   0  0  0  0  0  0  0  0  0  0  0  0
    7.9826   -7.8626    5.3402 H   0  0  0  0  0  0  0  0  0  0  0  0
    6.2184   -9.0719    4.4545 H   0  0  0  0  0  0  0  0  0  0  0  0
    4.3079   -7.8160    5.3050 H   0  0  0  0  0  0  0  0  0  0  0  0
    4.5476   -5.2788    4.0032 H   0  0  0  0  0  0  0  0  0  0  0  0
    5.1781   -6.1838    1.6745 H   0  0  0  0  0  0  0  0  0  0  0  0
    6.8610   -7.9709    2.0429 H   0  0  0  0  0  0  0  0  0  0  0  0
    4.8702  -10.5135    1.0075 H   0  0  0  0  0  0  0  0  0  0  0  0
    4.2233   -9.5437    3.9816 H   0  0  0  0  0  0  0  0  0  0  0  0
    2.1454   -9.5279    1.8147 H   0  0  0  0  0  0  0  0  0  0  0  0
    1.7969   -9.5025    4.7912 H   0  0  0  0  0  0  0  0  0  0  0  0
    2.2046   -7.0610    4.9941 H   0  0  0  0  0  0  0  0  0  0  0  0
   -1.0918   -8.2759    2.4865 H   0  0  0  0  0  0  0  0  0  0  0  0
    0.3670   -8.3470    1.5830 H   0  0  0  0  0  0  0  0  0  0  0  0
   -0.2534   -6.7694    2.1058 H   0  0  0  0  0  0  0  0  0  0  0  0
   -0.7780   -6.7447    4.8186 H   0  0  0  0  0  0  0  0  0  0  0  0
    0.1608   -7.8682    5.8077 H   0  0  0  0  0  0  0  0  0  0  0  0
   -1.1281   -8.4818    4.7835 H   0  0  0  0  0  0  0  0  0  0  0  0
    1.3175   -5.2476    2.5967 H   0  0  0  0  0  0  0  0  0  0  0  0
    2.1822   -4.7947    4.0448 H   0  0  0  0  0  0  0  0  0  0  0  0
    3.0667   -2.5576    3.7108 H   0  0  0  0  0  0  0  0  0  0  0  0
    4.6809   -3.9671   -0.8373 H   0  0  0  0  0  0  0  0  0  0  0  0
    2.1539   -5.7965    0.0116 H   0  0  0  0  0  0  0  0  0  0  0  0
    3.8019   -6.1977   -0.3853 H   0  0  0  0  0  0  0  0  0  0  0  0
    2.1762   -7.5149    1.2494 H   0  0  0  0  0  0  0  0  0  0  0  0
    6.2121    0.0935    1.2264 H   0  0  0  0  0  0  0  0  0  0  0  0
    4.6028    0.4254    0.5477 H   0  0  0  0  0  0  0  0  0  0  0  0
    6.3077   -5.9285    2.8777 H   0  0  0  0  0  0  0  0  0  0  0  0
  1  2  2  0
  1 32  1  0
  1 33  1  0
  2  5  1  0
  2  3  1  0
  3  4  1  0
  3 34  1  0
  3 35  1  0
  4  8  1  0
  4  5  1  0
  4 36  1  1
  5  6  1  0
  5 37  1  1
  6 18  1  0
  6  7  1  0
  6 38  1  1
  7  8  1  0
  7 39  1  0
  7 61  1  0
  8  9  1  0
  8 40  1  6
  9 28  1  0
  9 10  1  6
  9 11  1  0
 10 41  1  0
 11 12  2  3
 11 42  1  0
 12 13  1  0
 12 43  1  0
 13 15  1  0
 13 14  1  0
 13 44  1  1
 14 15  1  0
 14 18  1  0
 14 45  1  1
 15 16  1  0
 15 17  1  0
 16 46  1  0
 16 47  1  0
 16 48  1  0
 17 49  1  0
 17 50  1  0
 17 51  1  0
 18 27  1  0
 18 19  1  6
 19 20  1  0
 19 52  1  0
 19 53  1  0
 20 25  2  0
 20 21  1  0
 21 22  2  0
 21 54  1  0
 22 31  1  0
 22 23  1  0
 23 24  2  0
 23 29  1  0
 24 25  1  0
 24 55  1  0
 25 26  1  0
 26 27  1  0
 26 56  1  0
 26 57  1  0
 27 28  1  0
 27 58  1  6
 29 30  1  0
 30 31  1  0
 30 59  1  0
 30 60  1  0
M  CHG  1   7   1
M  END
>  <i_m_ct_stereo_status>  (203) 
1

>  <s_m_source_file>  (203) 
/var/tmp/pbs.5076255.sched01/tmp6h9xbnrx/445q66801d.sdf

>  <i_m_source_file_index>  (203) 
44

>  <i_lp_mmshare_version>  (203) 
48012

>  <i_f3d_flags>  (203) 
2

>  <s_epik_input>  (203) 
W0NIM11DMShbQ0gzXSlbQ0BIXTJbQ0BIXTEvW0NIXT1bQ0hdXFtDQF0oW09IXSkoW0NAQEhdKFtOSF0zKVtDQEhdKFtDQEBIXTRbQ0BASF0zW0NAQF0yNTYpW0NIMl1DND1bQ0gyXSlPW0NAQEhdNltDSDJdYzdjKFtDSDJdNSlbY0hdYzhjKFtjSF03KU9bQ0gyXU84

>  <s_epik_cmdline>  (203) 
J2VwaWtfcHl0aG9uJywgJy1waHQnLCAnMi4wJywgJy1waCcsICc3LjAnLCAnLXRuJywgJzgnLCAnLW1hJywgJzIwMCcsICctaW1hZScsICc8aW5maWxlLm1hZT4nLCAnLW9tYWUnLCAnPG91dGZpbGUubWFlPic=

>  <r_lp_tautomer_probability>  (203) 
1

>  <r_epik_Ionization_Penalty>  (203) 
0.0147133

>  <r_epik_Ionization_Penalty_Charging>  (203) 
0.0146951

>  <r_epik_Ionization_Penalty_Neutral>  (203) 
1.8188e-05

>  <r_epik_State_Penalty>  (203) 
0.0115083

>  <r_epik_Charging_Adjusted_Penalty>  (203) 
0.0262034

>  <i_epik_Tot_Q>  (203) 
1

>  <i_epik_Tot_abs_Q>  (203) 
1

>  <s_epik_Chemistry_Notes>  (203) 
This compound contains an acetal/aminal-like group ( X-CH(R)-Y where X, Y are N, S, or O) that may be acid/base labile, releasing an aldehyde.

>  <s_lp_Force_Field>  (203) 
OPLS3e

>  <r_lp_Energy>  (203) 
127.406

>  <b_lp_Chiralities_Consistent>  (203) 
0

>  <s_lp_Variant>  (203) 
54:0-2

>  <s_i_glide_gridfile>  (203) 
pfpi4k_grid

>  <i_i_glide_lignum>  (203) 
44

>  <i_i_glide_rotatable_bonds>  (203) 
1

>  <r_i_docking_score>  (203) 
-2.95896

>  <r_i_glide_ligand_efficiency>  (203) 
-0.0954502

>  <r_i_glide_ligand_efficiency_sa>  (203) 
-0.299845

>  <r_i_glide_ligand_efficiency_ln>  (203) 
-0.667335

>  <r_i_glide_gscore>  (203) 
-2.95896

>  <r_i_glide_lipo>  (203) 
-0.108445

>  <r_i_glide_hbond>  (203) 
0

>  <r_i_glide_metal>  (203) 
-0

>  <r_i_glide_rewards>  (203) 
-0.763845

>  <r_i_glide_evdw>  (203) 
-25.9558

>  <r_i_glide_ecoul>  (203) 
-5.14333

>  <r_i_glide_erotb>  (203) 
0

>  <r_i_glide_esite>  (203) 
-0.0173773

>  <r_i_glide_emodel>  (203) 
-37.7211

>  <r_i_glide_energy>  (203) 
-31.0991

>  <r_i_glide_einternal>  (203) 
0.0280881

>  <r_i_glide_intrahb_reward>  (203) 
-0

>  <i_i_glide_confnum>  (203) 
1

>  <i_i_glide_posenum>  (203) 
24

>  <r_i_glide_eff_state_penalty>  (203) 
0

>  <ligand_id>  (203) 
54

>  <original_smiles>  (203) 
C=C1CC2C1C1NC2C2(O)C=CC3C(C3(C)C)C13Cc1cc4c(cc1CC3O2)OCO4

>  <smiles>  (203) 
[H]OC12OC3([H])C([H])([H])c4c([H])c5c(c([H])c4C([H])([H])C3(C3([H])C([H])(C([H])=C1[H])C3(C([H])([H])[H])C([H])([H])[H])C1([H])C3([H])C(=C([H])[H])C([H])([H])C3([H])C2([H])[N+]1([H])[H])OC([H])([H])O5

$$$$
54:1:2
     RDKit          3D

 61 68  0  0  1  0  0  0  0  0999 V2000
    0.3580   -2.5871    4.7634 C   0  0  0  0  0  0  0  0  0  0  0  0
    1.1259   -3.5299    5.2940 C   0  0  0  0  0  0  0  0  0  0  0  0
    2.1726   -3.4565    6.3799 C   0  0  0  0  0  0  0  0  0  0  0  0
    2.0167   -4.9936    6.3827 C   0  0  1  0  0  0  0  0  0  0  0  0
    1.1409   -5.0355    5.1153 C   0  0  2  0  0  0  0  0  0  0  0  0
    2.0499   -5.5523    3.9780 C   0  0  1  0  0  0  0  0  0  0  0  0
    3.3777   -5.4811    4.6142 N   0  0  0  0  0  0  0  0  0  0  0  0
    3.2162   -5.8577    6.0325 C   0  0  2  0  0  0  0  0  0  0  0  0
    3.0211   -7.4166    6.1705 C   0  0  1  0  0  0  0  0  0  0  0  0
    3.6726   -7.8324    7.3463 O   0  0  0  0  0  0  0  0  0  0  0  0
    1.5668   -7.8848    6.3114 C   0  0  0  0  0  0  0  0  0  0  0  0
    1.0467   -8.9118    5.6356 C   0  0  0  0  0  0  0  0  0  0  0  0
   -0.0507   -8.5488    4.7210 C   0  0  1  0  0  0  0  0  0  0  0  0
    0.3754   -7.5612    3.6317 C   0  0  2  0  0  0  0  0  0  0  0  0
   -0.2025   -8.9331    3.2542 C   0  0  0  0  0  0  0  0  0  0  0  0
    0.5666  -10.1157    2.6681 C   0  0  0  0  0  0  0  0  0  0  0  0
   -1.5893   -8.9200    2.6264 C   0  0  0  0  0  0  0  0  0  0  0  0
    1.8208   -7.0007    3.3589 C   0  0  1  0  0  0  0  0  0  0  0  0
    1.8360   -6.8090    1.8200 C   0  0  0  0  0  0  0  0  0  0  0  0
    3.1388   -6.2053    1.3430 C   0  0  0  0  0  0  0  0  0  0  0  0
    3.1574   -5.0777    0.4903 C   0  0  0  0  0  0  0  0  0  0  0  0
    4.4148   -4.5415    0.1600 C   0  0  0  0  0  0  0  0  0  0  0  0
    5.5904   -5.0843    0.6557 C   0  0  0  0  0  0  0  0  0  0  0  0
    5.5916   -6.2032    1.5054 C   0  0  0  0  0  0  0  0  0  0  0  0
    4.3383   -6.7661    1.8466 C   0  0  0  0  0  0  0  0  0  0  0  0
    4.2429   -7.9889    2.7348 C   0  0  0  0  0  0  0  0  0  0  0  0
    3.0327   -7.9998    3.7083 C   0  0  1  0  0  0  0  0  0  0  0  0
    3.6415   -7.9812    5.0354 O   0  0  0  0  0  0  0  0  0  0  0  0
    6.6480   -4.3854    0.1726 O   0  0  0  0  0  0  0  0  0  0  0  0
    6.1034   -3.4543   -0.7267 C   0  0  0  0  0  0  0  0  0  0  0  0
    4.7020   -3.4895   -0.6429 O   0  0  0  0  0  0  0  0  0  0  0  0
   -0.3882   -2.8298    4.0201 H   0  0  0  0  0  0  0  0  0  0  0  0
    0.4613   -1.5467    5.0539 H   0  0  0  0  0  0  0  0  0  0  0  0
    3.1679   -3.1157    6.0822 H   0  0  0  0  0  0  0  0  0  0  0  0
    1.8823   -3.0014    7.3285 H   0  0  0  0  0  0  0  0  0  0  0  0
    1.5018   -5.2734    7.2953 H   0  0  0  0  0  0  0  0  0  0  0  0
    0.1848   -5.5308    5.2711 H   0  0  0  0  0  0  0  0  0  0  0  0
    2.0277   -4.8011    3.1890 H   0  0  0  0  0  0  0  0  0  0  0  0
    4.0616   -6.0601    4.1471 H   0  0  0  0  0  0  0  0  0  0  0  0
    4.1148   -5.5548    6.5818 H   0  0  0  0  0  0  0  0  0  0  0  0
    4.5838   -7.5920    7.2952 H   0  0  0  0  0  0  0  0  0  0  0  0
    0.8382   -7.1361    6.5730 H   0  0  0  0  0  0  0  0  0  0  0  0
    1.6897   -9.7060    5.2901 H   0  0  0  0  0  0  0  0  0  0  0  0
   -0.9740   -8.3709    5.2636 H   0  0  0  0  0  0  0  0  0  0  0  0
   -0.3466   -6.7744    3.4647 H   0  0  0  0  0  0  0  0  0  0  0  0
   -0.0994  -10.9648    2.5060 H   0  0  0  0  0  0  0  0  0  0  0  0
    1.3336  -10.4920    3.3289 H   0  0  0  0  0  0  0  0  0  0  0  0
    1.0101   -9.8514    1.7071 H   0  0  0  0  0  0  0  0  0  0  0  0
   -1.5286   -8.7616    1.5457 H   0  0  0  0  0  0  0  0  0  0  0  0
   -2.2031   -8.1329    3.0635 H   0  0  0  0  0  0  0  0  0  0  0  0
   -2.1081   -9.8574    2.8105 H   0  0  0  0  0  0  0  0  0  0  0  0
    1.7021   -7.7655    1.3109 H   0  0  0  0  0  0  0  0  0  0  0  0
    1.0053   -6.1791    1.5026 H   0  0  0  0  0  0  0  0  0  0  0  0
    2.2528   -4.6332    0.0923 H   0  0  0  0  0  0  0  0  0  0  0  0
    6.5213   -6.6232    1.8719 H   0  0  0  0  0  0  0  0  0  0  0  0
    4.1447   -8.8370    2.0576 H   0  0  0  0  0  0  0  0  0  0  0  0
    5.1834   -8.1460    3.2641 H   0  0  0  0  0  0  0  0  0  0  0  0
    2.6881   -9.0123    3.5918 H   0  0  0  0  0  0  0  0  0  0  0  0
    6.4846   -2.4526   -0.5330 H   0  0  0  0  0  0  0  0  0  0  0  0
    6.3821   -3.7583   -1.7330 H   0  0  0  0  0  0  0  0  0  0  0  0
    3.6473   -4.5146    4.6230 H   0  0  0  0  0  0  0  0  0  0  0  0
  1  2  2  0
  1 32  1  0
  1 33  1  0
  2  5  1  0
  2  3  1  0
  3  4  1  0
  3 34  1  0
  3 35  1  0
  4  8  1  0
  4  5  1  0
  4 36  1  1
  5  6  1  0
  5 37  1  1
  6 18  1  0
  6  7  1  0
  6 38  1  6
  7  8  1  0
  7 39  1  0
  7 61  1  0
  8  9  1  0
  8 40  1  1
  9 28  1  0
  9 10  1  1
  9 11  1  0
 10 41  1  0
 11 12  2  3
 11 42  1  0
 12 13  1  0
 12 43  1  0
 13 15  1  0
 13 14  1  0
 13 44  1  1
 14 15  1  0
 14 18  1  0
 14 45  1  6
 15 16  1  0
 15 17  1  0
 16 46  1  0
 16 47  1  0
 16 48  1  0
 17 49  1  0
 17 50  1  0
 17 51  1  0
 18 27  1  0
 18 19  1  6
 19 20  1  0
 19 52  1  0
 19 53  1  0
 20 25  2  0
 20 21  1  0
 21 22  2  0
 21 54  1  0
 22 31  1  0
 22 23  1  0
 23 24  2  0
 23 29  1  0
 24 25  1  0
 24 55  1  0
 25 26  1  0
 26 27  1  0
 26 56  1  0
 26 57  1  0
 27 28  1  0
 27 58  1  1
 29 30  1  0
 30 31  1  0
 30 59  1  0
 30 60  1  0
M  CHG  1   7   1
M  END
>  <i_m_ct_stereo_status>  (204) 
1

>  <s_m_source_file>  (204) 
/var/tmp/pbs.5076255.sched01/tmp6h9xbnrx/445q66801d.sdf

>  <i_m_source_file_index>  (204) 
44

>  <i_lp_mmshare_version>  (204) 
48012

>  <i_f3d_flags>  (204) 
2

>  <s_epik_input>  (204) 
W0NIM11DMShbQ0gzXSlbQ0BIXTJbQ0BIXTEvW0NIXT1bQ0hdXFtDQF0oW09IXSkoW0NAQEhdKFtOSF0zKVtDQEhdKFtDQEBIXTRbQ0BASF0zW0NAQF0yNTYpW0NIMl1DND1bQ0gyXSlPW0NAQEhdNltDSDJdYzdjKFtDSDJdNSlbY0hdYzhjKFtjSF03KU9bQ0gyXU84

>  <s_epik_cmdline>  (204) 
J2VwaWtfcHl0aG9uJywgJy1waHQnLCAnMi4wJywgJy1waCcsICc3LjAnLCAnLXRuJywgJzgnLCAnLW1hJywgJzIwMCcsICctaW1hZScsICc8aW5maWxlLm1hZT4nLCAnLW9tYWUnLCAnPG91dGZpbGUubWFlPic=

>  <r_lp_tautomer_probability>  (204) 
1

>  <r_epik_Ionization_Penalty>  (204) 
0.0147133

>  <r_epik_Ionization_Penalty_Charging>  (204) 
0.0146951

>  <r_epik_Ionization_Penalty_Neutral>  (204) 
1.8188e-05

>  <r_epik_State_Penalty>  (204) 
0.0115083

>  <r_epik_Charging_Adjusted_Penalty>  (204) 
0.0262034

>  <i_epik_Tot_Q>  (204) 
1

>  <i_epik_Tot_abs_Q>  (204) 
1

>  <s_epik_Chemistry_Notes>  (204) 
This compound contains an acetal/aminal-like group ( X-CH(R)-Y where X, Y are N, S, or O) that may be acid/base labile, releasing an aldehyde.

>  <s_lp_Force_Field>  (204) 
OPLS3e

>  <r_lp_Energy>  (204) 
127.406

>  <b_lp_Chiralities_Consistent>  (204) 
0

>  <s_lp_Variant>  (204) 
54:0-2

>  <s_i_glide_gridfile>  (204) 
pfpi4k_grid

>  <i_i_glide_lignum>  (204) 
44

>  <i_i_glide_rotatable_bonds>  (204) 
1

>  <r_i_docking_score>  (204) 
-2.6641

>  <r_i_glide_ligand_efficiency>  (204) 
-0.0859388

>  <r_i_glide_ligand_efficiency_sa>  (204) 
-0.269966

>  <r_i_glide_ligand_efficiency_ln>  (204) 
-0.600837

>  <r_i_glide_gscore>  (204) 
-2.6641

>  <r_i_glide_lipo>  (204) 
-0.513869

>  <r_i_glide_hbond>  (204) 
0

>  <r_i_glide_metal>  (204) 
-0

>  <r_i_glide_rewards>  (204) 
-0.66441

>  <r_i_glide_evdw>  (204) 
-27.704

>  <r_i_glide_ecoul>  (204) 
-0.669169

>  <r_i_glide_erotb>  (204) 
0

>  <r_i_glide_esite>  (204) 
-0.000250968

>  <r_i_glide_emodel>  (204) 
-34.236

>  <r_i_glide_energy>  (204) 
-28.3731

>  <r_i_glide_einternal>  (204) 
0.139311

>  <r_i_glide_intrahb_reward>  (204) 
-0

>  <i_i_glide_confnum>  (204) 
2

>  <i_i_glide_posenum>  (204) 
28

>  <r_i_glide_eff_state_penalty>  (204) 
0

>  <ligand_id>  (204) 
54

>  <original_smiles>  (204) 
C=C1CC2C1C1NC2C2(O)C=CC3C(C3(C)C)C13Cc1cc4c(cc1CC3O2)OCO4

>  <smiles>  (204) 
[H]OC12OC3([H])C([H])([H])c4c([H])c5c(c([H])c4C([H])([H])C3(C3([H])C([H])(C([H])=C1[H])C3(C([H])([H])[H])C([H])([H])[H])C1([H])C3([H])C(=C([H])[H])C([H])([H])C3([H])C2([H])[N+]1([H])[H])OC([H])([H])O5

$$$$
54:2:0
     RDKit          3D

 60 67  0  0  1  0  0  0  0  0999 V2000
    4.0725   -6.3727    3.0560 C   0  0  0  0  0  0  0  0  0  0  0  0
    4.7635   -6.0250    1.9640 C   0  0  0  0  0  0  0  0  0  0  0  0
    6.0256   -6.5820    1.3687 C   0  0  0  0  0  0  0  0  0  0  0  0
    6.0297   -5.2511    0.5825 C   0  0  1  0  0  0  0  0  0  0  0  0
    4.5628   -4.9650    0.9024 C   0  0  2  0  0  0  0  0  0  0  0  0
    4.5596   -3.5153    1.3746 C   0  0  1  0  0  0  0  0  0  0  0  0
    5.8777   -3.4288    2.0151 N   0  0  0  0  0  0  0  0  0  0  0  0
    6.8463   -4.0529    1.1193 C   0  0  2  0  0  0  0  0  0  0  0  0
    7.4128   -2.9265    0.1464 C   0  0  1  0  0  0  0  0  0  0  0  0
    8.7742   -2.8230    0.4611 O   0  0  0  0  0  0  0  0  0  0  0  0
    7.4639   -3.3513   -1.3032 C   0  0  0  0  0  0  0  0  0  0  0  0
    6.6127   -3.0680   -2.3048 C   0  0  0  0  0  0  0  0  0  0  0  0
    5.4543   -2.2263   -2.1076 C   0  0  2  0  0  0  0  0  0  0  0  0
    4.4458   -2.9056   -1.1974 C   0  0  2  0  0  0  0  0  0  0  0  0
    4.0568   -2.3511   -2.5805 C   0  0  0  0  0  0  0  0  0  0  0  0
    3.2729   -1.0834   -2.7402 C   0  0  0  0  0  0  0  0  0  0  0  0
    3.6917   -3.3280   -3.6797 C   0  0  0  0  0  0  0  0  0  0  0  0
    4.3974   -2.3864    0.2740 C   0  0  1  0  0  0  0  0  0  0  0  0
    3.0283   -1.7440    0.5347 C   0  0  0  0  0  0  0  0  0  0  0  0
    2.9054   -1.0962    1.8992 C   0  0  0  0  0  0  0  0  0  0  0  0
    1.6525   -1.1145    2.5600 C   0  0  0  0  0  0  0  0  0  0  0  0
    1.5703   -0.4949    3.8085 C   0  0  0  0  0  0  0  0  0  0  0  0
    2.6626    0.1162    4.3953 C   0  0  0  0  0  0  0  0  0  0  0  0
    3.9220    0.1330    3.7702 C   0  0  0  0  0  0  0  0  0  0  0  0
    4.0374   -0.4844    2.5098 C   0  0  0  0  0  0  0  0  0  0  0  0
    5.3967   -0.5123    1.8340 C   0  0  0  0  0  0  0  0  0  0  0  0
    5.4688   -1.2731    0.5015 C   0  0  1  0  0  0  0  0  0  0  0  0
    6.8637   -1.6178    0.3310 O   0  0  0  0  0  0  0  0  0  0  0  0
    2.2973    0.6651    5.5805 O   0  0  0  0  0  0  0  0  0  0  0  0
    0.9116    0.4709    5.6693 C   0  0  0  0  0  0  0  0  0  0  0  0
    0.4836   -0.3515    4.6174 O   0  0  0  0  0  0  0  0  0  0  0  0
    3.1654   -5.8653    3.3389 H   0  0  0  0  0  0  0  0  0  0  0  0
    4.4137   -7.1977    3.6665 H   0  0  0  0  0  0  0  0  0  0  0  0
    6.8958   -6.7061    2.0183 H   0  0  0  0  0  0  0  0  0  0  0  0
    5.8940   -7.4483    0.7258 H   0  0  0  0  0  0  0  0  0  0  0  0
    6.1405   -5.4628   -0.4690 H   0  0  0  0  0  0  0  0  0  0  0  0
    3.8335   -5.2641    0.1480 H   0  0  0  0  0  0  0  0  0  0  0  0
    3.7955   -3.4012    2.1515 H   0  0  0  0  0  0  0  0  0  0  0  0
    5.8288   -3.9956    2.8347 H   0  0  0  0  0  0  0  0  0  0  0  0
    7.6944   -4.4413    1.6976 H   0  0  0  0  0  0  0  0  0  0  0  0
    8.8189   -2.7242    1.3994 H   0  0  0  0  0  0  0  0  0  0  0  0
    8.2994   -3.9849   -1.5393 H   0  0  0  0  0  0  0  0  0  0  0  0
    6.7572   -3.4995   -3.2663 H   0  0  0  0  0  0  0  0  0  0  0  0
    5.7820   -1.1936   -2.0781 H   0  0  0  0  0  0  0  0  0  0  0  0
    4.4382   -3.9827   -1.2849 H   0  0  0  0  0  0  0  0  0  0  0  0
    2.2463   -1.2885   -2.4435 H   0  0  0  0  0  0  0  0  0  0  0  0
    3.2813   -0.7132   -3.7686 H   0  0  0  0  0  0  0  0  0  0  0  0
    3.6901   -0.3069   -2.1044 H   0  0  0  0  0  0  0  0  0  0  0  0
    2.6503   -3.6379   -3.5684 H   0  0  0  0  0  0  0  0  0  0  0  0
    4.3148   -4.2199   -3.6206 H   0  0  0  0  0  0  0  0  0  0  0  0
    3.8172   -2.8756   -4.6624 H   0  0  0  0  0  0  0  0  0  0  0  0
    2.8623   -0.9353   -0.1658 H   0  0  0  0  0  0  0  0  0  0  0  0
    2.2374   -2.4793    0.3882 H   0  0  0  0  0  0  0  0  0  0  0  0
    0.7876   -1.5792    2.1034 H   0  0  0  0  0  0  0  0  0  0  0  0
    4.7705    0.6199    4.2375 H   0  0  0  0  0  0  0  0  0  0  0  0
    5.7252    0.5029    1.6373 H   0  0  0  0  0  0  0  0  0  0  0  0
    6.1123   -0.9210    2.5465 H   0  0  0  0  0  0  0  0  0  0  0  0
    5.2347   -0.4867   -0.2121 H   0  0  0  0  0  0  0  0  0  0  0  0
    0.6370    0.0553    6.6412 H   0  0  0  0  0  0  0  0  0  0  0  0
    0.4349    1.4417    5.5433 H   0  0  0  0  0  0  0  0  0  0  0  0
  1  2  2  0
  1 32  1  0
  1 33  1  0
  2  5  1  0
  2  3  1  0
  3  4  1  0
  3 34  1  0
  3 35  1  0
  4  8  1  0
  4  5  1  0
  4 36  1  6
  5  6  1  0
  5 37  1  6
  6 18  1  0
  6  7  1  0
  6 38  1  1
  7  8  1  0
  7 39  1  0
  8  9  1  0
  8 40  1  1
  9 28  1  0
  9 10  1  1
  9 11  1  0
 10 41  1  0
 11 12  2  3
 11 42  1  0
 12 13  1  0
 12 43  1  0
 13 15  1  0
 13 14  1  0
 13 44  1  1
 14 15  1  0
 14 18  1  0
 14 45  1  1
 15 16  1  0
 15 17  1  0
 16 46  1  0
 16 47  1  0
 16 48  1  0
 17 49  1  0
 17 50  1  0
 17 51  1  0
 18 27  1  0
 18 19  1  1
 19 20  1  0
 19 52  1  0
 19 53  1  0
 20 25  2  0
 20 21  1  0
 21 22  2  0
 21 54  1  0
 22 31  1  0
 22 23  1  0
 23 24  2  0
 23 29  1  0
 24 25  1  0
 24 55  1  0
 25 26  1  0
 26 27  1  0
 26 56  1  0
 26 57  1  0
 27 28  1  0
 27 58  1  6
 29 30  1  0
 30 31  1  0
 30 59  1  0
 30 60  1  0
M  END
>  <i_m_ct_stereo_status>  (205) 
1

>  <s_m_source_file>  (205) 
/var/tmp/pbs.5076255.sched01/tmp548j1hfo/88g9dmtei7.sdf

>  <i_m_source_file_index>  (205) 
1

>  <i_lp_mmshare_version>  (205) 
48012

>  <i_f3d_flags>  (205) 
0

>  <s_epik_input>  (205) 
W0NIM11DMShbQ0gzXSlbQ0BIXTJbQ0BIXTEvW0NIXT1bQ0hdXFtDQF0oW09IXSkoW0NAQEhdKFtOSF0zKVtDQEhdKFtDQEBIXTRbQ0BASF0zW0NAQF0yNTYpW0NIMl1DND1bQ0gyXSlPW0NAQEhdNltDSDJdYzdjKFtDSDJdNSlbY0hdYzhjKFtjSF03KU9bQ0gyXU84

>  <s_epik_cmdline>  (205) 
J2VwaWtfcHl0aG9uJywgJy1waHQnLCAnMi4wJywgJy1waCcsICc3LjAnLCAnLXRuJywgJzgnLCAnLW1hJywgJzIwMCcsICctaW1hZScsICc8aW5maWxlLm1hZT4nLCAnLW9tYWUnLCAnPG91dGZpbGUubWFlPic=

>  <r_lp_tautomer_probability>  (205) 
1

>  <r_epik_Ionization_Penalty>  (205) 
2.19764

>  <r_epik_Ionization_Penalty_Charging>  (205) 
0

>  <r_epik_Ionization_Penalty_Neutral>  (205) 
2.19764

>  <r_epik_State_Penalty>  (205) 
2.34089

>  <r_epik_Charging_Adjusted_Penalty>  (205) 
2.34089

>  <i_epik_Tot_Q>  (205) 
0

>  <i_epik_Tot_abs_Q>  (205) 
0

>  <s_epik_Chemistry_Notes>  (205) 
This compound contains an acetal/aminal-like group ( X-CH(R)-Y where X, Y are N, S, or O) that may be acid/base labile, releasing an aldehyde.

>  <s_lp_Force_Field>  (205) 
OPLS3e

>  <r_lp_Energy>  (205) 
113.247

>  <b_lp_Chiralities_Consistent>  (205) 
1

>  <s_lp_Variant>  (205) 
54:0-3

>  <s_i_glide_gridfile>  (205) 
pfpi4k_grid

>  <i_i_glide_lignum>  (205) 
1

>  <i_i_glide_rotatable_bonds>  (205) 
1

>  <r_i_docking_score>  (205) 
-3.32337

>  <r_i_glide_ligand_efficiency>  (205) 
-0.107205

>  <r_i_glide_ligand_efficiency_sa>  (205) 
-0.336773

>  <r_i_glide_ligand_efficiency_ln>  (205) 
-0.749521

>  <r_i_glide_gscore>  (205) 
-3.32337

>  <r_i_glide_lipo>  (205) 
-1.03187

>  <r_i_glide_hbond>  (205) 
-0.00494859

>  <r_i_glide_metal>  (205) 
-0

>  <r_i_glide_rewards>  (205) 
-0.735475

>  <r_i_glide_evdw>  (205) 
-28.9609

>  <r_i_glide_ecoul>  (205) 
-0.673724

>  <r_i_glide_erotb>  (205) 
0

>  <r_i_glide_esite>  (205) 
-0.00197629

>  <r_i_glide_emodel>  (205) 
-35.3865

>  <r_i_glide_energy>  (205) 
-29.6346

>  <r_i_glide_einternal>  (205) 
0.11311

>  <r_i_glide_intrahb_reward>  (205) 
-0

>  <i_i_glide_confnum>  (205) 
2

>  <i_i_glide_posenum>  (205) 
3

>  <r_i_glide_eff_state_penalty>  (205) 
0

>  <ligand_id>  (205) 
54

>  <original_smiles>  (205) 
C=C1CC2C1C1NC2C2(O)C=CC3C(C3(C)C)C13Cc1cc4c(cc1CC3O2)OCO4

>  <smiles>  (205) 
[H]OC12OC3([H])C([H])([H])c4c([H])c5c(c([H])c4C([H])([H])C3(C3([H])N([H])C1([H])C1([H])C([H])([H])C(=C([H])[H])C31[H])C1([H])C([H])(C([H])=C2[H])C1(C([H])([H])[H])C([H])([H])[H])OC([H])([H])O5

$$$$
54:2:1
     RDKit          3D

 60 67  0  0  1  0  0  0  0  0999 V2000
    5.0233   -1.2566   -1.3498 C   0  0  0  0  0  0  0  0  0  0  0  0
    4.9572   -2.5314   -0.9454 C   0  0  0  0  0  0  0  0  0  0  0  0
    4.7103   -3.8060   -1.7050 C   0  0  0  0  0  0  0  0  0  0  0  0
    4.4118   -4.3876   -0.3060 C   0  0  1  0  0  0  0  0  0  0  0  0
    5.0676   -3.2034    0.4110 C   0  0  2  0  0  0  0  0  0  0  0  0
    4.0429   -2.7922    1.4676 C   0  0  1  0  0  0  0  0  0  0  0  0
    2.7799   -3.1131    0.7890 N   0  0  0  0  0  0  0  0  0  0  0  0
    2.9429   -4.4309    0.1838 C   0  0  2  0  0  0  0  0  0  0  0  0
    2.4880   -5.5331    1.2402 C   0  0  1  0  0  0  0  0  0  0  0  0
    1.3237   -6.1161    0.6879 O   0  0  0  0  0  0  0  0  0  0  0  0
    3.4814   -6.7069    1.3186 C   0  0  0  0  0  0  0  0  0  0  0  0
    4.3791   -6.9749    2.2872 C   0  0  0  0  0  0  0  0  0  0  0  0
    4.5819   -6.0731    3.4260 C   0  0  2  0  0  0  0  0  0  0  0  0
    5.1315   -4.7245    2.9442 C   0  0  2  0  0  0  0  0  0  0  0  0
    5.8245   -5.5172    4.0592 C   0  0  0  0  0  0  0  0  0  0  0  0
    5.7735   -5.0675    5.5110 C   0  0  0  0  0  0  0  0  0  0  0  0
    7.1652   -6.1751    3.7626 C   0  0  0  0  0  0  0  0  0  0  0  0
    4.1368   -3.5139    2.8928 C   0  0  1  0  0  0  0  0  0  0  0  0
    4.5904   -2.4302    3.8976 C   0  0  0  0  0  0  0  0  0  0  0  0
    3.6122   -1.2711    4.0097 C   0  0  0  0  0  0  0  0  0  0  0  0
    4.1157    0.0290    4.2439 C   0  0  0  0  0  0  0  0  0  0  0  0
    3.1916    1.0769    4.3630 C   0  0  0  0  0  0  0  0  0  0  0  0
    1.8321    0.8646    4.2407 C   0  0  0  0  0  0  0  0  0  0  0  0
    1.3074   -0.4116    3.9771 C   0  0  0  0  0  0  0  0  0  0  0  0
    2.2126   -1.4903    3.8653 C   0  0  0  0  0  0  0  0  0  0  0  0
    1.6537   -2.8685    3.5474 C   0  0  0  0  0  0  0  0  0  0  0  0
    2.7097   -3.9785    3.3187 C   0  0  1  0  0  0  0  0  0  0  0  0
    2.0906   -5.0252    2.5234 O   0  0  0  0  0  0  0  0  0  0  0  0
    1.1705    2.0315    4.4284 O   0  0  0  0  0  0  0  0  0  0  0  0
    2.1553    2.9665    4.7837 C   0  0  0  0  0  0  0  0  0  0  0  0
    3.4231    2.3857    4.6260 O   0  0  0  0  0  0  0  0  0  0  0  0
    5.2005   -0.4505   -0.6505 H   0  0  0  0  0  0  0  0  0  0  0  0
    4.9028   -1.0166   -2.3999 H   0  0  0  0  0  0  0  0  0  0  0  0
    3.8516   -3.8502   -2.3779 H   0  0  0  0  0  0  0  0  0  0  0  0
    5.5786   -4.2723   -2.1621 H   0  0  0  0  0  0  0  0  0  0  0  0
    4.9817   -5.3049   -0.1728 H   0  0  0  0  0  0  0  0  0  0  0  0
    6.1009   -3.3334    0.7271 H   0  0  0  0  0  0  0  0  0  0  0  0
    4.0934   -1.7117    1.5970 H   0  0  0  0  0  0  0  0  0  0  0  0
    2.6577   -2.4385    0.0401 H   0  0  0  0  0  0  0  0  0  0  0  0
    2.2764   -4.5164   -0.6784 H   0  0  0  0  0  0  0  0  0  0  0  0
    1.2274   -6.9685    1.0867 H   0  0  0  0  0  0  0  0  0  0  0  0
    3.4236   -7.4133    0.5012 H   0  0  0  0  0  0  0  0  0  0  0  0
    4.9875   -7.8662    2.2301 H   0  0  0  0  0  0  0  0  0  0  0  0
    3.7896   -6.2170    4.1564 H   0  0  0  0  0  0  0  0  0  0  0  0
    5.7606   -4.7975    2.0722 H   0  0  0  0  0  0  0  0  0  0  0  0
    6.4343   -4.2126    5.6626 H   0  0  0  0  0  0  0  0  0  0  0  0
    6.0879   -5.8700    6.1789 H   0  0  0  0  0  0  0  0  0  0  0  0
    4.7592   -4.7913    5.7953 H   0  0  0  0  0  0  0  0  0  0  0  0
    7.9764   -5.4579    3.8795 H   0  0  0  0  0  0  0  0  0  0  0  0
    7.1880   -6.5490    2.7377 H   0  0  0  0  0  0  0  0  0  0  0  0
    7.3408   -7.0142    4.4387 H   0  0  0  0  0  0  0  0  0  0  0  0
    4.6658   -2.8267    4.9051 H   0  0  0  0  0  0  0  0  0  0  0  0
    5.5806   -2.0669    3.6254 H   0  0  0  0  0  0  0  0  0  0  0  0
    5.1757    0.2132    4.3479 H   0  0  0  0  0  0  0  0  0  0  0  0
    0.2422   -0.5608    3.8790 H   0  0  0  0  0  0  0  0  0  0  0  0
    0.9701   -3.1752    4.3397 H   0  0  0  0  0  0  0  0  0  0  0  0
    1.0327   -2.7627    2.6596 H   0  0  0  0  0  0  0  0  0  0  0  0
    2.8198   -4.3737    4.3282 H   0  0  0  0  0  0  0  0  0  0  0  0
    2.0612    3.8769    4.1924 H   0  0  0  0  0  0  0  0  0  0  0  0
    2.0277    3.2051    5.8380 H   0  0  0  0  0  0  0  0  0  0  0  0
  1  2  2  0
  1 32  1  0
  1 33  1  0
  2  5  1  0
  2  3  1  0
  3  4  1  0
  3 34  1  0
  3 35  1  0
  4  8  1  0
  4  5  1  0
  4 36  1  6
  5  6  1  0
  5 37  1  1
  6 18  1  0
  6  7  1  0
  6 38  1  1
  7  8  1  0
  7 39  1  0
  8  9  1  0
  8 40  1  6
  9 28  1  0
  9 10  1  6
  9 11  1  0
 10 41  1  0
 11 12  2  3
 11 42  1  0
 12 13  1  0
 12 43  1  0
 13 15  1  0
 13 14  1  0
 13 44  1  1
 14 15  1  0
 14 18  1  0
 14 45  1  6
 15 16  1  0
 15 17  1  0
 16 46  1  0
 16 47  1  0
 16 48  1  0
 17 49  1  0
 17 50  1  0
 17 51  1  0
 18 27  1  0
 18 19  1  1
 19 20  1  0
 19 52  1  0
 19 53  1  0
 20 25  2  0
 20 21  1  0
 21 22  2  0
 21 54  1  0
 22 31  1  0
 22 23  1  0
 23 24  2  0
 23 29  1  0
 24 25  1  0
 24 55  1  0
 25 26  1  0
 26 27  1  0
 26 56  1  0
 26 57  1  0
 27 28  1  0
 27 58  1  1
 29 30  1  0
 30 31  1  0
 30 59  1  0
 30 60  1  0
M  END
>  <i_m_ct_stereo_status>  (206) 
1

>  <s_m_source_file>  (206) 
/var/tmp/pbs.5076255.sched01/tmp548j1hfo/88g9dmtei7.sdf

>  <i_m_source_file_index>  (206) 
1

>  <i_lp_mmshare_version>  (206) 
48012

>  <i_f3d_flags>  (206) 
0

>  <s_epik_input>  (206) 
W0NIM11DMShbQ0gzXSlbQ0BIXTJbQ0BIXTEvW0NIXT1bQ0hdXFtDQF0oW09IXSkoW0NAQEhdKFtOSF0zKVtDQEhdKFtDQEBIXTRbQ0BASF0zW0NAQF0yNTYpW0NIMl1DND1bQ0gyXSlPW0NAQEhdNltDSDJdYzdjKFtDSDJdNSlbY0hdYzhjKFtjSF03KU9bQ0gyXU84

>  <s_epik_cmdline>  (206) 
J2VwaWtfcHl0aG9uJywgJy1waHQnLCAnMi4wJywgJy1waCcsICc3LjAnLCAnLXRuJywgJzgnLCAnLW1hJywgJzIwMCcsICctaW1hZScsICc8aW5maWxlLm1hZT4nLCAnLW9tYWUnLCAnPG91dGZpbGUubWFlPic=

>  <r_lp_tautomer_probability>  (206) 
1

>  <r_epik_Ionization_Penalty>  (206) 
2.19764

>  <r_epik_Ionization_Penalty_Charging>  (206) 
0

>  <r_epik_Ionization_Penalty_Neutral>  (206) 
2.19764

>  <r_epik_State_Penalty>  (206) 
2.34089

>  <r_epik_Charging_Adjusted_Penalty>  (206) 
2.34089

>  <i_epik_Tot_Q>  (206) 
0

>  <i_epik_Tot_abs_Q>  (206) 
0

>  <s_epik_Chemistry_Notes>  (206) 
This compound contains an acetal/aminal-like group ( X-CH(R)-Y where X, Y are N, S, or O) that may be acid/base labile, releasing an aldehyde.

>  <s_lp_Force_Field>  (206) 
OPLS3e

>  <r_lp_Energy>  (206) 
113.247

>  <b_lp_Chiralities_Consistent>  (206) 
1

>  <s_lp_Variant>  (206) 
54:0-3

>  <s_i_glide_gridfile>  (206) 
pfpi4k_grid

>  <i_i_glide_lignum>  (206) 
1

>  <i_i_glide_rotatable_bonds>  (206) 
1

>  <r_i_docking_score>  (206) 
-2.48417

>  <r_i_glide_ligand_efficiency>  (206) 
-0.0801344

>  <r_i_glide_ligand_efficiency_sa>  (206) 
-0.251733

>  <r_i_glide_ligand_efficiency_ln>  (206) 
-0.560256

>  <r_i_glide_gscore>  (206) 
-2.48417

>  <r_i_glide_lipo>  (206) 
-0.181272

>  <r_i_glide_hbond>  (206) 
0

>  <r_i_glide_metal>  (206) 
-0

>  <r_i_glide_rewards>  (206) 
-0.548777

>  <r_i_glide_evdw>  (206) 
-25.3578

>  <r_i_glide_ecoul>  (206) 
-3.03056

>  <r_i_glide_erotb>  (206) 
0

>  <r_i_glide_esite>  (206) 
-0.0316435

>  <r_i_glide_emodel>  (206) 
-32.6843

>  <r_i_glide_energy>  (206) 
-28.3884

>  <r_i_glide_einternal>  (206) 
0.201515

>  <r_i_glide_intrahb_reward>  (206) 
-0

>  <i_i_glide_confnum>  (206) 
2

>  <i_i_glide_posenum>  (206) 
1

>  <r_i_glide_eff_state_penalty>  (206) 
0

>  <ligand_id>  (206) 
54

>  <original_smiles>  (206) 
C=C1CC2C1C1NC2C2(O)C=CC3C(C3(C)C)C13Cc1cc4c(cc1CC3O2)OCO4

>  <smiles>  (206) 
[H]OC12OC3([H])C([H])([H])c4c([H])c5c(c([H])c4C([H])([H])C3(C3([H])N([H])C1([H])C1([H])C([H])([H])C(=C([H])[H])C31[H])C1([H])C([H])(C([H])=C2[H])C1(C([H])([H])[H])C([H])([H])[H])OC([H])([H])O5

$$$$
54:2:2
     RDKit          3D

 60 67  0  0  1  0  0  0  0  0999 V2000
    3.2622   -2.0607    7.8250 C   0  0  0  0  0  0  0  0  0  0  0  0
    2.3052   -1.1346    7.6806 C   0  0  0  0  0  0  0  0  0  0  0  0
    0.9919   -0.9335    8.3906 C   0  0  0  0  0  0  0  0  0  0  0  0
    0.6719   -0.0223    7.1848 C   0  0  1  0  0  0  0  0  0  0  0  0
    2.1398    0.0560    6.7542 C   0  0  2  0  0  0  0  0  0  0  0  0
    2.1072   -0.2364    5.2553 C   0  0  1  0  0  0  0  0  0  0  0  0
    0.9816   -1.1741    5.1705 N   0  0  0  0  0  0  0  0  0  0  0  0
   -0.0919   -0.6174    5.9782 C   0  0  2  0  0  0  0  0  0  0  0  0
   -0.9768    0.3289    5.0590 C   0  0  1  0  0  0  0  0  0  0  0  0
   -2.2066   -0.3395    4.9563 O   0  0  0  0  0  0  0  0  0  0  0  0
   -1.3277    1.6564    5.7550 C   0  0  0  0  0  0  0  0  0  0  0  0
   -0.8134    2.8780    5.5136 C   0  0  0  0  0  0  0  0  0  0  0  0
    0.2656    3.0804    4.5364 C   0  0  2  0  0  0  0  0  0  0  0  0
    1.5372    2.3538    4.9932 C   0  0  2  0  0  0  0  0  0  0  0  0
    1.5616    3.8358    4.6048 C   0  0  0  0  0  0  0  0  0  0  0  0
    2.2067    4.3163    3.3129 C   0  0  0  0  0  0  0  0  0  0  0  0
    1.7609    4.8675    5.7028 C   0  0  0  0  0  0  0  0  0  0  0  0
    1.9082    1.0120    4.2746 C   0  0  1  0  0  0  0  0  0  0  0  0
    3.2422    1.1776    3.5175 C   0  0  0  0  0  0  0  0  0  0  0  0
    3.6180   -0.0403    2.6859 C   0  0  0  0  0  0  0  0  0  0  0  0
    4.9824   -0.3804    2.5381 C   0  0  0  0  0  0  0  0  0  0  0  0
    5.3008   -1.4854    1.7352 C   0  0  0  0  0  0  0  0  0  0  0  0
    4.3222   -2.2457    1.1273 C   0  0  0  0  0  0  0  0  0  0  0  0
    2.9594   -1.9481    1.2822 C   0  0  0  0  0  0  0  0  0  0  0  0
    2.6075   -0.8286    2.0699 C   0  0  0  0  0  0  0  0  0  0  0  0
    1.1321   -0.5133    2.2613 C   0  0  0  0  0  0  0  0  0  0  0  0
    0.8198    0.6603    3.2182 C   0  0  1  0  0  0  0  0  0  0  0  0
   -0.5288    0.4819    3.7096 O   0  0  0  0  0  0  0  0  0  0  0  0
    4.8983   -3.2368    0.4052 O   0  0  0  0  0  0  0  0  0  0  0  0
    6.2791   -3.0018    0.4824 C   0  0  0  0  0  0  0  0  0  0  0  0
    6.5209   -1.9713    1.4028 O   0  0  0  0  0  0  0  0  0  0  0  0
    4.1561   -2.0496    7.2160 H   0  0  0  0  0  0  0  0  0  0  0  0
    3.1586   -2.8351    8.5762 H   0  0  0  0  0  0  0  0  0  0  0  0
    0.3218   -1.7901    8.4786 H   0  0  0  0  0  0  0  0  0  0  0  0
    1.0225   -0.3710    9.3220 H   0  0  0  0  0  0  0  0  0  0  0  0
    0.3138    0.9394    7.5473 H   0  0  0  0  0  0  0  0  0  0  0  0
    2.7065    0.9224    7.0887 H   0  0  0  0  0  0  0  0  0  0  0  0
    3.0150   -0.7748    4.9877 H   0  0  0  0  0  0  0  0  0  0  0  0
    1.2850   -2.0299    5.6188 H   0  0  0  0  0  0  0  0  0  0  0  0
   -0.7353   -1.4306    6.3230 H   0  0  0  0  0  0  0  0  0  0  0  0
   -2.7126    0.1317    4.3030 H   0  0  0  0  0  0  0  0  0  0  0  0
   -2.0970    1.5893    6.5122 H   0  0  0  0  0  0  0  0  0  0  0  0
   -1.1722    3.7391    6.0599 H   0  0  0  0  0  0  0  0  0  0  0  0
   -0.1425    3.0790    3.5286 H   0  0  0  0  0  0  0  0  0  0  0  0
    1.6553    2.3089    6.0633 H   0  0  0  0  0  0  0  0  0  0  0  0
    3.2942    4.2885    3.3980 H   0  0  0  0  0  0  0  0  0  0  0  0
    1.9019    5.3368    3.0783 H   0  0  0  0  0  0  0  0  0  0  0  0
    1.8989    3.6960    2.4718 H   0  0  0  0  0  0  0  0  0  0  0  0
    2.8223    4.9841    5.9244 H   0  0  0  0  0  0  0  0  0  0  0  0
    1.2554    4.5573    6.6170 H   0  0  0  0  0  0  0  0  0  0  0  0
    1.3564    5.8332    5.4013 H   0  0  0  0  0  0  0  0  0  0  0  0
    3.1879    1.9938    2.8040 H   0  0  0  0  0  0  0  0  0  0  0  0
    4.0403    1.4214    4.2169 H   0  0  0  0  0  0  0  0  0  0  0  0
    5.7629    0.1995    3.0081 H   0  0  0  0  0  0  0  0  0  0  0  0
    2.2053   -2.5439    0.7915 H   0  0  0  0  0  0  0  0  0  0  0  0
    0.6771   -0.3048    1.2925 H   0  0  0  0  0  0  0  0  0  0  0  0
    0.6503   -1.4223    2.6191 H   0  0  0  0  0  0  0  0  0  0  0  0
    0.7897    1.4997    2.5227 H   0  0  0  0  0  0  0  0  0  0  0  0
    6.8152   -3.9101    0.7554 H   0  0  0  0  0  0  0  0  0  0  0  0
    6.6190   -2.6609   -0.4927 H   0  0  0  0  0  0  0  0  0  0  0  0
  1  2  2  0
  1 32  1  0
  1 33  1  0
  2  5  1  0
  2  3  1  0
  3  4  1  0
  3 34  1  0
  3 35  1  0
  4  8  1  0
  4  5  1  0
  4 36  1  1
  5  6  1  0
  5 37  1  6
  6 18  1  0
  6  7  1  0
  6 38  1  6
  7  8  1  0
  7 39  1  0
  8  9  1  0
  8 40  1  1
  9 28  1  0
  9 10  1  6
  9 11  1  0
 10 41  1  0
 11 12  2  3
 11 42  1  0
 12 13  1  0
 12 43  1  0
 13 15  1  0
 13 14  1  0
 13 44  1  6
 14 15  1  0
 14 18  1  0
 14 45  1  1
 15 16  1  0
 15 17  1  0
 16 46  1  0
 16 47  1  0
 16 48  1  0
 17 49  1  0
 17 50  1  0
 17 51  1  0
 18 27  1  0
 18 19  1  6
 19 20  1  0
 19 52  1  0
 19 53  1  0
 20 25  2  0
 20 21  1  0
 21 22  2  0
 21 54  1  0
 22 31  1  0
 22 23  1  0
 23 24  2  0
 23 29  1  0
 24 25  1  0
 24 55  1  0
 25 26  1  0
 26 27  1  0
 26 56  1  0
 26 57  1  0
 27 28  1  0
 27 58  1  6
 29 30  1  0
 30 31  1  0
 30 59  1  0
 30 60  1  0
M  END
>  <i_m_ct_stereo_status>  (207) 
1

>  <s_m_source_file>  (207) 
/var/tmp/pbs.5076255.sched01/tmp548j1hfo/88g9dmtei7.sdf

>  <i_m_source_file_index>  (207) 
1

>  <i_lp_mmshare_version>  (207) 
48012

>  <i_f3d_flags>  (207) 
0

>  <s_epik_input>  (207) 
W0NIM11DMShbQ0gzXSlbQ0BIXTJbQ0BIXTEvW0NIXT1bQ0hdXFtDQF0oW09IXSkoW0NAQEhdKFtOSF0zKVtDQEhdKFtDQEBIXTRbQ0BASF0zW0NAQF0yNTYpW0NIMl1DND1bQ0gyXSlPW0NAQEhdNltDSDJdYzdjKFtDSDJdNSlbY0hdYzhjKFtjSF03KU9bQ0gyXU84

>  <s_epik_cmdline>  (207) 
J2VwaWtfcHl0aG9uJywgJy1waHQnLCAnMi4wJywgJy1waCcsICc3LjAnLCAnLXRuJywgJzgnLCAnLW1hJywgJzIwMCcsICctaW1hZScsICc8aW5maWxlLm1hZT4nLCAnLW9tYWUnLCAnPG91dGZpbGUubWFlPic=

>  <r_lp_tautomer_probability>  (207) 
1

>  <r_epik_Ionization_Penalty>  (207) 
2.19764

>  <r_epik_Ionization_Penalty_Charging>  (207) 
0

>  <r_epik_Ionization_Penalty_Neutral>  (207) 
2.19764

>  <r_epik_State_Penalty>  (207) 
2.34089

>  <r_epik_Charging_Adjusted_Penalty>  (207) 
2.34089

>  <i_epik_Tot_Q>  (207) 
0

>  <i_epik_Tot_abs_Q>  (207) 
0

>  <s_epik_Chemistry_Notes>  (207) 
This compound contains an acetal/aminal-like group ( X-CH(R)-Y where X, Y are N, S, or O) that may be acid/base labile, releasing an aldehyde.

>  <s_lp_Force_Field>  (207) 
OPLS3e

>  <r_lp_Energy>  (207) 
113.247

>  <b_lp_Chiralities_Consistent>  (207) 
1

>  <s_lp_Variant>  (207) 
54:0-3

>  <s_i_glide_gridfile>  (207) 
pfpi4k_grid

>  <i_i_glide_lignum>  (207) 
1

>  <i_i_glide_rotatable_bonds>  (207) 
1

>  <r_i_docking_score>  (207) 
-2.42532

>  <r_i_glide_ligand_efficiency>  (207) 
-0.0782363

>  <r_i_glide_ligand_efficiency_sa>  (207) 
-0.24577

>  <r_i_glide_ligand_efficiency_ln>  (207) 
-0.546985

>  <r_i_glide_gscore>  (207) 
-2.42532

>  <r_i_glide_lipo>  (207) 
-0.253576

>  <r_i_glide_hbond>  (207) 
0

>  <r_i_glide_metal>  (207) 
-0

>  <r_i_glide_rewards>  (207) 
-0.656999

>  <r_i_glide_evdw>  (207) 
-25.2608

>  <r_i_glide_ecoul>  (207) 
-1.49843

>  <r_i_glide_erotb>  (207) 
0

>  <r_i_glide_esite>  (207) 
-0.0269479

>  <r_i_glide_emodel>  (207) 
-30.9961

>  <r_i_glide_energy>  (207) 
-26.7592

>  <r_i_glide_einternal>  (207) 
0.177582

>  <r_i_glide_intrahb_reward>  (207) 
-0

>  <i_i_glide_confnum>  (207) 
2

>  <i_i_glide_posenum>  (207) 
31

>  <r_i_glide_eff_state_penalty>  (207) 
0

>  <ligand_id>  (207) 
54

>  <original_smiles>  (207) 
C=C1CC2C1C1NC2C2(O)C=CC3C(C3(C)C)C13Cc1cc4c(cc1CC3O2)OCO4

>  <smiles>  (207) 
[H]OC12OC3([H])C([H])([H])c4c([H])c5c(c([H])c4C([H])([H])C3(C3([H])N([H])C1([H])C1([H])C([H])([H])C(=C([H])[H])C31[H])C1([H])C([H])(C([H])=C2[H])C1(C([H])([H])[H])C([H])([H])[H])OC([H])([H])O5

$$$$
55:0:0
     RDKit          3D

 60 64  0  0  1  0  0  0  0  0999 V2000
   -4.4276    3.5528    2.3715 C   0  0  0  0  0  0  0  0  0  0  0  0
   -3.4648    4.4575    2.6103 C   0  0  0  0  0  0  0  0  0  0  0  0
   -1.9855    4.1704    2.5359 C   0  0  0  0  0  0  0  0  0  0  0  0
   -1.2942    3.7822    3.8629 C   0  0  2  0  0  0  0  0  0  0  0  0
   -1.2375    4.9622    4.6390 O   0  0  0  0  0  0  0  0  0  0  0  0
   -0.3285    5.9999    4.2351 C   0  0  0  0  0  0  0  0  0  0  0  0
    0.1754    3.1826    3.7051 C   0  0  2  0  0  0  0  0  0  0  0  0
    0.3853    2.0523    2.8386 C   0  0  2  0  0  0  0  0  0  0  0  0
   -0.3072    0.8951    3.7701 C   0  0  0  0  0  0  0  0  0  0  0  0
   -0.6927    1.2903    5.2874 C   0  0  0  0  0  0  0  0  0  0  0  0
   -1.8249    0.8527    5.8684 C   0  0  0  0  0  0  0  0  0  0  0  0
    0.3115    2.2281    6.0502 C   0  0  2  0  0  0  0  0  0  0  0  0
    0.0405    3.5206    6.6687 O   0  0  0  0  0  0  0  0  0  0  0  0
    1.0798    4.3740    6.2819 C   0  0  0  0  0  0  0  0  0  0  0  0
    1.3632    5.7125    6.6035 C   0  0  0  0  0  0  0  0  0  0  0  0
    0.6829    6.3902    7.5853 O   0  0  0  0  0  0  0  0  0  0  0  0
   -0.7404    6.4281    7.4959 C   0  0  0  0  0  0  0  0  0  0  0  0
    2.3847    6.3896    5.8493 C   0  0  0  0  0  0  0  0  0  0  0  0
    2.9822    5.7892    4.6893 C   0  0  0  0  0  0  0  0  0  0  0  0
    2.6624    4.4736    4.3026 C   0  0  0  0  0  0  0  0  0  0  0  0
    1.8087    3.8589    5.2392 C   0  0  0  0  0  0  0  0  0  0  0  0
    1.1717    2.6527    4.9165 C   0  0  2  0  0  0  0  0  0  0  0  0
    2.2684    1.4614    4.9974 C   0  0  0  0  0  0  0  0  0  0  0  0
    3.4049    1.2534    3.9823 C   0  0  0  0  0  0  0  0  0  0  0  0
    2.9150    1.2865    2.6012 N   0  0  1  0  0  0  0  0  0  0  0  0
    2.5770   -0.0199    1.9760 C   0  0  0  0  0  0  0  0  0  0  0  0
    1.9639    2.3992    2.4189 C   0  0  2  0  0  0  0  0  0  0  0  0
    2.7453    3.7951    2.8716 C   0  0  0  0  0  0  0  0  0  0  0  0
   -4.1942    2.5272    2.1028 H   0  0  0  0  0  0  0  0  0  0  0  0
   -5.4640    3.8352    2.4412 H   0  0  0  0  0  0  0  0  0  0  0  0
   -3.7480    5.4724    2.8682 H   0  0  0  0  0  0  0  0  0  0  0  0
   -1.8793    3.3403    1.8633 H   0  0  0  0  0  0  0  0  0  0  0  0
   -1.5154    5.0355    2.0766 H   0  0  0  0  0  0  0  0  0  0  0  0
   -1.9906    3.0927    4.3340 H   0  0  0  0  0  0  0  0  0  0  0  0
   -0.3590    6.8585    4.9007 H   0  0  0  0  0  0  0  0  0  0  0  0
   -0.4975    6.3551    3.2296 H   0  0  0  0  0  0  0  0  0  0  0  0
    0.6343    5.6066    4.3130 H   0  0  0  0  0  0  0  0  0  0  0  0
    0.5018    4.0163    3.1048 H   0  0  0  0  0  0  0  0  0  0  0  0
   -0.1876    2.1208    1.9164 H   0  0  0  0  0  0  0  0  0  0  0  0
   -1.2477    0.6122    3.2731 H   0  0  0  0  0  0  0  0  0  0  0  0
    0.2666   -0.0292    3.7792 H   0  0  0  0  0  0  0  0  0  0  0  0
   -2.5142    0.2000    5.3466 H   0  0  0  0  0  0  0  0  0  0  0  0
   -2.0701    1.1407    6.8810 H   0  0  0  0  0  0  0  0  0  0  0  0
    0.7887    1.6388    6.8353 H   0  0  0  0  0  0  0  0  0  0  0  0
   -1.1852    6.8196    8.4090 H   0  0  0  0  0  0  0  0  0  0  0  0
   -1.2019    5.4629    7.3167 H   0  0  0  0  0  0  0  0  0  0  0  0
   -1.0507    7.1026    6.7090 H   0  0  0  0  0  0  0  0  0  0  0  0
    2.5343    7.4133    6.0372 H   0  0  0  0  0  0  0  0  0  0  0  0
    3.5121    6.4264    4.0191 H   0  0  0  0  0  0  0  0  0  0  0  0
    2.8026    1.5791    5.9429 H   0  0  0  0  0  0  0  0  0  0  0  0
    1.8075    0.4784    5.1215 H   0  0  0  0  0  0  0  0  0  0  0  0
    4.1567    2.0333    4.1216 H   0  0  0  0  0  0  0  0  0  0  0  0
    3.9218    0.3037    4.1679 H   0  0  0  0  0  0  0  0  0  0  0  0
    1.8797   -0.6050    2.5957 H   0  0  0  0  0  0  0  0  0  0  0  0
    3.4981   -0.6141    1.8641 H   0  0  0  0  0  0  0  0  0  0  0  0
    2.1414    0.1148    0.9702 H   0  0  0  0  0  0  0  0  0  0  0  0
    1.8993    2.4721    1.3293 H   0  0  0  0  0  0  0  0  0  0  0  0
    2.3913    4.5662    2.1887 H   0  0  0  0  0  0  0  0  0  0  0  0
    3.8038    3.7492    2.6087 H   0  0  0  0  0  0  0  0  0  0  0  0
    3.7372    1.6044    2.0692 H   0  0  0  0  0  0  0  0  0  0  0  0
  1  2  2  0
  1 29  1  0
  1 30  1  0
  2  3  1  0
  2 31  1  0
  3  4  1  0
  3 32  1  0
  3 33  1  0
  4  5  1  0
  4  7  1  0
  4 34  1  1
  5  6  1  0
  6 35  1  0
  6 36  1  0
  6 37  1  0
  7 22  1  0
  7  8  1  0
  7 38  1  6
  8 27  1  0
  8  9  1  0
  8 39  1  6
  9 10  1  0
  9 40  1  0
  9 41  1  0
 10 11  2  0
 10 12  1  0
 11 42  1  0
 11 43  1  0
 12 22  1  0
 12 13  1  0
 12 44  1  1
 13 14  1  0
 14 21  2  0
 14 15  1  0
 15 16  1  0
 15 18  2  0
 16 17  1  0
 17 45  1  0
 17 46  1  0
 17 47  1  0
 18 19  1  0
 18 48  1  0
 19 20  2  0
 19 49  1  0
 20 28  1  0
 20 21  1  0
 21 22  1  0
 22 23  1  6
 23 24  1  0
 23 50  1  0
 23 51  1  0
 24 25  1  0
 24 52  1  0
 24 53  1  0
 25 26  1  0
 25 27  1  0
 25 60  1  6
 26 54  1  0
 26 55  1  0
 26 56  1  0
 27 28  1  0
 27 57  1  6
 28 58  1  0
 28 59  1  0
M  CHG  1  25   1
M  END
>  <i_m_ct_stereo_status>  (208) 
1

>  <s_m_source_file>  (208) 
/var/tmp/pbs.5076255.sched01/tmp548j1hfo/88g9dmtei7.sdf

>  <i_m_source_file_index>  (208) 
3

>  <i_lp_mmshare_version>  (208) 
48012

>  <i_f3d_flags>  (208) 
0

>  <s_epik_input>  (208) 
W0NIMl09W0NIXVtDSDJdW0NASF0oT1tDSDNdKVtDQEBIXTFbQ0BIXShbQ0gyXUMoPVtDSDJdKVtDQEhdMltDQEBdMTM0KVtDQEhdKE4oW0NIM10pW0NIMl1bQ0gyXTQpW0NIMl1jNWMzYyhPMiljKE9bQ0gzXSlbY0hdW2NIXTU=

>  <s_epik_cmdline>  (208) 
J2VwaWtfcHl0aG9uJywgJy1waHQnLCAnMi4wJywgJy1waCcsICc3LjAnLCAnLXRuJywgJzgnLCAnLW1hJywgJzIwMCcsICctaW1hZScsICc8aW5maWxlLm1hZT4nLCAnLW9tYWUnLCAnPG91dGZpbGUubWFlPic=

>  <r_lp_tautomer_probability>  (208) 
1

>  <r_epik_Ionization_Penalty>  (208) 
0.0115721

>  <r_epik_Ionization_Penalty_Charging>  (208) 
0.0115721

>  <r_epik_Ionization_Penalty_Neutral>  (208) 
6.56884e-12

>  <r_epik_State_Penalty>  (208) 
0.00891284

>  <r_epik_Charging_Adjusted_Penalty>  (208) 
0.0204849

>  <i_epik_Tot_Q>  (208) 
1

>  <i_epik_Tot_abs_Q>  (208) 
1

>  <s_lp_Force_Field>  (208) 
OPLS3e

>  <r_lp_Energy>  (208) 
209.79

>  <b_lp_Chiralities_Consistent>  (208) 
1

>  <s_lp_Variant>  (208) 
55:0-1

>  <s_i_glide_gridfile>  (208) 
pfpi4k_grid

>  <i_i_glide_lignum>  (208) 
3

>  <i_i_glide_rotatable_bonds>  (208) 
5

>  <r_i_docking_score>  (208) 
-2.00572

>  <r_i_glide_ligand_efficiency>  (208) 
-0.0716328

>  <r_i_glide_ligand_efficiency_sa>  (208) 
-0.217519

>  <r_i_glide_ligand_efficiency_ln>  (208) 
-0.462979

>  <r_i_glide_gscore>  (208) 
-2.00572

>  <r_i_glide_lipo>  (208) 
-0.305559

>  <r_i_glide_hbond>  (208) 
-0.0722573

>  <r_i_glide_metal>  (208) 
-0

>  <r_i_glide_rewards>  (208) 
-0.801029

>  <r_i_glide_evdw>  (208) 
-12.0693

>  <r_i_glide_ecoul>  (208) 
-6.99386

>  <r_i_glide_erotb>  (208) 
0.398223

>  <r_i_glide_esite>  (208) 
-0.00329562

>  <r_i_glide_emodel>  (208) 
-13.468

>  <r_i_glide_energy>  (208) 
-19.0631

>  <r_i_glide_einternal>  (208) 
9.07308

>  <r_i_glide_intrahb_reward>  (208) 
-0

>  <i_i_glide_confnum>  (208) 
2

>  <i_i_glide_posenum>  (208) 
31

>  <r_i_glide_eff_state_penalty>  (208) 
0

>  <ligand_id>  (208) 
55

>  <original_smiles>  (208) 
C=CCC(OC)C1C2CC(=C)C3Oc4c(OC)ccc5c4C31CCN(C)C2C5

>  <smiles>  (208) 
[H]C([H])=C([H])C([H])([H])C([H])(OC([H])([H])[H])C1([H])C2([H])C([H])([H])C(=C([H])[H])C3([H])Oc4c(OC([H])([H])[H])c([H])c([H])c5c4C31C([H])([H])C([H])([H])[N+]([H])(C([H])([H])[H])C2([H])C5([H])[H]

$$$$
55:0:1
     RDKit          3D

 60 64  0  0  1  0  0  0  0  0999 V2000
   -3.2817    3.3563    8.3546 C   0  0  0  0  0  0  0  0  0  0  0  0
   -3.2086    3.0321    7.0465 C   0  0  0  0  0  0  0  0  0  0  0  0
   -1.9273    2.5894    6.4206 C   0  0  0  0  0  0  0  0  0  0  0  0
   -1.5184    3.1061    5.0246 C   0  0  2  0  0  0  0  0  0  0  0  0
   -2.4762    2.5874    4.0906 O   0  0  0  0  0  0  0  0  0  0  0  0
   -2.5357    3.1542    2.7799 C   0  0  0  0  0  0  0  0  0  0  0  0
   -0.0485    2.7671    4.4548 C   0  0  2  0  0  0  0  0  0  0  0  0
    0.1422    1.7414    3.4469 C   0  0  2  0  0  0  0  0  0  0  0  0
   -0.0509    0.4349    4.3863 C   0  0  0  0  0  0  0  0  0  0  0  0
   -0.0494    0.6424    6.0008 C   0  0  0  0  0  0  0  0  0  0  0  0
   -0.8178   -0.0859    6.7985 C   0  0  0  0  0  0  0  0  0  0  0  0
    0.9646    1.7323    6.5605 C   0  0  2  0  0  0  0  0  0  0  0  0
    0.7383    2.9180    7.3859 O   0  0  0  0  0  0  0  0  0  0  0  0
    1.3569    4.0183    6.7790 C   0  0  0  0  0  0  0  0  0  0  0  0
    1.4403    5.3527    7.1392 C   0  0  0  0  0  0  0  0  0  0  0  0
    0.9340    5.7298    8.3612 O   0  0  0  0  0  0  0  0  0  0  0  0
    0.9970    7.0938    8.7629 C   0  0  0  0  0  0  0  0  0  0  0  0
    2.0070    6.2938    6.1788 C   0  0  0  0  0  0  0  0  0  0  0  0
    2.3523    5.8766    4.8616 C   0  0  0  0  0  0  0  0  0  0  0  0
    2.1900    4.5522    4.4595 C   0  0  0  0  0  0  0  0  0  0  0  0
    1.7876    3.7024    5.5261 C   0  0  0  0  0  0  0  0  0  0  0  0
    1.3321    2.4066    5.2904 C   0  0  2  0  0  0  0  0  0  0  0  0
    2.5793    1.4375    4.9446 C   0  0  0  0  0  0  0  0  0  0  0  0
    3.4163    1.4854    3.6630 C   0  0  0  0  0  0  0  0  0  0  0  0
    2.5799    1.5180    2.4411 N   0  0  1  0  0  0  0  0  0  0  0  0
    2.3017    0.1925    1.8127 C   0  0  0  0  0  0  0  0  0  0  0  0
    1.4275    2.4151    2.6452 C   0  0  2  0  0  0  0  0  0  0  0  0
    2.0518    3.9273    2.9995 C   0  0  0  0  0  0  0  0  0  0  0  0
   -2.4196    3.3529    9.0171 H   0  0  0  0  0  0  0  0  0  0  0  0
   -4.2424    3.6216    8.8015 H   0  0  0  0  0  0  0  0  0  0  0  0
   -4.0754    3.0440    6.4116 H   0  0  0  0  0  0  0  0  0  0  0  0
   -1.2426    2.8265    7.1889 H   0  0  0  0  0  0  0  0  0  0  0  0
   -2.1571    1.5619    6.3125 H   0  0  0  0  0  0  0  0  0  0  0  0
   -1.6624    4.1965    5.0643 H   0  0  0  0  0  0  0  0  0  0  0  0
   -3.2284    2.5573    2.1892 H   0  0  0  0  0  0  0  0  0  0  0  0
   -1.5825    3.1345    2.2570 H   0  0  0  0  0  0  0  0  0  0  0  0
   -2.8410    4.1886    2.8133 H   0  0  0  0  0  0  0  0  0  0  0  0
   -0.0348    3.7222    3.9242 H   0  0  0  0  0  0  0  0  0  0  0  0
   -0.6282    1.6314    2.6959 H   0  0  0  0  0  0  0  0  0  0  0  0
   -1.0385    0.0346    4.1532 H   0  0  0  0  0  0  0  0  0  0  0  0
    0.6102   -0.3795    4.1206 H   0  0  0  0  0  0  0  0  0  0  0  0
   -1.5474   -0.7937    6.3892 H   0  0  0  0  0  0  0  0  0  0  0  0
   -0.8736    0.1217    7.8726 H   0  0  0  0  0  0  0  0  0  0  0  0
    1.7444    1.2267    7.1349 H   0  0  0  0  0  0  0  0  0  0  0  0
    0.5526    7.1954    9.7566 H   0  0  0  0  0  0  0  0  0  0  0  0
    0.4395    7.7472    8.0886 H   0  0  0  0  0  0  0  0  0  0  0  0
    2.0309    7.4359    8.8303 H   0  0  0  0  0  0  0  0  0  0  0  0
    2.1136    7.3300    6.4224 H   0  0  0  0  0  0  0  0  0  0  0  0
    2.6622    6.6337    4.1234 H   0  0  0  0  0  0  0  0  0  0  0  0
    3.3226    1.6092    5.7221 H   0  0  0  0  0  0  0  0  0  0  0  0
    2.3643    0.3819    5.0995 H   0  0  0  0  0  0  0  0  0  0  0  0
    4.0257    2.3878    3.6885 H   0  0  0  0  0  0  0  0  0  0  0  0
    4.1147    0.6471    3.6071 H   0  0  0  0  0  0  0  0  0  0  0  0
    1.9087   -0.5313    2.5238 H   0  0  0  0  0  0  0  0  0  0  0  0
    3.2346   -0.2186    1.4074 H   0  0  0  0  0  0  0  0  0  0  0  0
    1.5949    0.3014    0.9781 H   0  0  0  0  0  0  0  0  0  0  0  0
    1.0787    2.5362    1.6126 H   0  0  0  0  0  0  0  0  0  0  0  0
    1.4143    4.6592    2.4867 H   0  0  0  0  0  0  0  0  0  0  0  0
    3.0211    4.0652    2.4849 H   0  0  0  0  0  0  0  0  0  0  0  0
    3.1655    1.9776    1.7595 H   0  0  0  0  0  0  0  0  0  0  0  0
  1  2  2  0
  1 29  1  0
  1 30  1  0
  2  3  1  0
  2 31  1  0
  3  4  1  0
  3 32  1  0
  3 33  1  0
  4  5  1  0
  4  7  1  0
  4 34  1  1
  5  6  1  0
  6 35  1  0
  6 36  1  0
  6 37  1  0
  7 22  1  0
  7  8  1  0
  7 38  1  6
  8 27  1  0
  8  9  1  0
  8 39  1  6
  9 10  1  0
  9 40  1  0
  9 41  1  0
 10 11  2  0
 10 12  1  0
 11 42  1  0
 11 43  1  0
 12 22  1  0
 12 13  1  0
 12 44  1  1
 13 14  1  0
 14 21  2  0
 14 15  1  0
 15 16  1  0
 15 18  2  0
 16 17  1  0
 17 45  1  0
 17 46  1  0
 17 47  1  0
 18 19  1  0
 18 48  1  0
 19 20  2  0
 19 49  1  0
 20 28  1  0
 20 21  1  0
 21 22  1  0
 22 23  1  6
 23 24  1  0
 23 50  1  0
 23 51  1  0
 24 25  1  0
 24 52  1  0
 24 53  1  0
 25 26  1  0
 25 27  1  0
 25 60  1  6
 26 54  1  0
 26 55  1  0
 26 56  1  0
 27 28  1  0
 27 57  1  6
 28 58  1  0
 28 59  1  0
M  CHG  1  25   1
M  END
>  <i_m_ct_stereo_status>  (209) 
1

>  <s_m_source_file>  (209) 
/var/tmp/pbs.5076255.sched01/tmp548j1hfo/88g9dmtei7.sdf

>  <i_m_source_file_index>  (209) 
3

>  <i_lp_mmshare_version>  (209) 
48012

>  <i_f3d_flags>  (209) 
0

>  <s_epik_input>  (209) 
W0NIMl09W0NIXVtDSDJdW0NASF0oT1tDSDNdKVtDQEBIXTFbQ0BIXShbQ0gyXUMoPVtDSDJdKVtDQEhdMltDQEBdMTM0KVtDQEhdKE4oW0NIM10pW0NIMl1bQ0gyXTQpW0NIMl1jNWMzYyhPMiljKE9bQ0gzXSlbY0hdW2NIXTU=

>  <s_epik_cmdline>  (209) 
J2VwaWtfcHl0aG9uJywgJy1waHQnLCAnMi4wJywgJy1waCcsICc3LjAnLCAnLXRuJywgJzgnLCAnLW1hJywgJzIwMCcsICctaW1hZScsICc8aW5maWxlLm1hZT4nLCAnLW9tYWUnLCAnPG91dGZpbGUubWFlPic=

>  <r_lp_tautomer_probability>  (209) 
1

>  <r_epik_Ionization_Penalty>  (209) 
0.0115721

>  <r_epik_Ionization_Penalty_Charging>  (209) 
0.0115721

>  <r_epik_Ionization_Penalty_Neutral>  (209) 
6.56884e-12

>  <r_epik_State_Penalty>  (209) 
0.00891284

>  <r_epik_Charging_Adjusted_Penalty>  (209) 
0.0204849

>  <i_epik_Tot_Q>  (209) 
1

>  <i_epik_Tot_abs_Q>  (209) 
1

>  <s_lp_Force_Field>  (209) 
OPLS3e

>  <r_lp_Energy>  (209) 
209.79

>  <b_lp_Chiralities_Consistent>  (209) 
1

>  <s_lp_Variant>  (209) 
55:0-1

>  <s_i_glide_gridfile>  (209) 
pfpi4k_grid

>  <i_i_glide_lignum>  (209) 
3

>  <i_i_glide_rotatable_bonds>  (209) 
5

>  <r_i_docking_score>  (209) 
-1.29539

>  <r_i_glide_ligand_efficiency>  (209) 
-0.0462638

>  <r_i_glide_ligand_efficiency_sa>  (209) 
-0.140484

>  <r_i_glide_ligand_efficiency_ln>  (209) 
-0.299013

>  <r_i_glide_gscore>  (209) 
-1.29539

>  <r_i_glide_lipo>  (209) 
-0.254541

>  <r_i_glide_hbond>  (209) 
0

>  <r_i_glide_metal>  (209) 
-0

>  <r_i_glide_rewards>  (209) 
-0.801029

>  <r_i_glide_evdw>  (209) 
-19.3449

>  <r_i_glide_ecoul>  (209) 
-4.17313

>  <r_i_glide_erotb>  (209) 
0.398223

>  <r_i_glide_esite>  (209) 
0

>  <r_i_glide_emodel>  (209) 
-9.99644

>  <r_i_glide_energy>  (209) 
-23.518

>  <r_i_glide_einternal>  (209) 
20.0187

>  <r_i_glide_intrahb_reward>  (209) 
-0

>  <i_i_glide_confnum>  (209) 
1

>  <i_i_glide_posenum>  (209) 
38

>  <r_i_glide_eff_state_penalty>  (209) 
0

>  <ligand_id>  (209) 
55

>  <original_smiles>  (209) 
C=CCC(OC)C1C2CC(=C)C3Oc4c(OC)ccc5c4C31CCN(C)C2C5

>  <smiles>  (209) 
[H]C([H])=C([H])C([H])([H])C([H])(OC([H])([H])[H])C1([H])C2([H])C([H])([H])C(=C([H])[H])C3([H])Oc4c(OC([H])([H])[H])c([H])c([H])c5c4C31C([H])([H])C([H])([H])[N+]([H])(C([H])([H])[H])C2([H])C5([H])[H]

$$$$
55:1:0
     RDKit          3D

 59 63  0  0  1  0  0  0  0  0999 V2000
    6.7172    0.5777    5.1986 C   0  0  0  0  0  0  0  0  0  0  0  0
    5.6312    0.0400    4.6078 C   0  0  0  0  0  0  0  0  0  0  0  0
    4.3677   -0.4532    5.3604 C   0  0  0  0  0  0  0  0  0  0  0  0
    3.0051    0.1927    4.8633 C   0  0  2  0  0  0  0  0  0  0  0  0
    2.8951   -0.2555    3.5049 O   0  0  0  0  0  0  0  0  0  0  0  0
    1.6244   -0.2284    2.8316 C   0  0  0  0  0  0  0  0  0  0  0  0
    2.7492    1.7838    4.9269 C   0  0  2  0  0  0  0  0  0  0  0  0
    3.8572    2.6896    4.8622 C   0  0  2  0  0  0  0  0  0  0  0  0
    4.3939    2.5878    6.3967 C   0  0  0  0  0  0  0  0  0  0  0  0
    3.4845    1.6988    7.4341 C   0  0  0  0  0  0  0  0  0  0  0  0
    3.9582    0.8895    8.3360 C   0  0  0  0  0  0  0  0  0  0  0  0
    1.9030    1.9083    7.3184 C   0  0  2  0  0  0  0  0  0  0  0  0
    0.8983    0.8869    7.0475 O   0  0  0  0  0  0  0  0  0  0  0  0
    0.0630    1.4215    6.0600 C   0  0  0  0  0  0  0  0  0  0  0  0
   -1.1375    0.9687    5.4843 C   0  0  0  0  0  0  0  0  0  0  0  0
   -1.7811   -0.0872    6.0780 O   0  0  0  0  0  0  0  0  0  0  0  0
   -2.3555   -1.0523    5.2331 C   0  0  0  0  0  0  0  0  0  0  0  0
   -1.6434    1.6475    4.2959 C   0  0  0  0  0  0  0  0  0  0  0  0
   -0.8821    2.6692    3.6491 C   0  0  0  0  0  0  0  0  0  0  0  0
    0.3390    3.1308    4.1807 C   0  0  0  0  0  0  0  0  0  0  0  0
    0.6075    2.4841    5.4161 C   0  0  0  0  0  0  0  0  0  0  0  0
    1.8732    2.6389    6.0286 C   0  0  2  0  0  0  0  0  0  0  0  0
    2.0163    4.1441    6.5873 C   0  0  0  0  0  0  0  0  0  0  0  0
    2.2987    5.3664    5.7072 C   0  0  0  0  0  0  0  0  0  0  0  0
    3.3906    5.1532    4.7847 N   0  0  0  0  0  0  0  0  0  0  0  0
    3.5334    6.3091    3.8956 C   0  0  0  0  0  0  0  0  0  0  0  0
    3.1133    3.9299    4.0505 C   0  0  2  0  0  0  0  0  0  0  0  0
    1.5551    3.8772    3.4866 C   0  0  0  0  0  0  0  0  0  0  0  0
    6.8236    0.6849    6.2710 H   0  0  0  0  0  0  0  0  0  0  0  0
    7.5498    0.9572    4.6098 H   0  0  0  0  0  0  0  0  0  0  0  0
    5.6142   -0.0367    3.5440 H   0  0  0  0  0  0  0  0  0  0  0  0
    4.3132   -1.5410    5.2956 H   0  0  0  0  0  0  0  0  0  0  0  0
    4.5688   -0.2831    6.4070 H   0  0  0  0  0  0  0  0  0  0  0  0
    2.2020   -0.3169    5.3988 H   0  0  0  0  0  0  0  0  0  0  0  0
    1.7619   -0.6002    1.8090 H   0  0  0  0  0  0  0  0  0  0  0  0
    1.2057    0.7768    2.7117 H   0  0  0  0  0  0  0  0  0  0  0  0
    0.8735   -0.8495    3.3246 H   0  0  0  0  0  0  0  0  0  0  0  0
    2.3636    1.7962    3.9376 H   0  0  0  0  0  0  0  0  0  0  0  0
    4.5463    2.2710    4.1633 H   0  0  0  0  0  0  0  0  0  0  0  0
    5.3850    2.0969    6.4347 H   0  0  0  0  0  0  0  0  0  0  0  0
    4.6304    3.5906    6.7777 H   0  0  0  0  0  0  0  0  0  0  0  0
    5.0477    0.7411    8.4142 H   0  0  0  0  0  0  0  0  0  0  0  0
    3.3588    0.2999    9.0153 H   0  0  0  0  0  0  0  0  0  0  0  0
    1.5420    2.4465    8.1959 H   0  0  0  0  0  0  0  0  0  0  0  0
   -2.7509   -1.8590    5.8471 H   0  0  0  0  0  0  0  0  0  0  0  0
   -1.6119   -1.4806    4.5564 H   0  0  0  0  0  0  0  0  0  0  0  0
   -3.1830   -0.6559    4.6467 H   0  0  0  0  0  0  0  0  0  0  0  0
   -2.5550    1.3522    3.8588 H   0  0  0  0  0  0  0  0  0  0  0  0
   -1.2127    3.0448    2.6775 H   0  0  0  0  0  0  0  0  0  0  0  0
    1.1312    4.3853    7.1696 H   0  0  0  0  0  0  0  0  0  0  0  0
    2.7841    4.2136    7.3522 H   0  0  0  0  0  0  0  0  0  0  0  0
    1.3815    5.6661    5.2087 H   0  0  0  0  0  0  0  0  0  0  0  0
    2.5911    6.1996    6.3510 H   0  0  0  0  0  0  0  0  0  0  0  0
    4.3484    6.1692    3.1831 H   0  0  0  0  0  0  0  0  0  0  0  0
    3.7657    7.1922    4.4912 H   0  0  0  0  0  0  0  0  0  0  0  0
    2.6254    6.5188    3.3301 H   0  0  0  0  0  0  0  0  0  0  0  0
    3.7094    4.0156    3.1387 H   0  0  0  0  0  0  0  0  0  0  0  0
    1.6139    3.3663    2.5140 H   0  0  0  0  0  0  0  0  0  0  0  0
    1.2096    4.8764    3.1661 H   0  0  0  0  0  0  0  0  0  0  0  0
  1  2  2  0
  1 29  1  0
  1 30  1  0
  2  3  1  0
  2 31  1  0
  3  4  1  0
  3 32  1  0
  3 33  1  0
  4  5  1  0
  4  7  1  0
  4 34  1  1
  5  6  1  0
  6 35  1  0
  6 36  1  0
  6 37  1  0
  7 22  1  0
  7  8  1  0
  7 38  1  6
  8 27  1  0
  8  9  1  0
  8 39  1  6
  9 10  1  0
  9 40  1  0
  9 41  1  0
 10 11  2  0
 10 12  1  0
 11 42  1  0
 11 43  1  0
 12 22  1  0
 12 13  1  0
 12 44  1  1
 13 14  1  0
 14 21  2  0
 14 15  1  0
 15 16  1  0
 15 18  2  0
 16 17  1  0
 17 45  1  0
 17 46  1  0
 17 47  1  0
 18 19  1  0
 18 48  1  0
 19 20  2  0
 19 49  1  0
 20 28  1  0
 20 21  1  0
 21 22  1  0
 22 23  1  1
 23 24  1  0
 23 50  1  0
 23 51  1  0
 24 25  1  0
 24 52  1  0
 24 53  1  0
 25 26  1  0
 25 27  1  0
 26 54  1  0
 26 55  1  0
 26 56  1  0
 27 28  1  0
 27 57  1  6
 28 58  1  0
 28 59  1  0
M  END
>  <i_m_ct_stereo_status>  (210) 
1

>  <s_m_source_file>  (210) 
/var/tmp/pbs.5076255.sched01/tmp548j1hfo/88g9dmtei7.sdf

>  <i_m_source_file_index>  (210) 
4

>  <i_lp_mmshare_version>  (210) 
48012

>  <i_f3d_flags>  (210) 
0

>  <s_epik_input>  (210) 
W0NIMl09W0NIXVtDSDJdW0NASF0oT1tDSDNdKVtDQEBIXTFbQ0BIXShbQ0gyXUMoPVtDSDJdKVtDQEhdMltDQEBdMTM0KVtDQEhdKE4oW0NIM10pW0NIMl1bQ0gyXTQpW0NIMl1jNWMzYyhPMiljKE9bQ0gzXSlbY0hdW2NIXTU=

>  <s_epik_cmdline>  (210) 
J2VwaWtfcHl0aG9uJywgJy1waHQnLCAnMi4wJywgJy1waCcsICc3LjAnLCAnLXRuJywgJzgnLCAnLW1hJywgJzIwMCcsICctaW1hZScsICc8aW5maWxlLm1hZT4nLCAnLW9tYWUnLCAnPG91dGZpbGUubWFlPic=

>  <r_lp_tautomer_probability>  (210) 
1

>  <r_epik_Ionization_Penalty>  (210) 
2.33764

>  <r_epik_Ionization_Penalty_Charging>  (210) 
0

>  <r_epik_Ionization_Penalty_Neutral>  (210) 
2.33764

>  <r_epik_State_Penalty>  (210) 
2.49102

>  <r_epik_Charging_Adjusted_Penalty>  (210) 
2.49102

>  <i_epik_Tot_Q>  (210) 
0

>  <i_epik_Tot_abs_Q>  (210) 
0

>  <s_lp_Force_Field>  (210) 
OPLS3e

>  <r_lp_Energy>  (210) 
197.892

>  <b_lp_Chiralities_Consistent>  (210) 
1

>  <s_lp_Variant>  (210) 
55:0-2

>  <s_i_glide_gridfile>  (210) 
pfpi4k_grid

>  <i_i_glide_lignum>  (210) 
4

>  <i_i_glide_rotatable_bonds>  (210) 
5

>  <r_i_docking_score>  (210) 
-2.39214

>  <r_i_glide_ligand_efficiency>  (210) 
-0.0854334

>  <r_i_glide_ligand_efficiency_sa>  (210) 
-0.259426

>  <r_i_glide_ligand_efficiency_ln>  (210) 
-0.552175

>  <r_i_glide_gscore>  (210) 
-2.39214

>  <r_i_glide_lipo>  (210) 
-0.361793

>  <r_i_glide_hbond>  (210) 
-0.157177

>  <r_i_glide_metal>  (210) 
-0

>  <r_i_glide_rewards>  (210) 
-0.807901

>  <r_i_glide_evdw>  (210) 
-18.2222

>  <r_i_glide_ecoul>  (210) 
-3.69511

>  <r_i_glide_erotb>  (210) 
0.400111

>  <r_i_glide_esite>  (210) 
0

>  <r_i_glide_emodel>  (210) 
-17.7586

>  <r_i_glide_energy>  (210) 
-21.9173

>  <r_i_glide_einternal>  (210) 
11.9412

>  <r_i_glide_intrahb_reward>  (210) 
-0

>  <i_i_glide_confnum>  (210) 
1

>  <i_i_glide_posenum>  (210) 
20

>  <r_i_glide_eff_state_penalty>  (210) 
0

>  <ligand_id>  (210) 
55

>  <original_smiles>  (210) 
C=CCC(OC)C1C2CC(=C)C3Oc4c(OC)ccc5c4C31CCN(C)C2C5

>  <smiles>  (210) 
[H]C([H])=C([H])C([H])([H])C([H])(OC([H])([H])[H])C1([H])C2([H])C([H])([H])C(=C([H])[H])C3([H])Oc4c(OC([H])([H])[H])c([H])c([H])c5c4C31C([H])([H])C([H])([H])N(C([H])([H])[H])C2([H])C5([H])[H]

$$$$
55:1:1
     RDKit          3D

 59 63  0  0  1  0  0  0  0  0999 V2000
    1.0181   -5.0652   -0.9246 C   0  0  0  0  0  0  0  0  0  0  0  0
    0.7925   -5.9479    0.0660 C   0  0  0  0  0  0  0  0  0  0  0  0
    1.8553   -6.5558    0.9692 C   0  0  0  0  0  0  0  0  0  0  0  0
    1.9367   -5.9090    2.3854 C   0  0  2  0  0  0  0  0  0  0  0  0
    0.6170   -5.8525    2.9402 O   0  0  0  0  0  0  0  0  0  0  0  0
    0.0086   -7.1012    3.2465 C   0  0  0  0  0  0  0  0  0  0  0  0
    2.5382   -4.4264    2.3978 C   0  0  2  0  0  0  0  0  0  0  0  0
    3.5279   -4.0405    1.4182 C   0  0  2  0  0  0  0  0  0  0  0  0
    4.8113   -4.8735    1.9624 C   0  0  0  0  0  0  0  0  0  0  0  0
    4.6597   -5.5856    3.4005 C   0  0  0  0  0  0  0  0  0  0  0  0
    5.1744   -6.7988    3.6564 C   0  0  0  0  0  0  0  0  0  0  0  0
    3.8850   -4.7852    4.4998 C   0  0  2  0  0  0  0  0  0  0  0  0
    2.6913   -5.2066    5.2298 O   0  0  0  0  0  0  0  0  0  0  0  0
    1.8171   -4.1076    5.2154 C   0  0  0  0  0  0  0  0  0  0  0  0
    0.5649   -3.8644    5.8184 C   0  0  0  0  0  0  0  0  0  0  0  0
    0.1511   -4.7640    6.7775 O   0  0  0  0  0  0  0  0  0  0  0  0
   -1.1623   -4.6444    7.2936 C   0  0  0  0  0  0  0  0  0  0  0  0
   -0.1965   -2.7271    5.3770 C   0  0  0  0  0  0  0  0  0  0  0  0
    0.2142   -1.9001    4.2833 C   0  0  0  0  0  0  0  0  0  0  0  0
    1.4539   -2.1325    3.6488 C   0  0  0  0  0  0  0  0  0  0  0  0
    2.1527   -3.1710    4.2682 C   0  0  0  0  0  0  0  0  0  0  0  0
    3.2896   -3.7031    3.6682 C   0  0  2  0  0  0  0  0  0  0  0  0
    4.4944   -2.6230    3.7602 C   0  0  0  0  0  0  0  0  0  0  0  0
    4.6112   -1.3635    2.9019 C   0  0  0  0  0  0  0  0  0  0  0  0
    4.4463   -1.6797    1.4992 N   0  0  0  0  0  0  0  0  0  0  0  0
    4.4399   -0.4394    0.7210 C   0  0  0  0  0  0  0  0  0  0  0  0
    3.2085   -2.4312    1.3593 C   0  0  2  0  0  0  0  0  0  0  0  0
    1.9572   -1.7086    2.1902 C   0  0  0  0  0  0  0  0  0  0  0  0
    2.0038   -4.7048   -1.1628 H   0  0  0  0  0  0  0  0  0  0  0  0
    0.2135   -4.6641   -1.5195 H   0  0  0  0  0  0  0  0  0  0  0  0
   -0.2208   -6.2719    0.2638 H   0  0  0  0  0  0  0  0  0  0  0  0
    1.6284   -7.6189    1.0568 H   0  0  0  0  0  0  0  0  0  0  0  0
    2.8253   -6.5400    0.4771 H   0  0  0  0  0  0  0  0  0  0  0  0
    2.4882   -6.6031    3.0122 H   0  0  0  0  0  0  0  0  0  0  0  0
   -0.9616   -6.9194    3.7066 H   0  0  0  0  0  0  0  0  0  0  0  0
    0.6083   -7.6882    3.9419 H   0  0  0  0  0  0  0  0  0  0  0  0
   -0.1799   -7.6981    2.3544 H   0  0  0  0  0  0  0  0  0  0  0  0
    1.6076   -3.9857    2.0609 H   0  0  0  0  0  0  0  0  0  0  0  0
    3.3164   -4.4143    0.4264 H   0  0  0  0  0  0  0  0  0  0  0  0
    5.0007   -5.6763    1.2503 H   0  0  0  0  0  0  0  0  0  0  0  0
    5.7096   -4.2597    1.9158 H   0  0  0  0  0  0  0  0  0  0  0  0
    5.7091   -7.3571    2.9019 H   0  0  0  0  0  0  0  0  0  0  0  0
    5.0652   -7.2465    4.6342 H   0  0  0  0  0  0  0  0  0  0  0  0
    4.5984   -4.4500    5.2559 H   0  0  0  0  0  0  0  0  0  0  0  0
   -1.3263   -5.4450    8.0117 H   0  0  0  0  0  0  0  0  0  0  0  0
   -1.9133   -4.7451    6.5098 H   0  0  0  0  0  0  0  0  0  0  0  0
   -1.3045   -3.6998    7.8178 H   0  0  0  0  0  0  0  0  0  0  0  0
   -1.1684   -2.5319    5.7929 H   0  0  0  0  0  0  0  0  0  0  0  0
   -0.4662   -1.1679    3.8741 H   0  0  0  0  0  0  0  0  0  0  0  0
    4.5445   -2.2681    4.7928 H   0  0  0  0  0  0  0  0  0  0  0  0
    5.4634   -3.0984    3.6382 H   0  0  0  0  0  0  0  0  0  0  0  0
    3.9123   -0.6058    3.2483 H   0  0  0  0  0  0  0  0  0  0  0  0
    5.6039   -0.9286    3.0282 H   0  0  0  0  0  0  0  0  0  0  0  0
    4.3056   -0.6364   -0.3444 H   0  0  0  0  0  0  0  0  0  0  0  0
    5.3904    0.0819    0.8365 H   0  0  0  0  0  0  0  0  0  0  0  0
    3.6530    0.2506    1.0294 H   0  0  0  0  0  0  0  0  0  0  0  0
    2.9291   -2.2857    0.3175 H   0  0  0  0  0  0  0  0  0  0  0  0
    1.0716   -1.8616    1.5751 H   0  0  0  0  0  0  0  0  0  0  0  0
    2.0429   -0.6217    2.1540 H   0  0  0  0  0  0  0  0  0  0  0  0
  1  2  2  0
  1 29  1  0
  1 30  1  0
  2  3  1  0
  2 31  1  0
  3  4  1  0
  3 32  1  0
  3 33  1  0
  4  5  1  0
  4  7  1  0
  4 34  1  1
  5  6  1  0
  6 35  1  0
  6 36  1  0
  6 37  1  0
  7 22  1  0
  7  8  1  0
  7 38  1  6
  8 27  1  0
  8  9  1  0
  8 39  1  6
  9 10  1  0
  9 40  1  0
  9 41  1  0
 10 11  2  0
 10 12  1  0
 11 42  1  0
 11 43  1  0
 12 22  1  0
 12 13  1  0
 12 44  1  1
 13 14  1  0
 14 21  2  0
 14 15  1  0
 15 16  1  0
 15 18  2  0
 16 17  1  0
 17 45  1  0
 17 46  1  0
 17 47  1  0
 18 19  1  0
 18 48  1  0
 19 20  2  0
 19 49  1  0
 20 28  1  0
 20 21  1  0
 21 22  1  0
 22 23  1  6
 23 24  1  0
 23 50  1  0
 23 51  1  0
 24 25  1  0
 24 52  1  0
 24 53  1  0
 25 26  1  0
 25 27  1  0
 26 54  1  0
 26 55  1  0
 26 56  1  0
 27 28  1  0
 27 57  1  6
 28 58  1  0
 28 59  1  0
M  END
>  <i_m_ct_stereo_status>  (211) 
1

>  <s_m_source_file>  (211) 
/var/tmp/pbs.5076255.sched01/tmp548j1hfo/88g9dmtei7.sdf

>  <i_m_source_file_index>  (211) 
4

>  <i_lp_mmshare_version>  (211) 
48012

>  <i_f3d_flags>  (211) 
0

>  <s_epik_input>  (211) 
W0NIMl09W0NIXVtDSDJdW0NASF0oT1tDSDNdKVtDQEBIXTFbQ0BIXShbQ0gyXUMoPVtDSDJdKVtDQEhdMltDQEBdMTM0KVtDQEhdKE4oW0NIM10pW0NIMl1bQ0gyXTQpW0NIMl1jNWMzYyhPMiljKE9bQ0gzXSlbY0hdW2NIXTU=

>  <s_epik_cmdline>  (211) 
J2VwaWtfcHl0aG9uJywgJy1waHQnLCAnMi4wJywgJy1waCcsICc3LjAnLCAnLXRuJywgJzgnLCAnLW1hJywgJzIwMCcsICctaW1hZScsICc8aW5maWxlLm1hZT4nLCAnLW9tYWUnLCAnPG91dGZpbGUubWFlPic=

>  <r_lp_tautomer_probability>  (211) 
1

>  <r_epik_Ionization_Penalty>  (211) 
2.33764

>  <r_epik_Ionization_Penalty_Charging>  (211) 
0

>  <r_epik_Ionization_Penalty_Neutral>  (211) 
2.33764

>  <r_epik_State_Penalty>  (211) 
2.49102

>  <r_epik_Charging_Adjusted_Penalty>  (211) 
2.49102

>  <i_epik_Tot_Q>  (211) 
0

>  <i_epik_Tot_abs_Q>  (211) 
0

>  <s_lp_Force_Field>  (211) 
OPLS3e

>  <r_lp_Energy>  (211) 
197.892

>  <b_lp_Chiralities_Consistent>  (211) 
1

>  <s_lp_Variant>  (211) 
55:0-2

>  <s_i_glide_gridfile>  (211) 
pfpi4k_grid

>  <i_i_glide_lignum>  (211) 
4

>  <i_i_glide_rotatable_bonds>  (211) 
5

>  <r_i_docking_score>  (211) 
-2.10923

>  <r_i_glide_ligand_efficiency>  (211) 
-0.0753298

>  <r_i_glide_ligand_efficiency_sa>  (211) 
-0.228746

>  <r_i_glide_ligand_efficiency_ln>  (211) 
-0.486873

>  <r_i_glide_gscore>  (211) 
-2.10923

>  <r_i_glide_lipo>  (211) 
-0.303821

>  <r_i_glide_hbond>  (211) 
-0.042851

>  <r_i_glide_metal>  (211) 
-0

>  <r_i_glide_rewards>  (211) 
-0.807901

>  <r_i_glide_evdw>  (211) 
-19.3957

>  <r_i_glide_ecoul>  (211) 
-2.56657

>  <r_i_glide_erotb>  (211) 
0.400111

>  <r_i_glide_esite>  (211) 
0

>  <r_i_glide_emodel>  (211) 
-22.9407

>  <r_i_glide_energy>  (211) 
-21.9623

>  <r_i_glide_einternal>  (211) 
3.4398

>  <r_i_glide_intrahb_reward>  (211) 
-0

>  <i_i_glide_confnum>  (211) 
1

>  <i_i_glide_posenum>  (211) 
3

>  <r_i_glide_eff_state_penalty>  (211) 
0

>  <ligand_id>  (211) 
55

>  <original_smiles>  (211) 
C=CCC(OC)C1C2CC(=C)C3Oc4c(OC)ccc5c4C31CCN(C)C2C5

>  <smiles>  (211) 
[H]C([H])=C([H])C([H])([H])C([H])(OC([H])([H])[H])C1([H])C2([H])C([H])([H])C(=C([H])[H])C3([H])Oc4c(OC([H])([H])[H])c([H])c([H])c5c4C31C([H])([H])C([H])([H])N(C([H])([H])[H])C2([H])C5([H])[H]

$$$$
55:1:2
     RDKit          3D

 59 63  0  0  1  0  0  0  0  0999 V2000
   -2.7899    3.2314    5.6460 C   0  0  0  0  0  0  0  0  0  0  0  0
   -2.3634    2.7709    4.4613 C   0  0  0  0  0  0  0  0  0  0  0  0
   -1.3239    3.4564    3.5863 C   0  0  0  0  0  0  0  0  0  0  0  0
    0.0819    2.7793    3.6326 C   0  0  2  0  0  0  0  0  0  0  0  0
   -0.0447    1.4210    3.2060 O   0  0  0  0  0  0  0  0  0  0  0  0
   -0.4126    1.2182    1.8468 C   0  0  0  0  0  0  0  0  0  0  0  0
    0.7314    2.7626    5.0948 C   0  0  2  0  0  0  0  0  0  0  0  0
    0.6709    3.9574    5.9066 C   0  0  2  0  0  0  0  0  0  0  0  0
    1.7686    4.8770    5.1412 C   0  0  0  0  0  0  0  0  0  0  0  0
    2.6475    4.1580    3.9954 C   0  0  0  0  0  0  0  0  0  0  0  0
    2.9725    4.7826    2.8518 C   0  0  0  0  0  0  0  0  0  0  0  0
    3.1170    2.6929    4.2808 C   0  0  2  0  0  0  0  0  0  0  0  0
    2.8466    1.4970    3.4873 O   0  0  0  0  0  0  0  0  0  0  0  0
    2.4591    0.5006    4.3978 C   0  0  0  0  0  0  0  0  0  0  0  0
    2.1407   -0.8659    4.2469 C   0  0  0  0  0  0  0  0  0  0  0  0
    2.4628   -1.4478    3.0409 O   0  0  0  0  0  0  0  0  0  0  0  0
    2.0854   -2.7941    2.8238 C   0  0  0  0  0  0  0  0  0  0  0  0
    1.4956   -1.5461    5.3378 C   0  0  0  0  0  0  0  0  0  0  0  0
    1.0632   -0.8641    6.5200 C   0  0  0  0  0  0  0  0  0  0  0  0
    1.3449    0.5095    6.6886 C   0  0  0  0  0  0  0  0  0  0  0  0
    2.1019    1.0069    5.6241 C   0  0  0  0  0  0  0  0  0  0  0  0
    2.2845    2.3799    5.4737 C   0  0  2  0  0  0  0  0  0  0  0  0
    3.2917    2.9032    6.6277 C   0  0  0  0  0  0  0  0  0  0  0  0
    2.9232    3.0882    8.0983 C   0  0  0  0  0  0  0  0  0  0  0  0
    1.7082    3.8649    8.2262 N   0  0  0  0  0  0  0  0  0  0  0  0
    1.3260    3.9240    9.6392 C   0  0  0  0  0  0  0  0  0  0  0  0
    0.6901    3.2480    7.3886 C   0  0  2  0  0  0  0  0  0  0  0  0
    0.6369    1.6007    7.6207 C   0  0  0  0  0  0  0  0  0  0  0  0
   -2.3988    4.1413    6.0614 H   0  0  0  0  0  0  0  0  0  0  0  0
   -3.5321    2.7063    6.2305 H   0  0  0  0  0  0  0  0  0  0  0  0
   -2.7611    1.8391    4.0787 H   0  0  0  0  0  0  0  0  0  0  0  0
   -1.7085    3.4773    2.5659 H   0  0  0  0  0  0  0  0  0  0  0  0
   -1.2429    4.5107    3.8502 H   0  0  0  0  0  0  0  0  0  0  0  0
    0.6828    3.2864    2.8834 H   0  0  0  0  0  0  0  0  0  0  0  0
   -0.3500    0.1572    1.6156 H   0  0  0  0  0  0  0  0  0  0  0  0
    0.2296    1.7491    1.1435 H   0  0  0  0  0  0  0  0  0  0  0  0
   -1.4485    1.5051    1.6792 H   0  0  0  0  0  0  0  0  0  0  0  0
   -0.0320    2.0902    5.4692 H   0  0  0  0  0  0  0  0  0  0  0  0
   -0.2783    4.4737    5.8173 H   0  0  0  0  0  0  0  0  0  0  0  0
    1.2247    5.6799    4.6416 H   0  0  0  0  0  0  0  0  0  0  0  0
    2.4028    5.3911    5.8642 H   0  0  0  0  0  0  0  0  0  0  0  0
    2.6444    5.7908    2.6476 H   0  0  0  0  0  0  0  0  0  0  0  0
    3.5625    4.2806    2.0989 H   0  0  0  0  0  0  0  0  0  0  0  0
    4.1942    2.7011    4.4599 H   0  0  0  0  0  0  0  0  0  0  0  0
    2.3810   -3.0776    1.8169 H   0  0  0  0  0  0  0  0  0  0  0  0
    1.0070   -2.9306    2.9022 H   0  0  0  0  0  0  0  0  0  0  0  0
    2.5885   -3.4662    3.5179 H   0  0  0  0  0  0  0  0  0  0  0  0
    1.2304   -2.5840    5.2475 H   0  0  0  0  0  0  0  0  0  0  0  0
    0.4511   -1.3807    7.2420 H   0  0  0  0  0  0  0  0  0  0  0  0
    4.1600    2.2395    6.6336 H   0  0  0  0  0  0  0  0  0  0  0  0
    3.7374    3.8575    6.3631 H   0  0  0  0  0  0  0  0  0  0  0  0
    2.8619    2.1247    8.5992 H   0  0  0  0  0  0  0  0  0  0  0  0
    3.7231    3.6317    8.6050 H   0  0  0  0  0  0  0  0  0  0  0  0
    0.4066    4.4962    9.7825 H   0  0  0  0  0  0  0  0  0  0  0  0
    2.1072    4.4138   10.2229 H   0  0  0  0  0  0  0  0  0  0  0  0
    1.1718    2.9345   10.0729 H   0  0  0  0  0  0  0  0  0  0  0  0
   -0.2429    3.5935    7.8285 H   0  0  0  0  0  0  0  0  0  0  0  0
   -0.4171    1.3445    7.5255 H   0  0  0  0  0  0  0  0  0  0  0  0
    0.8407    1.3459    8.6627 H   0  0  0  0  0  0  0  0  0  0  0  0
  1  2  2  0
  1 29  1  0
  1 30  1  0
  2  3  1  0
  2 31  1  0
  3  4  1  0
  3 32  1  0
  3 33  1  0
  4  5  1  0
  4  7  1  0
  4 34  1  6
  5  6  1  0
  6 35  1  0
  6 36  1  0
  6 37  1  0
  7 22  1  0
  7  8  1  0
  7 38  1  1
  8 27  1  0
  8  9  1  0
  8 39  1  6
  9 10  1  0
  9 40  1  0
  9 41  1  0
 10 11  2  0
 10 12  1  0
 11 42  1  0
 11 43  1  0
 12 22  1  0
 12 13  1  0
 12 44  1  1
 13 14  1  0
 14 21  2  0
 14 15  1  0
 15 16  1  0
 15 18  2  0
 16 17  1  0
 17 45  1  0
 17 46  1  0
 17 47  1  0
 18 19  1  0
 18 48  1  0
 19 20  2  0
 19 49  1  0
 20 28  1  0
 20 21  1  0
 21 22  1  0
 22 23  1  1
 23 24  1  0
 23 50  1  0
 23 51  1  0
 24 25  1  0
 24 52  1  0
 24 53  1  0
 25 26  1  0
 25 27  1  0
 26 54  1  0
 26 55  1  0
 26 56  1  0
 27 28  1  0
 27 57  1  1
 28 58  1  0
 28 59  1  0
M  END
>  <i_m_ct_stereo_status>  (212) 
1

>  <s_m_source_file>  (212) 
/var/tmp/pbs.5076255.sched01/tmp548j1hfo/88g9dmtei7.sdf

>  <i_m_source_file_index>  (212) 
4

>  <i_lp_mmshare_version>  (212) 
48012

>  <i_f3d_flags>  (212) 
0

>  <s_epik_input>  (212) 
W0NIMl09W0NIXVtDSDJdW0NASF0oT1tDSDNdKVtDQEBIXTFbQ0BIXShbQ0gyXUMoPVtDSDJdKVtDQEhdMltDQEBdMTM0KVtDQEhdKE4oW0NIM10pW0NIMl1bQ0gyXTQpW0NIMl1jNWMzYyhPMiljKE9bQ0gzXSlbY0hdW2NIXTU=

>  <s_epik_cmdline>  (212) 
J2VwaWtfcHl0aG9uJywgJy1waHQnLCAnMi4wJywgJy1waCcsICc3LjAnLCAnLXRuJywgJzgnLCAnLW1hJywgJzIwMCcsICctaW1hZScsICc8aW5maWxlLm1hZT4nLCAnLW9tYWUnLCAnPG91dGZpbGUubWFlPic=

>  <r_lp_tautomer_probability>  (212) 
1

>  <r_epik_Ionization_Penalty>  (212) 
2.33764

>  <r_epik_Ionization_Penalty_Charging>  (212) 
0

>  <r_epik_Ionization_Penalty_Neutral>  (212) 
2.33764

>  <r_epik_State_Penalty>  (212) 
2.49102

>  <r_epik_Charging_Adjusted_Penalty>  (212) 
2.49102

>  <i_epik_Tot_Q>  (212) 
0

>  <i_epik_Tot_abs_Q>  (212) 
0

>  <s_lp_Force_Field>  (212) 
OPLS3e

>  <r_lp_Energy>  (212) 
197.892

>  <b_lp_Chiralities_Consistent>  (212) 
1

>  <s_lp_Variant>  (212) 
55:0-2

>  <s_i_glide_gridfile>  (212) 
pfpi4k_grid

>  <i_i_glide_lignum>  (212) 
4

>  <i_i_glide_rotatable_bonds>  (212) 
5

>  <r_i_docking_score>  (212) 
-1.44613

>  <r_i_glide_ligand_efficiency>  (212) 
-0.0516475

>  <r_i_glide_ligand_efficiency_sa>  (212) 
-0.156832

>  <r_i_glide_ligand_efficiency_ln>  (212) 
-0.333809

>  <r_i_glide_gscore>  (212) 
-1.44613

>  <r_i_glide_lipo>  (212) 
-0.109382

>  <r_i_glide_hbond>  (212) 
0

>  <r_i_glide_metal>  (212) 
-0

>  <r_i_glide_rewards>  (212) 
-0.807901

>  <r_i_glide_evdw>  (212) 
-18.2537

>  <r_i_glide_ecoul>  (212) 
-0.108501

>  <r_i_glide_erotb>  (212) 
0.400111

>  <r_i_glide_esite>  (212) 
0

>  <r_i_glide_emodel>  (212) 
-19.4015

>  <r_i_glide_energy>  (212) 
-18.3622

>  <r_i_glide_einternal>  (212) 
1.76191

>  <r_i_glide_intrahb_reward>  (212) 
-0

>  <i_i_glide_confnum>  (212) 
1

>  <i_i_glide_posenum>  (212) 
7

>  <r_i_glide_eff_state_penalty>  (212) 
0

>  <ligand_id>  (212) 
55

>  <original_smiles>  (212) 
C=CCC(OC)C1C2CC(=C)C3Oc4c(OC)ccc5c4C31CCN(C)C2C5

>  <smiles>  (212) 
[H]C([H])=C([H])C([H])([H])C([H])(OC([H])([H])[H])C1([H])C2([H])C([H])([H])C(=C([H])[H])C3([H])Oc4c(OC([H])([H])[H])c([H])c([H])c5c4C31C([H])([H])C([H])([H])N(C([H])([H])[H])C2([H])C5([H])[H]

$$$$
56:0:0
     RDKit          3D

 65 70  0  0  1  0  0  0  0  0999 V2000
    7.1769   -3.4628   -1.2430 C   0  0  0  0  0  0  0  0  0  0  0  0
    5.9157   -3.0581   -1.4774 C   0  0  0  0  0  0  0  0  0  0  0  0
    5.4532   -3.0024   -2.9533 C   0  0  0  0  0  0  0  0  0  0  0  0
    4.8982   -2.6596   -0.3884 C   0  0  1  0  0  0  0  0  0  0  0  0
    3.9170   -1.5427   -0.7710 C   0  0  0  0  0  0  0  0  0  0  0  0
    3.7653   -0.9778   -1.8544 O   0  0  0  0  0  0  0  0  0  0  0  0
    3.1558   -1.2574    0.5113 C   0  0  1  0  0  0  0  0  0  0  0  0
    2.2007   -2.3105    0.8066 O   0  0  0  0  0  0  0  0  0  0  0  0
    2.4969   -3.6009    0.2229 C   0  0  1  0  0  0  0  0  0  0  0  0
    1.8129   -3.8256   -1.1546 C   0  0  0  0  0  0  0  0  0  0  0  0
    4.0338   -3.8817    0.2432 C   0  0  2  0  0  0  0  0  0  0  0  0
    4.4330   -4.4141    1.7058 C   0  0  2  0  0  0  0  0  0  0  0  0
    3.8785   -5.8654    2.0795 C   0  0  1  0  0  0  0  0  0  0  0  0
    3.5304   -6.7248    0.8494 C   0  0  0  0  0  0  0  0  0  0  0  0
    5.0921   -6.6132    2.7263 C   0  0  0  0  0  0  0  0  0  0  0  0
    5.3869   -6.1572    4.1698 C   0  0  0  0  0  0  0  0  0  0  0  0
    4.1238   -5.5155    4.7971 C   0  0  2  0  0  0  0  0  0  0  0  0
    2.9950   -6.4877    4.4176 C   0  0  0  0  0  0  0  0  0  0  0  0
    2.6149   -5.8475    3.0804 C   0  0  1  0  0  0  0  0  0  0  0  0
    2.2766   -4.4381    3.6109 C   0  0  1  0  0  0  0  0  0  0  0  0
    1.0082   -4.3047    4.4953 C   0  0  0  0  0  0  0  0  0  0  0  0
    3.6334   -4.0911    4.2494 C   0  0  1  0  0  0  0  0  0  0  0  0
    3.5235   -3.1301    5.4677 C   0  0  0  0  0  0  0  0  0  0  0  0
    4.4105   -3.4455    3.0151 C   0  0  1  0  0  0  0  0  0  0  0  0
    5.7144   -3.3249    3.4837 O   0  0  0  0  0  0  0  0  0  0  0  0
    4.0402   -1.9146    2.8234 C   0  0  0  0  0  0  0  0  0  0  0  0
    4.3498   -1.3646    1.4394 C   0  0  0  0  0  0  0  0  0  0  0  0
    5.4011   -1.8128    0.7715 C   0  0  0  0  0  0  0  0  0  0  0  0
    6.8225   -1.8845    1.2454 C   0  0  0  0  0  0  0  0  0  0  0  0
    7.8121   -3.6842   -2.1052 H   0  0  0  0  0  0  0  0  0  0  0  0
    7.5494   -3.6106   -0.2892 H   0  0  0  0  0  0  0  0  0  0  0  0
    4.4821   -3.4773   -3.1034 H   0  0  0  0  0  0  0  0  0  0  0  0
    6.1714   -3.4991   -3.5962 H   0  0  0  0  0  0  0  0  0  0  0  0
    5.4301   -1.9777   -3.3054 H   0  0  0  0  0  0  0  0  0  0  0  0
    2.6646   -0.2824    0.5445 H   0  0  0  0  0  0  0  0  0  0  0  0
    1.9891   -4.3366    0.8364 H   0  0  0  0  0  0  0  0  0  0  0  0
    1.7940   -4.8857   -1.4135 H   0  0  0  0  0  0  0  0  0  0  0  0
    2.2224   -3.2469   -1.9847 H   0  0  0  0  0  0  0  0  0  0  0  0
    0.7548   -3.6025   -1.1186 H   0  0  0  0  0  0  0  0  0  0  0  0
    4.1916   -4.6918   -0.4748 H   0  0  0  0  0  0  0  0  0  0  0  0
    5.4931   -4.5586    1.4945 H   0  0  0  0  0  0  0  0  0  0  0  0
    3.2780   -7.7465    1.1397 H   0  0  0  0  0  0  0  0  0  0  0  0
    4.3737   -6.7947    0.1587 H   0  0  0  0  0  0  0  0  0  0  0  0
    2.6742   -6.3379    0.2986 H   0  0  0  0  0  0  0  0  0  0  0  0
    4.8706   -7.6789    2.7607 H   0  0  0  0  0  0  0  0  0  0  0  0
    5.9951   -6.5536    2.1190 H   0  0  0  0  0  0  0  0  0  0  0  0
    5.6526   -7.0457    4.7495 H   0  0  0  0  0  0  0  0  0  0  0  0
    6.2758   -5.5362    4.2431 H   0  0  0  0  0  0  0  0  0  0  0  0
    4.2535   -5.5138    5.8812 H   0  0  0  0  0  0  0  0  0  0  0  0
    3.2936   -7.5369    4.3419 H   0  0  0  0  0  0  0  0  0  0  0  0
    2.1920   -6.4905    5.1504 H   0  0  0  0  0  0  0  0  0  0  0  0
    1.7398   -6.3272    2.6450 H   0  0  0  0  0  0  0  0  0  0  0  0
    2.0493   -3.7625    2.8021 H   0  0  0  0  0  0  0  0  0  0  0  0
    1.1031   -4.7262    5.4963 H   0  0  0  0  0  0  0  0  0  0  0  0
    0.1582   -4.7833    4.0115 H   0  0  0  0  0  0  0  0  0  0  0  0
    0.7508   -3.2519    4.6244 H   0  0  0  0  0  0  0  0  0  0  0  0
    2.9618   -2.2249    5.2448 H   0  0  0  0  0  0  0  0  0  0  0  0
    4.5081   -2.8270    5.8263 H   0  0  0  0  0  0  0  0  0  0  0  0
    3.0216   -3.6016    6.3164 H   0  0  0  0  0  0  0  0  0  0  0  0
    6.0279   -4.1941    3.6770 H   0  0  0  0  0  0  0  0  0  0  0  0
    2.9769   -1.7551    3.0290 H   0  0  0  0  0  0  0  0  0  0  0  0
    4.5544   -1.2919    3.5566 H   0  0  0  0  0  0  0  0  0  0  0  0
    7.4602   -1.3817    0.5268 H   0  0  0  0  0  0  0  0  0  0  0  0
    7.1430   -2.8874    1.3463 H   0  0  0  0  0  0  0  0  0  0  0  0
    6.9043   -1.2944    2.1758 H   0  0  0  0  0  0  0  0  0  0  0  0
  1  2  2  0
  1 30  1  0
  1 31  1  0
  2  3  1  0
  4  2  1  6
  3 32  1  0
  3 33  1  0
  3 34  1  0
  4 11  1  0
  4 28  1  0
  4  5  1  0
  5  6  2  0
  5  7  1  0
  7 27  1  0
  7  8  1  0
  7 35  1  6
  8  9  1  0
  9 10  1  0
  9 11  1  0
  9 36  1  1
 10 37  1  0
 10 38  1  0
 10 39  1  0
 11 12  1  0
 11 40  1  6
 12 24  1  0
 12 13  1  0
 12 41  1  6
 13 19  1  0
 13 14  1  6
 13 15  1  0
 14 42  1  0
 14 43  1  0
 14 44  1  0
 15 16  1  0
 15 45  1  0
 15 46  1  0
 16 17  1  0
 16 47  1  0
 16 48  1  0
 17 22  1  0
 17 18  1  0
 17 49  1  1
 18 19  1  0
 18 50  1  0
 18 51  1  0
 19 20  1  0
 19 52  1  6
 20 21  1  0
 20 22  1  0
 20 53  1  6
 21 54  1  0
 21 55  1  0
 21 56  1  0
 22 23  1  1
 22 24  1  0
 23 57  1  0
 23 58  1  0
 23 59  1  0
 24 25  1  1
 24 26  1  0
 25 60  1  0
 26 27  1  0
 26 61  1  0
 26 62  1  0
 27 28  2  0
 28 29  1  0
 29 63  1  0
 29 64  1  0
 29 65  1  0
M  END
>  <i_m_ct_stereo_status>  (213) 
1

>  <s_m_source_file>  (213) 
/var/tmp/pbs.5076255.sched01/tmp548j1hfo/88g9dmtei7.sdf

>  <i_m_source_file_index>  (213) 
5

>  <i_lp_mmshare_version>  (213) 
48012

>  <i_f3d_flags>  (213) 
0

>  <s_epik_input>  (213) 
W0NIMl09QyhbQ0gzXSlbQ0BdMTJbQ0BIXTNbQ0BASF00W0NAXTUoW0NIM10pW0NASF02W0NIMl1bQ0BASF0oW0NIMl1bQ0gyXTUpW0NAXShbQ0gzXSkoW0NAQEhdNltDSDNdKVtDQF00KFtPSF0pW0NIMl1DKD1DMltDSDNdKVtDQEBIXShDMT1PKU9bQ0BIXTNbQ0gzXQ==

>  <s_epik_cmdline>  (213) 
J2VwaWtfcHl0aG9uJywgJy1waHQnLCAnMi4wJywgJy1waCcsICc3LjAnLCAnLXRuJywgJzgnLCAnLW1hJywgJzIwMCcsICctaW1hZScsICc8aW5maWxlLm1hZT4nLCAnLW9tYWUnLCAnPG91dGZpbGUubWFlPic=

>  <r_lp_tautomer_probability>  (213) 
1

>  <r_epik_Ionization_Penalty>  (213) 
8.08253e-08

>  <r_epik_Ionization_Penalty_Charging>  (213) 
0

>  <r_epik_Ionization_Penalty_Neutral>  (213) 
8.08253e-08

>  <r_epik_State_Penalty>  (213) 
-0

>  <r_epik_Charging_Adjusted_Penalty>  (213) 
0

>  <i_epik_Tot_Q>  (213) 
0

>  <i_epik_Tot_abs_Q>  (213) 
0

>  <s_lp_Force_Field>  (213) 
OPLS3e

>  <r_lp_Energy>  (213) 
165.57

>  <b_lp_Chiralities_Consistent>  (213) 
1

>  <s_lp_Variant>  (213) 
56:0-1

>  <s_i_glide_gridfile>  (213) 
pfpi4k_grid

>  <i_i_glide_lignum>  (213) 
5

>  <i_i_glide_rotatable_bonds>  (213) 
2

>  <r_i_docking_score>  (213) 
-1.7593

>  <r_i_glide_ligand_efficiency>  (213) 
-0.0606656

>  <r_i_glide_ligand_efficiency_sa>  (213) 
-0.186384

>  <r_i_glide_ligand_efficiency_ln>  (213) 
-0.402836

>  <r_i_glide_gscore>  (213) 
-1.7593

>  <r_i_glide_lipo>  (213) 
-0.587768

>  <r_i_glide_hbond>  (213) 
-0.00591356

>  <r_i_glide_metal>  (213) 
-0

>  <r_i_glide_rewards>  (213) 
-0.705257

>  <r_i_glide_evdw>  (213) 
-10.0705

>  <r_i_glide_ecoul>  (213) 
-0.131161

>  <r_i_glide_erotb>  (213) 
0.124417

>  <r_i_glide_esite>  (213) 
-0.0615825

>  <r_i_glide_emodel>  (213) 
-7.15125

>  <r_i_glide_energy>  (213) 
-10.2017

>  <r_i_glide_einternal>  (213) 
5.27296

>  <r_i_glide_intrahb_reward>  (213) 
-0

>  <i_i_glide_confnum>  (213) 
2

>  <i_i_glide_posenum>  (213) 
34

>  <r_i_glide_eff_state_penalty>  (213) 
0

>  <ligand_id>  (213) 
56

>  <original_smiles>  (213) 
C=C(C)C12C(=O)C3OC(C)C1C1C4(C)CCC5CC4C(C)C5(C)C1(O)CC3=C2C

>  <smiles>  (213) 
[H]OC12C([H])([H])C3=C(C([H])([H])[H])C4(C(=C([H])[H])C([H])([H])[H])C(=O)C3([H])OC([H])(C([H])([H])[H])C4([H])C1([H])C1(C([H])([H])[H])C([H])([H])C([H])([H])C3([H])C([H])([H])C1([H])C([H])(C([H])([H])[H])C32C([H])([H])[H]

$$$$
57:0:0
     RDKit          3D

 47 50  0  0  1  0  0  0  0  0999 V2000
    8.7255   -3.5840    0.5111 C   0  0  0  0  0  0  0  0  0  0  0  0
    7.4818   -2.8848   -0.0649 C   0  0  2  0  0  0  0  0  0  0  0  0
    7.2827   -1.4771    0.5700 C   0  0  0  0  0  0  0  0  0  0  0  0
    5.9063   -0.7869    0.3085 C   0  0  0  0  0  0  0  0  0  0  0  0
    4.6513   -1.7087    0.4440 C   0  0  2  0  0  0  0  0  0  0  0  0
    4.2828   -2.0058    1.9338 C   0  0  0  0  0  0  0  0  0  0  0  0
    4.1073   -1.0354    2.6704 O   0  0  0  0  0  0  0  0  0  0  0  0
    4.3232   -3.3088    2.4580 O   0  0  0  0  0  0  0  0  0  0  0  0
    3.8708   -4.4603    1.7526 C   0  0  2  0  0  0  0  0  0  0  0  0
    2.8879   -5.1270    2.7329 C   0  0  0  0  0  0  0  0  0  0  0  0
    5.0140   -5.5064    1.4360 C   0  0  0  0  0  0  0  0  0  0  0  0
    5.9985   -5.1568    0.2875 C   0  0  0  0  0  0  0  0  0  0  0  0
    6.1519   -3.6433    0.1818 C   0  0  2  0  0  0  0  0  0  0  0  0
    4.8858   -2.9309   -0.4529 C   0  0  2  0  0  0  0  0  0  0  0  0
    5.0737   -2.5611   -1.9418 C   0  0  0  0  0  0  0  0  0  0  0  0
    5.9844   -2.9825   -2.6474 O   0  0  0  0  0  0  0  0  0  0  0  0
    3.9211   -1.7488   -2.5395 C   0  0  1  0  0  0  0  0  0  0  0  0
    4.1098   -1.3005   -3.9952 C   0  0  0  0  0  0  0  0  0  0  0  0
    2.6683   -2.6123   -2.4237 C   0  0  1  0  0  0  0  0  0  0  0  0
    2.6427   -3.6307   -3.4134 O   0  0  0  0  0  0  0  0  0  0  0  0
    2.5112   -3.0771   -1.1074 O   0  0  0  0  0  0  0  0  0  0  0  0
    3.5743   -3.8028   -0.5310 C   0  0  2  0  0  0  0  0  0  0  0  0
    3.0460   -4.2127    0.6762 O   0  0  0  0  0  0  0  0  0  0  0  0
    8.6026   -3.8097    1.5734 H   0  0  0  0  0  0  0  0  0  0  0  0
    9.6082   -2.9499    0.4050 H   0  0  0  0  0  0  0  0  0  0  0  0
    8.9340   -4.5264    0.0028 H   0  0  0  0  0  0  0  0  0  0  0  0
    7.7178   -2.7612   -1.1192 H   0  0  0  0  0  0  0  0  0  0  0  0
    7.3955   -1.5466    1.6496 H   0  0  0  0  0  0  0  0  0  0  0  0
    8.0905   -0.8140    0.2660 H   0  0  0  0  0  0  0  0  0  0  0  0
    5.8123    0.0589    0.9869 H   0  0  0  0  0  0  0  0  0  0  0  0
    5.9096   -0.3480   -0.6902 H   0  0  0  0  0  0  0  0  0  0  0  0
    3.7850   -1.1547    0.0649 H   0  0  0  0  0  0  0  0  0  0  0  0
    2.0702   -4.4355    2.9410 H   0  0  0  0  0  0  0  0  0  0  0  0
    3.3877   -5.4003    3.6655 H   0  0  0  0  0  0  0  0  0  0  0  0
    2.4592   -6.0241    2.2729 H   0  0  0  0  0  0  0  0  0  0  0  0
    5.5802   -5.6308    2.3617 H   0  0  0  0  0  0  0  0  0  0  0  0
    4.5651   -6.4857    1.2325 H   0  0  0  0  0  0  0  0  0  0  0  0
    6.9535   -5.6213    0.5252 H   0  0  0  0  0  0  0  0  0  0  0  0
    5.6827   -5.5893   -0.6621 H   0  0  0  0  0  0  0  0  0  0  0  0
    6.2409   -3.4830    1.2447 H   0  0  0  0  0  0  0  0  0  0  0  0
    3.7677   -0.8532   -1.9369 H   0  0  0  0  0  0  0  0  0  0  0  0
    4.9817   -0.6591   -4.0918 H   0  0  0  0  0  0  0  0  0  0  0  0
    3.2463   -0.7344   -4.3518 H   0  0  0  0  0  0  0  0  0  0  0  0
    4.2417   -2.1465   -4.6730 H   0  0  0  0  0  0  0  0  0  0  0  0
    1.8170   -1.9602   -2.6440 H   0  0  0  0  0  0  0  0  0  0  0  0
    2.7626   -4.4861   -3.0200 H   0  0  0  0  0  0  0  0  0  0  0  0
    3.7585   -4.7012   -1.1193 H   0  0  0  0  0  0  0  0  0  0  0  0
  1  2  1  0
  1 24  1  0
  1 25  1  0
  1 26  1  0
  2 13  1  0
  2  3  1  0
  2 27  1  6
  3  4  1  0
  3 28  1  0
  3 29  1  0
  4  5  1  0
  4 30  1  0
  4 31  1  0
  5 14  1  0
  5  6  1  0
  5 32  1  6
  6  7  2  0
  6  8  1  0
  8  9  1  0
  9 23  1  0
  9 10  1  1
  9 11  1  0
 10 33  1  0
 10 34  1  0
 10 35  1  0
 11 12  1  0
 11 36  1  0
 11 37  1  0
 12 13  1  0
 12 38  1  0
 12 39  1  0
 13 14  1  0
 13 40  1  1
 14 22  1  0
 14 15  1  6
 15 16  2  0
 15 17  1  0
 17 18  1  0
 17 19  1  0
 17 41  1  1
 18 42  1  0
 18 43  1  0
 18 44  1  0
 19 20  1  0
 19 21  1  0
 19 45  1  6
 20 46  1  0
 21 22  1  0
 22 23  1  0
 22 47  1  6
M  END
>  <i_m_ct_stereo_status>  (214) 
1

>  <s_m_source_file>  (214) 
/var/tmp/pbs.5076255.sched01/tmp548j1hfo/88g9dmtei7.sdf

>  <i_m_source_file_index>  (214) 
6

>  <i_lp_mmshare_version>  (214) 
48012

>  <i_f3d_flags>  (214) 
0

>  <s_epik_input>  (214) 
W0NAQF0xMjNbQ0BASF00W0NIMl1bQ0gyXVtDQEBIXShbQ0gzXSlbQ0BASF0xW0NIMl1bQ0gyXVtDQEBdKFtDSDNdKShPQzQ9TylPW0NASF0zT1tDQEhdKFtPSF0pW0NAQEhdKEMyPU8pW0NIM10=

>  <s_epik_cmdline>  (214) 
J2VwaWtfcHl0aG9uJywgJy1waHQnLCAnMi4wJywgJy1waCcsICc3LjAnLCAnLXRuJywgJzgnLCAnLW1hJywgJzIwMCcsICctaW1hZScsICc8aW5maWxlLm1hZT4nLCAnLW9tYWUnLCAnPG91dGZpbGUubWFlPic=

>  <r_lp_tautomer_probability>  (214) 
1

>  <r_epik_Ionization_Penalty>  (214) 
4.1708e-06

>  <r_epik_Ionization_Penalty_Charging>  (214) 
0

>  <r_epik_Ionization_Penalty_Neutral>  (214) 
4.1708e-06

>  <r_epik_State_Penalty>  (214) 
-0

>  <r_epik_Charging_Adjusted_Penalty>  (214) 
0

>  <i_epik_Tot_Q>  (214) 
0

>  <i_epik_Tot_abs_Q>  (214) 
0

>  <s_epik_Chemistry_Notes>  (214) 
This compound has an ester and may undergo hydrolysis at high or low pH. This compound contains an acetal/aminal-like group ( X-CH(R)-Y where X, Y are N, S, or O) that may be acid/base labile, releasing an aldehyde.

>  <s_lp_Force_Field>  (214) 
OPLS3e

>  <r_lp_Energy>  (214) 
66.4514

>  <b_lp_Chiralities_Consistent>  (214) 
1

>  <s_lp_Variant>  (214) 
57:0-1

>  <s_i_glide_gridfile>  (214) 
pfpi4k_grid

>  <i_i_glide_lignum>  (214) 
6

>  <i_i_glide_rotatable_bonds>  (214) 
1

>  <r_i_docking_score>  (214) 
-4.00904

>  <r_i_glide_ligand_efficiency>  (214) 
-0.174306

>  <r_i_glide_ligand_efficiency_sa>  (214) 
-0.495704

>  <r_i_glide_ligand_efficiency_ln>  (214) 
-0.969423

>  <r_i_glide_gscore>  (214) 
-4.00904

>  <r_i_glide_lipo>  (214) 
-0.653149

>  <r_i_glide_hbond>  (214) 
0

>  <r_i_glide_metal>  (214) 
-0

>  <r_i_glide_rewards>  (214) 
-1.26394

>  <r_i_glide_evdw>  (214) 
-25.3828

>  <r_i_glide_ecoul>  (214) 
-5.17238

>  <r_i_glide_erotb>  (214) 
0

>  <r_i_glide_esite>  (214) 
-0.0469578

>  <r_i_glide_emodel>  (214) 
-34.8597

>  <r_i_glide_energy>  (214) 
-30.5552

>  <r_i_glide_einternal>  (214) 
1.64051

>  <r_i_glide_intrahb_reward>  (214) 
-0

>  <i_i_glide_confnum>  (214) 
1

>  <i_i_glide_posenum>  (214) 
29

>  <r_i_glide_eff_state_penalty>  (214) 
0

>  <ligand_id>  (214) 
57

>  <original_smiles>  (214) 
CC1CCC2C(=O)OC3(C)CCC1C21C(=O)C(C)C(O)OC1O3

>  <smiles>  (214) 
[H]OC1([H])OC2([H])OC3(C([H])([H])[H])OC(=O)C4([H])C([H])([H])C([H])([H])C([H])(C([H])([H])[H])C([H])(C([H])([H])C3([H])[H])C24C(=O)C1([H])C([H])([H])[H]

$$$$
57:0:1
     RDKit          3D

 47 50  0  0  1  0  0  0  0  0999 V2000
    8.4129   -3.4647    0.5492 C   0  0  0  0  0  0  0  0  0  0  0  0
    7.1727   -2.7680   -0.0378 C   0  0  2  0  0  0  0  0  0  0  0  0
    6.8888   -1.4242    0.7003 C   0  0  0  0  0  0  0  0  0  0  0  0
    5.5008   -0.7684    0.4155 C   0  0  0  0  0  0  0  0  0  0  0  0
    4.2717   -1.7348    0.4093 C   0  0  2  0  0  0  0  0  0  0  0  0
    3.8325   -2.1650    1.8413 C   0  0  0  0  0  0  0  0  0  0  0  0
    3.5829   -1.2660    2.6459 O   0  0  0  0  0  0  0  0  0  0  0  0
    3.8964   -3.4947    2.2676 O   0  0  0  0  0  0  0  0  0  0  0  0
    3.5330   -4.6075    1.4579 C   0  0  2  0  0  0  0  0  0  0  0  0
    2.5308   -5.3821    2.3339 C   0  0  0  0  0  0  0  0  0  0  0  0
    4.7381   -5.5790    1.1416 C   0  0  0  0  0  0  0  0  0  0  0  0
    5.7654   -5.1038    0.0800 C   0  0  0  0  0  0  0  0  0  0  0  0
    5.8613   -3.5859    0.0766 C   0  0  2  0  0  0  0  0  0  0  0  0
    4.6028   -2.8788   -0.5650 C   0  0  2  0  0  0  0  0  0  0  0  0
    4.8380   -2.3848   -2.0216 C   0  0  0  0  0  0  0  0  0  0  0  0
    5.8152   -2.6887   -2.7028 O   0  0  0  0  0  0  0  0  0  0  0  0
    3.6780   -1.6016   -2.6216 C   0  0  1  0  0  0  0  0  0  0  0  0
    3.9080   -1.0254   -4.0256 C   0  0  0  0  0  0  0  0  0  0  0  0
    2.4728   -2.5342   -2.6166 C   0  0  1  0  0  0  0  0  0  0  0  0
    2.4810   -3.4923   -3.6455 O   0  0  0  0  0  0  0  0  0  0  0  0
    2.2770   -3.0707   -1.3532 O   0  0  0  0  0  0  0  0  0  0  0  0
    3.3405   -3.7969   -0.7839 C   0  0  2  0  0  0  0  0  0  0  0  0
    2.7601   -4.3221    0.3564 O   0  0  0  0  0  0  0  0  0  0  0  0
    8.2435   -3.7683    1.5840 H   0  0  0  0  0  0  0  0  0  0  0  0
    9.2768   -2.7954    0.5380 H   0  0  0  0  0  0  0  0  0  0  0  0
    8.6809   -4.3575   -0.0152 H   0  0  0  0  0  0  0  0  0  0  0  0
    7.4534   -2.5469   -1.0623 H   0  0  0  0  0  0  0  0  0  0  0  0
    6.9627   -1.5824    1.7766 H   0  0  0  0  0  0  0  0  0  0  0  0
    7.6750   -0.7000    0.4759 H   0  0  0  0  0  0  0  0  0  0  0  0
    5.3392    0.0351    1.1314 H   0  0  0  0  0  0  0  0  0  0  0  0
    5.5586   -0.2558   -0.5455 H   0  0  0  0  0  0  0  0  0  0  0  0
    3.4110   -1.1855    0.0292 H   0  0  0  0  0  0  0  0  0  0  0  0
    1.6756   -4.7391    2.5546 H   0  0  0  0  0  0  0  0  0  0  0  0
    2.9914   -5.7041    3.2690 H   0  0  0  0  0  0  0  0  0  0  0  0
    2.1593   -6.2579    1.7924 H   0  0  0  0  0  0  0  0  0  0  0  0
    5.2580   -5.7475    2.0850 H   0  0  0  0  0  0  0  0  0  0  0  0
    4.3446   -6.5534    0.8366 H   0  0  0  0  0  0  0  0  0  0  0  0
    6.7261   -5.5520    0.3228 H   0  0  0  0  0  0  0  0  0  0  0  0
    5.4957   -5.4701   -0.9090 H   0  0  0  0  0  0  0  0  0  0  0  0
    5.8804   -3.4954    1.1520 H   0  0  0  0  0  0  0  0  0  0  0  0
    3.4456   -0.7653   -1.9637 H   0  0  0  0  0  0  0  0  0  0  0  0
    4.7323   -0.3256   -4.0018 H   0  0  0  0  0  0  0  0  0  0  0  0
    3.0406   -0.4719   -4.3892 H   0  0  0  0  0  0  0  0  0  0  0  0
    4.1473   -1.8112   -4.7378 H   0  0  0  0  0  0  0  0  0  0  0  0
    1.5854   -1.9420   -2.7533 H   0  0  0  0  0  0  0  0  0  0  0  0
    1.6752   -3.9917   -3.5638 H   0  0  0  0  0  0  0  0  0  0  0  0
    3.6109   -4.6288   -1.4282 H   0  0  0  0  0  0  0  0  0  0  0  0
  1  2  1  0
  1 24  1  0
  1 25  1  0
  1 26  1  0
  2 13  1  0
  2  3  1  0
  2 27  1  6
  3  4  1  0
  3 28  1  0
  3 29  1  0
  4  5  1  0
  4 30  1  0
  4 31  1  0
  5 14  1  0
  5  6  1  0
  5 32  1  6
  6  7  2  0
  6  8  1  0
  8  9  1  0
  9 23  1  0
  9 10  1  1
  9 11  1  0
 10 33  1  0
 10 34  1  0
 10 35  1  0
 11 12  1  0
 11 36  1  0
 11 37  1  0
 12 13  1  0
 12 38  1  0
 12 39  1  0
 13 14  1  0
 13 40  1  1
 14 22  1  0
 14 15  1  6
 15 16  2  0
 15 17  1  0
 17 18  1  0
 17 19  1  0
 17 41  1  1
 18 42  1  0
 18 43  1  0
 18 44  1  0
 19 20  1  0
 19 21  1  0
 19 45  1  6
 20 46  1  0
 21 22  1  0
 22 23  1  0
 22 47  1  6
M  END
>  <i_m_ct_stereo_status>  (215) 
1

>  <s_m_source_file>  (215) 
/var/tmp/pbs.5076255.sched01/tmp548j1hfo/88g9dmtei7.sdf

>  <i_m_source_file_index>  (215) 
6

>  <i_lp_mmshare_version>  (215) 
48012

>  <i_f3d_flags>  (215) 
0

>  <s_epik_input>  (215) 
W0NAQF0xMjNbQ0BASF00W0NIMl1bQ0gyXVtDQEBIXShbQ0gzXSlbQ0BASF0xW0NIMl1bQ0gyXVtDQEBdKFtDSDNdKShPQzQ9TylPW0NASF0zT1tDQEhdKFtPSF0pW0NAQEhdKEMyPU8pW0NIM10=

>  <s_epik_cmdline>  (215) 
J2VwaWtfcHl0aG9uJywgJy1waHQnLCAnMi4wJywgJy1waCcsICc3LjAnLCAnLXRuJywgJzgnLCAnLW1hJywgJzIwMCcsICctaW1hZScsICc8aW5maWxlLm1hZT4nLCAnLW9tYWUnLCAnPG91dGZpbGUubWFlPic=

>  <r_lp_tautomer_probability>  (215) 
1

>  <r_epik_Ionization_Penalty>  (215) 
4.1708e-06

>  <r_epik_Ionization_Penalty_Charging>  (215) 
0

>  <r_epik_Ionization_Penalty_Neutral>  (215) 
4.1708e-06

>  <r_epik_State_Penalty>  (215) 
-0

>  <r_epik_Charging_Adjusted_Penalty>  (215) 
0

>  <i_epik_Tot_Q>  (215) 
0

>  <i_epik_Tot_abs_Q>  (215) 
0

>  <s_epik_Chemistry_Notes>  (215) 
This compound has an ester and may undergo hydrolysis at high or low pH. This compound contains an acetal/aminal-like group ( X-CH(R)-Y where X, Y are N, S, or O) that may be acid/base labile, releasing an aldehyde.

>  <s_lp_Force_Field>  (215) 
OPLS3e

>  <r_lp_Energy>  (215) 
66.4514

>  <b_lp_Chiralities_Consistent>  (215) 
1

>  <s_lp_Variant>  (215) 
57:0-1

>  <s_i_glide_gridfile>  (215) 
pfpi4k_grid

>  <i_i_glide_lignum>  (215) 
6

>  <i_i_glide_rotatable_bonds>  (215) 
1

>  <r_i_docking_score>  (215) 
-3.93804

>  <r_i_glide_ligand_efficiency>  (215) 
-0.171219

>  <r_i_glide_ligand_efficiency_sa>  (215) 
-0.486925

>  <r_i_glide_ligand_efficiency_ln>  (215) 
-0.952254

>  <r_i_glide_gscore>  (215) 
-3.93804

>  <r_i_glide_lipo>  (215) 
-0.708468

>  <r_i_glide_hbond>  (215) 
0

>  <r_i_glide_metal>  (215) 
-0

>  <r_i_glide_rewards>  (215) 
-1.23868

>  <r_i_glide_evdw>  (215) 
-25.1738

>  <r_i_glide_ecoul>  (215) 
-4.52751

>  <r_i_glide_erotb>  (215) 
0

>  <r_i_glide_esite>  (215) 
-0.0530782

>  <r_i_glide_emodel>  (215) 
-35.0564

>  <r_i_glide_energy>  (215) 
-29.7013

>  <r_i_glide_einternal>  (215) 
0.437007

>  <r_i_glide_intrahb_reward>  (215) 
-0

>  <i_i_glide_confnum>  (215) 
2

>  <i_i_glide_posenum>  (215) 
1

>  <r_i_glide_eff_state_penalty>  (215) 
0

>  <ligand_id>  (215) 
57

>  <original_smiles>  (215) 
CC1CCC2C(=O)OC3(C)CCC1C21C(=O)C(C)C(O)OC1O3

>  <smiles>  (215) 
[H]OC1([H])OC2([H])OC3(C([H])([H])[H])OC(=O)C4([H])C([H])([H])C([H])([H])C([H])(C([H])([H])[H])C([H])(C([H])([H])C3([H])[H])C24C(=O)C1([H])C([H])([H])[H]

$$$$
57:0:2
     RDKit          3D

 47 50  0  0  1  0  0  0  0  0999 V2000
    1.8038    2.6639    8.2576 C   0  0  0  0  0  0  0  0  0  0  0  0
    2.2834    2.3609    6.8254 C   0  0  2  0  0  0  0  0  0  0  0  0
    3.0983    3.5623    6.2594 C   0  0  0  0  0  0  0  0  0  0  0  0
    3.3771    3.5306    4.7268 C   0  0  0  0  0  0  0  0  0  0  0  0
    2.1669    3.1039    3.8263 C   0  0  2  0  0  0  0  0  0  0  0  0
    1.1147    4.2433    3.6772 C   0  0  0  0  0  0  0  0  0  0  0  0
    1.5217    5.3431    3.3043 O   0  0  0  0  0  0  0  0  0  0  0  0
   -0.2031    4.0892    4.1139 O   0  0  0  0  0  0  0  0  0  0  0  0
   -0.9561    2.8882    3.9878 C   0  0  2  0  0  0  0  0  0  0  0  0
   -2.2647    3.3622    3.3283 C   0  0  0  0  0  0  0  0  0  0  0  0
   -1.3317    2.2312    5.3821 C   0  0  0  0  0  0  0  0  0  0  0  0
   -0.2090    1.4620    6.1408 C   0  0  0  0  0  0  0  0  0  0  0  0
    1.1384    2.0800    5.8066 C   0  0  2  0  0  0  0  0  0  0  0  0
    1.6417    1.7575    4.3416 C   0  0  2  0  0  0  0  0  0  0  0  0
    2.7176    0.6332    4.2954 C   0  0  0  0  0  0  0  0  0  0  0  0
    2.9903   -0.1017    5.2450 O   0  0  0  0  0  0  0  0  0  0  0  0
    3.3075    0.3667    2.9068 C   0  0  1  0  0  0  0  0  0  0  0  0
    4.4380   -0.6786    2.8699 C   0  0  0  0  0  0  0  0  0  0  0  0
    2.1456   -0.0099    1.9677 C   0  0  1  0  0  0  0  0  0  0  0  0
    1.6397   -1.3140    2.1969 O   0  0  0  0  0  0  0  0  0  0  0  0
    1.1706    0.9863    2.0638 O   0  0  0  0  0  0  0  0  0  0  0  0
    0.5787    1.1772    3.3281 C   0  0  2  0  0  0  0  0  0  0  0  0
   -0.5110    1.9757    3.0605 O   0  0  0  0  0  0  0  0  0  0  0  0
    1.1015    3.4990    8.2730 H   0  0  0  0  0  0  0  0  0  0  0  0
    2.6460    2.9275    8.9008 H   0  0  0  0  0  0  0  0  0  0  0  0
    1.3154    1.7967    8.7056 H   0  0  0  0  0  0  0  0  0  0  0  0
    2.9565    1.5177    6.9329 H   0  0  0  0  0  0  0  0  0  0  0  0
    2.5630    4.4864    6.4842 H   0  0  0  0  0  0  0  0  0  0  0  0
    4.0504    3.6448    6.7894 H   0  0  0  0  0  0  0  0  0  0  0  0
    3.7474    4.5071    4.4134 H   0  0  0  0  0  0  0  0  0  0  0  0
    4.2110    2.8537    4.5483 H   0  0  0  0  0  0  0  0  0  0  0  0
    2.5451    2.9683    2.8112 H   0  0  0  0  0  0  0  0  0  0  0  0
   -2.0328    3.8040    2.3584 H   0  0  0  0  0  0  0  0  0  0  0  0
   -2.7704    4.1017    3.9464 H   0  0  0  0  0  0  0  0  0  0  0  0
   -2.9348    2.5163    3.1579 H   0  0  0  0  0  0  0  0  0  0  0  0
   -1.7000    3.0428    6.0151 H   0  0  0  0  0  0  0  0  0  0  0  0
   -2.1830    1.5627    5.2370 H   0  0  0  0  0  0  0  0  0  0  0  0
   -0.4203    1.5494    7.2051 H   0  0  0  0  0  0  0  0  0  0  0  0
   -0.2204    0.3961    5.9216 H   0  0  0  0  0  0  0  0  0  0  0  0
    0.8016    3.0981    5.9074 H   0  0  0  0  0  0  0  0  0  0  0  0
    3.7264    1.3025    2.5391 H   0  0  0  0  0  0  0  0  0  0  0  0
    5.2706   -0.3658    3.5029 H   0  0  0  0  0  0  0  0  0  0  0  0
    4.8230   -0.8012    1.8594 H   0  0  0  0  0  0  0  0  0  0  0  0
    4.1015   -1.6538    3.2207 H   0  0  0  0  0  0  0  0  0  0  0  0
    2.4892    0.0085    0.9267 H   0  0  0  0  0  0  0  0  0  0  0  0
    1.4481   -1.4250    3.1155 H   0  0  0  0  0  0  0  0  0  0  0  0
    0.1750    0.2308    3.6854 H   0  0  0  0  0  0  0  0  0  0  0  0
  1  2  1  0
  1 24  1  0
  1 25  1  0
  1 26  1  0
  2 13  1  0
  2  3  1  0
  2 27  1  1
  3  4  1  0
  3 28  1  0
  3 29  1  0
  4  5  1  0
  4 30  1  0
  4 31  1  0
  5 14  1  0
  5  6  1  0
  5 32  1  6
  6  7  2  0
  6  8  1  0
  8  9  1  0
  9 23  1  0
  9 10  1  6
  9 11  1  0
 10 33  1  0
 10 34  1  0
 10 35  1  0
 11 12  1  0
 11 36  1  0
 11 37  1  0
 12 13  1  0
 12 38  1  0
 12 39  1  0
 13 14  1  0
 13 40  1  6
 14 22  1  0
 14 15  1  1
 15 16  2  0
 15 17  1  0
 17 18  1  0
 17 19  1  0
 17 41  1  6
 18 42  1  0
 18 43  1  0
 18 44  1  0
 19 20  1  0
 19 21  1  0
 19 45  1  6
 20 46  1  0
 21 22  1  0
 22 23  1  0
 22 47  1  1
M  END
>  <i_m_ct_stereo_status>  (216) 
1

>  <s_m_source_file>  (216) 
/var/tmp/pbs.5076255.sched01/tmp548j1hfo/88g9dmtei7.sdf

>  <i_m_source_file_index>  (216) 
6

>  <i_lp_mmshare_version>  (216) 
48012

>  <i_f3d_flags>  (216) 
0

>  <s_epik_input>  (216) 
W0NAQF0xMjNbQ0BASF00W0NIMl1bQ0gyXVtDQEBIXShbQ0gzXSlbQ0BASF0xW0NIMl1bQ0gyXVtDQEBdKFtDSDNdKShPQzQ9TylPW0NASF0zT1tDQEhdKFtPSF0pW0NAQEhdKEMyPU8pW0NIM10=

>  <s_epik_cmdline>  (216) 
J2VwaWtfcHl0aG9uJywgJy1waHQnLCAnMi4wJywgJy1waCcsICc3LjAnLCAnLXRuJywgJzgnLCAnLW1hJywgJzIwMCcsICctaW1hZScsICc8aW5maWxlLm1hZT4nLCAnLW9tYWUnLCAnPG91dGZpbGUubWFlPic=

>  <r_lp_tautomer_probability>  (216) 
1

>  <r_epik_Ionization_Penalty>  (216) 
4.1708e-06

>  <r_epik_Ionization_Penalty_Charging>  (216) 
0

>  <r_epik_Ionization_Penalty_Neutral>  (216) 
4.1708e-06

>  <r_epik_State_Penalty>  (216) 
-0

>  <r_epik_Charging_Adjusted_Penalty>  (216) 
0

>  <i_epik_Tot_Q>  (216) 
0

>  <i_epik_Tot_abs_Q>  (216) 
0

>  <s_epik_Chemistry_Notes>  (216) 
This compound has an ester and may undergo hydrolysis at high or low pH. This compound contains an acetal/aminal-like group ( X-CH(R)-Y where X, Y are N, S, or O) that may be acid/base labile, releasing an aldehyde.

>  <s_lp_Force_Field>  (216) 
OPLS3e

>  <r_lp_Energy>  (216) 
66.4514

>  <b_lp_Chiralities_Consistent>  (216) 
1

>  <s_lp_Variant>  (216) 
57:0-1

>  <s_i_glide_gridfile>  (216) 
pfpi4k_grid

>  <i_i_glide_lignum>  (216) 
6

>  <i_i_glide_rotatable_bonds>  (216) 
1

>  <r_i_docking_score>  (216) 
-2.4292

>  <r_i_glide_ligand_efficiency>  (216) 
-0.105617

>  <r_i_glide_ligand_efficiency_sa>  (216) 
-0.300362

>  <r_i_glide_ligand_efficiency_ln>  (216) 
-0.587403

>  <r_i_glide_gscore>  (216) 
-2.4292

>  <r_i_glide_lipo>  (216) 
-0.0822355

>  <r_i_glide_hbond>  (216) 
0

>  <r_i_glide_metal>  (216) 
-0

>  <r_i_glide_rewards>  (216) 
-1.19749

>  <r_i_glide_evdw>  (216) 
-22.2402

>  <r_i_glide_ecoul>  (216) 
1.03136

>  <r_i_glide_erotb>  (216) 
0

>  <r_i_glide_esite>  (216) 
-0.192176

>  <r_i_glide_emodel>  (216) 
-24.578

>  <r_i_glide_energy>  (216) 
-21.2088

>  <r_i_glide_einternal>  (216) 
0.00136946

>  <r_i_glide_intrahb_reward>  (216) 
-0

>  <i_i_glide_confnum>  (216) 
2

>  <i_i_glide_posenum>  (216) 
2

>  <r_i_glide_eff_state_penalty>  (216) 
0

>  <ligand_id>  (216) 
57

>  <original_smiles>  (216) 
CC1CCC2C(=O)OC3(C)CCC1C21C(=O)C(C)C(O)OC1O3

>  <smiles>  (216) 
[H]OC1([H])OC2([H])OC3(C([H])([H])[H])OC(=O)C4([H])C([H])([H])C([H])([H])C([H])(C([H])([H])[H])C([H])(C([H])([H])C3([H])[H])C24C(=O)C1([H])C([H])([H])[H]

$$$$
58:0:0
     RDKit          3D

 56 61  0  0  1  0  0  0  0  0999 V2000
    4.7046   -0.6113   -1.8915 C   0  0  0  0  0  0  0  0  0  0  0  0
    4.3453   -2.0846   -1.9536 C   0  0  0  0  0  0  0  0  0  0  0  0
    3.6545   -2.1976   -3.3520 C   0  0  0  0  0  0  0  0  0  0  0  0
    5.3884   -3.2139   -1.7622 C   0  0  1  0  0  0  0  0  0  0  0  0
    6.7351   -2.6710   -1.2086 C   0  0  0  0  0  0  0  0  0  0  0  0
    6.6801   -1.7838    0.0795 C   0  0  0  0  0  0  0  0  0  0  0  0
    5.7645   -2.3782    1.1488 C   0  0  1  0  0  0  0  0  0  0  0  0
    6.6069   -3.6813    1.4884 C   0  0  0  0  0  0  0  0  0  0  0  0
    5.7283   -1.6054    2.5185 C   0  0  1  0  0  0  0  0  0  0  0  0
    5.1096   -0.2002    2.5489 C   0  0  0  0  0  0  0  0  0  0  0  0
    3.6581   -0.0741    3.0869 C   0  0  1  0  0  0  0  0  0  0  0  0
    2.8777    0.6381    2.1648 O   0  0  0  0  0  0  0  0  0  0  0  0
    1.6871   -0.0472    1.9817 C   0  0  0  0  0  0  0  0  0  0  0  0
    1.6707   -1.2661    2.6545 O   0  0  0  0  0  0  0  0  0  0  0  0
    2.8662   -1.3728    3.3887 C   0  0  1  0  0  0  0  0  0  0  0  0
    3.6007   -2.7245    3.1680 C   0  0  2  0  0  0  0  0  0  0  0  0
    5.0419   -2.4492    3.6173 C   0  0  0  0  0  0  0  0  0  0  0  0
    3.4754   -3.2931    1.6993 C   0  0  2  0  0  0  0  0  0  0  0  0
    3.8731   -4.7816    1.3966 C   0  0  0  0  0  0  0  0  0  0  0  0
    4.7616   -4.9830    0.2381 O   0  0  0  0  0  0  0  0  0  0  0  0
    4.5468   -4.4159   -1.0899 C   0  0  1  0  0  0  0  0  0  0  0  0
    3.1327   -3.8486   -1.0913 C   0  0  0  0  0  0  0  0  0  0  0  0
    3.5111   -2.4485   -0.7290 C   0  0  1  0  0  0  0  0  0  0  0  0
    4.1946   -2.3859    0.7198 C   0  0  2  0  0  0  0  0  0  0  0  0
    5.6788   -0.3887   -2.3027 H   0  0  0  0  0  0  0  0  0  0  0  0
    4.6203   -0.2153   -0.8835 H   0  0  0  0  0  0  0  0  0  0  0  0
    3.9919   -0.0051   -2.4501 H   0  0  0  0  0  0  0  0  0  0  0  0
    3.5863   -3.2129   -3.7434 H   0  0  0  0  0  0  0  0  0  0  0  0
    4.2015   -1.6351   -4.1068 H   0  0  0  0  0  0  0  0  0  0  0  0
    2.6410   -1.7848   -3.3162 H   0  0  0  0  0  0  0  0  0  0  0  0
    5.6537   -3.5710   -2.7613 H   0  0  0  0  0  0  0  0  0  0  0  0
    7.4373   -3.4991   -1.1073 H   0  0  0  0  0  0  0  0  0  0  0  0
    7.1981   -2.0838   -2.0009 H   0  0  0  0  0  0  0  0  0  0  0  0
    7.6992   -1.7073    0.4639 H   0  0  0  0  0  0  0  0  0  0  0  0
    6.4394   -0.7473   -0.1126 H   0  0  0  0  0  0  0  0  0  0  0  0
    6.2004   -4.3461    2.2301 H   0  0  0  0  0  0  0  0  0  0  0  0
    7.5969   -3.4507    1.8581 H   0  0  0  0  0  0  0  0  0  0  0  0
    6.8605   -4.3376    0.6652 H   0  0  0  0  0  0  0  0  0  0  0  0
    6.7291   -1.3936    2.8294 H   0  0  0  0  0  0  0  0  0  0  0  0
    5.7363    0.4264    3.1913 H   0  0  0  0  0  0  0  0  0  0  0  0
    5.1762    0.2440    1.5584 H   0  0  0  0  0  0  0  0  0  0  0  0
    3.6807    0.5260    3.9967 H   0  0  0  0  0  0  0  0  0  0  0  0
    0.8434    0.5655    2.2938 H   0  0  0  0  0  0  0  0  0  0  0  0
    1.6312   -0.2354    0.9152 H   0  0  0  0  0  0  0  0  0  0  0  0
    2.5921   -1.3218    4.4470 H   0  0  0  0  0  0  0  0  0  0  0  0
    3.1638   -3.4516    3.8443 H   0  0  0  0  0  0  0  0  0  0  0  0
    5.5684   -3.3612    3.8663 H   0  0  0  0  0  0  0  0  0  0  0  0
    5.0596   -1.8984    4.5656 H   0  0  0  0  0  0  0  0  0  0  0  0
    2.4099   -3.2371    1.4704 H   0  0  0  0  0  0  0  0  0  0  0  0
    4.3195   -5.2392    2.2784 H   0  0  0  0  0  0  0  0  0  0  0  0
    2.9807   -5.3943    1.2700 H   0  0  0  0  0  0  0  0  0  0  0  0
    4.6529   -5.2686   -1.7463 H   0  0  0  0  0  0  0  0  0  0  0  0
    2.6433   -3.9290   -2.0424 H   0  0  0  0  0  0  0  0  0  0  0  0
    2.4076   -4.3472   -0.4618 H   0  0  0  0  0  0  0  0  0  0  0  0
    2.6186   -1.8446   -0.7263 H   0  0  0  0  0  0  0  0  0  0  0  0
    3.8471   -1.3880    0.9020 H   0  0  0  0  0  0  0  0  0  0  0  0
  1  2  1  0
  1 25  1  0
  1 26  1  0
  1 27  1  0
  2 23  1  0
  2  3  1  0
  2  4  1  0
  3 28  1  0
  3 29  1  0
  3 30  1  0
  4 21  1  0
  4  5  1  0
  4 31  1  6
  5  6  1  0
  5 32  1  0
  5 33  1  0
  6  7  1  0
  6 34  1  0
  6 35  1  0
  7 24  1  0
  7  8  1  1
  7  9  1  0
  8 36  1  0
  8 37  1  0
  8 38  1  0
  9 17  1  0
  9 10  1  0
  9 39  1  1
 10 11  1  0
 10 40  1  0
 10 41  1  0
 11 15  1  0
 11 12  1  0
 11 42  1  1
 12 13  1  0
 13 14  1  0
 13 43  1  0
 13 44  1  0
 14 15  1  0
 15 16  1  0
 15 45  1  1
 16 17  1  0
 16 18  1  0
 16 46  1  1
 17 47  1  0
 17 48  1  0
 18 24  1  0
 18 19  1  0
 18 49  1  6
 19 20  1  0
 19 50  1  0
 19 51  1  0
 20 21  1  0
 21 22  1  0
 21 52  1  6
 22 23  1  0
 22 53  1  0
 22 54  1  0
 23 24  1  0
 23 55  1  1
 24 56  1  1
M  END
>  <i_m_ct_stereo_status>  (217) 
1

>  <s_m_source_file>  (217) 
/var/tmp/pbs.5076255.sched01/tmp548j1hfo/88g9dmtei7.sdf

>  <i_m_source_file_index>  (217) 
7

>  <i_lp_mmshare_version>  (217) 
48012

>  <i_f3d_flags>  (217) 
0

>  <s_epik_input>  (217) 
W0NIMl0xT1tDQEBIXShbQ0gyXTIpW0NASF0oW0NIMl1bQ0gyXTMpQyhbQ0gzXSkoW0NIM10pW0NAQEhdMltDQEhdNFtDQEBIXTFbQ0BASF0oW0NIMl01KVtDQEhdKE9bQ0gyXU82KVtDQEhdNltDSDJdW0NAQEhdNVtDQF0zNFtDSDNd

>  <s_epik_cmdline>  (217) 
J2VwaWtfcHl0aG9uJywgJy1waHQnLCAnMi4wJywgJy1waCcsICc3LjAnLCAnLXRuJywgJzgnLCAnLW1hJywgJzIwMCcsICctaW1hZScsICc8aW5maWxlLm1hZT4nLCAnLW9tYWUnLCAnPG91dGZpbGUubWFlPic=

>  <r_lp_tautomer_probability>  (217) 
1

>  <r_epik_Ionization_Penalty>  (217) 
7.35941e-11

>  <r_epik_Ionization_Penalty_Charging>  (217) 
0

>  <r_epik_Ionization_Penalty_Neutral>  (217) 
7.35941e-11

>  <r_epik_State_Penalty>  (217) 
-0

>  <r_epik_Charging_Adjusted_Penalty>  (217) 
0

>  <i_epik_Tot_Q>  (217) 
0

>  <i_epik_Tot_abs_Q>  (217) 
0

>  <s_epik_Chemistry_Notes>  (217) 
This compound contains an acetal/aminal-like group ( X-CH(R)-Y where X, Y are N, S, or O) that may be acid/base labile, releasing an aldehyde.

>  <s_lp_Force_Field>  (217) 
OPLS3e

>  <r_lp_Energy>  (217) 
140.557

>  <b_lp_Chiralities_Consistent>  (217) 
1

>  <s_lp_Variant>  (217) 
58:0-1

>  <s_i_glide_gridfile>  (217) 
pfpi4k_grid

>  <i_i_glide_lignum>  (217) 
7

>  <i_i_glide_rotatable_bonds>  (217) 
0

>  <r_i_docking_score>  (217) 
-2.80875

>  <r_i_glide_ligand_efficiency>  (217) 
-0.117031

>  <r_i_glide_ligand_efficiency_sa>  (217) 
-0.337576

>  <r_i_glide_ligand_efficiency_ln>  (217) 
-0.672262

>  <r_i_glide_gscore>  (217) 
-2.80875

>  <r_i_glide_lipo>  (217) 
-0.719059

>  <r_i_glide_hbond>  (217) 
0

>  <r_i_glide_metal>  (217) 
-0

>  <r_i_glide_rewards>  (217) 
-1.1422

>  <r_i_glide_evdw>  (217) 
-16.9142

>  <r_i_glide_ecoul>  (217) 
-0.254419

>  <r_i_glide_erotb>  (217) 
0

>  <r_i_glide_esite>  (217) 
-0.0636124

>  <r_i_glide_emodel>  (217) 
-17.3965

>  <r_i_glide_energy>  (217) 
-17.1686

>  <r_i_glide_einternal>  (217) 
0

>  <r_i_glide_intrahb_reward>  (217) 
-0

>  <i_i_glide_confnum>  (217) 
2

>  <i_i_glide_posenum>  (217) 
3

>  <r_i_glide_eff_state_penalty>  (217) 
0

>  <ligand_id>  (217) 
58

>  <original_smiles>  (217) 
CC1(C)C2CCC3(C)C4CC5OCOC5C(C4)C4COC2CC1C43

>  <smiles>  (217) 
[H]C1([H])OC2([H])C([H])([H])C3([H])C([H])([H])C([H])(C2([H])O1)C1([H])C([H])([H])OC2([H])C([H])([H])C4([H])C1([H])C3(C([H])([H])[H])C([H])([H])C([H])([H])C2([H])C4(C([H])([H])[H])C([H])([H])[H]

$$$$
58:0:1
     RDKit          3D

 56 61  0  0  1  0  0  0  0  0999 V2000
    2.2134   -3.5832   -1.9277 C   0  0  0  0  0  0  0  0  0  0  0  0
    3.7028   -3.3813   -2.3495 C   0  0  0  0  0  0  0  0  0  0  0  0
    3.8070   -3.8168   -3.8648 C   0  0  0  0  0  0  0  0  0  0  0  0
    4.3819   -2.0075   -2.2091 C   0  0  1  0  0  0  0  0  0  0  0  0
    3.5321   -1.1088   -1.3181 C   0  0  0  0  0  0  0  0  0  0  0  0
    3.0201   -1.5872    0.0838 C   0  0  0  0  0  0  0  0  0  0  0  0
    4.1194   -2.2039    0.8834 C   0  0  1  0  0  0  0  0  0  0  0  0
    5.0033   -0.8920    1.1574 C   0  0  0  0  0  0  0  0  0  0  0  0
    3.7320   -2.6435    2.3449 C   0  0  1  0  0  0  0  0  0  0  0  0
    2.7284   -3.8241    2.5006 C   0  0  0  0  0  0  0  0  0  0  0  0
    3.3271   -5.2359    2.7830 C   0  0  1  0  0  0  0  0  0  0  0  0
    2.8381   -6.1728    1.8470 O   0  0  0  0  0  0  0  0  0  0  0  0
    3.8937   -6.9439    1.3778 C   0  0  0  0  0  0  0  0  0  0  0  0
    5.1058   -6.4687    1.8351 O   0  0  0  0  0  0  0  0  0  0  0  0
    4.8530   -5.4068    2.7185 C   0  0  1  0  0  0  0  0  0  0  0  0
    5.6940   -4.1581    2.3886 C   0  0  2  0  0  0  0  0  0  0  0  0
    5.0082   -3.0038    3.1329 C   0  0  0  0  0  0  0  0  0  0  0  0
    5.9741   -3.9273    0.8556 C   0  0  2  0  0  0  0  0  0  0  0  0
    7.0567   -2.8731    0.3891 C   0  0  0  0  0  0  0  0  0  0  0  0
    6.6163   -1.9123   -0.6588 O   0  0  0  0  0  0  0  0  0  0  0  0
    5.9357   -2.2603   -1.9009 C   0  0  1  0  0  0  0  0  0  0  0  0
    5.9769   -3.7218   -1.9976 C   0  0  0  0  0  0  0  0  0  0  0  0
    4.6640   -4.0661   -1.3607 C   0  0  1  0  0  0  0  0  0  0  0  0
    4.6595   -3.5882    0.1737 C   0  0  2  0  0  0  0  0  0  0  0  0
    1.5384   -2.7570   -2.1057 H   0  0  0  0  0  0  0  0  0  0  0  0
    2.1102   -4.0076   -0.9353 H   0  0  0  0  0  0  0  0  0  0  0  0
    1.8165   -4.3854   -2.5293 H   0  0  0  0  0  0  0  0  0  0  0  0
    4.6274   -3.3250   -4.3982 H   0  0  0  0  0  0  0  0  0  0  0  0
    2.9033   -3.4921   -4.3972 H   0  0  0  0  0  0  0  0  0  0  0  0
    3.9654   -4.8723   -4.0080 H   0  0  0  0  0  0  0  0  0  0  0  0
    4.3508   -1.5297   -3.1761 H   0  0  0  0  0  0  0  0  0  0  0  0
    4.1695   -0.2138   -1.3052 H   0  0  0  0  0  0  0  0  0  0  0  0
    2.6592   -0.8375   -1.9151 H   0  0  0  0  0  0  0  0  0  0  0  0
    2.6198   -0.7233    0.6054 H   0  0  0  0  0  0  0  0  0  0  0  0
    2.1770   -2.2643    0.0732 H   0  0  0  0  0  0  0  0  0  0  0  0
    5.9540   -1.0050    1.6738 H   0  0  0  0  0  0  0  0  0  0  0  0
    4.4400   -0.1956    1.7588 H   0  0  0  0  0  0  0  0  0  0  0  0
    5.2916   -0.3022    0.3068 H   0  0  0  0  0  0  0  0  0  0  0  0
    3.2683   -1.7756    2.8020 H   0  0  0  0  0  0  0  0  0  0  0  0
    2.0617   -3.5791    3.3234 H   0  0  0  0  0  0  0  0  0  0  0  0
    2.0932   -3.8820    1.6201 H   0  0  0  0  0  0  0  0  0  0  0  0
    3.0175   -5.5498    3.7772 H   0  0  0  0  0  0  0  0  0  0  0  0
    3.7806   -7.9862    1.6872 H   0  0  0  0  0  0  0  0  0  0  0  0
    3.9028   -6.8667    0.2888 H   0  0  0  0  0  0  0  0  0  0  0  0
    5.1825   -5.7383    3.6984 H   0  0  0  0  0  0  0  0  0  0  0  0
    6.6200   -4.3719    2.8766 H   0  0  0  0  0  0  0  0  0  0  0  0
    5.6754   -2.1752    3.2824 H   0  0  0  0  0  0  0  0  0  0  0  0
    4.7411   -3.2928    4.1520 H   0  0  0  0  0  0  0  0  0  0  0  0
    6.3134   -4.8793    0.4659 H   0  0  0  0  0  0  0  0  0  0  0  0
    7.4729   -2.3327    1.2465 H   0  0  0  0  0  0  0  0  0  0  0  0
    7.9482   -3.3923    0.0275 H   0  0  0  0  0  0  0  0  0  0  0  0
    6.5523   -1.8909   -2.7140 H   0  0  0  0  0  0  0  0  0  0  0  0
    6.0846   -4.0359   -3.0249 H   0  0  0  0  0  0  0  0  0  0  0  0
    6.8172   -4.1546   -1.5208 H   0  0  0  0  0  0  0  0  0  0  0  0
    4.5785   -5.1549   -1.4064 H   0  0  0  0  0  0  0  0  0  0  0  0
    3.9568   -4.3403    0.4799 H   0  0  0  0  0  0  0  0  0  0  0  0
  1  2  1  0
  1 25  1  0
  1 26  1  0
  1 27  1  0
  2 23  1  0
  2  3  1  0
  2  4  1  0
  3 28  1  0
  3 29  1  0
  3 30  1  0
  4 21  1  0
  4  5  1  0
  4 31  1  6
  5  6  1  0
  5 32  1  0
  5 33  1  0
  6  7  1  0
  6 34  1  0
  6 35  1  0
  7 24  1  0
  7  8  1  1
  7  9  1  0
  8 36  1  0
  8 37  1  0
  8 38  1  0
  9 17  1  0
  9 10  1  0
  9 39  1  1
 10 11  1  0
 10 40  1  0
 10 41  1  0
 11 15  1  0
 11 12  1  0
 11 42  1  1
 12 13  1  0
 13 14  1  0
 13 43  1  0
 13 44  1  0
 14 15  1  0
 15 16  1  0
 15 45  1  1
 16 17  1  0
 16 18  1  0
 16 46  1  1
 17 47  1  0
 17 48  1  0
 18 24  1  0
 18 19  1  0
 18 49  1  6
 19 20  1  0
 19 50  1  0
 19 51  1  0
 20 21  1  0
 21 22  1  0
 21 52  1  6
 22 23  1  0
 22 53  1  0
 22 54  1  0
 23 24  1  0
 23 55  1  1
 24 56  1  1
M  END
>  <i_m_ct_stereo_status>  (218) 
1

>  <s_m_source_file>  (218) 
/var/tmp/pbs.5076255.sched01/tmp548j1hfo/88g9dmtei7.sdf

>  <i_m_source_file_index>  (218) 
7

>  <i_lp_mmshare_version>  (218) 
48012

>  <i_f3d_flags>  (218) 
0

>  <s_epik_input>  (218) 
W0NIMl0xT1tDQEBIXShbQ0gyXTIpW0NASF0oW0NIMl1bQ0gyXTMpQyhbQ0gzXSkoW0NIM10pW0NAQEhdMltDQEhdNFtDQEBIXTFbQ0BASF0oW0NIMl01KVtDQEhdKE9bQ0gyXU82KVtDQEhdNltDSDJdW0NAQEhdNVtDQF0zNFtDSDNd

>  <s_epik_cmdline>  (218) 
J2VwaWtfcHl0aG9uJywgJy1waHQnLCAnMi4wJywgJy1waCcsICc3LjAnLCAnLXRuJywgJzgnLCAnLW1hJywgJzIwMCcsICctaW1hZScsICc8aW5maWxlLm1hZT4nLCAnLW9tYWUnLCAnPG91dGZpbGUubWFlPic=

>  <r_lp_tautomer_probability>  (218) 
1

>  <r_epik_Ionization_Penalty>  (218) 
7.35941e-11

>  <r_epik_Ionization_Penalty_Charging>  (218) 
0

>  <r_epik_Ionization_Penalty_Neutral>  (218) 
7.35941e-11

>  <r_epik_State_Penalty>  (218) 
-0

>  <r_epik_Charging_Adjusted_Penalty>  (218) 
0

>  <i_epik_Tot_Q>  (218) 
0

>  <i_epik_Tot_abs_Q>  (218) 
0

>  <s_epik_Chemistry_Notes>  (218) 
This compound contains an acetal/aminal-like group ( X-CH(R)-Y where X, Y are N, S, or O) that may be acid/base labile, releasing an aldehyde.

>  <s_lp_Force_Field>  (218) 
OPLS3e

>  <r_lp_Energy>  (218) 
140.557

>  <b_lp_Chiralities_Consistent>  (218) 
1

>  <s_lp_Variant>  (218) 
58:0-1

>  <s_i_glide_gridfile>  (218) 
pfpi4k_grid

>  <i_i_glide_lignum>  (218) 
7

>  <i_i_glide_rotatable_bonds>  (218) 
0

>  <r_i_docking_score>  (218) 
-2.41276

>  <r_i_glide_ligand_efficiency>  (218) 
-0.100532

>  <r_i_glide_ligand_efficiency_sa>  (218) 
-0.289983

>  <r_i_glide_ligand_efficiency_ln>  (218) 
-0.577483

>  <r_i_glide_gscore>  (218) 
-2.41276

>  <r_i_glide_lipo>  (218) 
-0.698306

>  <r_i_glide_hbond>  (218) 
-0.16

>  <r_i_glide_metal>  (218) 
-0

>  <r_i_glide_rewards>  (218) 
-1.24499

>  <r_i_glide_evdw>  (218) 
-1.68327

>  <r_i_glide_ecoul>  (218) 
-1.502

>  <r_i_glide_erotb>  (218) 
0

>  <r_i_glide_esite>  (218) 
0

>  <r_i_glide_emodel>  (218) 
-2.47237

>  <r_i_glide_energy>  (218) 
-3.18527

>  <r_i_glide_einternal>  (218) 
0

>  <r_i_glide_intrahb_reward>  (218) 
-0

>  <i_i_glide_confnum>  (218) 
2

>  <i_i_glide_posenum>  (218) 
11

>  <r_i_glide_eff_state_penalty>  (218) 
0

>  <ligand_id>  (218) 
58

>  <original_smiles>  (218) 
CC1(C)C2CCC3(C)C4CC5OCOC5C(C4)C4COC2CC1C43

>  <smiles>  (218) 
[H]C1([H])OC2([H])C([H])([H])C3([H])C([H])([H])C([H])(C2([H])O1)C1([H])C([H])([H])OC2([H])C([H])([H])C4([H])C1([H])C3(C([H])([H])[H])C([H])([H])C([H])([H])C2([H])C4(C([H])([H])[H])C([H])([H])[H]

$$$$
59:0:0
     RDKit          3D

 35 37  0  0  1  0  0  0  0  0999 V2000
   -1.3921   -9.5220    2.0879 C   0  0  0  0  0  0  0  0  0  0  0  0
   -0.6938   -8.4173    2.8370 C   0  0  0  0  0  0  0  0  0  0  0  0
    0.2074   -7.5652    2.1578 C   0  0  0  0  0  0  0  0  0  0  0  0
    0.8726   -6.5399    2.8712 C   0  0  0  0  0  0  0  0  0  0  0  0
    0.5757   -6.3363    4.2473 C   0  0  0  0  0  0  0  0  0  0  0  0
    1.3271   -5.4391    4.9481 O   0  0  0  0  0  0  0  0  0  0  0  0
    0.7099   -4.5321    5.7421 C   0  0  0  0  0  0  0  0  0  0  0  0
    0.1983   -3.3907    5.2217 N   0  0  0  0  0  0  0  0  0  0  0  0
   -0.3332   -2.6377    6.3088 O   0  0  0  0  0  0  0  0  0  0  0  0
   -0.1214   -3.3652    7.4564 N   0  0  0  0  0  0  0  0  0  0  0  0
   -0.4837   -2.9459    8.6225 O   0  0  0  0  0  0  0  0  0  0  0  0
    0.4841   -4.4971    7.1532 C   0  0  0  0  0  0  0  0  0  0  0  0
    1.0199   -5.7385    8.3937 S   0  0  0  0  0  0  0  0  0  0  0  0
    2.2323   -5.1244    9.0266 O   0  0  0  0  0  0  0  0  0  0  0  0
   -0.1456   -6.0294    9.1970 O   0  0  0  0  0  0  0  0  0  0  0  0
    1.5132   -7.2167    7.5181 C   0  0  0  0  0  0  0  0  0  0  0  0
    0.6199   -8.3169    7.4724 C   0  0  0  0  0  0  0  0  0  0  0  0
    0.9302   -9.4378    6.6648 C   0  0  0  0  0  0  0  0  0  0  0  0
    2.1406   -9.4642    5.9431 C   0  0  0  0  0  0  0  0  0  0  0  0
    3.0390   -8.3766    6.0057 C   0  0  0  0  0  0  0  0  0  0  0  0
    2.7297   -7.2578    6.8094 C   0  0  0  0  0  0  0  0  0  0  0  0
   -0.3989   -7.1287    4.8854 C   0  0  0  0  0  0  0  0  0  0  0  0
   -0.9751   -8.2141    4.2087 C   0  0  0  0  0  0  0  0  0  0  0  0
   -1.9640   -9.0670    1.2824 H   0  0  0  0  0  0  0  0  0  0  0  0
   -2.1006  -10.0455    2.7301 H   0  0  0  0  0  0  0  0  0  0  0  0
   -0.6882  -10.2567    1.6811 H   0  0  0  0  0  0  0  0  0  0  0  0
    0.3933   -7.7165    1.1113 H   0  0  0  0  0  0  0  0  0  0  0  0
    1.6084   -5.9224    2.3829 H   0  0  0  0  0  0  0  0  0  0  0  0
   -0.3004   -8.2987    8.0221 H   0  0  0  0  0  0  0  0  0  0  0  0
    0.2229  -10.2347    6.5674 H   0  0  0  0  0  0  0  0  0  0  0  0
    2.3277  -10.2851    5.2688 H   0  0  0  0  0  0  0  0  0  0  0  0
    3.9172   -8.3695    5.3926 H   0  0  0  0  0  0  0  0  0  0  0  0
    3.3578   -6.3867    6.7865 H   0  0  0  0  0  0  0  0  0  0  0  0
   -0.6396   -6.9654    5.9272 H   0  0  0  0  0  0  0  0  0  0  0  0
   -1.5996   -8.9100    4.7352 H   0  0  0  0  0  0  0  0  0  0  0  0
  1  2  1  0
  1 24  1  0
  1 25  1  0
  1 26  1  0
  2 23  2  0
  2  3  1  0
  3  4  2  0
  3 27  1  0
  4  5  1  0
  4 28  1  0
  5  6  1  0
  5 22  2  0
  6  7  1  0
  7 12  1  0
  7  8  2  0
  8  9  1  0
  9 10  1  0
 10 11  1  0
 10 12  2  0
 12 13  1  0
 13 14  2  0
 13 15  2  0
 13 16  1  0
 16 21  1  0
 16 17  2  0
 17 18  1  0
 17 29  1  0
 18 19  2  0
 18 30  1  0
 19 20  1  0
 19 31  1  0
 20 21  2  0
 20 32  1  0
 21 33  1  0
 22 23  1  0
 22 34  1  0
 23 35  1  0
M  CHG  2  10   1  11  -1
M  END
>  <i_m_ct_stereo_status>  (219) 
1

>  <s_m_source_file>  (219) 
/var/tmp/pbs.5076255.sched01/tmp548j1hfo/88g9dmtei7.sdf

>  <i_m_source_file_index>  (219) 
8

>  <i_lp_mmshare_version>  (219) 
48012

>  <i_f3d_flags>  (219) 
0

>  <s_epik_input>  (219) 
W0NIM11jMVtjSF1bY0hdYyhbY0hdW2NIXTEpT2MybltvLV1bbitdKFtPLV0pYzJTKD1PKSg9TyljM1tjSF1bY0hdW2NIXVtjSF1bY0hdMw==

>  <s_epik_cmdline>  (219) 
J2VwaWtfcHl0aG9uJywgJy1waHQnLCAnMi4wJywgJy1waCcsICc3LjAnLCAnLXRuJywgJzgnLCAnLW1hJywgJzIwMCcsICctaW1hZScsICc8aW5maWxlLm1hZT4nLCAnLW9tYWUnLCAnPG91dGZpbGUubWFlPic=

>  <r_lp_tautomer_probability>  (219) 
1

>  <r_epik_Ionization_Penalty>  (219) 
7.8935e-16

>  <r_epik_Ionization_Penalty_Charging>  (219) 
0

>  <r_epik_Ionization_Penalty_Neutral>  (219) 
7.8935e-16

>  <r_epik_State_Penalty>  (219) 
-0

>  <r_epik_Charging_Adjusted_Penalty>  (219) 
0

>  <i_epik_Tot_Q>  (219) 
0

>  <i_epik_Tot_abs_Q>  (219) 
2

>  <s_lp_Force_Field>  (219) 
OPLS3e

>  <r_lp_Energy>  (219) 
15.431

>  <b_lp_Chiralities_Consistent>  (219) 
1

>  <s_lp_Variant>  (219) 
59:0-1

>  <s_i_glide_gridfile>  (219) 
pfpi4k_grid

>  <i_i_glide_lignum>  (219) 
8

>  <i_i_glide_rotatable_bonds>  (219) 
4

>  <r_i_docking_score>  (219) 
-3.8423

>  <r_i_glide_ligand_efficiency>  (219) 
-0.167056

>  <r_i_glide_ligand_efficiency_sa>  (219) 
-0.475086

>  <r_i_glide_ligand_efficiency_ln>  (219) 
-0.929103

>  <r_i_glide_gscore>  (219) 
-3.8423

>  <r_i_glide_lipo>  (219) 
-0.174108

>  <r_i_glide_hbond>  (219) 
-0.2

>  <r_i_glide_metal>  (219) 
-0

>  <r_i_glide_rewards>  (219) 
-1.14319

>  <r_i_glide_evdw>  (219) 
-18.7307

>  <r_i_glide_ecoul>  (219) 
-13.0994

>  <r_i_glide_erotb>  (219) 
0.682081

>  <r_i_glide_esite>  (219) 
-0.10564

>  <r_i_glide_emodel>  (219) 
-37.0733

>  <r_i_glide_energy>  (219) 
-31.8301

>  <r_i_glide_einternal>  (219) 
4.63496

>  <r_i_glide_intrahb_reward>  (219) 
-0

>  <i_i_glide_confnum>  (219) 
6

>  <i_i_glide_posenum>  (219) 
5

>  <r_i_glide_eff_state_penalty>  (219) 
0

>  <ligand_id>  (219) 
59

>  <original_smiles>  (219) 
Cc1ccc(Oc2no[n+]([O-])c2S(=O)(=O)c2ccccc2)cc1

>  <smiles>  (219) 
[H]c1c([H])c([H])c(S(=O)(=O)c2c(Oc3c([H])c([H])c(C([H])([H])[H])c([H])c3[H])no[n+]2[O-])c([H])c1[H]

$$$$
59:0:1
     RDKit          3D

 35 37  0  0  1  0  0  0  0  0999 V2000
   -0.8678   -7.4742    3.2279 C   0  0  0  0  0  0  0  0  0  0  0  0
    0.2138   -6.6780    2.5279 C   0  0  0  0  0  0  0  0  0  0  0  0
    0.4307   -6.8687    1.1521 C   0  0  0  0  0  0  0  0  0  0  0  0
    1.4450   -6.1446    0.4989 C   0  0  0  0  0  0  0  0  0  0  0  0
    2.2410   -5.2046    1.1909 C   0  0  0  0  0  0  0  0  0  0  0  0
    3.2287   -4.4683    0.5605 O   0  0  0  0  0  0  0  0  0  0  0  0
    2.9668   -3.7495   -0.5948 C   0  0  0  0  0  0  0  0  0  0  0  0
    1.8127   -3.8413   -1.2741 N   0  0  0  0  0  0  0  0  0  0  0  0
    1.9206   -3.0507   -2.4412 O   0  0  0  0  0  0  0  0  0  0  0  0
    3.1418   -2.4097   -2.4052 N   0  0  0  0  0  0  0  0  0  0  0  0
    3.5753   -1.5867   -3.2951 O   0  0  0  0  0  0  0  0  0  0  0  0
    3.7680   -2.8144   -1.2985 C   0  0  0  0  0  0  0  0  0  0  0  0
    5.4256   -2.2954   -0.7806 S   0  0  0  0  0  0  0  0  0  0  0  0
    6.2740   -3.4862   -0.9316 O   0  0  0  0  0  0  0  0  0  0  0  0
    5.7399   -1.0579   -1.5106 O   0  0  0  0  0  0  0  0  0  0  0  0
    5.2584   -1.8952    0.9527 C   0  0  0  0  0  0  0  0  0  0  0  0
    4.9545   -0.5755    1.3293 C   0  0  0  0  0  0  0  0  0  0  0  0
    4.8234   -0.2611    2.6961 C   0  0  0  0  0  0  0  0  0  0  0  0
    4.9915   -1.2582    3.6764 C   0  0  0  0  0  0  0  0  0  0  0  0
    5.2804   -2.5812    3.2898 C   0  0  0  0  0  0  0  0  0  0  0  0
    5.4224   -2.9021    1.9249 C   0  0  0  0  0  0  0  0  0  0  0  0
    2.0251   -5.0307    2.5750 C   0  0  0  0  0  0  0  0  0  0  0  0
    1.0166   -5.7609    3.2422 C   0  0  0  0  0  0  0  0  0  0  0  0
   -1.8322   -7.3091    2.7448 H   0  0  0  0  0  0  0  0  0  0  0  0
   -0.9530   -7.1989    4.2789 H   0  0  0  0  0  0  0  0  0  0  0  0
   -0.6347   -8.5388    3.1724 H   0  0  0  0  0  0  0  0  0  0  0  0
   -0.1817   -7.5698    0.5973 H   0  0  0  0  0  0  0  0  0  0  0  0
    1.5868   -6.2538   -0.5624 H   0  0  0  0  0  0  0  0  0  0  0  0
    4.8318    0.1960    0.5778 H   0  0  0  0  0  0  0  0  0  0  0  0
    4.5943    0.7506    2.9989 H   0  0  0  0  0  0  0  0  0  0  0  0
    4.9024   -1.0005    4.7243 H   0  0  0  0  0  0  0  0  0  0  0  0
    5.4137   -3.3471    4.0434 H   0  0  0  0  0  0  0  0  0  0  0  0
    5.6591   -3.9147    1.6270 H   0  0  0  0  0  0  0  0  0  0  0  0
    2.6281   -4.3195    3.1230 H   0  0  0  0  0  0  0  0  0  0  0  0
    0.8666   -5.6120    4.3049 H   0  0  0  0  0  0  0  0  0  0  0  0
  1  2  1  0
  1 24  1  0
  1 25  1  0
  1 26  1  0
  2 23  2  0
  2  3  1  0
  3  4  2  0
  3 27  1  0
  4  5  1  0
  4 28  1  0
  5  6  1  0
  5 22  2  0
  6  7  1  0
  7 12  1  0
  7  8  2  0
  8  9  1  0
  9 10  1  0
 10 11  1  0
 10 12  2  0
 12 13  1  0
 13 14  2  0
 13 15  2  0
 13 16  1  0
 16 21  1  0
 16 17  2  0
 17 18  1  0
 17 29  1  0
 18 19  2  0
 18 30  1  0
 19 20  1  0
 19 31  1  0
 20 21  2  0
 20 32  1  0
 21 33  1  0
 22 23  1  0
 22 34  1  0
 23 35  1  0
M  CHG  2  10   1  11  -1
M  END
>  <i_m_ct_stereo_status>  (220) 
1

>  <s_m_source_file>  (220) 
/var/tmp/pbs.5076255.sched01/tmp548j1hfo/88g9dmtei7.sdf

>  <i_m_source_file_index>  (220) 
8

>  <i_lp_mmshare_version>  (220) 
48012

>  <i_f3d_flags>  (220) 
0

>  <s_epik_input>  (220) 
W0NIM11jMVtjSF1bY0hdYyhbY0hdW2NIXTEpT2MybltvLV1bbitdKFtPLV0pYzJTKD1PKSg9TyljM1tjSF1bY0hdW2NIXVtjSF1bY0hdMw==

>  <s_epik_cmdline>  (220) 
J2VwaWtfcHl0aG9uJywgJy1waHQnLCAnMi4wJywgJy1waCcsICc3LjAnLCAnLXRuJywgJzgnLCAnLW1hJywgJzIwMCcsICctaW1hZScsICc8aW5maWxlLm1hZT4nLCAnLW9tYWUnLCAnPG91dGZpbGUubWFlPic=

>  <r_lp_tautomer_probability>  (220) 
1

>  <r_epik_Ionization_Penalty>  (220) 
7.8935e-16

>  <r_epik_Ionization_Penalty_Charging>  (220) 
0

>  <r_epik_Ionization_Penalty_Neutral>  (220) 
7.8935e-16

>  <r_epik_State_Penalty>  (220) 
-0

>  <r_epik_Charging_Adjusted_Penalty>  (220) 
0

>  <i_epik_Tot_Q>  (220) 
0

>  <i_epik_Tot_abs_Q>  (220) 
2

>  <s_lp_Force_Field>  (220) 
OPLS3e

>  <r_lp_Energy>  (220) 
15.431

>  <b_lp_Chiralities_Consistent>  (220) 
1

>  <s_lp_Variant>  (220) 
59:0-1

>  <s_i_glide_gridfile>  (220) 
pfpi4k_grid

>  <i_i_glide_lignum>  (220) 
8

>  <i_i_glide_rotatable_bonds>  (220) 
4

>  <r_i_docking_score>  (220) 
-3.68111

>  <r_i_glide_ligand_efficiency>  (220) 
-0.160048

>  <r_i_glide_ligand_efficiency_sa>  (220) 
-0.455156

>  <r_i_glide_ligand_efficiency_ln>  (220) 
-0.890127

>  <r_i_glide_gscore>  (220) 
-3.68111

>  <r_i_glide_lipo>  (220) 
-0.497905

>  <r_i_glide_hbond>  (220) 
0

>  <r_i_glide_metal>  (220) 
-0

>  <r_i_glide_rewards>  (220) 
-1.14319

>  <r_i_glide_evdw>  (220) 
-22.6004

>  <r_i_glide_ecoul>  (220) 
-9.46822

>  <r_i_glide_erotb>  (220) 
0.682081

>  <r_i_glide_esite>  (220) 
-0.171847

>  <r_i_glide_emodel>  (220) 
-38.2422

>  <r_i_glide_energy>  (220) 
-32.0686

>  <r_i_glide_einternal>  (220) 
3.95478

>  <r_i_glide_intrahb_reward>  (220) 
-0

>  <i_i_glide_confnum>  (220) 
5

>  <i_i_glide_posenum>  (220) 
4

>  <r_i_glide_eff_state_penalty>  (220) 
0

>  <ligand_id>  (220) 
59

>  <original_smiles>  (220) 
Cc1ccc(Oc2no[n+]([O-])c2S(=O)(=O)c2ccccc2)cc1

>  <smiles>  (220) 
[H]c1c([H])c([H])c(S(=O)(=O)c2c(Oc3c([H])c([H])c(C([H])([H])[H])c([H])c3[H])no[n+]2[O-])c([H])c1[H]

$$$$
59:0:2
     RDKit          3D

 35 37  0  0  1  0  0  0  0  0999 V2000
   -0.9566   -7.9320    3.2337 C   0  0  0  0  0  0  0  0  0  0  0  0
    0.1472   -7.0649    2.6653 C   0  0  0  0  0  0  0  0  0  0  0  0
    0.3786   -7.0487    1.2757 C   0  0  0  0  0  0  0  0  0  0  0  0
    1.4180   -6.2541    0.7423 C   0  0  0  0  0  0  0  0  0  0  0  0
    2.2393   -5.4799    1.5859 C   0  0  0  0  0  0  0  0  0  0  0  0
    3.2519   -4.7339    1.0156 O   0  0  0  0  0  0  0  0  0  0  0  0
    3.4679   -3.4142    1.3673 C   0  0  0  0  0  0  0  0  0  0  0  0
    2.7652   -2.7728    2.3245 N   0  0  0  0  0  0  0  0  0  0  0  0
    3.2691   -1.4508    2.4211 O   0  0  0  0  0  0  0  0  0  0  0  0
    4.2527   -1.3103    1.4681 N   0  0  0  0  0  0  0  0  0  0  0  0
    4.8961   -0.2259    1.2303 O   0  0  0  0  0  0  0  0  0  0  0  0
    4.3965   -2.4725    0.8434 C   0  0  0  0  0  0  0  0  0  0  0  0
    5.5089   -2.7511   -0.5651 S   0  0  0  0  0  0  0  0  0  0  0  0
    6.6928   -1.8893   -0.3739 O   0  0  0  0  0  0  0  0  0  0  0  0
    5.6531   -4.2123   -0.6495 O   0  0  0  0  0  0  0  0  0  0  0  0
    4.5887   -2.1620   -1.9710 C   0  0  0  0  0  0  0  0  0  0  0  0
    4.5317   -0.7812   -2.2236 C   0  0  0  0  0  0  0  0  0  0  0  0
    3.8171   -0.2915   -3.3331 C   0  0  0  0  0  0  0  0  0  0  0  0
    3.1577   -1.1942   -4.1854 C   0  0  0  0  0  0  0  0  0  0  0  0
    3.1995   -2.5816   -3.9184 C   0  0  0  0  0  0  0  0  0  0  0  0
    3.9238   -3.0689   -2.8143 C   0  0  0  0  0  0  0  0  0  0  0  0
    2.0152   -5.5335    2.9833 C   0  0  0  0  0  0  0  0  0  0  0  0
    0.9633   -6.2978    3.5191 C   0  0  0  0  0  0  0  0  0  0  0  0
   -1.9118   -7.6712    2.7768 H   0  0  0  0  0  0  0  0  0  0  0  0
   -1.0429   -7.8058    4.3139 H   0  0  0  0  0  0  0  0  0  0  0  0
   -0.7466   -8.9842    3.0337 H   0  0  0  0  0  0  0  0  0  0  0  0
   -0.2278   -7.6613    0.6234 H   0  0  0  0  0  0  0  0  0  0  0  0
    1.5946   -6.2526   -0.3222 H   0  0  0  0  0  0  0  0  0  0  0  0
    5.0257   -0.1024   -1.5485 H   0  0  0  0  0  0  0  0  0  0  0  0
    3.7728    0.7721   -3.5234 H   0  0  0  0  0  0  0  0  0  0  0  0
    2.6121   -0.8151   -5.0354 H   0  0  0  0  0  0  0  0  0  0  0  0
    2.6847   -3.2734   -4.5702 H   0  0  0  0  0  0  0  0  0  0  0  0
    3.9714   -4.1296   -2.6189 H   0  0  0  0  0  0  0  0  0  0  0  0
    2.6306   -4.9714    3.6647 H   0  0  0  0  0  0  0  0  0  0  0  0
    0.8040   -6.3034    4.5877 H   0  0  0  0  0  0  0  0  0  0  0  0
  1  2  1  0
  1 24  1  0
  1 25  1  0
  1 26  1  0
  2 23  2  0
  2  3  1  0
  3  4  2  0
  3 27  1  0
  4  5  1  0
  4 28  1  0
  5  6  1  0
  5 22  2  0
  6  7  1  0
  7 12  1  0
  7  8  2  0
  8  9  1  0
  9 10  1  0
 10 11  1  0
 10 12  2  0
 12 13  1  0
 13 14  2  0
 13 15  2  0
 13 16  1  0
 16 21  1  0
 16 17  2  0
 17 18  1  0
 17 29  1  0
 18 19  2  0
 18 30  1  0
 19 20  1  0
 19 31  1  0
 20 21  2  0
 20 32  1  0
 21 33  1  0
 22 23  1  0
 22 34  1  0
 23 35  1  0
M  CHG  2  10   1  11  -1
M  END
>  <i_m_ct_stereo_status>  (221) 
1

>  <s_m_source_file>  (221) 
/var/tmp/pbs.5076255.sched01/tmp548j1hfo/88g9dmtei7.sdf

>  <i_m_source_file_index>  (221) 
8

>  <i_lp_mmshare_version>  (221) 
48012

>  <i_f3d_flags>  (221) 
0

>  <s_epik_input>  (221) 
W0NIM11jMVtjSF1bY0hdYyhbY0hdW2NIXTEpT2MybltvLV1bbitdKFtPLV0pYzJTKD1PKSg9TyljM1tjSF1bY0hdW2NIXVtjSF1bY0hdMw==

>  <s_epik_cmdline>  (221) 
J2VwaWtfcHl0aG9uJywgJy1waHQnLCAnMi4wJywgJy1waCcsICc3LjAnLCAnLXRuJywgJzgnLCAnLW1hJywgJzIwMCcsICctaW1hZScsICc8aW5maWxlLm1hZT4nLCAnLW9tYWUnLCAnPG91dGZpbGUubWFlPic=

>  <r_lp_tautomer_probability>  (221) 
1

>  <r_epik_Ionization_Penalty>  (221) 
7.8935e-16

>  <r_epik_Ionization_Penalty_Charging>  (221) 
0

>  <r_epik_Ionization_Penalty_Neutral>  (221) 
7.8935e-16

>  <r_epik_State_Penalty>  (221) 
-0

>  <r_epik_Charging_Adjusted_Penalty>  (221) 
0

>  <i_epik_Tot_Q>  (221) 
0

>  <i_epik_Tot_abs_Q>  (221) 
2

>  <s_lp_Force_Field>  (221) 
OPLS3e

>  <r_lp_Energy>  (221) 
15.431

>  <b_lp_Chiralities_Consistent>  (221) 
1

>  <s_lp_Variant>  (221) 
59:0-1

>  <s_i_glide_gridfile>  (221) 
pfpi4k_grid

>  <i_i_glide_lignum>  (221) 
8

>  <i_i_glide_rotatable_bonds>  (221) 
4

>  <r_i_docking_score>  (221) 
-3.50066

>  <r_i_glide_ligand_efficiency>  (221) 
-0.152203

>  <r_i_glide_ligand_efficiency_sa>  (221) 
-0.432844

>  <r_i_glide_ligand_efficiency_ln>  (221) 
-0.846491

>  <r_i_glide_gscore>  (221) 
-3.50066

>  <r_i_glide_lipo>  (221) 
-0.339784

>  <r_i_glide_hbond>  (221) 
-0.0209026

>  <r_i_glide_metal>  (221) 
-0

>  <r_i_glide_rewards>  (221) 
-1.44404

>  <r_i_glide_evdw>  (221) 
-28.5366

>  <r_i_glide_ecoul>  (221) 
-5.92648

>  <r_i_glide_erotb>  (221) 
0.682081

>  <r_i_glide_esite>  (221) 
-0.0622159

>  <r_i_glide_emodel>  (221) 
-41.8083

>  <r_i_glide_energy>  (221) 
-34.4631

>  <r_i_glide_einternal>  (221) 
0.872442

>  <r_i_glide_intrahb_reward>  (221) 
-0

>  <i_i_glide_confnum>  (221) 
3

>  <i_i_glide_posenum>  (221) 
28

>  <r_i_glide_eff_state_penalty>  (221) 
0

>  <ligand_id>  (221) 
59

>  <original_smiles>  (221) 
Cc1ccc(Oc2no[n+]([O-])c2S(=O)(=O)c2ccccc2)cc1

>  <smiles>  (221) 
[H]c1c([H])c([H])c(S(=O)(=O)c2c(Oc3c([H])c([H])c(C([H])([H])[H])c([H])c3[H])no[n+]2[O-])c([H])c1[H]

$$$$
60:0:0
     RDKit          3D

 61 68  0  0  1  0  0  0  0  0999 V2000
    2.4674   -3.0542   -3.1334 C   0  0  0  0  0  0  0  0  0  0  0  0
    3.4395   -2.1433   -2.3835 C   0  0  2  0  0  0  0  0  0  0  0  0
    4.9072   -2.1896   -2.8657 C   0  0  0  0  0  0  0  0  0  0  0  0
    5.8347   -3.0855   -2.0299 C   0  0  0  0  0  0  0  0  0  0  0  0
    5.6392   -2.7801   -0.6036 N   0  0  2  0  0  0  0  0  0  0  0  0
    6.5660   -3.3670    0.3673 C   0  0  2  0  0  0  0  0  0  0  0  0
    6.4252   -4.9020    0.5154 C   0  0  0  0  0  0  0  0  0  0  0  0
    4.9737   -5.4584    0.4612 C   0  0  1  0  0  0  0  0  0  0  0  0
    4.2529   -6.0141    1.7218 C   0  0  2  0  0  0  0  0  0  0  0  0
    2.8204   -5.4011    1.6490 C   0  0  2  0  0  0  0  0  0  0  0  0
    2.6200   -5.0028    0.2240 C   0  0  0  0  0  0  0  0  0  0  0  0
    3.9816   -4.4990   -0.2141 C   0  0  1  0  0  0  0  0  0  0  0  0
    4.2982   -2.9912   -0.0202 C   0  0  2  0  0  0  0  0  0  0  0  0
    3.2611   -2.1503   -0.8490 C   0  0  0  0  0  0  0  0  0  0  0  0
    4.5517   -2.4954    1.5051 C   0  0  2  0  0  0  0  0  0  0  0  0
    4.2033   -0.9555    1.7426 C   0  0  0  0  0  0  0  0  0  0  0  0
    2.7054   -0.5760    1.9063 C   0  0  0  0  0  0  0  0  0  0  0  0
    4.9195    0.0936    0.8354 C   0  0  0  0  0  0  0  0  0  0  0  0
    6.1220   -2.6025    1.5959 C   0  0  0  0  0  0  0  0  0  0  0  0
    3.9253   -3.3175    2.7420 C   0  0  1  0  0  0  0  0  0  0  0  0
    2.6416   -4.1990    2.6125 C   0  0  2  0  0  0  0  0  0  0  0  0
    2.5689   -4.8829    4.0001 C   0  0  0  0  0  0  0  0  0  0  0  0
    3.9961   -5.2800    4.2246 C   0  0  1  0  0  0  0  0  0  0  0  0
    4.8858   -5.7073    3.0557 C   0  0  2  0  0  0  0  0  0  0  0  0
    4.8335   -4.2723    3.5004 C   0  0  1  0  0  0  0  0  0  0  0  0
    2.7296   -4.0900   -2.9987 H   0  0  0  0  0  0  0  0  0  0  0  0
    2.4669   -2.8423   -4.2017 H   0  0  0  0  0  0  0  0  0  0  0  0
    1.4462   -2.9105   -2.7716 H   0  0  0  0  0  0  0  0  0  0  0  0
    3.0774   -1.1522   -2.6865 H   0  0  0  0  0  0  0  0  0  0  0  0
    4.9355   -2.5303   -3.8945 H   0  0  0  0  0  0  0  0  0  0  0  0
    5.2860   -1.1784   -2.8414 H   0  0  0  0  0  0  0  0  0  0  0  0
    5.7099   -4.1345   -2.2875 H   0  0  0  0  0  0  0  0  0  0  0  0
    6.8682   -2.8550   -2.2981 H   0  0  0  0  0  0  0  0  0  0  0  0
    7.6034   -3.1144    0.1312 H   0  0  0  0  0  0  0  0  0  0  0  0
    6.9579   -5.3482   -0.3098 H   0  0  0  0  0  0  0  0  0  0  0  0
    6.9489   -5.2433    1.4088 H   0  0  0  0  0  0  0  0  0  0  0  0
    5.0279   -6.3295   -0.1975 H   0  0  0  0  0  0  0  0  0  0  0  0
    4.1804   -7.1046    1.6332 H   0  0  0  0  0  0  0  0  0  0  0  0
    2.0809   -6.1722    1.8783 H   0  0  0  0  0  0  0  0  0  0  0  0
    2.3683   -5.8996   -0.3295 H   0  0  0  0  0  0  0  0  0  0  0  0
    1.8049   -4.3106    0.0896 H   0  0  0  0  0  0  0  0  0  0  0  0
    4.0053   -4.6794   -1.2725 H   0  0  0  0  0  0  0  0  0  0  0  0
    3.2515   -1.1113   -0.6176 H   0  0  0  0  0  0  0  0  0  0  0  0
    2.2599   -2.4780   -0.5959 H   0  0  0  0  0  0  0  0  0  0  0  0
    4.6022   -0.7446    2.7363 H   0  0  0  0  0  0  0  0  0  0  0  0
    2.2070   -0.2932    0.9812 H   0  0  0  0  0  0  0  0  0  0  0  0
    2.6144    0.3032    2.5473 H   0  0  0  0  0  0  0  0  0  0  0  0
    2.1132   -1.3597    2.3730 H   0  0  0  0  0  0  0  0  0  0  0  0
    4.9890   -0.1515   -0.2185 H   0  0  0  0  0  0  0  0  0  0  0  0
    5.9385    0.3082    1.1482 H   0  0  0  0  0  0  0  0  0  0  0  0
    4.3654    1.0269    0.8753 H   0  0  0  0  0  0  0  0  0  0  0  0
    6.5695   -3.0193    2.4768 H   0  0  0  0  0  0  0  0  0  0  0  0
    6.5993   -1.6333    1.5364 H   0  0  0  0  0  0  0  0  0  0  0  0
    3.6995   -2.5686    3.5029 H   0  0  0  0  0  0  0  0  0  0  0  0
    1.7364   -3.6333    2.3941 H   0  0  0  0  0  0  0  0  0  0  0  0
    2.2579   -4.1798    4.7757 H   0  0  0  0  0  0  0  0  0  0  0  0
    1.9150   -5.7552    4.0474 H   0  0  0  0  0  0  0  0  0  0  0  0
    4.2941   -5.5849    5.2229 H   0  0  0  0  0  0  0  0  0  0  0  0
    5.7772   -6.2788    3.3118 H   0  0  0  0  0  0  0  0  0  0  0  0
    5.6413   -3.8738    4.1081 H   0  0  0  0  0  0  0  0  0  0  0  0
    5.7754   -1.7991   -0.5167 H   0  0  0  0  0  0  0  0  0  0  0  0
  1  2  1  0
  1 26  1  0
  1 27  1  0
  1 28  1  0
  2 14  1  0
  2  3  1  0
  2 29  1  6
  3  4  1  0
  3 30  1  0
  3 31  1  0
  4  5  1  0
  4 32  1  0
  4 33  1  0
  5 13  1  0
  5  6  1  0
  5 61  1  6
  6 19  1  0
  6  7  1  0
  6 34  1  6
  7  8  1  0
  7 35  1  0
  7 36  1  0
  8 12  1  0
  8  9  1  0
  8 37  1  6
  9 24  1  0
  9 10  1  0
  9 38  1  6
 10 21  1  0
 10 11  1  0
 10 39  1  1
 11 12  1  0
 11 40  1  0
 11 41  1  0
 12 13  1  0
 12 42  1  6
 13 14  1  6
 13 15  1  0
 14 43  1  0
 14 44  1  0
 15 16  1  6
 15 19  1  0
 15 20  1  0
 16 17  1  0
 16 18  1  0
 16 45  1  0
 17 46  1  0
 17 47  1  0
 17 48  1  0
 18 49  1  0
 18 50  1  0
 18 51  1  0
 19 52  1  0
 19 53  1  0
 20 25  1  0
 20 21  1  0
 20 54  1  1
 21 22  1  0
 21 55  1  6
 22 23  1  0
 22 56  1  0
 22 57  1  0
 23 25  1  0
 23 24  1  0
 23 58  1  1
 24 25  1  0
 24 59  1  1
 25 60  1  1
M  CHG  1   5   1
M  END
>  <i_m_ct_stereo_status>  (222) 
1

>  <s_m_source_file>  (222) 
/var/tmp/pbs.5076255.sched01/tmp548j1hfo/88g9dmtei7.sdf

>  <i_m_source_file_index>  (222) 
9

>  <i_lp_mmshare_version>  (222) 
48012

>  <i_f3d_flags>  (222) 
0

>  <s_epik_input>  (222) 
W0NIM11bQ0BASF0oW0NIMl0xKVtDSDJdW0NIMl1OKFtDQEBdMTIzKVtDQEBIXTRbQ0gyXVtDQEhdNVtDQEBIXTZbQ0BIXShbQ0gyXVtDQEBIXTI1KVtDQEBIXTdbQ0BIXShbQ0BdMyhbQ0gyXTQpW0NIXShbQ0gzXSlbQ0gzXSlbQ0BIXThbQ0BASF0oW0NIMl03KVtDQEBIXTY4

>  <s_epik_cmdline>  (222) 
J2VwaWtfcHl0aG9uJywgJy1waHQnLCAnMi4wJywgJy1waCcsICc3LjAnLCAnLXRuJywgJzgnLCAnLW1hJywgJzIwMCcsICctaW1hZScsICc8aW5maWxlLm1hZT4nLCAnLW9tYWUnLCAnPG91dGZpbGUubWFlPic=

>  <r_lp_tautomer_probability>  (222) 
1

>  <r_epik_Ionization_Penalty>  (222) 
7.42341e-06

>  <r_epik_Ionization_Penalty_Charging>  (222) 
7.42341e-06

>  <r_epik_Ionization_Penalty_Neutral>  (222) 
0

>  <r_epik_State_Penalty>  (222) 
-0

>  <r_epik_Charging_Adjusted_Penalty>  (222) 
7.42341e-06

>  <i_epik_Tot_Q>  (222) 
1

>  <i_epik_Tot_abs_Q>  (222) 
1

>  <s_lp_Force_Field>  (222) 
OPLS3e

>  <r_lp_Energy>  (222) 
120.677

>  <b_lp_Chiralities_Consistent>  (222) 
1

>  <s_lp_Variant>  (222) 
60:0-1

>  <s_i_glide_gridfile>  (222) 
pfpi4k_grid

>  <i_i_glide_lignum>  (222) 
9

>  <i_i_glide_rotatable_bonds>  (222) 
1

>  <r_i_docking_score>  (222) 
-3.14219

>  <r_i_glide_ligand_efficiency>  (222) 
-0.125688

>  <r_i_glide_ligand_efficiency_sa>  (222) 
-0.367513

>  <r_i_glide_ligand_efficiency_ln>  (222) 
-0.744793

>  <r_i_glide_gscore>  (222) 
-3.14219

>  <r_i_glide_lipo>  (222) 
-0.973813

>  <r_i_glide_hbond>  (222) 
0

>  <r_i_glide_metal>  (222) 
-0

>  <r_i_glide_rewards>  (222) 
-1.1008

>  <r_i_glide_evdw>  (222) 
-15.3534

>  <r_i_glide_ecoul>  (222) 
-1.99152

>  <r_i_glide_erotb>  (222) 
0

>  <r_i_glide_esite>  (222) 
-0.00117691

>  <r_i_glide_emodel>  (222) 
-18.1737

>  <r_i_glide_energy>  (222) 
-17.3449

>  <r_i_glide_einternal>  (222) 
0.995434

>  <r_i_glide_intrahb_reward>  (222) 
-0

>  <i_i_glide_confnum>  (222) 
1

>  <i_i_glide_posenum>  (222) 
12

>  <r_i_glide_eff_state_penalty>  (222) 
0

>  <ligand_id>  (222) 
60

>  <original_smiles>  (222) 
CC1CCN2C3CC4C5C6CC4C2(C1)C(C(C)C)(C3)C1C6CC2C5C21

>  <smiles>  (222) 
[H]C([H])([H])C1([H])C([H])([H])C([H])([H])[N+]2([H])C3([H])C([H])([H])C4([H])C5([H])C6([H])C([H])([H])C4([H])C2(C1([H])[H])C(C([H])(C([H])([H])[H])C([H])([H])[H])(C3([H])[H])C1([H])C6([H])C([H])([H])C2([H])C5([H])C21[H]

$$$$
60:0:1
     RDKit          3D

 61 68  0  0  1  0  0  0  0  0999 V2000
    2.3526   -2.8395   -2.8983 C   0  0  0  0  0  0  0  0  0  0  0  0
    3.6265   -2.2029   -2.3303 C   0  0  2  0  0  0  0  0  0  0  0  0
    4.9237   -2.7414   -2.9504 C   0  0  0  0  0  0  0  0  0  0  0  0
    5.6430   -3.8188   -2.1463 C   0  0  0  0  0  0  0  0  0  0  0  0
    5.7238   -3.4171   -0.7242 N   0  0  2  0  0  0  0  0  0  0  0  0
    6.5357   -4.2268    0.1819 C   0  0  2  0  0  0  0  0  0  0  0  0
    5.9480   -5.6198    0.5126 C   0  0  0  0  0  0  0  0  0  0  0  0
    4.4065   -5.7172    0.6147 C   0  0  1  0  0  0  0  0  0  0  0  0
    3.6974   -5.9523    1.9766 C   0  0  2  0  0  0  0  0  0  0  0  0
    2.5318   -4.9222    1.9853 C   0  0  2  0  0  0  0  0  0  0  0  0
    2.3116   -4.5390    0.5538 C   0  0  0  0  0  0  0  0  0  0  0  0
    3.6930   -4.5197   -0.0415 C   0  0  1  0  0  0  0  0  0  0  0  0
    4.4655   -3.1643    0.0025 C   0  0  2  0  0  0  0  0  0  0  0  0
    3.6527   -2.0746   -0.7891 C   0  0  0  0  0  0  0  0  0  0  0  0
    5.0467   -2.7197    1.4464 C   0  0  2  0  0  0  0  0  0  0  0  0
    5.2353   -1.1420    1.5836 C   0  0  0  0  0  0  0  0  0  0  0  0
    3.9551   -0.2989    1.8646 C   0  0  0  0  0  0  0  0  0  0  0  0
    6.1393   -0.4309    0.5227 C   0  0  0  0  0  0  0  0  0  0  0  0
    6.4997   -3.3220    1.3797 C   0  0  0  0  0  0  0  0  0  0  0  0
    4.3458   -3.2438    2.7994 C   0  0  1  0  0  0  0  0  0  0  0  0
    2.8448   -3.6810    2.8668 C   0  0  2  0  0  0  0  0  0  0  0  0
    2.7289   -4.2342    4.3060 C   0  0  0  0  0  0  0  0  0  0  0  0
    3.9799   -5.0611    4.4262 C   0  0  1  0  0  0  0  0  0  0  0  0
    4.5483   -5.8015    3.2205 C   0  0  2  0  0  0  0  0  0  0  0  0
    4.9946   -4.4046    3.5500 C   0  0  1  0  0  0  0  0  0  0  0  0
    2.2813   -3.8959   -2.6930 H   0  0  0  0  0  0  0  0  0  0  0  0
    2.2976   -2.6893   -3.9780 H   0  0  0  0  0  0  0  0  0  0  0  0
    1.4800   -2.3614   -2.4634 H   0  0  0  0  0  0  0  0  0  0  0  0
    3.5522   -1.1770   -2.6891 H   0  0  0  0  0  0  0  0  0  0  0  0
    4.7384   -3.1259   -3.9556 H   0  0  0  0  0  0  0  0  0  0  0  0
    5.5997   -1.9065   -3.0486 H   0  0  0  0  0  0  0  0  0  0  0  0
    5.1829   -4.7989   -2.3073 H   0  0  0  0  0  0  0  0  0  0  0  0
    6.6606   -3.8473   -2.5391 H   0  0  0  0  0  0  0  0  0  0  0  0
    7.5641   -4.3318   -0.1741 H   0  0  0  0  0  0  0  0  0  0  0  0
    6.2194   -6.2411   -0.3145 H   0  0  0  0  0  0  0  0  0  0  0  0
    6.4462   -6.0734    1.3711 H   0  0  0  0  0  0  0  0  0  0  0  0
    4.1242   -6.5915    0.0208 H   0  0  0  0  0  0  0  0  0  0  0  0
    3.2809   -6.9641    1.9841 H   0  0  0  0  0  0  0  0  0  0  0  0
    1.6182   -5.4000    2.3470 H   0  0  0  0  0  0  0  0  0  0  0  0
    1.7291   -5.3063    0.0489 H   0  0  0  0  0  0  0  0  0  0  0  0
    1.8089   -3.6008    0.4671 H   0  0  0  0  0  0  0  0  0  0  0  0
    3.5202   -4.7505   -1.0781 H   0  0  0  0  0  0  0  0  0  0  0  0
    4.0184   -1.0791   -0.6462 H   0  0  0  0  0  0  0  0  0  0  0  0
    2.6307   -1.9935   -0.4219 H   0  0  0  0  0  0  0  0  0  0  0  0
    5.7958   -1.0219    2.5117 H   0  0  0  0  0  0  0  0  0  0  0  0
    3.4634    0.0809    0.9705 H   0  0  0  0  0  0  0  0  0  0  0  0
    4.2155    0.5802    2.4547 H   0  0  0  0  0  0  0  0  0  0  0  0
    3.2113   -0.8354    2.4486 H   0  0  0  0  0  0  0  0  0  0  0  0
    5.9641   -0.6993   -0.5156 H   0  0  0  0  0  0  0  0  0  0  0  0
    7.2035   -0.5800    0.7051 H   0  0  0  0  0  0  0  0  0  0  0  0
    5.9741    0.6366    0.5898 H   0  0  0  0  0  0  0  0  0  0  0  0
    6.8719   -3.8894    2.2127 H   0  0  0  0  0  0  0  0  0  0  0  0
    7.2643   -2.5699    1.2276 H   0  0  0  0  0  0  0  0  0  0  0  0
    4.4537   -2.4300    3.5170 H   0  0  0  0  0  0  0  0  0  0  0  0
    2.1380   -2.8654    2.6897 H   0  0  0  0  0  0  0  0  0  0  0  0
    2.7483   -3.4355    5.0469 H   0  0  0  0  0  0  0  0  0  0  0  0
    1.8475   -4.8475    4.4893 H   0  0  0  0  0  0  0  0  0  0  0  0
    4.2835   -5.3925    5.4159 H   0  0  0  0  0  0  0  0  0  0  0  0
    5.2447   -6.6137    3.4259 H   0  0  0  0  0  0  0  0  0  0  0  0
    5.9535   -4.2481    4.0366 H   0  0  0  0  0  0  0  0  0  0  0  0
    6.1823   -2.5330   -0.7393 H   0  0  0  0  0  0  0  0  0  0  0  0
  1  2  1  0
  1 26  1  0
  1 27  1  0
  1 28  1  0
  2 14  1  0
  2  3  1  0
  2 29  1  6
  3  4  1  0
  3 30  1  0
  3 31  1  0
  4  5  1  0
  4 32  1  0
  4 33  1  0
  5 13  1  0
  5  6  1  0
  5 61  1  6
  6 19  1  0
  6  7  1  0
  6 34  1  6
  7  8  1  0
  7 35  1  0
  7 36  1  0
  8 12  1  0
  8  9  1  0
  8 37  1  6
  9 24  1  0
  9 10  1  0
  9 38  1  6
 10 21  1  0
 10 11  1  0
 10 39  1  1
 11 12  1  0
 11 40  1  0
 11 41  1  0
 12 13  1  0
 12 42  1  6
 13 14  1  6
 13 15  1  0
 14 43  1  0
 14 44  1  0
 15 16  1  6
 15 19  1  0
 15 20  1  0
 16 17  1  0
 16 18  1  0
 16 45  1  0
 17 46  1  0
 17 47  1  0
 17 48  1  0
 18 49  1  0
 18 50  1  0
 18 51  1  0
 19 52  1  0
 19 53  1  0
 20 25  1  0
 20 21  1  0
 20 54  1  1
 21 22  1  0
 21 55  1  1
 22 23  1  0
 22 56  1  0
 22 57  1  0
 23 25  1  0
 23 24  1  0
 23 58  1  1
 24 25  1  0
 24 59  1  1
 25 60  1  1
M  CHG  1   5   1
M  END
>  <i_m_ct_stereo_status>  (223) 
1

>  <s_m_source_file>  (223) 
/var/tmp/pbs.5076255.sched01/tmp548j1hfo/88g9dmtei7.sdf

>  <i_m_source_file_index>  (223) 
9

>  <i_lp_mmshare_version>  (223) 
48012

>  <i_f3d_flags>  (223) 
0

>  <s_epik_input>  (223) 
W0NIM11bQ0BASF0oW0NIMl0xKVtDSDJdW0NIMl1OKFtDQEBdMTIzKVtDQEBIXTRbQ0gyXVtDQEhdNVtDQEBIXTZbQ0BIXShbQ0gyXVtDQEBIXTI1KVtDQEBIXTdbQ0BIXShbQ0BdMyhbQ0gyXTQpW0NIXShbQ0gzXSlbQ0gzXSlbQ0BIXThbQ0BASF0oW0NIMl03KVtDQEBIXTY4

>  <s_epik_cmdline>  (223) 
J2VwaWtfcHl0aG9uJywgJy1waHQnLCAnMi4wJywgJy1waCcsICc3LjAnLCAnLXRuJywgJzgnLCAnLW1hJywgJzIwMCcsICctaW1hZScsICc8aW5maWxlLm1hZT4nLCAnLW9tYWUnLCAnPG91dGZpbGUubWFlPic=

>  <r_lp_tautomer_probability>  (223) 
1

>  <r_epik_Ionization_Penalty>  (223) 
7.42341e-06

>  <r_epik_Ionization_Penalty_Charging>  (223) 
7.42341e-06

>  <r_epik_Ionization_Penalty_Neutral>  (223) 
0

>  <r_epik_State_Penalty>  (223) 
-0

>  <r_epik_Charging_Adjusted_Penalty>  (223) 
7.42341e-06

>  <i_epik_Tot_Q>  (223) 
1

>  <i_epik_Tot_abs_Q>  (223) 
1

>  <s_lp_Force_Field>  (223) 
OPLS3e

>  <r_lp_Energy>  (223) 
120.677

>  <b_lp_Chiralities_Consistent>  (223) 
1

>  <s_lp_Variant>  (223) 
60:0-1

>  <s_i_glide_gridfile>  (223) 
pfpi4k_grid

>  <i_i_glide_lignum>  (223) 
9

>  <i_i_glide_rotatable_bonds>  (223) 
1

>  <r_i_docking_score>  (223) 
-3.10286

>  <r_i_glide_ligand_efficiency>  (223) 
-0.124115

>  <r_i_glide_ligand_efficiency_sa>  (223) 
-0.362913

>  <r_i_glide_ligand_efficiency_ln>  (223) 
-0.735472

>  <r_i_glide_gscore>  (223) 
-3.10286

>  <r_i_glide_lipo>  (223) 
-1.01124

>  <r_i_glide_hbond>  (223) 
0

>  <r_i_glide_metal>  (223) 
-0

>  <r_i_glide_rewards>  (223) 
-1.1008

>  <r_i_glide_evdw>  (223) 
-14.5424

>  <r_i_glide_ecoul>  (223) 
-1.75804

>  <r_i_glide_erotb>  (223) 
0

>  <r_i_glide_esite>  (223) 
0

>  <r_i_glide_emodel>  (223) 
-16.9661

>  <r_i_glide_energy>  (223) 
-16.3005

>  <r_i_glide_einternal>  (223) 
0.946552

>  <r_i_glide_intrahb_reward>  (223) 
-0

>  <i_i_glide_confnum>  (223) 
2

>  <i_i_glide_posenum>  (223) 
34

>  <r_i_glide_eff_state_penalty>  (223) 
0

>  <ligand_id>  (223) 
60

>  <original_smiles>  (223) 
CC1CCN2C3CC4C5C6CC4C2(C1)C(C(C)C)(C3)C1C6CC2C5C21

>  <smiles>  (223) 
[H]C([H])([H])C1([H])C([H])([H])C([H])([H])[N+]2([H])C3([H])C([H])([H])C4([H])C5([H])C6([H])C([H])([H])C4([H])C2(C1([H])[H])C(C([H])(C([H])([H])[H])C([H])([H])[H])(C3([H])[H])C1([H])C6([H])C([H])([H])C2([H])C5([H])C21[H]

$$$$
60:0:2
     RDKit          3D

 61 68  0  0  1  0  0  0  0  0999 V2000
    2.5451   -2.8214   -3.1642 C   0  0  0  0  0  0  0  0  0  0  0  0
    3.7597   -2.1622   -2.4901 C   0  0  2  0  0  0  0  0  0  0  0  0
    5.1008   -2.7074   -2.9824 C   0  0  0  0  0  0  0  0  0  0  0  0
    5.7854   -3.7372   -2.0898 C   0  0  0  0  0  0  0  0  0  0  0  0
    5.7166   -3.2861   -0.6718 N   0  0  2  0  0  0  0  0  0  0  0  0
    6.4440   -4.0602    0.3418 C   0  0  2  0  0  0  0  0  0  0  0  0
    5.8615   -5.4875    0.5672 C   0  0  0  0  0  0  0  0  0  0  0  0
    4.3168   -5.6072    0.5260 C   0  0  1  0  0  0  0  0  0  0  0  0
    3.4699   -5.8364    1.8151 C   0  0  2  0  0  0  0  0  0  0  0  0
    2.2786   -4.8413    1.6862 C   0  0  2  0  0  0  0  0  0  0  0  0
    2.2221   -4.4767    0.2283 C   0  0  0  0  0  0  0  0  0  0  0  0
    3.6500   -4.4109   -0.1881 C   0  0  1  0  0  0  0  0  0  0  0  0
    4.3879   -3.0390   -0.0586 C   0  0  2  0  0  0  0  0  0  0  0  0
    3.7022   -1.9496   -0.9554 C   0  0  0  0  0  0  0  0  0  0  0  0
    4.7727   -2.5750    1.4482 C   0  0  2  0  0  0  0  0  0  0  0  0
    4.8692   -0.9823    1.6121 C   0  0  0  0  0  0  0  0  0  0  0  0
    5.6089   -0.4872    2.8773 C   0  0  0  0  0  0  0  0  0  0  0  0
    3.5399   -0.1692    1.5885 C   0  0  0  0  0  0  0  0  0  0  0  0
    6.2533   -3.1293    1.5133 C   0  0  0  0  0  0  0  0  0  0  0  0
    3.9341   -3.1276    2.6988 C   0  0  1  0  0  0  0  0  0  0  0  0
    2.4504   -3.5928    2.5930 C   0  0  2  0  0  0  0  0  0  0  0  0
    2.2036   -4.1451    4.0163 C   0  0  0  0  0  0  0  0  0  0  0  0
    3.4594   -4.9412    4.2800 C   0  0  1  0  0  0  0  0  0  0  0  0
    4.1805   -5.6648    3.1421 C   0  0  2  0  0  0  0  0  0  0  0  0
    4.5460   -4.2560    3.5106 C   0  0  1  0  0  0  0  0  0  0  0  0
    2.4695   -3.8824   -2.9910 H   0  0  0  0  0  0  0  0  0  0  0  0
    2.5940   -2.6693   -4.2456 H   0  0  0  0  0  0  0  0  0  0  0  0
    1.6349   -2.3436   -2.8268 H   0  0  0  0  0  0  0  0  0  0  0  0
    3.6882   -1.1541   -2.9032 H   0  0  0  0  0  0  0  0  0  0  0  0
    5.0253   -3.0847   -4.0044 H   0  0  0  0  0  0  0  0  0  0  0  0
    5.7654   -1.8453   -2.9790 H   0  0  0  0  0  0  0  0  0  0  0  0
    5.3481   -4.7209   -2.2624 H   0  0  0  0  0  0  0  0  0  0  0  0
    6.8362   -3.8015   -2.3751 H   0  0  0  0  0  0  0  0  0  0  0  0
    7.5114   -4.1349    0.0883 H   0  0  0  0  0  0  0  0  0  0  0  0
    6.2166   -6.1121   -0.2454 H   0  0  0  0  0  0  0  0  0  0  0  0
    6.2749   -5.9180    1.4742 H   0  0  0  0  0  0  0  0  0  0  0  0
    4.0968   -6.4818   -0.0843 H   0  0  0  0  0  0  0  0  0  0  0  0
    3.0877   -6.8640    1.7905 H   0  0  0  0  0  0  0  0  0  0  0  0
    1.3529   -5.3566    1.9570 H   0  0  0  0  0  0  0  0  0  0  0  0
    1.7272   -5.2808   -0.3170 H   0  0  0  0  0  0  0  0  0  0  0  0
    1.7322   -3.5330    0.0099 H   0  0  0  0  0  0  0  0  0  0  0  0
    3.5944   -4.6300   -1.2392 H   0  0  0  0  0  0  0  0  0  0  0  0
    4.2566   -1.0196   -0.8220 H   0  0  0  0  0  0  0  0  0  0  0  0
    2.6595   -1.7852   -0.6501 H   0  0  0  0  0  0  0  0  0  0  0  0
    5.5001   -0.6076    0.8003 H   0  0  0  0  0  0  0  0  0  0  0  0
    4.9469   -0.4104    3.7389 H   0  0  0  0  0  0  0  0  0  0  0  0
    6.0184    0.5052    2.7206 H   0  0  0  0  0  0  0  0  0  0  0  0
    6.4479   -1.1187    3.1483 H   0  0  0  0  0  0  0  0  0  0  0  0
    2.7822   -0.6058    2.2280 H   0  0  0  0  0  0  0  0  0  0  0  0
    3.1075   -0.0257    0.5969 H   0  0  0  0  0  0  0  0  0  0  0  0
    3.7123    0.8209    2.0029 H   0  0  0  0  0  0  0  0  0  0  0  0
    6.6175   -3.5875    2.4179 H   0  0  0  0  0  0  0  0  0  0  0  0
    6.9358   -2.2986    1.3509 H   0  0  0  0  0  0  0  0  0  0  0  0
    3.9180   -2.3149    3.4209 H   0  0  0  0  0  0  0  0  0  0  0  0
    1.7522   -2.7929    2.3310 H   0  0  0  0  0  0  0  0  0  0  0  0
    2.1246   -3.3416    4.7501 H   0  0  0  0  0  0  0  0  0  0  0  0
    1.3231   -4.7817    4.1160 H   0  0  0  0  0  0  0  0  0  0  0  0
    3.6630   -5.2534    5.2970 H   0  0  0  0  0  0  0  0  0  0  0  0
    4.8712   -6.4544    3.4282 H   0  0  0  0  0  0  0  0  0  0  0  0
    5.4428   -4.0654    4.0902 H   0  0  0  0  0  0  0  0  0  0  0  0
    6.1621   -2.3776   -0.6497 H   0  0  0  0  0  0  0  0  0  0  0  0
  1  2  1  0
  1 26  1  0
  1 27  1  0
  1 28  1  0
  2 14  1  0
  2  3  1  0
  2 29  1  6
  3  4  1  0
  3 30  1  0
  3 31  1  0
  4  5  1  0
  4 32  1  0
  4 33  1  0
  5 13  1  0
  5  6  1  0
  5 61  1  6
  6 19  1  0
  6  7  1  0
  6 34  1  6
  7  8  1  0
  7 35  1  0
  7 36  1  0
  8 12  1  0
  8  9  1  0
  8 37  1  6
  9 24  1  0
  9 10  1  0
  9 38  1  6
 10 21  1  0
 10 11  1  0
 10 39  1  1
 11 12  1  0
 11 40  1  0
 11 41  1  0
 12 13  1  0
 12 42  1  6
 13 14  1  6
 13 15  1  0
 14 43  1  0
 14 44  1  0
 15 16  1  6
 15 19  1  0
 15 20  1  0
 16 17  1  0
 16 18  1  0
 16 45  1  0
 17 46  1  0
 17 47  1  0
 17 48  1  0
 18 49  1  0
 18 50  1  0
 18 51  1  0
 19 52  1  0
 19 53  1  0
 20 25  1  0
 20 21  1  0
 20 54  1  1
 21 22  1  0
 21 55  1  6
 22 23  1  0
 22 56  1  0
 22 57  1  0
 23 25  1  0
 23 24  1  0
 23 58  1  1
 24 25  1  0
 24 59  1  1
 25 60  1  1
M  CHG  1   5   1
M  END
>  <i_m_ct_stereo_status>  (224) 
1

>  <s_m_source_file>  (224) 
/var/tmp/pbs.5076255.sched01/tmp548j1hfo/88g9dmtei7.sdf

>  <i_m_source_file_index>  (224) 
9

>  <i_lp_mmshare_version>  (224) 
48012

>  <i_f3d_flags>  (224) 
0

>  <s_epik_input>  (224) 
W0NIM11bQ0BASF0oW0NIMl0xKVtDSDJdW0NIMl1OKFtDQEBdMTIzKVtDQEBIXTRbQ0gyXVtDQEhdNVtDQEBIXTZbQ0BIXShbQ0gyXVtDQEBIXTI1KVtDQEBIXTdbQ0BIXShbQ0BdMyhbQ0gyXTQpW0NIXShbQ0gzXSlbQ0gzXSlbQ0BIXThbQ0BASF0oW0NIMl03KVtDQEBIXTY4

>  <s_epik_cmdline>  (224) 
J2VwaWtfcHl0aG9uJywgJy1waHQnLCAnMi4wJywgJy1waCcsICc3LjAnLCAnLXRuJywgJzgnLCAnLW1hJywgJzIwMCcsICctaW1hZScsICc8aW5maWxlLm1hZT4nLCAnLW9tYWUnLCAnPG91dGZpbGUubWFlPic=

>  <r_lp_tautomer_probability>  (224) 
1

>  <r_epik_Ionization_Penalty>  (224) 
7.42341e-06

>  <r_epik_Ionization_Penalty_Charging>  (224) 
7.42341e-06

>  <r_epik_Ionization_Penalty_Neutral>  (224) 
0

>  <r_epik_State_Penalty>  (224) 
-0

>  <r_epik_Charging_Adjusted_Penalty>  (224) 
7.42341e-06

>  <i_epik_Tot_Q>  (224) 
1

>  <i_epik_Tot_abs_Q>  (224) 
1

>  <s_lp_Force_Field>  (224) 
OPLS3e

>  <r_lp_Energy>  (224) 
120.677

>  <b_lp_Chiralities_Consistent>  (224) 
1

>  <s_lp_Variant>  (224) 
60:0-1

>  <s_i_glide_gridfile>  (224) 
pfpi4k_grid

>  <i_i_glide_lignum>  (224) 
9

>  <i_i_glide_rotatable_bonds>  (224) 
1

>  <r_i_docking_score>  (224) 
-3.04654

>  <r_i_glide_ligand_efficiency>  (224) 
-0.121862

>  <r_i_glide_ligand_efficiency_sa>  (224) 
-0.356326

>  <r_i_glide_ligand_efficiency_ln>  (224) 
-0.722122

>  <r_i_glide_gscore>  (224) 
-3.04654

>  <r_i_glide_lipo>  (224) 
-1.01838

>  <r_i_glide_hbond>  (224) 
0

>  <r_i_glide_metal>  (224) 
-0

>  <r_i_glide_rewards>  (224) 
-1.1008

>  <r_i_glide_evdw>  (224) 
-14.2742

>  <r_i_glide_ecoul>  (224) 
-1.42437

>  <r_i_glide_erotb>  (224) 
0

>  <r_i_glide_esite>  (224) 
0

>  <r_i_glide_emodel>  (224) 
-17.0875

>  <r_i_glide_energy>  (224) 
-15.6986

>  <r_i_glide_einternal>  (224) 
0.195697

>  <r_i_glide_intrahb_reward>  (224) 
-0

>  <i_i_glide_confnum>  (224) 
1

>  <i_i_glide_posenum>  (224) 
13

>  <r_i_glide_eff_state_penalty>  (224) 
0

>  <ligand_id>  (224) 
60

>  <original_smiles>  (224) 
CC1CCN2C3CC4C5C6CC4C2(C1)C(C(C)C)(C3)C1C6CC2C5C21

>  <smiles>  (224) 
[H]C([H])([H])C1([H])C([H])([H])C([H])([H])[N+]2([H])C3([H])C([H])([H])C4([H])C5([H])C6([H])C([H])([H])C4([H])C2(C1([H])[H])C(C([H])(C([H])([H])[H])C([H])([H])[H])(C3([H])[H])C1([H])C6([H])C([H])([H])C2([H])C5([H])C21[H]

$$$$
61:0:0
     RDKit          3D

 39 41  0  0  1  0  0  0  0  0999 V2000
   -1.6246   -7.1934    4.0202 C   0  0  0  0  0  0  0  0  0  0  0  0
   -0.6641   -7.8968    3.0601 C   0  0  0  0  0  0  0  0  0  0  0  0
   -1.1805   -9.2829    2.6697 C   0  0  0  0  0  0  0  0  0  0  0  0
   -0.5084   -7.1067    1.9137 O   0  0  0  0  0  0  0  0  0  0  0  0
    0.8454   -7.0604    1.6735 C   0  0  1  0  0  0  0  0  0  0  0  0
    1.2820   -5.8604    1.1194 O   0  0  0  0  0  0  0  0  0  0  0  0
    2.7025   -5.8565    0.8890 C   0  0  1  0  0  0  0  0  0  0  0  0
    3.1266   -4.4852    0.3195 C   0  0  0  0  0  0  0  0  0  0  0  0
    2.2143   -4.0069   -0.7235 N   0  0  0  0  0  0  0  0  0  0  0  0
    2.7105   -3.3286   -1.6423 N   0  0  0  0  0  0  0  0  0  0  0  0
    3.0579   -2.6148   -2.4564 N   0  0  0  0  0  0  0  0  0  0  0  0
    3.5338   -6.2281    2.1581 C   0  0  2  0  0  0  0  0  0  0  0  0
    4.7479   -6.8435    1.7564 O   0  0  0  0  0  0  0  0  0  0  0  0
    4.6693   -8.1899    2.0929 C   0  0  0  0  0  0  0  0  0  0  0  0
    5.0671   -9.0319    0.8758 C   0  0  0  0  0  0  0  0  0  0  0  0
    5.6107   -8.4670    3.2828 C   0  0  0  0  0  0  0  0  0  0  0  0
    3.3573   -8.4894    2.4395 O   0  0  0  0  0  0  0  0  0  0  0  0
    2.8863   -7.3044    3.0413 C   0  0  2  0  0  0  0  0  0  0  0  0
    1.3775   -7.1096    3.0695 C   0  0  2  0  0  0  0  0  0  0  0  0
    0.5692   -8.0542    3.7053 O   0  0  0  0  0  0  0  0  0  0  0  0
   -1.2127   -6.2369    4.3354 H   0  0  0  0  0  0  0  0  0  0  0  0
   -1.7814   -7.8163    4.8979 H   0  0  0  0  0  0  0  0  0  0  0  0
   -2.5868   -7.0541    3.5343 H   0  0  0  0  0  0  0  0  0  0  0  0
   -0.4529   -9.8081    2.0605 H   0  0  0  0  0  0  0  0  0  0  0  0
   -2.1251   -9.2074    2.1304 H   0  0  0  0  0  0  0  0  0  0  0  0
   -1.3423   -9.8576    3.5751 H   0  0  0  0  0  0  0  0  0  0  0  0
    1.1295   -7.9332    1.0821 H   0  0  0  0  0  0  0  0  0  0  0  0
    2.8929   -6.6227    0.1390 H   0  0  0  0  0  0  0  0  0  0  0  0
    3.1688   -3.7441    1.1186 H   0  0  0  0  0  0  0  0  0  0  0  0
    4.1514   -4.5775   -0.0541 H   0  0  0  0  0  0  0  0  0  0  0  0
    3.7480   -5.3434    2.7570 H   0  0  0  0  0  0  0  0  0  0  0  0
    4.3746   -8.8578    0.0560 H   0  0  0  0  0  0  0  0  0  0  0  0
    5.0516  -10.0924    1.1309 H   0  0  0  0  0  0  0  0  0  0  0  0
    6.0752   -8.7735    0.5520 H   0  0  0  0  0  0  0  0  0  0  0  0
    5.3806   -7.8371    4.1387 H   0  0  0  0  0  0  0  0  0  0  0  0
    6.6442   -8.2823    2.9917 H   0  0  0  0  0  0  0  0  0  0  0  0
    5.5131   -9.5093    3.5806 H   0  0  0  0  0  0  0  0  0  0  0  0
    3.2540   -7.2437    4.0663 H   0  0  0  0  0  0  0  0  0  0  0  0
    1.1647   -6.1483    3.5405 H   0  0  0  0  0  0  0  0  0  0  0  0
  1  2  1  0
  1 21  1  0
  1 22  1  0
  1 23  1  0
  2 20  1  0
  2  3  1  0
  2  4  1  0
  3 24  1  0
  3 25  1  0
  3 26  1  0
  4  5  1  0
  5 19  1  0
  5  6  1  0
  5 27  1  6
  6  7  1  0
  7  8  1  0
  7 12  1  0
  7 28  1  6
  8  9  1  0
  8 29  1  0
  8 30  1  0
  9 10  2  0
 10 11  2  0
 12 18  1  0
 12 13  1  0
 12 31  1  1
 13 14  1  0
 14 15  1  0
 14 16  1  0
 14 17  1  0
 15 32  1  0
 15 33  1  0
 15 34  1  0
 16 35  1  0
 16 36  1  0
 16 37  1  0
 17 18  1  0
 18 19  1  0
 18 38  1  1
 19 20  1  0
 19 39  1  1
M  CHG  2  10   1  11  -1
M  END
>  <i_m_ct_stereo_status>  (225) 
1

>  <s_m_source_file>  (225) 
/var/tmp/pbs.5076255.sched01/tmp548j1hfo/88g9dmtei7.sdf

>  <i_m_source_file_index>  (225) 
10

>  <i_lp_mmshare_version>  (225) 
48012

>  <i_f3d_flags>  (225) 
0

>  <s_epik_input>  (225) 
W0NIM11DKE8xKShbQ0gzXSlPW0NASF0oW0NAQEhdMTIpW0NAQEhdM1tDQEBIXShPQyhPMykoW0NIM10pW0NIM10pW0NAQEhdKE8yKVtDSDJdTj1bTitdPVtOLV0=

>  <s_epik_cmdline>  (225) 
J2VwaWtfcHl0aG9uJywgJy1waHQnLCAnMi4wJywgJy1waCcsICc3LjAnLCAnLXRuJywgJzgnLCAnLW1hJywgJzIwMCcsICctaW1hZScsICc8aW5maWxlLm1hZT4nLCAnLW9tYWUnLCAnPG91dGZpbGUubWFlPic=

>  <r_lp_tautomer_probability>  (225) 
1

>  <r_epik_Ionization_Penalty>  (225) 
8.8144e-15

>  <r_epik_Ionization_Penalty_Charging>  (225) 
0

>  <r_epik_Ionization_Penalty_Neutral>  (225) 
8.8144e-15

>  <r_epik_State_Penalty>  (225) 
-0

>  <r_epik_Charging_Adjusted_Penalty>  (225) 
0

>  <i_epik_Tot_Q>  (225) 
0

>  <i_epik_Tot_abs_Q>  (225) 
2

>  <s_epik_Chemistry_Notes>  (225) 
This compound contains an acetal/aminal-like group ( X-CH(R)-Y where X, Y are N, S, or O) that may be acid/base labile, releasing an aldehyde.

>  <s_lp_Force_Field>  (225) 
OPLS3e

>  <r_lp_Energy>  (225) 
7.24303

>  <b_lp_Chiralities_Consistent>  (225) 
1

>  <s_lp_Variant>  (225) 
61:0-1

>  <s_i_glide_gridfile>  (225) 
pfpi4k_grid

>  <i_i_glide_lignum>  (225) 
10

>  <i_i_glide_rotatable_bonds>  (225) 
2

>  <r_i_docking_score>  (225) 
-3.29347

>  <r_i_glide_ligand_efficiency>  (225) 
-0.164674

>  <r_i_glide_ligand_efficiency_sa>  (225) 
-0.446993

>  <r_i_glide_ligand_efficiency_ln>  (225) 
-0.824247

>  <r_i_glide_gscore>  (225) 
-3.29347

>  <r_i_glide_lipo>  (225) 
-0.112341

>  <r_i_glide_hbond>  (225) 
-0.24895

>  <r_i_glide_metal>  (225) 
-0

>  <r_i_glide_rewards>  (225) 
-1.46785

>  <r_i_glide_evdw>  (225) 
-20.905

>  <r_i_glide_ecoul>  (225) 
-4.22855

>  <r_i_glide_erotb>  (225) 
0.445764

>  <r_i_glide_esite>  (225) 
-0.230566

>  <r_i_glide_emodel>  (225) 
-29.251

>  <r_i_glide_energy>  (225) 
-25.1335

>  <r_i_glide_einternal>  (225) 
1.46268

>  <r_i_glide_intrahb_reward>  (225) 
-0

>  <i_i_glide_confnum>  (225) 
2

>  <i_i_glide_posenum>  (225) 
9

>  <r_i_glide_eff_state_penalty>  (225) 
0

>  <ligand_id>  (225) 
61

>  <original_smiles>  (225) 
CC1(C)OC2OC(CN=[N+]=[N-])C3OC(C)(C)OC3C2O1

>  <smiles>  (225) 
[H]C([H])([H])C1(C([H])([H])[H])OC2([H])OC([H])(C([H])([H])N=[N+]=[N-])C3([H])OC(C([H])([H])[H])(C([H])([H])[H])OC3([H])C2([H])O1

$$$$
61:0:1
     RDKit          3D

 39 41  0  0  1  0  0  0  0  0999 V2000
   -1.6062   -7.1970    3.7904 C   0  0  0  0  0  0  0  0  0  0  0  0
   -0.5511   -7.8990    2.9311 C   0  0  0  0  0  0  0  0  0  0  0  0
   -0.9600   -9.3365    2.5946 C   0  0  0  0  0  0  0  0  0  0  0  0
   -0.3813   -7.1716    1.7418 O   0  0  0  0  0  0  0  0  0  0  0  0
    0.9841   -7.0589    1.5536 C   0  0  1  0  0  0  0  0  0  0  0  0
    1.3981   -5.8744    0.9307 O   0  0  0  0  0  0  0  0  0  0  0  0
    2.8293   -5.7942    0.8097 C   0  0  1  0  0  0  0  0  0  0  0  0
    3.1927   -4.4428    0.1499 C   0  0  0  0  0  0  0  0  0  0  0  0
    2.7529   -3.3011    0.9631 N   0  0  0  0  0  0  0  0  0  0  0  0
    3.2248   -2.1857    0.6802 N   0  0  0  0  0  0  0  0  0  0  0  0
    3.7548   -1.1919    0.5103 N   0  0  0  0  0  0  0  0  0  0  0  0
    3.6019   -6.0388    2.1507 C   0  0  2  0  0  0  0  0  0  0  0  0
    4.8635   -6.6126    1.8522 O   0  0  0  0  0  0  0  0  0  0  0  0
    4.8460   -7.9345    2.2725 C   0  0  0  0  0  0  0  0  0  0  0  0
    5.3596   -8.8193    1.1280 C   0  0  0  0  0  0  0  0  0  0  0  0
    5.7310   -8.0781    3.5314 C   0  0  0  0  0  0  0  0  0  0  0  0
    3.5338   -8.2858    2.5651 O   0  0  0  0  0  0  0  0  0  0  0  0
    2.9540   -7.0979    3.0551 C   0  0  2  0  0  0  0  0  0  0  0  0
    1.4359   -6.9778    2.9795 C   0  0  2  0  0  0  0  0  0  0  0  0
    0.6495   -7.9327    3.6400 O   0  0  0  0  0  0  0  0  0  0  0  0
   -1.2594   -6.1996    4.0691 H   0  0  0  0  0  0  0  0  0  0  0  0
   -1.7758   -7.7590    4.7062 H   0  0  0  0  0  0  0  0  0  0  0  0
   -2.5401   -7.1267    3.2419 H   0  0  0  0  0  0  0  0  0  0  0  0
   -0.1586   -9.8561    2.0631 H   0  0  0  0  0  0  0  0  0  0  0  0
   -1.8680   -9.3514    1.9953 H   0  0  0  0  0  0  0  0  0  0  0  0
   -1.1376   -9.8658    3.5250 H   0  0  0  0  0  0  0  0  0  0  0  0
    1.3512   -7.9507    1.0428 H   0  0  0  0  0  0  0  0  0  0  0  0
    3.1130   -6.5966    0.1305 H   0  0  0  0  0  0  0  0  0  0  0  0
    4.2681   -4.4264   -0.0220 H   0  0  0  0  0  0  0  0  0  0  0  0
    2.7390   -4.3897   -0.8429 H   0  0  0  0  0  0  0  0  0  0  0  0
    3.7370   -5.1197    2.7144 H   0  0  0  0  0  0  0  0  0  0  0  0
    4.7155   -8.7248    0.2457 H   0  0  0  0  0  0  0  0  0  0  0  0
    5.3826   -9.8646    1.4365 H   0  0  0  0  0  0  0  0  0  0  0  0
    6.3757   -8.5155    0.8763 H   0  0  0  0  0  0  0  0  0  0  0  0
    5.4178   -7.4030    4.3300 H   0  0  0  0  0  0  0  0  0  0  0  0
    6.7662   -7.8473    3.2870 H   0  0  0  0  0  0  0  0  0  0  0  0
    5.6743   -9.0998    3.8992 H   0  0  0  0  0  0  0  0  0  0  0  0
    3.2458   -6.9464    4.0923 H   0  0  0  0  0  0  0  0  0  0  0  0
    1.1504   -6.0010    3.3741 H   0  0  0  0  0  0  0  0  0  0  0  0
  1  2  1  0
  1 21  1  0
  1 22  1  0
  1 23  1  0
  2 20  1  0
  2  3  1  0
  2  4  1  0
  3 24  1  0
  3 25  1  0
  3 26  1  0
  4  5  1  0
  5 19  1  0
  5  6  1  0
  5 27  1  6
  6  7  1  0
  7  8  1  0
  7 12  1  0
  7 28  1  6
  8  9  1  0
  8 29  1  0
  8 30  1  0
  9 10  2  0
 10 11  2  0
 12 18  1  0
 12 13  1  0
 12 31  1  1
 13 14  1  0
 14 15  1  0
 14 16  1  0
 14 17  1  0
 15 32  1  0
 15 33  1  0
 15 34  1  0
 16 35  1  0
 16 36  1  0
 16 37  1  0
 17 18  1  0
 18 19  1  0
 18 38  1  1
 19 20  1  0
 19 39  1  1
M  CHG  2  10   1  11  -1
M  END
>  <i_m_ct_stereo_status>  (226) 
1

>  <s_m_source_file>  (226) 
/var/tmp/pbs.5076255.sched01/tmp548j1hfo/88g9dmtei7.sdf

>  <i_m_source_file_index>  (226) 
10

>  <i_lp_mmshare_version>  (226) 
48012

>  <i_f3d_flags>  (226) 
0

>  <s_epik_input>  (226) 
W0NIM11DKE8xKShbQ0gzXSlPW0NASF0oW0NAQEhdMTIpW0NAQEhdM1tDQEBIXShPQyhPMykoW0NIM10pW0NIM10pW0NAQEhdKE8yKVtDSDJdTj1bTitdPVtOLV0=

>  <s_epik_cmdline>  (226) 
J2VwaWtfcHl0aG9uJywgJy1waHQnLCAnMi4wJywgJy1waCcsICc3LjAnLCAnLXRuJywgJzgnLCAnLW1hJywgJzIwMCcsICctaW1hZScsICc8aW5maWxlLm1hZT4nLCAnLW9tYWUnLCAnPG91dGZpbGUubWFlPic=

>  <r_lp_tautomer_probability>  (226) 
1

>  <r_epik_Ionization_Penalty>  (226) 
8.8144e-15

>  <r_epik_Ionization_Penalty_Charging>  (226) 
0

>  <r_epik_Ionization_Penalty_Neutral>  (226) 
8.8144e-15

>  <r_epik_State_Penalty>  (226) 
-0

>  <r_epik_Charging_Adjusted_Penalty>  (226) 
0

>  <i_epik_Tot_Q>  (226) 
0

>  <i_epik_Tot_abs_Q>  (226) 
2

>  <s_epik_Chemistry_Notes>  (226) 
This compound contains an acetal/aminal-like group ( X-CH(R)-Y where X, Y are N, S, or O) that may be acid/base labile, releasing an aldehyde.

>  <s_lp_Force_Field>  (226) 
OPLS3e

>  <r_lp_Energy>  (226) 
7.24303

>  <b_lp_Chiralities_Consistent>  (226) 
1

>  <s_lp_Variant>  (226) 
61:0-1

>  <s_i_glide_gridfile>  (226) 
pfpi4k_grid

>  <i_i_glide_lignum>  (226) 
10

>  <i_i_glide_rotatable_bonds>  (226) 
2

>  <r_i_docking_score>  (226) 
-3.10818

>  <r_i_glide_ligand_efficiency>  (226) 
-0.155409

>  <r_i_glide_ligand_efficiency_sa>  (226) 
-0.421844

>  <r_i_glide_ligand_efficiency_ln>  (226) 
-0.777874

>  <r_i_glide_gscore>  (226) 
-3.10818

>  <r_i_glide_lipo>  (226) 
-0.160629

>  <r_i_glide_hbond>  (226) 
-0.187454

>  <r_i_glide_metal>  (226) 
-0

>  <r_i_glide_rewards>  (226) 
-1.46944

>  <r_i_glide_evdw>  (226) 
-19.8159

>  <r_i_glide_ecoul>  (226) 
-3.50658

>  <r_i_glide_erotb>  (226) 
0.445764

>  <r_i_glide_esite>  (226) 
-0.219634

>  <r_i_glide_emodel>  (226) 
-27.776

>  <r_i_glide_energy>  (226) 
-23.3225

>  <r_i_glide_einternal>  (226) 
1.18264

>  <r_i_glide_intrahb_reward>  (226) 
-0

>  <i_i_glide_confnum>  (226) 
2

>  <i_i_glide_posenum>  (226) 
1

>  <r_i_glide_eff_state_penalty>  (226) 
0

>  <ligand_id>  (226) 
61

>  <original_smiles>  (226) 
CC1(C)OC2OC(CN=[N+]=[N-])C3OC(C)(C)OC3C2O1

>  <smiles>  (226) 
[H]C([H])([H])C1(C([H])([H])[H])OC2([H])OC([H])(C([H])([H])N=[N+]=[N-])C3([H])OC(C([H])([H])[H])(C([H])([H])[H])OC3([H])C2([H])O1

$$$$
61:0:2
     RDKit          3D

 39 41  0  0  1  0  0  0  0  0999 V2000
   -0.2419   -2.8005    5.0431 C   0  0  0  0  0  0  0  0  0  0  0  0
    0.1897   -1.5779    5.8626 C   0  0  0  0  0  0  0  0  0  0  0  0
    1.2111   -1.9294    6.9528 C   0  0  0  0  0  0  0  0  0  0  0  0
    0.7650   -0.6493    4.9841 O   0  0  0  0  0  0  0  0  0  0  0  0
    0.1783    0.5676    5.2602 C   0  0  1  0  0  0  0  0  0  0  0  0
   -0.0342    1.4094    4.1698 O   0  0  0  0  0  0  0  0  0  0  0  0
   -0.5911    2.6695    4.5675 C   0  0  1  0  0  0  0  0  0  0  0  0
   -0.7650    3.5334    3.2969 C   0  0  0  0  0  0  0  0  0  0  0  0
   -0.8681    4.9644    3.5975 N   0  0  0  0  0  0  0  0  0  0  0  0
    0.2155    5.5876    3.6502 N   0  0  0  0  0  0  0  0  0  0  0  0
    1.2181    6.0901    3.8267 N   0  0  0  0  0  0  0  0  0  0  0  0
   -1.9228    2.5051    5.3649 C   0  0  2  0  0  0  0  0  0  0  0  0
   -2.0908    3.6054    6.2406 O   0  0  0  0  0  0  0  0  0  0  0  0
   -1.8819    3.1639    7.5381 C   0  0  0  0  0  0  0  0  0  0  0  0
   -0.8689    4.1068    8.2166 C   0  0  0  0  0  0  0  0  0  0  0  0
   -3.2343    3.1532    8.2840 C   0  0  0  0  0  0  0  0  0  0  0  0
   -1.3577    1.8756    7.4894 O   0  0  0  0  0  0  0  0  0  0  0  0
   -1.9174    1.3061    6.3269 C   0  0  2  0  0  0  0  0  0  0  0  0
   -1.1780    0.1323    5.6976 C   0  0  2  0  0  0  0  0  0  0  0  0
   -0.9400   -1.0146    6.4682 O   0  0  0  0  0  0  0  0  0  0  0  0
   -0.9763   -2.5013    4.2934 H   0  0  0  0  0  0  0  0  0  0  0  0
   -0.6822   -3.5496    5.7017 H   0  0  0  0  0  0  0  0  0  0  0  0
    0.6177   -3.2356    4.5342 H   0  0  0  0  0  0  0  0  0  0  0  0
    1.4691   -1.0418    7.5363 H   0  0  0  0  0  0  0  0  0  0  0  0
    2.1145   -2.3283    6.4923 H   0  0  0  0  0  0  0  0  0  0  0  0
    0.7950   -2.6833    7.6211 H   0  0  0  0  0  0  0  0  0  0  0  0
    0.7514    1.0549    6.0480 H   0  0  0  0  0  0  0  0  0  0  0  0
    0.1654    3.1114    5.2230 H   0  0  0  0  0  0  0  0  0  0  0  0
    0.0646    3.3014    2.6206 H   0  0  0  0  0  0  0  0  0  0  0  0
   -1.6470    3.2092    2.7467 H   0  0  0  0  0  0  0  0  0  0  0  0
   -2.7696    2.4388    4.6858 H   0  0  0  0  0  0  0  0  0  0  0  0
    0.0964    4.0855    7.6993 H   0  0  0  0  0  0  0  0  0  0  0  0
   -0.7254    3.8094    9.2565 H   0  0  0  0  0  0  0  0  0  0  0  0
   -1.2474    5.1295    8.1996 H   0  0  0  0  0  0  0  0  0  0  0  0
   -3.9925    2.5791    7.7460 H   0  0  0  0  0  0  0  0  0  0  0  0
   -3.5950    4.1703    8.4018 H   0  0  0  0  0  0  0  0  0  0  0  0
   -3.1019    2.7207    9.2721 H   0  0  0  0  0  0  0  0  0  0  0  0
   -2.9283    0.9725    6.5442 H   0  0  0  0  0  0  0  0  0  0  0  0
   -1.7292   -0.1847    4.8078 H   0  0  0  0  0  0  0  0  0  0  0  0
  1  2  1  0
  1 21  1  0
  1 22  1  0
  1 23  1  0
  2 20  1  0
  2  3  1  0
  2  4  1  0
  3 24  1  0
  3 25  1  0
  3 26  1  0
  4  5  1  0
  5 19  1  0
  5  6  1  0
  5 27  1  1
  6  7  1  0
  7  8  1  0
  7 12  1  0
  7 28  1  1
  8  9  1  0
  8 29  1  0
  8 30  1  0
  9 10  2  0
 10 11  2  0
 12 18  1  0
 12 13  1  0
 12 31  1  6
 13 14  1  0
 14 15  1  0
 14 16  1  0
 14 17  1  0
 15 32  1  0
 15 33  1  0
 15 34  1  0
 16 35  1  0
 16 36  1  0
 16 37  1  0
 17 18  1  0
 18 19  1  0
 18 38  1  1
 19 20  1  0
 19 39  1  6
M  CHG  2  10   1  11  -1
M  END
>  <i_m_ct_stereo_status>  (227) 
1

>  <s_m_source_file>  (227) 
/var/tmp/pbs.5076255.sched01/tmp548j1hfo/88g9dmtei7.sdf

>  <i_m_source_file_index>  (227) 
10

>  <i_lp_mmshare_version>  (227) 
48012

>  <i_f3d_flags>  (227) 
0

>  <s_epik_input>  (227) 
W0NIM11DKE8xKShbQ0gzXSlPW0NASF0oW0NAQEhdMTIpW0NAQEhdM1tDQEBIXShPQyhPMykoW0NIM10pW0NIM10pW0NAQEhdKE8yKVtDSDJdTj1bTitdPVtOLV0=

>  <s_epik_cmdline>  (227) 
J2VwaWtfcHl0aG9uJywgJy1waHQnLCAnMi4wJywgJy1waCcsICc3LjAnLCAnLXRuJywgJzgnLCAnLW1hJywgJzIwMCcsICctaW1hZScsICc8aW5maWxlLm1hZT4nLCAnLW9tYWUnLCAnPG91dGZpbGUubWFlPic=

>  <r_lp_tautomer_probability>  (227) 
1

>  <r_epik_Ionization_Penalty>  (227) 
8.8144e-15

>  <r_epik_Ionization_Penalty_Charging>  (227) 
0

>  <r_epik_Ionization_Penalty_Neutral>  (227) 
8.8144e-15

>  <r_epik_State_Penalty>  (227) 
-0

>  <r_epik_Charging_Adjusted_Penalty>  (227) 
0

>  <i_epik_Tot_Q>  (227) 
0

>  <i_epik_Tot_abs_Q>  (227) 
2

>  <s_epik_Chemistry_Notes>  (227) 
This compound contains an acetal/aminal-like group ( X-CH(R)-Y where X, Y are N, S, or O) that may be acid/base labile, releasing an aldehyde.

>  <s_lp_Force_Field>  (227) 
OPLS3e

>  <r_lp_Energy>  (227) 
7.24303

>  <b_lp_Chiralities_Consistent>  (227) 
1

>  <s_lp_Variant>  (227) 
61:0-1

>  <s_i_glide_gridfile>  (227) 
pfpi4k_grid

>  <i_i_glide_lignum>  (227) 
10

>  <i_i_glide_rotatable_bonds>  (227) 
2

>  <r_i_docking_score>  (227) 
-2.89533

>  <r_i_glide_ligand_efficiency>  (227) 
-0.144767

>  <r_i_glide_ligand_efficiency_sa>  (227) 
-0.392957

>  <r_i_glide_ligand_efficiency_ln>  (227) 
-0.724606

>  <r_i_glide_gscore>  (227) 
-2.89533

>  <r_i_glide_lipo>  (227) 
-0.0980716

>  <r_i_glide_hbond>  (227) 
-0.0390235

>  <r_i_glide_metal>  (227) 
-0

>  <r_i_glide_rewards>  (227) 
-1.50898

>  <r_i_glide_evdw>  (227) 
-15.4903

>  <r_i_glide_ecoul>  (227) 
-4.19424

>  <r_i_glide_erotb>  (227) 
0.445764

>  <r_i_glide_esite>  (227) 
-0.291366

>  <r_i_glide_emodel>  (227) 
-23.4731

>  <r_i_glide_energy>  (227) 
-19.6846

>  <r_i_glide_einternal>  (227) 
1.71776

>  <r_i_glide_intrahb_reward>  (227) 
-0

>  <i_i_glide_confnum>  (227) 
4

>  <i_i_glide_posenum>  (227) 
2

>  <r_i_glide_eff_state_penalty>  (227) 
0

>  <ligand_id>  (227) 
61

>  <original_smiles>  (227) 
CC1(C)OC2OC(CN=[N+]=[N-])C3OC(C)(C)OC3C2O1

>  <smiles>  (227) 
[H]C([H])([H])C1(C([H])([H])[H])OC2([H])OC([H])(C([H])([H])N=[N+]=[N-])C3([H])OC(C([H])([H])[H])(C([H])([H])[H])OC3([H])C2([H])O1

$$$$
62:0:0
     RDKit          3D

113121  0  0  1  0  0  0  0  0999 V2000
    5.0609   -7.9249    7.0525 C   0  0  0  0  0  0  0  0  0  0  0  0
    5.1792   -7.3680    5.6201 C   0  0  2  0  0  0  0  0  0  0  0  0
    6.6763   -7.2733    5.2161 C   0  0  0  0  0  0  0  0  0  0  0  0
    6.9251   -5.8639    4.6729 C   0  0  0  0  0  0  0  0  0  0  0  0
    5.8009   -5.0293    5.3262 C   0  0  1  0  0  0  0  0  0  0  0  0
    6.4135   -4.6607    6.7549 C   0  0  0  0  0  0  0  0  0  0  0  0
    5.5912   -3.6633    7.6376 C   0  0  0  0  0  0  0  0  0  0  0  0
    4.1001   -3.7559    7.2573 C   0  0  1  0  0  0  0  0  0  0  0  0
    2.8234   -4.5150    8.0816 C   0  0  1  0  0  0  0  0  0  0  0  0
    3.5112   -4.6576    9.4925 C   0  0  0  0  0  0  0  0  0  0  0  0
    1.6129   -3.5723    8.4228 C   0  0  0  0  0  0  0  0  0  0  0  0
    0.5558   -4.1493    9.4015 C   0  0  1  0  0  0  0  0  0  0  0  0
   -0.6171   -3.3587    9.3492 O   0  0  0  0  0  0  0  0  0  0  0  0
    0.1591   -5.6133    9.1531 C   0  0  0  0  0  0  0  0  0  0  0  0
    1.3635   -6.5213    8.8732 C   0  0  0  0  0  0  0  0  0  0  0  0
    2.1741   -6.0498    7.6202 C   0  0  1  0  0  0  0  0  0  0  0  0
    1.4210   -6.6389    6.1675 C   0  0  2  0  0  0  0  0  0  0  0  0
    0.3691   -5.6019    5.6778 C   0  0  0  0  0  0  0  0  0  0  0  0
    0.5776   -7.9280    6.4940 C   0  0  0  0  0  0  0  0  0  0  0  0
   -0.2252   -8.5861    5.3470 C   0  0  0  0  0  0  0  0  0  0  0  0
    0.6018   -9.0117    4.1336 C   0  0  0  0  0  0  0  0  0  0  0  0
    1.4662  -10.2447    4.4727 C   0  0  0  0  0  0  0  0  0  0  0  0
   -0.3430   -9.3978    2.9734 C   0  0  0  0  0  0  0  0  0  0  0  0
    1.4469   -7.7965    3.7114 C   0  0  0  0  0  0  0  0  0  0  0  0
    2.3161   -7.2152    4.8530 C   0  0  1  0  0  0  0  0  0  0  0  0
    3.4722   -6.2755    4.1612 C   0  0  2  0  0  0  0  0  0  0  0  0
    4.1807   -6.4130    2.9531 O   0  0  0  0  0  0  0  0  0  0  0  0
    4.7731   -5.2840    2.3514 C   0  0  0  0  0  0  0  0  0  0  0  0
    5.0506   -5.3070    1.1550 O   0  0  0  0  0  0  0  0  0  0  0  0
    5.1846   -3.9680    3.1529 C   0  0  0  0  0  0  0  0  0  0  0  0
    5.3272   -3.7524    4.7319 C   0  0  1  0  0  0  0  0  0  0  0  0
    4.1240   -3.1776    5.6912 C   0  0  1  0  0  0  0  0  0  0  0  0
    2.9601   -3.8526    5.2311 C   0  0  1  0  0  0  0  0  0  0  0  0
    2.3511   -3.1370    4.0029 C   0  0  0  0  0  0  0  0  0  0  0  0
    2.5127   -1.6270    4.3782 C   0  0  2  0  0  0  0  0  0  0  0  0
    1.2035   -1.2700    5.1569 C   0  0  0  0  0  0  0  0  0  0  0  0
    2.6152   -0.6112    3.1223 C   0  0  0  0  0  0  0  0  0  0  0  0
    3.4219   -1.1094    1.8859 C   0  0  0  0  0  0  0  0  0  0  0  0
    1.2243   -0.3045    2.4873 C   0  0  0  0  0  0  0  0  0  0  0  0
    3.2852    0.7360    3.5466 C   0  0  1  0  0  0  0  0  0  0  0  0
    2.4311    1.5734    4.3005 O   0  0  0  0  0  0  0  0  0  0  0  0
    4.6165    0.5819    4.3152 C   0  0  0  0  0  0  0  0  0  0  0  0
    4.9563   -0.8510    4.7565 C   0  0  0  0  0  0  0  0  0  0  0  0
    3.7715   -1.6384    5.3863 C   0  0  2  0  0  0  0  0  0  0  0  0
    3.5223   -0.8875    6.7244 C   0  0  0  0  0  0  0  0  0  0  0  0
    3.3442   -5.2195    5.5255 O   0  0  0  0  0  0  0  0  0  0  0  0
    4.5454   -5.9585    5.2398 C   0  0  1  0  0  0  0  0  0  0  0  0
    5.1940   -7.1636    7.8214 H   0  0  0  0  0  0  0  0  0  0  0  0
    5.8080   -8.6993    7.2388 H   0  0  0  0  0  0  0  0  0  0  0  0
    4.1014   -8.4175    7.2066 H   0  0  0  0  0  0  0  0  0  0  0  0
    4.8219   -8.1555    4.9593 H   0  0  0  0  0  0  0  0  0  0  0  0
    7.3360   -7.4502    6.0697 H   0  0  0  0  0  0  0  0  0  0  0  0
    6.9396   -8.0221    4.4649 H   0  0  0  0  0  0  0  0  0  0  0  0
    7.9293   -5.5068    4.9103 H   0  0  0  0  0  0  0  0  0  0  0  0
    6.8996   -5.9088    3.5894 H   0  0  0  0  0  0  0  0  0  0  0  0
    6.5746   -5.5597    7.3443 H   0  0  0  0  0  0  0  0  0  0  0  0
    7.4092   -4.2225    6.6394 H   0  0  0  0  0  0  0  0  0  0  0  0
    5.8152   -3.8220    8.6908 H   0  0  0  0  0  0  0  0  0  0  0  0
    5.9346   -2.6474    7.4285 H   0  0  0  0  0  0  0  0  0  0  0  0
    4.3342   -4.8030    7.3310 H   0  0  0  0  0  0  0  0  0  0  0  0
    2.8570   -4.8720   10.3306 H   0  0  0  0  0  0  0  0  0  0  0  0
    3.9711   -3.7169    9.7982 H   0  0  0  0  0  0  0  0  0  0  0  0
    4.2782   -5.4355    9.4991 H   0  0  0  0  0  0  0  0  0  0  0  0
    1.9796   -2.6429    8.8562 H   0  0  0  0  0  0  0  0  0  0  0  0
    1.0654   -3.2695    7.5489 H   0  0  0  0  0  0  0  0  0  0  0  0
    0.9178   -4.0559   10.4253 H   0  0  0  0  0  0  0  0  0  0  0  0
   -1.1644   -3.6220   10.0742 H   0  0  0  0  0  0  0  0  0  0  0  0
   -0.3657   -5.9858   10.0336 H   0  0  0  0  0  0  0  0  0  0  0  0
   -0.5494   -5.6847    8.3304 H   0  0  0  0  0  0  0  0  0  0  0  0
    1.9866   -6.5984    9.7574 H   0  0  0  0  0  0  0  0  0  0  0  0
    1.0625   -7.5638    8.8480 H   0  0  0  0  0  0  0  0  0  0  0  0
    3.0330   -6.6863    7.6811 H   0  0  0  0  0  0  0  0  0  0  0  0
    0.5917   -5.2530    4.6729 H   0  0  0  0  0  0  0  0  0  0  0  0
    0.2909   -4.7334    6.3185 H   0  0  0  0  0  0  0  0  0  0  0  0
   -0.6491   -5.9793    5.6412 H   0  0  0  0  0  0  0  0  0  0  0  0
    1.2220   -8.6836    6.9375 H   0  0  0  0  0  0  0  0  0  0  0  0
   -0.1809   -7.7034    7.2322 H   0  0  0  0  0  0  0  0  0  0  0  0
   -0.7370   -9.4573    5.7619 H   0  0  0  0  0  0  0  0  0  0  0  0
   -1.0351   -7.9405    5.0151 H   0  0  0  0  0  0  0  0  0  0  0  0
    2.1661  -10.4672    3.6649 H   0  0  0  0  0  0  0  0  0  0  0  0
    0.8461  -11.1289    4.6307 H   0  0  0  0  0  0  0  0  0  0  0  0
    2.0482  -10.1112    5.3859 H   0  0  0  0  0  0  0  0  0  0  0  0
    0.2182   -9.6963    2.0858 H   0  0  0  0  0  0  0  0  0  0  0  0
   -0.9992   -8.5745    2.6888 H   0  0  0  0  0  0  0  0  0  0  0  0
   -0.9802  -10.2375    3.2557 H   0  0  0  0  0  0  0  0  0  0  0  0
    2.0842   -8.0927    2.8756 H   0  0  0  0  0  0  0  0  0  0  0  0
    0.7899   -7.0256    3.3143 H   0  0  0  0  0  0  0  0  0  0  0  0
    2.8148   -8.0827    5.2586 H   0  0  0  0  0  0  0  0  0  0  0  0
    2.8340   -5.5204    3.6853 H   0  0  0  0  0  0  0  0  0  0  0  0
    6.2023   -3.8329    2.7949 H   0  0  0  0  0  0  0  0  0  0  0  0
    4.6929   -3.1242    2.6989 H   0  0  0  0  0  0  0  0  0  0  0  0
    6.1732   -3.0874    4.8700 H   0  0  0  0  0  0  0  0  0  0  0  0
    2.1507   -3.6714    5.9038 H   0  0  0  0  0  0  0  0  0  0  0  0
    2.7854   -3.4110    3.0592 H   0  0  0  0  0  0  0  0  0  0  0  0
    1.3043   -3.3979    3.8629 H   0  0  0  0  0  0  0  0  0  0  0  0
    1.1514   -0.2197    5.4371 H   0  0  0  0  0  0  0  0  0  0  0  0
    1.0772   -1.8238    6.0760 H   0  0  0  0  0  0  0  0  0  0  0  0
    0.3051   -1.4919    4.5812 H   0  0  0  0  0  0  0  0  0  0  0  0
    3.3192   -0.4063    1.0567 H   0  0  0  0  0  0  0  0  0  0  0  0
    3.0639   -2.0565    1.4869 H   0  0  0  0  0  0  0  0  0  0  0  0
    4.4948   -1.1684    2.0354 H   0  0  0  0  0  0  0  0  0  0  0  0
    1.3143    0.3378    1.6085 H   0  0  0  0  0  0  0  0  0  0  0  0
    0.5464    0.2276    3.1542 H   0  0  0  0  0  0  0  0  0  0  0  0
    0.7285   -1.2205    2.1640 H   0  0  0  0  0  0  0  0  0  0  0  0
    3.4767    1.3165    2.6428 H   0  0  0  0  0  0  0  0  0  0  0  0
    2.7547    2.4572    4.2404 H   0  0  0  0  0  0  0  0  0  0  0  0
    5.4292    0.9308    3.6796 H   0  0  0  0  0  0  0  0  0  0  0  0
    4.6341    1.2477    5.1764 H   0  0  0  0  0  0  0  0  0  0  0  0
    5.3545   -1.3582    3.8883 H   0  0  0  0  0  0  0  0  0  0  0  0
    5.7979   -0.8109    5.4500 H   0  0  0  0  0  0  0  0  0  0  0  0
    3.1840    0.1350    6.5646 H   0  0  0  0  0  0  0  0  0  0  0  0
    4.4349   -0.8242    7.3191 H   0  0  0  0  0  0  0  0  0  0  0  0
    2.7783   -1.3607    7.3520 H   0  0  0  0  0  0  0  0  0  0  0  0
  1  2  1  0
  1 48  1  0
  1 49  1  0
  1 50  1  0
  2 47  1  0
  2  3  1  0
  2 51  1  6
  3  4  1  0
  3 52  1  0
  3 53  1  0
  5  4  1  6
  4 54  1  0
  4 55  1  0
  5 31  1  0
  5 47  1  0
  5  6  1  0
  6  7  1  0
  6 56  1  0
  6 57  1  0
  7  8  1  0
  7 58  1  0
  7 59  1  0
  8 32  1  0
  8  9  1  0
  8 60  1  1
  9 16  1  0
  9 10  1  1
  9 11  1  0
 10 61  1  0
 10 62  1  0
 10 63  1  0
 11 12  1  0
 11 64  1  0
 11 65  1  0
 12 13  1  0
 12 14  1  0
 12 66  1  1
 13 67  1  0
 14 15  1  0
 14 68  1  0
 14 69  1  0
 15 16  1  0
 15 70  1  0
 15 71  1  0
 16 17  1  0
 16 72  1  1
 17 25  1  0
 17 18  1  6
 17 19  1  0
 18 73  1  0
 18 74  1  0
 18 75  1  0
 19 20  1  0
 19 76  1  0
 19 77  1  0
 20 21  1  0
 20 78  1  0
 20 79  1  0
 21 22  1  0
 21 23  1  0
 21 24  1  0
 22 80  1  0
 22 81  1  0
 22 82  1  0
 23 83  1  0
 23 84  1  0
 23 85  1  0
 24 25  1  0
 24 86  1  0
 24 87  1  0
 25 26  1  0
 25 88  1  1
 26 47  1  0
 26 27  1  0
 26 89  1  6
 27 28  1  0
 28 29  2  0
 28 30  1  0
 30 31  1  0
 30 90  1  0
 30 91  1  0
 31 32  1  0
 31 92  1  6
 32 44  1  1
 32 33  1  0
 33 34  1  0
 33 46  1  0
 33 93  1  1
 34 35  1  0
 34 94  1  0
 34 95  1  0
 35 44  1  0
 35 36  1  1
 35 37  1  0
 36 96  1  0
 36 97  1  0
 36 98  1  0
 37 38  1  0
 37 39  1  0
 37 40  1  0
 38 99  1  0
 38100  1  0
 38101  1  0
 39102  1  0
 39103  1  0
 39104  1  0
 40 41  1  0
 40 42  1  0
 40105  1  6
 41106  1  0
 42 43  1  0
 42107  1  0
 42108  1  0
 43 44  1  0
 43109  1  0
 43110  1  0
 44 45  1  1
 45111  1  0
 45112  1  0
 45113  1  0
 47 46  1  1
M  END
>  <i_m_ct_stereo_status>  (228) 
1

>  <s_m_source_file>  (228) 
/var/tmp/pbs.5076255.sched01/tmp548j1hfo/88g9dmtei7.sdf

>  <i_m_source_file_index>  (228) 
11

>  <i_lp_mmshare_version>  (228) 
48012

>  <i_f3d_flags>  (228) 
0

>  <s_epik_input>  (228) 
W0NIMl0xW0NIMl1bQ0BASF0oW0NIM10pW0NAQF0yKFtDQF0xMzQpW0NAQEhdNVtDQEhdNltDQEBdKFtDSDNdKShbQ0gyXVtDSDJdQyhbQ0gzXSkoW0NIM10pW0NIMl02KVtDQEhdN1tDQF0oW0NIM10pKFtDSDJdW0NAQEhdKFtPSF0pW0NIMl1bQ0gyXTcpW0NASF0oW0NIMl1bQ0gyXTMpW0NAQF04KFtDQEBIXTRbQ0gyXUMoTzUpPU8pW0NASF0oTzIpW0NIMl1bQ0BAXTkoW0NIM10pW0NAXTgoW0NIM10pW0NIMl1bQ0gyXVtDQEhdKFtPSF0pQzkoW0NIM10pW0NIM10=

>  <s_epik_cmdline>  (228) 
J2VwaWtfcHl0aG9uJywgJy1waHQnLCAnMi4wJywgJy1waCcsICc3LjAnLCAnLXRuJywgJzgnLCAnLW1hJywgJzIwMCcsICctaW1hZScsICc8aW5maWxlLm1hZT4nLCAnLW9tYWUnLCAnPG91dGZpbGUubWFlPic=

>  <r_lp_tautomer_probability>  (228) 
1

>  <r_epik_Ionization_Penalty>  (228) 
3.99222e-06

>  <r_epik_Ionization_Penalty_Charging>  (228) 
0

>  <r_epik_Ionization_Penalty_Neutral>  (228) 
3.99222e-06

>  <r_epik_State_Penalty>  (228) 
-0

>  <r_epik_Charging_Adjusted_Penalty>  (228) 
0

>  <i_epik_Tot_Q>  (228) 
0

>  <i_epik_Tot_abs_Q>  (228) 
0

>  <s_epik_Chemistry_Notes>  (228) 
This compound has an ester and may undergo hydrolysis at high or low pH.

>  <s_lp_Force_Field>  (228) 
OPLS3e

>  <r_lp_Energy>  (228) 
419.296

>  <b_lp_Chiralities_Consistent>  (228) 
1

>  <s_lp_Variant>  (228) 
62:0-1

>  <s_i_glide_gridfile>  (228) 
pfpi4k_grid

>  <i_i_glide_lignum>  (228) 
11

>  <i_i_glide_rotatable_bonds>  (228) 
2

>  <r_i_docking_score>  (228) 
-2.15101

>  <r_i_glide_ligand_efficiency>  (228) 
-0.0457662

>  <r_i_glide_ligand_efficiency_sa>  (228) 
-0.165162

>  <r_i_glide_ligand_efficiency_ln>  (228) 
-0.443494

>  <r_i_glide_gscore>  (228) 
-2.15101

>  <r_i_glide_lipo>  (228) 
-0.153638

>  <r_i_glide_hbond>  (228) 
-0.154734

>  <r_i_glide_metal>  (228) 
-0

>  <r_i_glide_rewards>  (228) 
-0.00322003

>  <r_i_glide_evdw>  (228) 
-29.1949

>  <r_i_glide_ecoul>  (228) 
-2.53116

>  <r_i_glide_erotb>  (228) 
0

>  <r_i_glide_esite>  (228) 
0

>  <r_i_glide_emodel>  (228) 
-35.3954

>  <r_i_glide_energy>  (228) 
-31.7261

>  <r_i_glide_einternal>  (228) 
0.810989

>  <r_i_glide_intrahb_reward>  (228) 
-0

>  <i_i_glide_confnum>  (228) 
2

>  <i_i_glide_posenum>  (228) 
32

>  <r_i_glide_eff_state_penalty>  (228) 
0

>  <ligand_id>  (228) 
62

>  <original_smiles>  (228) 
CC1CCC23CCC4C5(C)CC(O)CCC5C5(C)CCC(C)(C)CC5C5OC(=O)CC2C42C(CC4(C)C(C)(C)C(O)CCC24C)OC153

>  <smiles>  (228) 
[H]OC1([H])C([H])([H])C([H])([H])C2([H])C3(C([H])([H])[H])C([H])([H])C([H])([H])C(C([H])([H])[H])(C([H])([H])[H])C([H])([H])C3([H])C3([H])OC(=O)C([H])([H])C4([H])C56C([H])([H])C([H])([H])C([H])(C([H])([H])[H])C35OC3([H])C([H])([H])C5(C([H])([H])[H])C(C([H])([H])[H])(C([H])([H])[H])C([H])(O[H])C([H])([H])C([H])([H])C5(C([H])([H])[H])C34C([H])(C([H])([H])C6([H])[H])C2(C([H])([H])[H])C1([H])[H]

$$$$
62:0:1
     RDKit          3D

113121  0  0  1  0  0  0  0  0999 V2000
    4.6857   -8.0754    5.4732 C   0  0  0  0  0  0  0  0  0  0  0  0
    4.5919   -7.2701    4.1611 C   0  0  2  0  0  0  0  0  0  0  0  0
    5.9943   -7.1766    3.5037 C   0  0  0  0  0  0  0  0  0  0  0  0
    6.2561   -5.7070    3.1744 C   0  0  0  0  0  0  0  0  0  0  0  0
    5.3380   -4.9493    4.1623 C   0  0  1  0  0  0  0  0  0  0  0  0
    6.2154   -4.8919    5.4977 C   0  0  0  0  0  0  0  0  0  0  0  0
    5.6541   -4.0262    6.6749 C   0  0  0  0  0  0  0  0  0  0  0  0
    4.1181   -3.9734    6.5720 C   0  0  1  0  0  0  0  0  0  0  0  0
    2.9481   -4.8124    7.4793 C   0  0  1  0  0  0  0  0  0  0  0  0
    3.8646   -5.2431    8.6889 C   0  0  0  0  0  0  0  0  0  0  0  0
    1.8983   -3.8934    8.2051 C   0  0  0  0  0  0  0  0  0  0  0  0
    0.9853   -4.5889    9.2503 C   0  0  1  0  0  0  0  0  0  0  0  0
   -0.1121   -3.7427    9.5392 O   0  0  0  0  0  0  0  0  0  0  0  0
    0.4372   -5.9646    8.8328 C   0  0  0  0  0  0  0  0  0  0  0  0
    1.4991   -6.8586    8.1764 C   0  0  0  0  0  0  0  0  0  0  0  0
    2.1120   -6.2040    6.8921 C   0  0  1  0  0  0  0  0  0  0  0  0
    1.0744   -6.4779    5.5268 C   0  0  2  0  0  0  0  0  0  0  0  0
    0.0439   -5.3208    5.4391 C   0  0  0  0  0  0  0  0  0  0  0  0
    0.2108   -7.7647    5.7740 C   0  0  0  0  0  0  0  0  0  0  0  0
   -0.8536   -8.1562    4.7174 C   0  0  0  0  0  0  0  0  0  0  0  0
   -0.2937   -8.3904    3.3135 C   0  0  0  0  0  0  0  0  0  0  0  0
    0.5148   -9.7025    3.2599 C   0  0  0  0  0  0  0  0  0  0  0  0
   -1.4643   -8.5154    2.3195 C   0  0  0  0  0  0  0  0  0  0  0  0
    0.5616   -7.1618    2.9473 C   0  0  0  0  0  0  0  0  0  0  0  0
    1.6660   -6.8411    3.9850 C   0  0  1  0  0  0  0  0  0  0  0  0
    2.7494   -5.8454    3.2630 C   0  0  2  0  0  0  0  0  0  0  0  0
    3.2168   -5.7877    1.9371 O   0  0  0  0  0  0  0  0  0  0  0  0
    3.7852   -4.6005    1.4380 C   0  0  0  0  0  0  0  0  0  0  0  0
    3.8415   -4.4138    0.2226 O   0  0  0  0  0  0  0  0  0  0  0  0
    4.4407   -3.4783    2.3622 C   0  0  0  0  0  0  0  0  0  0  0  0
    4.8786   -3.5611    3.8976 C   0  0  1  0  0  0  0  0  0  0  0  0
    3.9120   -3.1184    5.1515 C   0  0  1  0  0  0  0  0  0  0  0  0
    2.6348   -3.6399    4.8087 C   0  0  1  0  0  0  0  0  0  0  0  0
    1.8757   -2.6829    3.8629 C   0  0  0  0  0  0  0  0  0  0  0  0
    2.2213   -1.2765    4.4565 C   0  0  2  0  0  0  0  0  0  0  0  0
    1.1048   -1.0097    5.5184 C   0  0  0  0  0  0  0  0  0  0  0  0
    2.1810   -0.0524    3.3970 C   0  0  0  0  0  0  0  0  0  0  0  0
    2.7125   -0.3535    1.9636 C   0  0  0  0  0  0  0  0  0  0  0  0
    0.7288    0.4311    3.0999 C   0  0  0  0  0  0  0  0  0  0  0  0
    3.0195    1.1598    3.9131 C   0  0  1  0  0  0  0  0  0  0  0  0
    2.3746    1.8828    4.9405 O   0  0  0  0  0  0  0  0  0  0  0  0
    4.4407    0.8032    4.3997 C   0  0  0  0  0  0  0  0  0  0  0  0
    4.7452   -0.6997    4.4990 C   0  0  0  0  0  0  0  0  0  0  0  0
    3.6337   -1.5354    5.1920 C   0  0  2  0  0  0  0  0  0  0  0  0
    3.6874   -1.0344    6.6615 C   0  0  0  0  0  0  0  0  0  0  0  0
    2.9520   -5.0543    4.7864 O   0  0  0  0  0  0  0  0  0  0  0  0
    4.0184   -5.7846    4.1563 C   0  0  1  0  0  0  0  0  0  0  0  0
    5.0149   -7.4774    6.3222 H   0  0  0  0  0  0  0  0  0  0  0  0
    5.3887   -8.9057    5.3785 H   0  0  0  0  0  0  0  0  0  0  0  0
    3.7321   -8.5416    5.7203 H   0  0  0  0  0  0  0  0  0  0  0  0
    4.0615   -7.9058    3.4534 H   0  0  0  0  0  0  0  0  0  0  0  0
    6.7783   -7.5388    4.1728 H   0  0  0  0  0  0  0  0  0  0  0  0
    6.0585   -7.7855    2.5987 H   0  0  0  0  0  0  0  0  0  0  0  0
    7.3137   -5.4605    3.2789 H   0  0  0  0  0  0  0  0  0  0  0  0
    6.0373   -5.5469    2.1256 H   0  0  0  0  0  0  0  0  0  0  0  0
    6.3987   -5.8921    5.8845 H   0  0  0  0  0  0  0  0  0  0  0  0
    7.2126   -4.5070    5.2828 H   0  0  0  0  0  0  0  0  0  0  0  0
    6.0491   -4.3862    7.6237 H   0  0  0  0  0  0  0  0  0  0  0  0
    6.0376   -3.0089    6.5780 H   0  0  0  0  0  0  0  0  0  0  0  0
    4.2709   -5.0257    6.4194 H   0  0  0  0  0  0  0  0  0  0  0  0
    3.3572   -5.5785    9.5862 H   0  0  0  0  0  0  0  0  0  0  0  0
    4.4466   -4.3981    9.0605 H   0  0  0  0  0  0  0  0  0  0  0  0
    4.5559   -6.0444    8.4156 H   0  0  0  0  0  0  0  0  0  0  0  0
    2.4110   -3.0797    8.7143 H   0  0  0  0  0  0  0  0  0  0  0  0
    1.2334   -3.4079    7.5147 H   0  0  0  0  0  0  0  0  0  0  0  0
    1.5298   -4.7018   10.1860 H   0  0  0  0  0  0  0  0  0  0  0  0
   -0.5017   -4.0327   10.3530 H   0  0  0  0  0  0  0  0  0  0  0  0
    0.0487   -6.4714    9.7171 H   0  0  0  0  0  0  0  0  0  0  0  0
   -0.4092   -5.8494    8.1585 H   0  0  0  0  0  0  0  0  0  0  0  0
    2.2619   -7.1256    8.9009 H   0  0  0  0  0  0  0  0  0  0  0  0
    1.1197   -7.8639    8.0322 H   0  0  0  0  0  0  0  0  0  0  0  0
    2.9172   -6.8792    6.6830 H   0  0  0  0  0  0  0  0  0  0  0  0
    0.1016   -4.8023    4.4860 H   0  0  0  0  0  0  0  0  0  0  0  0
    0.1453   -4.5832    6.2225 H   0  0  0  0  0  0  0  0  0  0  0  0
   -0.9880   -5.6406    5.5430 H   0  0  0  0  0  0  0  0  0  0  0  0
    0.8566   -8.6202    5.9441 H   0  0  0  0  0  0  0  0  0  0  0  0
   -0.3718   -7.6411    6.6735 H   0  0  0  0  0  0  0  0  0  0  0  0
   -1.3604   -9.0546    5.0573 H   0  0  0  0  0  0  0  0  0  0  0  0
   -1.6456   -7.4094    4.6588 H   0  0  0  0  0  0  0  0  0  0  0  0
    1.0377   -9.8073    2.3079 H   0  0  0  0  0  0  0  0  0  0  0  0
   -0.1345  -10.5737    3.3801 H   0  0  0  0  0  0  0  0  0  0  0  0
    1.2624   -9.7689    4.0519 H   0  0  0  0  0  0  0  0  0  0  0  0
   -1.1016   -8.6547    1.3004 H   0  0  0  0  0  0  0  0  0  0  0  0
   -2.0926   -7.6255    2.3218 H   0  0  0  0  0  0  0  0  0  0  0  0
   -2.1067   -9.3665    2.5605 H   0  0  0  0  0  0  0  0  0  0  0  0
    1.0126   -7.3310    1.9685 H   0  0  0  0  0  0  0  0  0  0  0  0
   -0.0891   -6.3025    2.8247 H   0  0  0  0  0  0  0  0  0  0  0  0
    2.1560   -7.7903    4.1328 H   0  0  0  0  0  0  0  0  0  0  0  0
    2.0994   -4.9856    3.0554 H   0  0  0  0  0  0  0  0  0  0  0  0
    5.3889   -3.3244    1.8495 H   0  0  0  0  0  0  0  0  0  0  0  0
    3.9467   -2.5426    2.1648 H   0  0  0  0  0  0  0  0  0  0  0  0
    5.7884   -2.9733    3.9671 H   0  0  0  0  0  0  0  0  0  0  0  0
    1.9782   -3.5460    5.6468 H   0  0  0  0  0  0  0  0  0  0  0  0
    2.1118   -2.7988    2.8210 H   0  0  0  0  0  0  0  0  0  0  0  0
    0.8034   -2.8657    3.8818 H   0  0  0  0  0  0  0  0  0  0  0  0
    1.1896   -0.0315    5.9854 H   0  0  0  0  0  0  0  0  0  0  0  0
    1.0994   -1.7195    6.3319 H   0  0  0  0  0  0  0  0  0  0  0  0
    0.1033   -1.0776    5.0944 H   0  0  0  0  0  0  0  0  0  0  0  0
    2.5216    0.4927    1.3012 H   0  0  0  0  0  0  0  0  0  0  0  0
    2.2134   -1.1920    1.4819 H   0  0  0  0  0  0  0  0  0  0  0  0
    3.7851   -0.4903    1.8944 H   0  0  0  0  0  0  0  0  0  0  0  0
    0.7124    1.2191    2.3441 H   0  0  0  0  0  0  0  0  0  0  0  0
    0.2179    0.8567    3.9631 H   0  0  0  0  0  0  0  0  0  0  0  0
    0.1146   -0.3862    2.7214 H   0  0  0  0  0  0  0  0  0  0  0  0
    3.1190    1.8873    3.1054 H   0  0  0  0  0  0  0  0  0  0  0  0
    1.6084    2.3009    4.5707 H   0  0  0  0  0  0  0  0  0  0  0  0
    5.1505    1.2239    3.6942 H   0  0  0  0  0  0  0  0  0  0  0  0
    4.6581    1.3033    5.3439 H   0  0  0  0  0  0  0  0  0  0  0  0
    4.9412   -1.0480    3.4945 H   0  0  0  0  0  0  0  0  0  0  0  0
    5.6976   -0.8265    5.0139 H   0  0  0  0  0  0  0  0  0  0  0  0
    3.4111    0.0147    6.7488 H   0  0  0  0  0  0  0  0  0  0  0  0
    4.6924   -1.1249    7.0758 H   0  0  0  0  0  0  0  0  0  0  0  0
    3.0309   -1.5788    7.3257 H   0  0  0  0  0  0  0  0  0  0  0  0
  1  2  1  0
  1 48  1  0
  1 49  1  0
  1 50  1  0
  2 47  1  0
  2  3  1  0
  2 51  1  6
  3  4  1  0
  3 52  1  0
  3 53  1  0
  5  4  1  6
  4 54  1  0
  4 55  1  0
  5 31  1  0
  5 47  1  0
  5  6  1  0
  6  7  1  0
  6 56  1  0
  6 57  1  0
  7  8  1  0
  7 58  1  0
  7 59  1  0
  8 32  1  0
  8  9  1  0
  8 60  1  1
  9 16  1  0
  9 10  1  1
  9 11  1  0
 10 61  1  0
 10 62  1  0
 10 63  1  0
 11 12  1  0
 11 64  1  0
 11 65  1  0
 12 13  1  0
 12 14  1  0
 12 66  1  1
 13 67  1  0
 14 15  1  0
 14 68  1  0
 14 69  1  0
 15 16  1  0
 15 70  1  0
 15 71  1  0
 16 17  1  0
 16 72  1  6
 17 25  1  0
 17 18  1  6
 17 19  1  0
 18 73  1  0
 18 74  1  0
 18 75  1  0
 19 20  1  0
 19 76  1  0
 19 77  1  0
 20 21  1  0
 20 78  1  0
 20 79  1  0
 21 22  1  0
 21 23  1  0
 21 24  1  0
 22 80  1  0
 22 81  1  0
 22 82  1  0
 23 83  1  0
 23 84  1  0
 23 85  1  0
 24 25  1  0
 24 86  1  0
 24 87  1  0
 25 26  1  0
 25 88  1  1
 26 47  1  0
 26 27  1  0
 26 89  1  1
 27 28  1  0
 28 29  2  0
 28 30  1  0
 30 31  1  0
 30 90  1  0
 30 91  1  0
 31 32  1  0
 31 92  1  6
 32 44  1  1
 32 33  1  0
 33 34  1  0
 33 46  1  0
 33 93  1  1
 34 35  1  0
 34 94  1  0
 34 95  1  0
 35 44  1  0
 35 36  1  1
 35 37  1  0
 36 96  1  0
 36 97  1  0
 36 98  1  0
 37 38  1  0
 37 39  1  0
 37 40  1  0
 38 99  1  0
 38100  1  0
 38101  1  0
 39102  1  0
 39103  1  0
 39104  1  0
 40 41  1  0
 40 42  1  0
 40105  1  6
 41106  1  0
 42 43  1  0
 42107  1  0
 42108  1  0
 43 44  1  0
 43109  1  0
 43110  1  0
 44 45  1  1
 45111  1  0
 45112  1  0
 45113  1  0
 47 46  1  1
M  END
>  <i_m_ct_stereo_status>  (229) 
1

>  <s_m_source_file>  (229) 
/var/tmp/pbs.5076255.sched01/tmp548j1hfo/88g9dmtei7.sdf

>  <i_m_source_file_index>  (229) 
11

>  <i_lp_mmshare_version>  (229) 
48012

>  <i_f3d_flags>  (229) 
0

>  <s_epik_input>  (229) 
W0NIMl0xW0NIMl1bQ0BASF0oW0NIM10pW0NAQF0yKFtDQF0xMzQpW0NAQEhdNVtDQEhdNltDQEBdKFtDSDNdKShbQ0gyXVtDSDJdQyhbQ0gzXSkoW0NIM10pW0NIMl02KVtDQEhdN1tDQF0oW0NIM10pKFtDSDJdW0NAQEhdKFtPSF0pW0NIMl1bQ0gyXTcpW0NASF0oW0NIMl1bQ0gyXTMpW0NAQF04KFtDQEBIXTRbQ0gyXUMoTzUpPU8pW0NASF0oTzIpW0NIMl1bQ0BAXTkoW0NIM10pW0NAXTgoW0NIM10pW0NIMl1bQ0gyXVtDQEhdKFtPSF0pQzkoW0NIM10pW0NIM10=

>  <s_epik_cmdline>  (229) 
J2VwaWtfcHl0aG9uJywgJy1waHQnLCAnMi4wJywgJy1waCcsICc3LjAnLCAnLXRuJywgJzgnLCAnLW1hJywgJzIwMCcsICctaW1hZScsICc8aW5maWxlLm1hZT4nLCAnLW9tYWUnLCAnPG91dGZpbGUubWFlPic=

>  <r_lp_tautomer_probability>  (229) 
1

>  <r_epik_Ionization_Penalty>  (229) 
3.99222e-06

>  <r_epik_Ionization_Penalty_Charging>  (229) 
0

>  <r_epik_Ionization_Penalty_Neutral>  (229) 
3.99222e-06

>  <r_epik_State_Penalty>  (229) 
-0

>  <r_epik_Charging_Adjusted_Penalty>  (229) 
0

>  <i_epik_Tot_Q>  (229) 
0

>  <i_epik_Tot_abs_Q>  (229) 
0

>  <s_epik_Chemistry_Notes>  (229) 
This compound has an ester and may undergo hydrolysis at high or low pH.

>  <s_lp_Force_Field>  (229) 
OPLS3e

>  <r_lp_Energy>  (229) 
419.296

>  <b_lp_Chiralities_Consistent>  (229) 
1

>  <s_lp_Variant>  (229) 
62:0-1

>  <s_i_glide_gridfile>  (229) 
pfpi4k_grid

>  <i_i_glide_lignum>  (229) 
11

>  <i_i_glide_rotatable_bonds>  (229) 
2

>  <r_i_docking_score>  (229) 
-1.98285

>  <r_i_glide_ligand_efficiency>  (229) 
-0.0421884

>  <r_i_glide_ligand_efficiency_sa>  (229) 
-0.15225

>  <r_i_glide_ligand_efficiency_ln>  (229) 
-0.408823

>  <r_i_glide_gscore>  (229) 
-1.98285

>  <r_i_glide_lipo>  (229) 
-0.237358

>  <r_i_glide_hbond>  (229) 
0

>  <r_i_glide_metal>  (229) 
-0

>  <r_i_glide_rewards>  (229) 
-0.0168229

>  <r_i_glide_evdw>  (229) 
-32.1085

>  <r_i_glide_ecoul>  (229) 
-0.821664

>  <r_i_glide_erotb>  (229) 
0

>  <r_i_glide_esite>  (229) 
0

>  <r_i_glide_emodel>  (229) 
-36.2189

>  <r_i_glide_energy>  (229) 
-32.9301

>  <r_i_glide_einternal>  (229) 
0.794774

>  <r_i_glide_intrahb_reward>  (229) 
-0

>  <i_i_glide_confnum>  (229) 
1

>  <i_i_glide_posenum>  (229) 
15

>  <r_i_glide_eff_state_penalty>  (229) 
0

>  <ligand_id>  (229) 
62

>  <original_smiles>  (229) 
CC1CCC23CCC4C5(C)CC(O)CCC5C5(C)CCC(C)(C)CC5C5OC(=O)CC2C42C(CC4(C)C(C)(C)C(O)CCC24C)OC153

>  <smiles>  (229) 
[H]OC1([H])C([H])([H])C([H])([H])C2([H])C3(C([H])([H])[H])C([H])([H])C([H])([H])C(C([H])([H])[H])(C([H])([H])[H])C([H])([H])C3([H])C3([H])OC(=O)C([H])([H])C4([H])C56C([H])([H])C([H])([H])C([H])(C([H])([H])[H])C35OC3([H])C([H])([H])C5(C([H])([H])[H])C(C([H])([H])[H])(C([H])([H])[H])C([H])(O[H])C([H])([H])C([H])([H])C5(C([H])([H])[H])C34C([H])(C([H])([H])C6([H])[H])C2(C([H])([H])[H])C1([H])[H]

$$$$
62:0:2
     RDKit          3D

113121  0  0  1  0  0  0  0  0999 V2000
    4.7180   -8.0666    5.4993 C   0  0  0  0  0  0  0  0  0  0  0  0
    4.5996   -7.2555    4.1922 C   0  0  2  0  0  0  0  0  0  0  0  0
    5.9901   -7.1599    3.5111 C   0  0  0  0  0  0  0  0  0  0  0  0
    6.2475   -5.6897    3.1854 C   0  0  0  0  0  0  0  0  0  0  0  0
    5.3476   -4.9375    4.1933 C   0  0  1  0  0  0  0  0  0  0  0  0
    6.2466   -4.8835    5.5128 C   0  0  0  0  0  0  0  0  0  0  0  0
    5.7029   -4.0230    6.7017 C   0  0  0  0  0  0  0  0  0  0  0  0
    4.1647   -3.9685    6.6278 C   0  0  1  0  0  0  0  0  0  0  0  0
    3.0146   -4.8137    7.5490 C   0  0  1  0  0  0  0  0  0  0  0  0
    3.9497   -5.2513    8.7415 C   0  0  0  0  0  0  0  0  0  0  0  0
    1.9798   -3.9007    8.2952 C   0  0  0  0  0  0  0  0  0  0  0  0
    1.0827   -4.6005    9.3517 C   0  0  1  0  0  0  0  0  0  0  0  0
   -0.0030   -3.7484    9.6634 O   0  0  0  0  0  0  0  0  0  0  0  0
    0.5222   -5.9711    8.9353 C   0  0  0  0  0  0  0  0  0  0  0  0
    1.5752   -6.8632    8.2599 C   0  0  0  0  0  0  0  0  0  0  0  0
    2.1655   -6.2025    6.9679 C   0  0  1  0  0  0  0  0  0  0  0  0
    1.1016   -6.4725    5.6198 C   0  0  2  0  0  0  0  0  0  0  0  0
    0.0636   -5.3152    5.5520 C   0  0  0  0  0  0  0  0  0  0  0  0
    0.2401   -7.7614    5.8778 C   0  0  0  0  0  0  0  0  0  0  0  0
   -0.8317   -8.1456    4.8330 C   0  0  0  0  0  0  0  0  0  0  0  0
   -0.2984   -8.3783    3.4207 C   0  0  0  0  0  0  0  0  0  0  0  0
    0.5154   -9.6900    3.3441 C   0  0  0  0  0  0  0  0  0  0  0  0
   -1.4858   -8.5006    2.4452 C   0  0  0  0  0  0  0  0  0  0  0  0
    0.5491   -7.1462    3.0469 C   0  0  0  0  0  0  0  0  0  0  0  0
    1.6709   -6.8286    4.0669 C   0  0  1  0  0  0  0  0  0  0  0  0
    2.7421   -5.8279    3.3299 C   0  0  2  0  0  0  0  0  0  0  0  0
    3.1862   -5.7661    1.9985 O   0  0  0  0  0  0  0  0  0  0  0  0
    3.7451   -4.5715    1.4951 C   0  0  0  0  0  0  0  0  0  0  0  0
    3.7717   -4.3788    0.2838 O   0  0  0  0  0  0  0  0  0  0  0  0
    4.4183   -3.4522    2.4133 C   0  0  0  0  0  0  0  0  0  0  0  0
    4.8807   -3.5458    3.9396 C   0  0  1  0  0  0  0  0  0  0  0  0
    3.9370   -3.1071    5.2139 C   0  0  1  0  0  0  0  0  0  0  0  0
    2.6529   -3.6289    4.8914 C   0  0  1  0  0  0  0  0  0  0  0  0
    1.8770   -2.6685    3.9612 C   0  0  0  0  0  0  0  0  0  0  0  0
    2.2315   -1.2653    4.5554 C   0  0  2  0  0  0  0  0  0  0  0  0
    1.1320   -1.0042    5.6374 C   0  0  0  0  0  0  0  0  0  0  0  0
    2.1714   -0.0363    3.5018 C   0  0  0  0  0  0  0  0  0  0  0  0
    2.6806   -0.3292    2.0583 C   0  0  0  0  0  0  0  0  0  0  0  0
    0.7130    0.4476    3.2319 C   0  0  0  0  0  0  0  0  0  0  0  0
    3.0185    1.1745    4.0100 C   0  0  1  0  0  0  0  0  0  0  0  0
    2.3888    1.8932    5.0505 O   0  0  0  0  0  0  0  0  0  0  0  0
    4.4480    0.8212    4.4722 C   0  0  0  0  0  0  0  0  0  0  0  0
    4.7555   -0.6826    4.5584 C   0  0  0  0  0  0  0  0  0  0  0  0
    3.6568   -1.5250    5.2656 C   0  0  2  0  0  0  0  0  0  0  0  0
    3.7341   -1.0312    6.7371 C   0  0  0  0  0  0  0  0  0  0  0  0
    2.9684   -5.0425    4.8556 O   0  0  0  0  0  0  0  0  0  0  0  0
    4.0250   -5.7710    4.2035 C   0  0  1  0  0  0  0  0  0  0  0  0
    5.0609   -7.4714    6.3447 H   0  0  0  0  0  0  0  0  0  0  0  0
    5.4210   -8.8954    5.3879 H   0  0  0  0  0  0  0  0  0  0  0  0
    3.7688   -8.5345    5.7594 H   0  0  0  0  0  0  0  0  0  0  0  0
    4.0589   -7.8878    3.4904 H   0  0  0  0  0  0  0  0  0  0  0  0
    6.7865   -7.5219    4.1653 H   0  0  0  0  0  0  0  0  0  0  0  0
    6.0412   -7.7633    2.6016 H   0  0  0  0  0  0  0  0  0  0  0  0
    7.3098   -5.4571    3.2750 H   0  0  0  0  0  0  0  0  0  0  0  0
    6.0119   -5.5210    2.1401 H   0  0  0  0  0  0  0  0  0  0  0  0
    6.4346   -5.8840    5.8928 H   0  0  0  0  0  0  0  0  0  0  0  0
    7.2403   -4.4947    5.2830 H   0  0  0  0  0  0  0  0  0  0  0  0
    6.1129   -4.3836    7.6431 H   0  0  0  0  0  0  0  0  0  0  0  0
    6.0832   -3.0042    6.6048 H   0  0  0  0  0  0  0  0  0  0  0  0
    4.3146   -5.0213    6.4676 H   0  0  0  0  0  0  0  0  0  0  0  0
    3.4544   -5.5907    9.6461 H   0  0  0  0  0  0  0  0  0  0  0  0
    4.5360   -4.4060    9.1065 H   0  0  0  0  0  0  0  0  0  0  0  0
    4.6363   -6.0508    8.4516 H   0  0  0  0  0  0  0  0  0  0  0  0
    2.4998   -3.0884    8.7988 H   0  0  0  0  0  0  0  0  0  0  0  0
    1.3014   -3.4123    7.6182 H   0  0  0  0  0  0  0  0  0  0  0  0
    1.6333   -4.7297   10.2819 H   0  0  0  0  0  0  0  0  0  0  0  0
    0.3193   -3.0403   10.2017 H   0  0  0  0  0  0  0  0  0  0  0  0
    0.1496   -6.4806    9.8244 H   0  0  0  0  0  0  0  0  0  0  0  0
   -0.3363   -5.8521    8.2768 H   0  0  0  0  0  0  0  0  0  0  0  0
    2.3501   -7.1327    8.9700 H   0  0  0  0  0  0  0  0  0  0  0  0
    1.1966   -7.8712    8.1190 H   0  0  0  0  0  0  0  0  0  0  0  0
    2.9659   -6.8776    6.7411 H   0  0  0  0  0  0  0  0  0  0  0  0
    0.1132   -4.7932    4.6011 H   0  0  0  0  0  0  0  0  0  0  0  0
    0.1841   -4.5818    6.3373 H   0  0  0  0  0  0  0  0  0  0  0  0
   -0.9695   -5.6346    5.6674 H   0  0  0  0  0  0  0  0  0  0  0  0
    0.8942   -8.6158    6.0324 H   0  0  0  0  0  0  0  0  0  0  0  0
   -0.3204   -7.6454    6.7934 H   0  0  0  0  0  0  0  0  0  0  0  0
   -1.3335   -9.0494    5.1786 H   0  0  0  0  0  0  0  0  0  0  0  0
   -1.6340   -7.4156    4.7970 H   0  0  0  0  0  0  0  0  0  0  0  0
    1.0226   -9.7860    2.3808 H   0  0  0  0  0  0  0  0  0  0  0  0
   -0.1330  -10.5606    3.4704 H   0  0  0  0  0  0  0  0  0  0  0  0
    1.2743   -9.7556    4.1255 H   0  0  0  0  0  0  0  0  0  0  0  0
   -1.1373   -8.6488    1.4213 H   0  0  0  0  0  0  0  0  0  0  0  0
   -2.1111   -7.6073    2.4569 H   0  0  0  0  0  0  0  0  0  0  0  0
   -2.1251   -9.3492    2.6979 H   0  0  0  0  0  0  0  0  0  0  0  0
    0.9854   -7.3079    2.0598 H   0  0  0  0  0  0  0  0  0  0  0  0
   -0.1057   -6.2840    2.9400 H   0  0  0  0  0  0  0  0  0  0  0  0
    2.1651   -7.7791    4.2035 H   0  0  0  0  0  0  0  0  0  0  0  0
    2.0877   -4.9675    3.1378 H   0  0  0  0  0  0  0  0  0  0  0  0
    5.3567   -3.2981    1.8855 H   0  0  0  0  0  0  0  0  0  0  0  0
    3.9185   -2.5167    2.2288 H   0  0  0  0  0  0  0  0  0  0  0  0
    5.7921   -2.9551    3.9985 H   0  0  0  0  0  0  0  0  0  0  0  0
    2.0075   -3.5415    5.7382 H   0  0  0  0  0  0  0  0  0  0  0  0
    2.0962   -2.7791    2.9141 H   0  0  0  0  0  0  0  0  0  0  0  0
    0.8048   -2.8523    3.9961 H   0  0  0  0  0  0  0  0  0  0  0  0
    1.2236   -0.0276    6.1077 H   0  0  0  0  0  0  0  0  0  0  0  0
    1.1412   -1.7184    6.4470 H   0  0  0  0  0  0  0  0  0  0  0  0
    0.1239   -1.0708    5.2292 H   0  0  0  0  0  0  0  0  0  0  0  0
    2.4774    0.5202    1.4037 H   0  0  0  0  0  0  0  0  0  0  0  0
    2.1750   -1.1665    1.5820 H   0  0  0  0  0  0  0  0  0  0  0  0
    3.7529   -0.4643    1.9719 H   0  0  0  0  0  0  0  0  0  0  0  0
    0.6850    1.2392    2.4807 H   0  0  0  0  0  0  0  0  0  0  0  0
    0.2179    0.8690    4.1063 H   0  0  0  0  0  0  0  0  0  0  0  0
    0.0936   -0.3689    2.8611 H   0  0  0  0  0  0  0  0  0  0  0  0
    3.1040    1.9069    3.2063 H   0  0  0  0  0  0  0  0  0  0  0  0
    1.6167    2.3103    4.6977 H   0  0  0  0  0  0  0  0  0  0  0  0
    5.1461    1.2481    3.7588 H   0  0  0  0  0  0  0  0  0  0  0  0
    4.6802    1.3146    5.4166 H   0  0  0  0  0  0  0  0  0  0  0  0
    4.9345   -1.0280    3.5487 H   0  0  0  0  0  0  0  0  0  0  0  0
    5.7161   -0.8136    5.0565 H   0  0  0  0  0  0  0  0  0  0  0  0
    3.4579    0.0178    6.8332 H   0  0  0  0  0  0  0  0  0  0  0  0
    4.7460   -1.1229    7.1336 H   0  0  0  0  0  0  0  0  0  0  0  0
    3.0883   -1.5799    7.4092 H   0  0  0  0  0  0  0  0  0  0  0  0
  1  2  1  0
  1 48  1  0
  1 49  1  0
  1 50  1  0
  2 47  1  0
  2  3  1  0
  2 51  1  6
  3  4  1  0
  3 52  1  0
  3 53  1  0
  5  4  1  6
  4 54  1  0
  4 55  1  0
  5 31  1  0
  5 47  1  0
  5  6  1  0
  6  7  1  0
  6 56  1  0
  6 57  1  0
  7  8  1  0
  7 58  1  0
  7 59  1  0
  8 32  1  0
  8  9  1  0
  8 60  1  1
  9 16  1  0
  9 10  1  1
  9 11  1  0
 10 61  1  0
 10 62  1  0
 10 63  1  0
 11 12  1  0
 11 64  1  0
 11 65  1  0
 12 13  1  0
 12 14  1  0
 12 66  1  1
 13 67  1  0
 14 15  1  0
 14 68  1  0
 14 69  1  0
 15 16  1  0
 15 70  1  0
 15 71  1  0
 16 17  1  0
 16 72  1  6
 17 25  1  0
 17 18  1  6
 17 19  1  0
 18 73  1  0
 18 74  1  0
 18 75  1  0
 19 20  1  0
 19 76  1  0
 19 77  1  0
 20 21  1  0
 20 78  1  0
 20 79  1  0
 21 22  1  0
 21 23  1  0
 21 24  1  0
 22 80  1  0
 22 81  1  0
 22 82  1  0
 23 83  1  0
 23 84  1  0
 23 85  1  0
 24 25  1  0
 24 86  1  0
 24 87  1  0
 25 26  1  0
 25 88  1  1
 26 47  1  0
 26 27  1  0
 26 89  1  1
 27 28  1  0
 28 29  2  0
 28 30  1  0
 30 31  1  0
 30 90  1  0
 30 91  1  0
 31 32  1  0
 31 92  1  6
 32 44  1  1
 32 33  1  0
 33 34  1  0
 33 46  1  0
 33 93  1  1
 34 35  1  0
 34 94  1  0
 34 95  1  0
 35 44  1  0
 35 36  1  1
 35 37  1  0
 36 96  1  0
 36 97  1  0
 36 98  1  0
 37 38  1  0
 37 39  1  0
 37 40  1  0
 38 99  1  0
 38100  1  0
 38101  1  0
 39102  1  0
 39103  1  0
 39104  1  0
 40 41  1  0
 40 42  1  0
 40105  1  6
 41106  1  0
 42 43  1  0
 42107  1  0
 42108  1  0
 43 44  1  0
 43109  1  0
 43110  1  0
 44 45  1  1
 45111  1  0
 45112  1  0
 45113  1  0
 47 46  1  1
M  END
>  <i_m_ct_stereo_status>  (230) 
1

>  <s_m_source_file>  (230) 
/var/tmp/pbs.5076255.sched01/tmp548j1hfo/88g9dmtei7.sdf

>  <i_m_source_file_index>  (230) 
11

>  <i_lp_mmshare_version>  (230) 
48012

>  <i_f3d_flags>  (230) 
0

>  <s_epik_input>  (230) 
W0NIMl0xW0NIMl1bQ0BASF0oW0NIM10pW0NAQF0yKFtDQF0xMzQpW0NAQEhdNVtDQEhdNltDQEBdKFtDSDNdKShbQ0gyXVtDSDJdQyhbQ0gzXSkoW0NIM10pW0NIMl02KVtDQEhdN1tDQF0oW0NIM10pKFtDSDJdW0NAQEhdKFtPSF0pW0NIMl1bQ0gyXTcpW0NASF0oW0NIMl1bQ0gyXTMpW0NAQF04KFtDQEBIXTRbQ0gyXUMoTzUpPU8pW0NASF0oTzIpW0NIMl1bQ0BAXTkoW0NIM10pW0NAXTgoW0NIM10pW0NIMl1bQ0gyXVtDQEhdKFtPSF0pQzkoW0NIM10pW0NIM10=

>  <s_epik_cmdline>  (230) 
J2VwaWtfcHl0aG9uJywgJy1waHQnLCAnMi4wJywgJy1waCcsICc3LjAnLCAnLXRuJywgJzgnLCAnLW1hJywgJzIwMCcsICctaW1hZScsICc8aW5maWxlLm1hZT4nLCAnLW9tYWUnLCAnPG91dGZpbGUubWFlPic=

>  <r_lp_tautomer_probability>  (230) 
1

>  <r_epik_Ionization_Penalty>  (230) 
3.99222e-06

>  <r_epik_Ionization_Penalty_Charging>  (230) 
0

>  <r_epik_Ionization_Penalty_Neutral>  (230) 
3.99222e-06

>  <r_epik_State_Penalty>  (230) 
-0

>  <r_epik_Charging_Adjusted_Penalty>  (230) 
0

>  <i_epik_Tot_Q>  (230) 
0

>  <i_epik_Tot_abs_Q>  (230) 
0

>  <s_epik_Chemistry_Notes>  (230) 
This compound has an ester and may undergo hydrolysis at high or low pH.

>  <s_lp_Force_Field>  (230) 
OPLS3e

>  <r_lp_Energy>  (230) 
419.296

>  <b_lp_Chiralities_Consistent>  (230) 
1

>  <s_lp_Variant>  (230) 
62:0-1

>  <s_i_glide_gridfile>  (230) 
pfpi4k_grid

>  <i_i_glide_lignum>  (230) 
11

>  <i_i_glide_rotatable_bonds>  (230) 
2

>  <r_i_docking_score>  (230) 
-1.95126

>  <r_i_glide_ligand_efficiency>  (230) 
-0.0415163

>  <r_i_glide_ligand_efficiency_sa>  (230) 
-0.149825

>  <r_i_glide_ligand_efficiency_ln>  (230) 
-0.40231

>  <r_i_glide_gscore>  (230) 
-1.95126

>  <r_i_glide_lipo>  (230) 
-0.226586

>  <r_i_glide_hbond>  (230) 
0

>  <r_i_glide_metal>  (230) 
-0

>  <r_i_glide_rewards>  (230) 
-0.0147296

>  <r_i_glide_evdw>  (230) 
-31.91

>  <r_i_glide_ecoul>  (230) 
-0.762975

>  <r_i_glide_erotb>  (230) 
0

>  <r_i_glide_esite>  (230) 
0

>  <r_i_glide_emodel>  (230) 
-35.8905

>  <r_i_glide_energy>  (230) 
-32.673

>  <r_i_glide_einternal>  (230) 
0.872806

>  <r_i_glide_intrahb_reward>  (230) 
-0

>  <i_i_glide_confnum>  (230) 
1

>  <i_i_glide_posenum>  (230) 
11

>  <r_i_glide_eff_state_penalty>  (230) 
0

>  <ligand_id>  (230) 
62

>  <original_smiles>  (230) 
CC1CCC23CCC4C5(C)CC(O)CCC5C5(C)CCC(C)(C)CC5C5OC(=O)CC2C42C(CC4(C)C(C)(C)C(O)CCC24C)OC153

>  <smiles>  (230) 
[H]OC1([H])C([H])([H])C([H])([H])C2([H])C3(C([H])([H])[H])C([H])([H])C([H])([H])C(C([H])([H])[H])(C([H])([H])[H])C([H])([H])C3([H])C3([H])OC(=O)C([H])([H])C4([H])C56C([H])([H])C([H])([H])C([H])(C([H])([H])[H])C35OC3([H])C([H])([H])C5(C([H])([H])[H])C(C([H])([H])[H])(C([H])([H])[H])C([H])(O[H])C([H])([H])C([H])([H])C5(C([H])([H])[H])C34C([H])(C([H])([H])C6([H])[H])C2(C([H])([H])[H])C1([H])[H]

$$$$
63:0:0
     RDKit          3D

 64 69  0  0  1  0  0  0  0  0999 V2000
    8.8051   -3.7147    0.8774 C   0  0  0  0  0  0  0  0  0  0  0  0
    7.7796   -4.7207    1.3474 C   0  0  0  0  0  0  0  0  0  0  0  0
    6.4095   -4.6649    1.5371 C   0  0  0  0  0  0  0  0  0  0  0  0
    5.6591   -5.9174    1.8962 C   0  0  2  0  0  0  0  0  0  0  0  0
    4.9929   -6.3314    0.5775 C   0  0  0  0  0  0  0  0  0  0  0  0
    3.8278   -5.3253    0.5483 C   0  0  2  0  0  0  0  0  0  0  0  0
    3.6063   -4.1451   -0.3677 C   0  0  1  0  0  0  0  0  0  0  0  0
    2.2898   -3.7053    0.3159 C   0  0  0  0  0  0  0  0  0  0  0  0
    2.6519   -3.7363    1.8093 C   0  0  1  0  0  0  0  0  0  0  0  0
    1.6330   -4.2991    2.8081 C   0  0  1  0  0  0  0  0  0  0  0  0
    1.2271   -5.6320    2.5127 O   0  0  0  0  0  0  0  0  0  0  0  0
    2.0519   -4.1327    4.2887 C   0  0  0  0  0  0  0  0  0  0  0  0
    3.1460   -5.0692    4.8669 C   0  0  0  0  0  0  0  0  0  0  0  0
    4.5472   -5.0442    4.2054 C   0  0  1  0  0  0  0  0  0  0  0  0
    5.4107   -5.8941    4.9206 O   0  0  0  0  0  0  0  0  0  0  0  0
    4.4462   -5.5198    2.7551 C   0  0  1  0  0  0  0  0  0  0  0  0
    4.0361   -4.4217    1.7819 C   0  0  1  0  0  0  0  0  0  0  0  0
    5.3236   -3.5198    1.3616 C   0  0  1  0  0  0  0  0  0  0  0  0
    5.7746   -2.3239    2.3127 N   0  0  0  0  0  0  0  0  0  0  0  0
    4.7752   -1.7235    3.2890 C   0  0  0  0  0  0  0  0  0  0  0  0
    6.5690   -1.1492    1.8554 C   0  0  0  0  0  0  0  0  0  0  0  0
    4.8291   -3.1695   -0.1546 C   0  0  1  0  0  0  0  0  0  0  0  0
    5.9170   -3.4151   -1.2418 C   0  0  1  0  0  0  0  0  0  0  0  0
    5.3974   -3.7381   -2.5173 O   0  0  0  0  0  0  0  0  0  0  0  0
    6.6137   -2.0519   -1.4401 C   0  0  0  0  0  0  0  0  0  0  0  0
    5.6022   -0.9463   -1.0951 C   0  0  0  0  0  0  0  0  0  0  0  0
    4.4245   -1.6627   -0.4014 C   0  0  1  0  0  0  0  0  0  0  0  0
    3.4487   -1.4910   -1.3713 O   0  0  0  0  0  0  0  0  0  0  0  0
    9.2134   -3.9833   -0.1067 H   0  0  0  0  0  0  0  0  0  0  0  0
    9.5988   -3.5648    1.6206 H   0  0  0  0  0  0  0  0  0  0  0  0
    8.3347   -2.7921    0.7687 H   0  0  0  0  0  0  0  0  0  0  0  0
    8.2181   -5.7020    1.5449 H   0  0  0  0  0  0  0  0  0  0  0  0
    6.2840   -6.6969    2.3216 H   0  0  0  0  0  0  0  0  0  0  0  0
    5.6305   -6.2878   -0.3075 H   0  0  0  0  0  0  0  0  0  0  0  0
    4.5935   -7.3462    0.6685 H   0  0  0  0  0  0  0  0  0  0  0  0
    2.9366   -5.9531    0.5691 H   0  0  0  0  0  0  0  0  0  0  0  0
    3.3684   -4.3788   -1.3929 H   0  0  0  0  0  0  0  0  0  0  0  0
    1.9188   -2.7197    0.0559 H   0  0  0  0  0  0  0  0  0  0  0  0
    1.5032   -4.4157    0.0123 H   0  0  0  0  0  0  0  0  0  0  0  0
    2.6633   -2.6902    1.9868 H   0  0  0  0  0  0  0  0  0  0  0  0
    0.7554   -3.6736    2.6978 H   0  0  0  0  0  0  0  0  0  0  0  0
    1.9734   -6.1864    2.6444 H   0  0  0  0  0  0  0  0  0  0  0  0
    2.3137   -3.0905    4.4744 H   0  0  0  0  0  0  0  0  0  0  0  0
    1.1508   -4.2995    4.8768 H   0  0  0  0  0  0  0  0  0  0  0  0
    3.2631   -4.8059    5.9178 H   0  0  0  0  0  0  0  0  0  0  0  0
    2.7638   -6.0927    4.8680 H   0  0  0  0  0  0  0  0  0  0  0  0
    5.0131   -4.0843    4.2944 H   0  0  0  0  0  0  0  0  0  0  0  0
    5.0876   -6.7712    4.8777 H   0  0  0  0  0  0  0  0  0  0  0  0
    3.7546   -6.3569    2.7436 H   0  0  0  0  0  0  0  0  0  0  0  0
    5.0302   -0.6602    3.4520 H   0  0  0  0  0  0  0  0  0  0  0  0
    4.8523   -2.1141    4.3194 H   0  0  0  0  0  0  0  0  0  0  0  0
    3.7443   -1.5836    2.9602 H   0  0  0  0  0  0  0  0  0  0  0  0
    5.8678   -0.4331    1.4487 H   0  0  0  0  0  0  0  0  0  0  0  0
    7.4365   -1.2369    1.2127 H   0  0  0  0  0  0  0  0  0  0  0  0
    6.9669   -0.6724    2.7601 H   0  0  0  0  0  0  0  0  0  0  0  0
    6.6158   -4.2198   -1.0103 H   0  0  0  0  0  0  0  0  0  0  0  0
    4.7974   -4.4664   -2.4319 H   0  0  0  0  0  0  0  0  0  0  0  0
    7.4365   -1.9721   -0.7487 H   0  0  0  0  0  0  0  0  0  0  0  0
    7.0817   -1.9323   -2.4344 H   0  0  0  0  0  0  0  0  0  0  0  0
    6.0945   -0.1971   -0.4881 H   0  0  0  0  0  0  0  0  0  0  0  0
    5.2756   -0.4192   -1.9973 H   0  0  0  0  0  0  0  0  0  0  0  0
    4.0539   -1.2106    0.5166 H   0  0  0  0  0  0  0  0  0  0  0  0
    2.5382   -1.4479   -0.9628 H   0  0  0  0  0  0  0  0  0  0  0  0
    6.4069   -2.8665    2.9287 H   0  0  0  0  0  0  0  0  0  0  0  0
  1  2  1  0
  1 29  1  0
  1 30  1  0
  1 31  1  0
  2  3  2  3
  2 32  1  0
  3 18  1  0
  3  4  1  0
  4 16  1  0
  4  5  1  0
  4 33  1  1
  5  6  1  0
  5 34  1  0
  5 35  1  0
  6 17  1  0
  6  7  1  0
  6 36  1  1
  7 22  1  0
  7  8  1  0
  7 37  1  6
  8  9  1  0
  8 38  1  0
  8 39  1  0
  9 17  1  0
  9 10  1  0
  9 40  1  1
 10 11  1  0
 10 12  1  0
 10 41  1  1
 11 42  1  0
 12 13  1  0
 12 43  1  0
 12 44  1  0
 13 14  1  0
 13 45  1  0
 13 46  1  0
 14 15  1  0
 14 16  1  0
 14 47  1  6
 15 48  1  0
 16 17  1  0
 16 49  1  1
 17 18  1  6
 18 19  1  1
 22 18  1  1
 19 20  1  0
 19 21  1  0
 19 64  1  0
 20 50  1  0
 20 51  1  0
 20 52  1  0
 21 53  1  0
 21 54  1  0
 21 55  1  0
 22 27  1  0
 22 23  1  0
 23 24  1  0
 23 25  1  0
 23 56  1  1
 24 57  1  0
 25 26  1  0
 25 58  1  0
 25 59  1  0
 26 27  1  0
 26 60  1  0
 26 61  1  0
 27 28  1  0
 27 62  1  1
 28 63  1  0
M  CHG  1  19   1
M  END
>  <i_m_ct_stereo_status>  (231) 
1

>  <s_m_source_file>  (231) 
/var/tmp/pbs.5076255.sched01/tmp548j1hfo/88g9dmtei7.sdf

>  <i_m_source_file_index>  (231) 
12

>  <i_lp_mmshare_version>  (231) 
48012

>  <i_f3d_flags>  (231) 
0

>  <s_epik_input>  (231) 
W09IXVtDQEBIXTFbQ0gyXVtDSDJdW0NASF0oW09IXSlbQ0BdMShbQ0BIXTJbQ0BASF0zW0NAQF00NTYpW0NAXTYoTihbQ0gzXSlbQ0gzXSlDKD1bQ0hdXFtDSDNdKVxbQ0BIXShbQ0gyXTMpW0NASF01W0NASF0oW09IXSlbQ0gyXVtDSDJdW0NASF0oW09IXSlbQ0BASF00W0NIMl0y

>  <s_epik_cmdline>  (231) 
J2VwaWtfcHl0aG9uJywgJy1waHQnLCAnMi4wJywgJy1waCcsICc3LjAnLCAnLXRuJywgJzgnLCAnLW1hJywgJzIwMCcsICctaW1hZScsICc8aW5maWxlLm1hZT4nLCAnLW9tYWUnLCAnPG91dGZpbGUubWFlPic=

>  <r_epik_Ionization_Penalty>  (231) 
0.00367375

>  <r_epik_Ionization_Penalty_Charging>  (231) 
0.00367259

>  <r_epik_Ionization_Penalty_Neutral>  (231) 
1.16182e-06

>  <r_epik_State_Penalty>  (231) 
0.00261431

>  <r_epik_Charging_Adjusted_Penalty>  (231) 
0.0062869

>  <i_epik_Tot_Q>  (231) 
1

>  <i_epik_Tot_abs_Q>  (231) 
1

>  <s_lp_Force_Field>  (231) 
OPLS3e

>  <r_lp_Energy>  (231) 
133.447

>  <b_lp_Chiralities_Consistent>  (231) 
1

>  <s_lp_Variant>  (231) 
63:0-1

>  <s_i_glide_gridfile>  (231) 
pfpi4k_grid

>  <i_i_glide_lignum>  (231) 
12

>  <i_i_glide_rotatable_bonds>  (231) 
5

>  <r_i_docking_score>  (231) 
-2.63478

>  <r_i_glide_ligand_efficiency>  (231) 
-0.0940994

>  <r_i_glide_ligand_efficiency_sa>  (231) 
-0.285741

>  <r_i_glide_ligand_efficiency_ln>  (231) 
-0.608185

>  <r_i_glide_gscore>  (231) 
-2.63478

>  <r_i_glide_lipo>  (231) 
-0.773114

>  <r_i_glide_hbond>  (231) 
-0.00534573

>  <r_i_glide_metal>  (231) 
-0

>  <r_i_glide_rewards>  (231) 
-0.746344

>  <r_i_glide_evdw>  (231) 
-15.4438

>  <r_i_glide_ecoul>  (231) 
-8.29979

>  <r_i_glide_erotb>  (231) 
0

>  <r_i_glide_esite>  (231) 
0

>  <r_i_glide_emodel>  (231) 
-18.9909

>  <r_i_glide_energy>  (231) 
-23.7436

>  <r_i_glide_einternal>  (231) 
4.45018

>  <r_i_glide_intrahb_reward>  (231) 
-0

>  <i_i_glide_confnum>  (231) 
2

>  <i_i_glide_posenum>  (231) 
8

>  <r_i_glide_eff_state_penalty>  (231) 
0

>  <ligand_id>  (231) 
63

>  <original_smiles>  (231) 
CC=C1C2CC3C4CC5C(O)CCC(O)C2C53C1(N(C)C)C41C(O)CCC1O

>  <smiles>  (231) 
[H]OC1([H])C([H])([H])C([H])([H])C([H])(O[H])C2([H])C3([H])C(=C([H])C([H])([H])[H])C4([N+]([H])(C([H])([H])[H])C([H])([H])[H])C5(C([H])(O[H])C([H])([H])C([H])([H])C5([H])O[H])C5([H])C([H])([H])C1([H])C24C5([H])C3([H])[H]

$$$$
63:0:1
     RDKit          3D

 64 69  0  0  1  0  0  0  0  0999 V2000
    8.0711   -1.7769    0.2468 C   0  0  0  0  0  0  0  0  0  0  0  0
    7.5510   -2.9489    1.0893 C   0  0  0  0  0  0  0  0  0  0  0  0
    6.3261   -3.3255    1.4369 C   0  0  0  0  0  0  0  0  0  0  0  0
    6.0789   -4.5777    2.2712 C   0  0  2  0  0  0  0  0  0  0  0  0
    5.6327   -5.6100    1.2233 C   0  0  0  0  0  0  0  0  0  0  0  0
    4.1765   -5.1492    1.0429 C   0  0  2  0  0  0  0  0  0  0  0  0
    3.5393   -4.4700   -0.1320 C   0  0  1  0  0  0  0  0  0  0  0  0
    2.1616   -4.3137    0.5174 C   0  0  0  0  0  0  0  0  0  0  0  0
    2.5032   -3.6908    1.8917 C   0  0  1  0  0  0  0  0  0  0  0  0
    1.7374   -4.2770    3.1043 C   0  0  1  0  0  0  0  0  0  0  0  0
    1.8790   -5.6758    3.2604 O   0  0  0  0  0  0  0  0  0  0  0  0
    2.0312   -3.5418    4.4300 C   0  0  0  0  0  0  0  0  0  0  0  0
    3.3803   -3.8371    5.1479 C   0  0  0  0  0  0  0  0  0  0  0  0
    4.6236   -3.4803    4.3332 C   0  0  1  0  0  0  0  0  0  0  0  0
    5.7604   -3.6281    5.1616 O   0  0  0  0  0  0  0  0  0  0  0  0
    4.7858   -4.3905    3.1086 C   0  0  1  0  0  0  0  0  0  0  0  0
    4.0366   -3.8802    1.9031 C   0  0  1  0  0  0  0  0  0  0  0  0
    4.8823   -2.7632    1.0832 C   0  0  1  0  0  0  0  0  0  0  0  0
    4.7854   -1.2753    1.6031 N   0  0  0  0  0  0  0  0  0  0  0  0
    4.9289   -0.1434    0.5858 C   0  0  0  0  0  0  0  0  0  0  0  0
    5.6099   -0.7966    2.7649 C   0  0  0  0  0  0  0  0  0  0  0  0
    4.2907   -3.1376   -0.3939 C   0  0  1  0  0  0  0  0  0  0  0  0
    5.3747   -3.3283   -1.4913 C   0  0  1  0  0  0  0  0  0  0  0  0
    5.0295   -4.2007   -2.5468 O   0  0  0  0  0  0  0  0  0  0  0  0
    5.4992   -1.9583   -2.1882 C   0  0  0  0  0  0  0  0  0  0  0  0
    4.1229   -1.2255   -2.0431 C   0  0  0  0  0  0  0  0  0  0  0  0
    3.3211   -2.0978   -1.0704 C   0  0  1  0  0  0  0  0  0  0  0  0
    2.3764   -2.6548   -1.9472 O   0  0  0  0  0  0  0  0  0  0  0  0
    8.5363   -2.1644   -0.6658 H   0  0  0  0  0  0  0  0  0  0  0  0
    8.7904   -1.1697    0.8075 H   0  0  0  0  0  0  0  0  0  0  0  0
    7.2699   -1.1264    0.0094 H   0  0  0  0  0  0  0  0  0  0  0  0
    8.3768   -3.5573    1.4852 H   0  0  0  0  0  0  0  0  0  0  0  0
    6.9522   -4.9118    2.8296 H   0  0  0  0  0  0  0  0  0  0  0  0
    6.2305   -5.6583    0.3086 H   0  0  0  0  0  0  0  0  0  0  0  0
    5.6424   -6.6061    1.6770 H   0  0  0  0  0  0  0  0  0  0  0  0
    3.5735   -6.0022    1.3547 H   0  0  0  0  0  0  0  0  0  0  0  0
    3.4326   -5.0591   -1.0117 H   0  0  0  0  0  0  0  0  0  0  0  0
    1.4920   -3.7176   -0.0898 H   0  0  0  0  0  0  0  0  0  0  0  0
    1.6688   -5.2962    0.5864 H   0  0  0  0  0  0  0  0  0  0  0  0
    2.2509   -2.6305    1.8226 H   0  0  0  0  0  0  0  0  0  0  0  0
    0.6780   -4.1399    2.8934 H   0  0  0  0  0  0  0  0  0  0  0  0
    2.7799   -5.8792    3.4588 H   0  0  0  0  0  0  0  0  0  0  0  0
    1.9022   -2.4704    4.2586 H   0  0  0  0  0  0  0  0  0  0  0  0
    1.2495   -3.8132    5.1347 H   0  0  0  0  0  0  0  0  0  0  0  0
    3.4073   -3.1745    6.0203 H   0  0  0  0  0  0  0  0  0  0  0  0
    3.4173   -4.8720    5.5337 H   0  0  0  0  0  0  0  0  0  0  0  0
    4.3588   -2.4832    4.0661 H   0  0  0  0  0  0  0  0  0  0  0  0
    5.9069   -4.5345    5.4331 H   0  0  0  0  0  0  0  0  0  0  0  0
    4.4698   -5.3999    3.4011 H   0  0  0  0  0  0  0  0  0  0  0  0
    5.4437    0.7312    0.9942 H   0  0  0  0  0  0  0  0  0  0  0  0
    3.9291    0.2331    0.2789 H   0  0  0  0  0  0  0  0  0  0  0  0
    5.5804   -0.3168   -0.2649 H   0  0  0  0  0  0  0  0  0  0  0  0
    6.6865   -0.7371    2.4848 H   0  0  0  0  0  0  0  0  0  0  0  0
    5.5435   -1.2369    3.7525 H   0  0  0  0  0  0  0  0  0  0  0  0
    5.2772    0.2421    2.9356 H   0  0  0  0  0  0  0  0  0  0  0  0
    6.3305   -3.7047   -1.1325 H   0  0  0  0  0  0  0  0  0  0  0  0
    4.3346   -4.7884   -2.2670 H   0  0  0  0  0  0  0  0  0  0  0  0
    6.2926   -1.4136   -1.7040 H   0  0  0  0  0  0  0  0  0  0  0  0
    5.8106   -2.0627   -3.2273 H   0  0  0  0  0  0  0  0  0  0  0  0
    4.2313   -0.1903   -1.7328 H   0  0  0  0  0  0  0  0  0  0  0  0
    3.6290   -1.1403   -3.0200 H   0  0  0  0  0  0  0  0  0  0  0  0
    2.7848   -1.5592   -0.2973 H   0  0  0  0  0  0  0  0  0  0  0  0
    1.5966   -2.1179   -1.8407 H   0  0  0  0  0  0  0  0  0  0  0  0
    3.7852   -1.2017    1.8345 H   0  0  0  0  0  0  0  0  0  0  0  0
  1  2  1  0
  1 29  1  0
  1 30  1  0
  1 31  1  0
  2  3  2  3
  2 32  1  0
  3 18  1  0
  3  4  1  0
  4 16  1  0
  4  5  1  0
  4 33  1  1
  5  6  1  0
  5 34  1  0
  5 35  1  0
  6 17  1  0
  6  7  1  0
  6 36  1  1
  7 22  1  0
  7  8  1  0
  7 37  1  6
  8  9  1  0
  8 38  1  0
  8 39  1  0
  9 17  1  0
  9 10  1  0
  9 40  1  6
 10 11  1  0
 10 12  1  0
 10 41  1  6
 11 42  1  0
 12 13  1  0
 12 43  1  0
 12 44  1  0
 13 14  1  0
 13 45  1  0
 13 46  1  0
 14 15  1  0
 14 16  1  0
 14 47  1  6
 15 48  1  0
 16 17  1  0
 16 49  1  1
 17 18  1  6
 18 19  1  1
 22 18  1  1
 19 20  1  0
 19 21  1  0
 19 64  1  0
 20 50  1  0
 20 51  1  0
 20 52  1  0
 21 53  1  0
 21 54  1  0
 21 55  1  0
 22 27  1  0
 22 23  1  0
 23 24  1  0
 23 25  1  0
 23 56  1  1
 24 57  1  0
 25 26  1  0
 25 58  1  0
 25 59  1  0
 26 27  1  0
 26 60  1  0
 26 61  1  0
 27 28  1  0
 27 62  1  1
 28 63  1  0
M  CHG  1  19   1
M  END
>  <i_m_ct_stereo_status>  (232) 
1

>  <s_m_source_file>  (232) 
/var/tmp/pbs.5076255.sched01/tmp548j1hfo/88g9dmtei7.sdf

>  <i_m_source_file_index>  (232) 
12

>  <i_lp_mmshare_version>  (232) 
48012

>  <i_f3d_flags>  (232) 
0

>  <s_epik_input>  (232) 
W09IXVtDQEBIXTFbQ0gyXVtDSDJdW0NASF0oW09IXSlbQ0BdMShbQ0BIXTJbQ0BASF0zW0NAQF00NTYpW0NAXTYoTihbQ0gzXSlbQ0gzXSlDKD1bQ0hdXFtDSDNdKVxbQ0BIXShbQ0gyXTMpW0NASF01W0NASF0oW09IXSlbQ0gyXVtDSDJdW0NASF0oW09IXSlbQ0BASF00W0NIMl0y

>  <s_epik_cmdline>  (232) 
J2VwaWtfcHl0aG9uJywgJy1waHQnLCAnMi4wJywgJy1waCcsICc3LjAnLCAnLXRuJywgJzgnLCAnLW1hJywgJzIwMCcsICctaW1hZScsICc8aW5maWxlLm1hZT4nLCAnLW9tYWUnLCAnPG91dGZpbGUubWFlPic=

>  <r_epik_Ionization_Penalty>  (232) 
0.00367375

>  <r_epik_Ionization_Penalty_Charging>  (232) 
0.00367259

>  <r_epik_Ionization_Penalty_Neutral>  (232) 
1.16182e-06

>  <r_epik_State_Penalty>  (232) 
0.00261431

>  <r_epik_Charging_Adjusted_Penalty>  (232) 
0.0062869

>  <i_epik_Tot_Q>  (232) 
1

>  <i_epik_Tot_abs_Q>  (232) 
1

>  <s_lp_Force_Field>  (232) 
OPLS3e

>  <r_lp_Energy>  (232) 
133.447

>  <b_lp_Chiralities_Consistent>  (232) 
1

>  <s_lp_Variant>  (232) 
63:0-1

>  <s_i_glide_gridfile>  (232) 
pfpi4k_grid

>  <i_i_glide_lignum>  (232) 
12

>  <i_i_glide_rotatable_bonds>  (232) 
5

>  <r_i_docking_score>  (232) 
-2.404

>  <r_i_glide_ligand_efficiency>  (232) 
-0.085857

>  <r_i_glide_ligand_efficiency_sa>  (232) 
-0.260713

>  <r_i_glide_ligand_efficiency_ln>  (232) 
-0.554913

>  <r_i_glide_gscore>  (232) 
-2.404

>  <r_i_glide_lipo>  (232) 
-0.695108

>  <r_i_glide_hbond>  (232) 
0

>  <r_i_glide_metal>  (232) 
-0

>  <r_i_glide_rewards>  (232) 
-0.746344

>  <r_i_glide_evdw>  (232) 
-7.91268

>  <r_i_glide_ecoul>  (232) 
-8.12076

>  <r_i_glide_erotb>  (232) 
0

>  <r_i_glide_esite>  (232) 
0

>  <r_i_glide_emodel>  (232) 
-11.8318

>  <r_i_glide_energy>  (232) 
-16.0334

>  <r_i_glide_einternal>  (232) 
3.99386

>  <r_i_glide_intrahb_reward>  (232) 
-0

>  <i_i_glide_confnum>  (232) 
2

>  <i_i_glide_posenum>  (232) 
11

>  <r_i_glide_eff_state_penalty>  (232) 
0

>  <ligand_id>  (232) 
63

>  <original_smiles>  (232) 
CC=C1C2CC3C4CC5C(O)CCC(O)C2C53C1(N(C)C)C41C(O)CCC1O

>  <smiles>  (232) 
[H]OC1([H])C([H])([H])C([H])([H])C([H])(O[H])C2([H])C3([H])C(=C([H])C([H])([H])[H])C4([N+]([H])(C([H])([H])[H])C([H])([H])[H])C5(C([H])(O[H])C([H])([H])C([H])([H])C5([H])O[H])C5([H])C([H])([H])C1([H])C24C5([H])C3([H])[H]

$$$$
64:0:0
     RDKit          3D

 41 44  0  0  1  0  0  0  0  0999 V2000
    2.9328  -11.5507    5.0630 C   0  0  0  0  0  0  0  0  0  0  0  0
    2.9451  -10.3505    4.1836 N   0  0  1  0  0  0  0  0  0  0  0  0
    2.4456  -10.5619    2.8011 C   0  0  1  0  0  0  0  0  0  0  0  0
    0.9054  -10.6618    2.7248 C   0  0  0  0  0  0  0  0  0  0  0  0
    0.1616  -10.2381    3.9949 C   0  0  0  0  0  0  0  0  0  0  0  0
    0.8229   -9.1112    4.8043 C   0  0  0  0  0  0  0  0  0  0  0  0
    2.3709   -9.1130    4.7742 C   0  0  2  0  0  0  0  0  0  0  0  0
    2.9221   -7.9096    3.9874 C   0  0  0  0  0  0  0  0  0  0  0  0
    2.6314   -8.0221    2.4687 C   0  0  1  0  0  0  0  0  0  0  0  0
    3.3178   -6.9579    1.7168 N   0  0  0  0  0  0  0  0  0  0  0  0
    2.6631   -6.0035    1.0009 C   0  0  0  0  0  0  0  0  0  0  0  0
    1.4524   -5.8556    0.8342 O   0  0  0  0  0  0  0  0  0  0  0  0
    3.7222   -5.1334    0.4348 C   0  0  0  0  0  0  0  0  0  0  0  0
    3.6445   -4.0009   -0.3917 C   0  0  0  0  0  0  0  0  0  0  0  0
    4.8884   -3.4305   -0.7704 C   0  0  0  0  0  0  0  0  0  0  0  0
    4.9598   -2.0443   -1.8007 Cl  0  0  0  0  0  0  0  0  0  0  0  0
    6.0914   -4.0176   -0.3020 C   0  0  0  0  0  0  0  0  0  0  0  0
    6.1326   -5.1175    0.4902 N   0  0  0  0  0  0  0  0  0  0  0  0
    4.9378   -5.6330    0.8262 C   0  0  0  0  0  0  0  0  0  0  0  0
    4.6709   -6.8219    1.6640 C   0  0  0  0  0  0  0  0  0  0  0  0
    5.5332   -7.5252    2.1957 O   0  0  0  0  0  0  0  0  0  0  0  0
    2.9816   -9.4249    1.9094 C   0  0  0  0  0  0  0  0  0  0  0  0
    1.9265  -11.9245    5.2574 H   0  0  0  0  0  0  0  0  0  0  0  0
    3.3939  -11.3222    6.0279 H   0  0  0  0  0  0  0  0  0  0  0  0
    3.5066  -12.3595    4.6020 H   0  0  0  0  0  0  0  0  0  0  0  0
    2.8774  -11.4875    2.4227 H   0  0  0  0  0  0  0  0  0  0  0  0
    0.5305  -10.0630    1.8971 H   0  0  0  0  0  0  0  0  0  0  0  0
    0.6133  -11.6828    2.4833 H   0  0  0  0  0  0  0  0  0  0  0  0
   -0.8465   -9.9317    3.7071 H   0  0  0  0  0  0  0  0  0  0  0  0
    0.0535  -11.1113    4.6399 H   0  0  0  0  0  0  0  0  0  0  0  0
    0.4365   -8.1537    4.4523 H   0  0  0  0  0  0  0  0  0  0  0  0
    0.4818   -9.1834    5.8378 H   0  0  0  0  0  0  0  0  0  0  0  0
    2.7374   -9.0109    5.7972 H   0  0  0  0  0  0  0  0  0  0  0  0
    2.5276   -6.9705    4.3890 H   0  0  0  0  0  0  0  0  0  0  0  0
    3.9931   -7.8757    4.1730 H   0  0  0  0  0  0  0  0  0  0  0  0
    1.5517   -7.9003    2.3477 H   0  0  0  0  0  0  0  0  0  0  0  0
    2.7006   -3.6048   -0.7278 H   0  0  0  0  0  0  0  0  0  0  0  0
    7.0573   -3.6168   -0.5723 H   0  0  0  0  0  0  0  0  0  0  0  0
    4.0589   -9.5578    1.8399 H   0  0  0  0  0  0  0  0  0  0  0  0
    2.6097   -9.5314    0.8860 H   0  0  0  0  0  0  0  0  0  0  0  0
    3.9245  -10.1372    4.0573 H   0  0  0  0  0  0  0  0  0  0  0  0
  1  2  1  0
  1 23  1  0
  1 24  1  0
  1 25  1  0
  2  7  1  0
  2  3  1  0
  2 41  1  6
  3 22  1  0
  3  4  1  0
  3 26  1  6
  4  5  1  0
  4 27  1  0
  4 28  1  0
  5  6  1  0
  5 29  1  0
  5 30  1  0
  6  7  1  0
  6 31  1  0
  6 32  1  0
  7  8  1  0
  7 33  1  1
  8  9  1  0
  8 34  1  0
  8 35  1  0
  9 10  1  0
  9 22  1  0
  9 36  1  1
 10 20  1  0
 10 11  1  0
 11 12  2  0
 11 13  1  0
 13 19  2  0
 13 14  1  0
 14 15  2  0
 14 37  1  0
 15 16  1  0
 15 17  1  0
 17 18  2  0
 17 38  1  0
 18 19  1  0
 19 20  1  0
 20 21  2  0
 22 39  1  0
 22 40  1  0
M  CHG  1   2   1
M  END
>  <i_m_ct_stereo_status>  (233) 
1

>  <s_m_source_file>  (233) 
/var/tmp/pbs.5076255.sched01/tmp548j1hfo/88g9dmtei7.sdf

>  <i_m_source_file_index>  (233) 
13

>  <i_lp_mmshare_version>  (233) 
48012

>  <i_f3d_flags>  (233) 
0

>  <s_epik_input>  (233) 
W0NIMl0xW0NIMl1bQ0gyXVtDSF0oTihbQ0gzXSlbQ0BASF0xMilbQ0gyXVtDQEhdKFtDSDJdMilOKEMzPU8pQyg9TyljKGMzNCluW2NIXWMoQ2wpW2NIXTQ=

>  <s_epik_cmdline>  (233) 
J2VwaWtfcHl0aG9uJywgJy1waHQnLCAnMi4wJywgJy1waCcsICc3LjAnLCAnLXRuJywgJzgnLCAnLW1hJywgJzIwMCcsICctaW1hZScsICc8aW5maWxlLm1hZT4nLCAnLW9tYWUnLCAnPG91dGZpbGUubWFlPic=

>  <r_epik_Ionization_Penalty>  (233) 
0.00301213

>  <r_epik_Ionization_Penalty_Charging>  (233) 
0.00301212

>  <r_epik_Ionization_Penalty_Neutral>  (233) 
1.06493e-08

>  <r_epik_State_Penalty>  (233) 
0.00211547

>  <r_epik_Charging_Adjusted_Penalty>  (233) 
0.00512759

>  <i_epik_Tot_Q>  (233) 
1

>  <i_epik_Tot_abs_Q>  (233) 
1

>  <s_lp_Force_Field>  (233) 
OPLS3e

>  <r_lp_Energy>  (233) 
35.0127

>  <b_lp_Chiralities_Consistent>  (233) 
1

>  <s_lp_Variant>  (233) 
64:0-1

>  <s_i_glide_gridfile>  (233) 
pfpi4k_grid

>  <i_i_glide_lignum>  (233) 
13

>  <i_i_glide_rotatable_bonds>  (233) 
1

>  <r_i_docking_score>  (233) 
-3.89419

>  <r_i_glide_ligand_efficiency>  (233) 
-0.177009

>  <r_i_glide_ligand_efficiency_sa>  (233) 
-0.495985

>  <r_i_glide_ligand_efficiency_ln>  (233) 
-0.951882

>  <r_i_glide_gscore>  (233) 
-3.89419

>  <r_i_glide_lipo>  (233) 
-0.325617

>  <r_i_glide_hbond>  (233) 
-0.15308

>  <r_i_glide_metal>  (233) 
-0

>  <r_i_glide_rewards>  (233) 
-1.36393

>  <r_i_glide_evdw>  (233) 
-22.9344

>  <r_i_glide_ecoul>  (233) 
-7.04334

>  <r_i_glide_erotb>  (233) 
0.181498

>  <r_i_glide_esite>  (233) 
-0.0298405

>  <r_i_glide_emodel>  (233) 
-39.7072

>  <r_i_glide_energy>  (233) 
-29.9777

>  <r_i_glide_einternal>  (233) 
0.118496

>  <r_i_glide_intrahb_reward>  (233) 
-0

>  <i_i_glide_confnum>  (233) 
6

>  <i_i_glide_posenum>  (233) 
13

>  <r_i_glide_eff_state_penalty>  (233) 
0

>  <ligand_id>  (233) 
64

>  <original_smiles>  (233) 
CN1C2CCCC1CC(N1C(=O)c3cc(Cl)cnc3C1=O)C2

>  <smiles>  (233) 
[H]c1nc2c(c([H])c1Cl)C(=O)N(C1([H])C([H])([H])C3([H])C([H])([H])C([H])([H])C([H])([H])C([H])(C1([H])[H])[N+]3([H])C([H])([H])[H])C2=O

$$$$
64:0:1
     RDKit          3D

 41 44  0  0  1  0  0  0  0  0999 V2000
   -0.4845  -10.2600    2.6621 C   0  0  0  0  0  0  0  0  0  0  0  0
    0.3993   -9.0786    2.5349 N   0  0  1  0  0  0  0  0  0  0  0  0
    0.0391   -7.9233    3.4001 C   0  0  1  0  0  0  0  0  0  0  0  0
    0.4307   -8.1163    4.8849 C   0  0  0  0  0  0  0  0  0  0  0  0
    1.3563   -9.3155    5.1693 C   0  0  0  0  0  0  0  0  0  0  0  0
    2.3639   -9.6256    4.0412 C   0  0  0  0  0  0  0  0  0  0  0  0
    1.8553   -9.3630    2.5966 C   0  0  2  0  0  0  0  0  0  0  0  0
    2.5811   -8.1783    1.9346 C   0  0  0  0  0  0  0  0  0  0  0  0
    2.2135   -6.8262    2.5978 C   0  0  1  0  0  0  0  0  0  0  0  0
    2.7931   -5.7081    1.8380 N   0  0  0  0  0  0  0  0  0  0  0  0
    2.3832   -5.3222    0.5993 C   0  0  0  0  0  0  0  0  0  0  0  0
    1.4611   -5.7665   -0.0745 O   0  0  0  0  0  0  0  0  0  0  0  0
    3.2224   -4.1587    0.2360 C   0  0  0  0  0  0  0  0  0  0  0  0
    3.1879   -3.3668   -0.9205 C   0  0  0  0  0  0  0  0  0  0  0  0
    4.1495   -2.3283   -0.9529 C   0  0  0  0  0  0  0  0  0  0  0  0
    4.2609   -1.2745   -2.3216 Cl  0  0  0  0  0  0  0  0  0  0  0  0
    5.0356   -2.1620    0.1504 C   0  0  0  0  0  0  0  0  0  0  0  0
    5.0316   -2.9503    1.2613 N   0  0  0  0  0  0  0  0  0  0  0  0
    4.1053   -3.9358    1.2514 C   0  0  0  0  0  0  0  0  0  0  0  0
    3.8365   -4.9455    2.3023 C   0  0  0  0  0  0  0  0  0  0  0  0
    4.4309   -5.0463    3.3656 O   0  0  0  0  0  0  0  0  0  0  0  0
    0.6800   -6.6645    2.8063 C   0  0  0  0  0  0  0  0  0  0  0  0
   -0.4514  -10.6995    3.6563 H   0  0  0  0  0  0  0  0  0  0  0  0
   -0.2007  -11.0406    1.9492 H   0  0  0  0  0  0  0  0  0  0  0  0
   -1.5228   -9.9873    2.4648 H   0  0  0  0  0  0  0  0  0  0  0  0
   -1.0389   -7.7761    3.3466 H   0  0  0  0  0  0  0  0  0  0  0  0
    0.9053   -7.2117    5.2659 H   0  0  0  0  0  0  0  0  0  0  0  0
   -0.4740   -8.2304    5.4819 H   0  0  0  0  0  0  0  0  0  0  0  0
    1.8929   -9.1550    6.1081 H   0  0  0  0  0  0  0  0  0  0  0  0
    0.7476  -10.2014    5.3616 H   0  0  0  0  0  0  0  0  0  0  0  0
    3.2799   -9.0615    4.2217 H   0  0  0  0  0  0  0  0  0  0  0  0
    2.6613  -10.6715    4.1282 H   0  0  0  0  0  0  0  0  0  0  0  0
    2.0715  -10.2421    1.9852 H   0  0  0  0  0  0  0  0  0  0  0  0
    3.6637   -8.3347    1.9430 H   0  0  0  0  0  0  0  0  0  0  0  0
    2.2971   -8.1660    0.8846 H   0  0  0  0  0  0  0  0  0  0  0  0
    2.6481   -6.8538    3.6013 H   0  0  0  0  0  0  0  0  0  0  0  0
    2.4827   -3.5417   -1.7193 H   0  0  0  0  0  0  0  0  0  0  0  0
    5.7841   -1.3839    0.1471 H   0  0  0  0  0  0  0  0  0  0  0  0
    0.1503   -6.5094    1.8720 H   0  0  0  0  0  0  0  0  0  0  0  0
    0.4744   -5.7844    3.4198 H   0  0  0  0  0  0  0  0  0  0  0  0
    0.2465   -8.7885    1.5768 H   0  0  0  0  0  0  0  0  0  0  0  0
  1  2  1  0
  1 23  1  0
  1 24  1  0
  1 25  1  0
  2  7  1  0
  2  3  1  0
  2 41  1  6
  3 22  1  0
  3  4  1  0
  3 26  1  1
  4  5  1  0
  4 27  1  0
  4 28  1  0
  5  6  1  0
  5 29  1  0
  5 30  1  0
  6  7  1  0
  6 31  1  0
  6 32  1  0
  7  8  1  0
  7 33  1  6
  8  9  1  0
  8 34  1  0
  8 35  1  0
  9 10  1  0
  9 22  1  0
  9 36  1  1
 10 20  1  0
 10 11  1  0
 11 12  2  0
 11 13  1  0
 13 19  2  0
 13 14  1  0
 14 15  2  0
 14 37  1  0
 15 16  1  0
 15 17  1  0
 17 18  2  0
 17 38  1  0
 18 19  1  0
 19 20  1  0
 20 21  2  0
 22 39  1  0
 22 40  1  0
M  CHG  1   2   1
M  END
>  <i_m_ct_stereo_status>  (234) 
1

>  <s_m_source_file>  (234) 
/var/tmp/pbs.5076255.sched01/tmp548j1hfo/88g9dmtei7.sdf

>  <i_m_source_file_index>  (234) 
13

>  <i_lp_mmshare_version>  (234) 
48012

>  <i_f3d_flags>  (234) 
0

>  <s_epik_input>  (234) 
W0NIMl0xW0NIMl1bQ0gyXVtDSF0oTihbQ0gzXSlbQ0BASF0xMilbQ0gyXVtDQEhdKFtDSDJdMilOKEMzPU8pQyg9TyljKGMzNCluW2NIXWMoQ2wpW2NIXTQ=

>  <s_epik_cmdline>  (234) 
J2VwaWtfcHl0aG9uJywgJy1waHQnLCAnMi4wJywgJy1waCcsICc3LjAnLCAnLXRuJywgJzgnLCAnLW1hJywgJzIwMCcsICctaW1hZScsICc8aW5maWxlLm1hZT4nLCAnLW9tYWUnLCAnPG91dGZpbGUubWFlPic=

>  <r_epik_Ionization_Penalty>  (234) 
0.00301213

>  <r_epik_Ionization_Penalty_Charging>  (234) 
0.00301212

>  <r_epik_Ionization_Penalty_Neutral>  (234) 
1.06493e-08

>  <r_epik_State_Penalty>  (234) 
0.00211547

>  <r_epik_Charging_Adjusted_Penalty>  (234) 
0.00512759

>  <i_epik_Tot_Q>  (234) 
1

>  <i_epik_Tot_abs_Q>  (234) 
1

>  <s_lp_Force_Field>  (234) 
OPLS3e

>  <r_lp_Energy>  (234) 
35.0127

>  <b_lp_Chiralities_Consistent>  (234) 
1

>  <s_lp_Variant>  (234) 
64:0-1

>  <s_i_glide_gridfile>  (234) 
pfpi4k_grid

>  <i_i_glide_lignum>  (234) 
13

>  <i_i_glide_rotatable_bonds>  (234) 
1

>  <r_i_docking_score>  (234) 
-3.66697

>  <r_i_glide_ligand_efficiency>  (234) 
-0.16668

>  <r_i_glide_ligand_efficiency_sa>  (234) 
-0.467045

>  <r_i_glide_ligand_efficiency_ln>  (234) 
-0.896341

>  <r_i_glide_gscore>  (234) 
-3.66697

>  <r_i_glide_lipo>  (234) 
-0.165786

>  <r_i_glide_hbond>  (234) 
-0.270366

>  <r_i_glide_metal>  (234) 
-0

>  <r_i_glide_rewards>  (234) 
-1.22359

>  <r_i_glide_evdw>  (234) 
-22.2883

>  <r_i_glide_ecoul>  (234) 
-6.61739

>  <r_i_glide_erotb>  (234) 
0.181498

>  <r_i_glide_esite>  (234) 
-0.081704

>  <r_i_glide_emodel>  (234) 
-37.7187

>  <r_i_glide_energy>  (234) 
-28.9057

>  <r_i_glide_einternal>  (234) 
0.830122

>  <r_i_glide_intrahb_reward>  (234) 
-0

>  <i_i_glide_confnum>  (234) 
6

>  <i_i_glide_posenum>  (234) 
1

>  <r_i_glide_eff_state_penalty>  (234) 
0

>  <ligand_id>  (234) 
64

>  <original_smiles>  (234) 
CN1C2CCCC1CC(N1C(=O)c3cc(Cl)cnc3C1=O)C2

>  <smiles>  (234) 
[H]c1nc2c(c([H])c1Cl)C(=O)N(C1([H])C([H])([H])C3([H])C([H])([H])C([H])([H])C([H])([H])C([H])(C1([H])[H])[N+]3([H])C([H])([H])[H])C2=O

$$$$
64:0:2
     RDKit          3D

 41 44  0  0  1  0  0  0  0  0999 V2000
    3.5594   -1.1625   -2.1497 C   0  0  0  0  0  0  0  0  0  0  0  0
    3.6881   -2.2456   -1.1320 N   0  0  1  0  0  0  0  0  0  0  0  0
    4.8809   -3.1143   -1.2792 C   0  0  1  0  0  0  0  0  0  0  0  0
    6.1844   -2.4388   -0.7855 C   0  0  0  0  0  0  0  0  0  0  0  0
    5.9897   -1.1363    0.0231 C   0  0  0  0  0  0  0  0  0  0  0  0
    4.7157   -1.1010    0.8870 C   0  0  0  0  0  0  0  0  0  0  0  0
    3.4945   -1.8323    0.2821 C   0  0  2  0  0  0  0  0  0  0  0  0
    3.1260   -3.0888    1.0902 C   0  0  0  0  0  0  0  0  0  0  0  0
    4.1861   -4.2092    0.9369 C   0  0  1  0  0  0  0  0  0  0  0  0
    3.7378   -5.4753    1.5567 N   0  0  0  0  0  0  0  0  0  0  0  0
    2.5997   -6.1464    1.2268 C   0  0  0  0  0  0  0  0  0  0  0  0
    1.7190   -5.8520    0.4162 O   0  0  0  0  0  0  0  0  0  0  0  0
    2.5562   -7.3368    2.0875 C   0  0  0  0  0  0  0  0  0  0  0  0
    1.6044   -8.3524    2.1603 C   0  0  0  0  0  0  0  0  0  0  0  0
    1.8639   -9.3537    3.1138 C   0  0  0  0  0  0  0  0  0  0  0  0
    0.7702  -10.6796    3.3049 Cl  0  0  0  0  0  0  0  0  0  0  0  0
    3.0362   -9.2670    3.9141 C   0  0  0  0  0  0  0  0  0  0  0  0
    3.9490   -8.2531    3.8249 N   0  0  0  0  0  0  0  0  0  0  0  0
    3.6676   -7.3229    2.8961 C   0  0  0  0  0  0  0  0  0  0  0  0
    4.4382   -6.1039    2.5404 C   0  0  0  0  0  0  0  0  0  0  0  0
    5.4990   -5.7551    3.0608 O   0  0  0  0  0  0  0  0  0  0  0  0
    4.6070   -4.4341   -0.5343 C   0  0  0  0  0  0  0  0  0  0  0  0
    4.3339   -0.4015   -2.0848 H   0  0  0  0  0  0  0  0  0  0  0  0
    2.6136   -0.6526   -2.0245 H   0  0  0  0  0  0  0  0  0  0  0  0
    3.5656   -1.5607   -3.1646 H   0  0  0  0  0  0  0  0  0  0  0  0
    4.9934   -3.3758   -2.3327 H   0  0  0  0  0  0  0  0  0  0  0  0
    6.7556   -3.1419   -0.1802 H   0  0  0  0  0  0  0  0  0  0  0  0
    6.8214   -2.2369   -1.6456 H   0  0  0  0  0  0  0  0  0  0  0  0
    6.8620   -0.9555    0.6560 H   0  0  0  0  0  0  0  0  0  0  0  0
    5.9509   -0.2844   -0.6563 H   0  0  0  0  0  0  0  0  0  0  0  0
    4.9427   -1.5063    1.8748 H   0  0  0  0  0  0  0  0  0  0  0  0
    4.4464   -0.0577    1.0691 H   0  0  0  0  0  0  0  0  0  0  0  0
    2.6384   -1.1622    0.3531 H   0  0  0  0  0  0  0  0  0  0  0  0
    2.9627   -2.8459    2.1461 H   0  0  0  0  0  0  0  0  0  0  0  0
    2.1613   -3.3978    0.7037 H   0  0  0  0  0  0  0  0  0  0  0  0
    5.0817   -3.8399    1.4433 H   0  0  0  0  0  0  0  0  0  0  0  0
    0.7238   -8.3524    1.5215 H   0  0  0  0  0  0  0  0  0  0  0  0
    3.2645  -10.0171    4.6559 H   0  0  0  0  0  0  0  0  0  0  0  0
    3.8142   -4.9307   -1.0760 H   0  0  0  0  0  0  0  0  0  0  0  0
    5.4666   -5.1052   -0.6013 H   0  0  0  0  0  0  0  0  0  0  0  0
    2.8932   -2.8429   -1.3222 H   0  0  0  0  0  0  0  0  0  0  0  0
  1  2  1  0
  1 23  1  0
  1 24  1  0
  1 25  1  0
  2  7  1  0
  2  3  1  0
  2 41  1  6
  3 22  1  0
  3  4  1  0
  3 26  1  6
  4  5  1  0
  4 27  1  0
  4 28  1  0
  5  6  1  0
  5 29  1  0
  5 30  1  0
  6  7  1  0
  6 31  1  0
  6 32  1  0
  7  8  1  0
  7 33  1  6
  8  9  1  0
  8 34  1  0
  8 35  1  0
  9 10  1  0
  9 22  1  0
  9 36  1  1
 10 20  1  0
 10 11  1  0
 11 12  2  0
 11 13  1  0
 13 19  2  0
 13 14  1  0
 14 15  2  0
 14 37  1  0
 15 16  1  0
 15 17  1  0
 17 18  2  0
 17 38  1  0
 18 19  1  0
 19 20  1  0
 20 21  2  0
 22 39  1  0
 22 40  1  0
M  CHG  1   2   1
M  END
>  <i_m_ct_stereo_status>  (235) 
1

>  <s_m_source_file>  (235) 
/var/tmp/pbs.5076255.sched01/tmp548j1hfo/88g9dmtei7.sdf

>  <i_m_source_file_index>  (235) 
13

>  <i_lp_mmshare_version>  (235) 
48012

>  <i_f3d_flags>  (235) 
0

>  <s_epik_input>  (235) 
W0NIMl0xW0NIMl1bQ0gyXVtDSF0oTihbQ0gzXSlbQ0BASF0xMilbQ0gyXVtDQEhdKFtDSDJdMilOKEMzPU8pQyg9TyljKGMzNCluW2NIXWMoQ2wpW2NIXTQ=

>  <s_epik_cmdline>  (235) 
J2VwaWtfcHl0aG9uJywgJy1waHQnLCAnMi4wJywgJy1waCcsICc3LjAnLCAnLXRuJywgJzgnLCAnLW1hJywgJzIwMCcsICctaW1hZScsICc8aW5maWxlLm1hZT4nLCAnLW9tYWUnLCAnPG91dGZpbGUubWFlPic=

>  <r_epik_Ionization_Penalty>  (235) 
0.00301213

>  <r_epik_Ionization_Penalty_Charging>  (235) 
0.00301212

>  <r_epik_Ionization_Penalty_Neutral>  (235) 
1.06493e-08

>  <r_epik_State_Penalty>  (235) 
0.00211547

>  <r_epik_Charging_Adjusted_Penalty>  (235) 
0.00512759

>  <i_epik_Tot_Q>  (235) 
1

>  <i_epik_Tot_abs_Q>  (235) 
1

>  <s_lp_Force_Field>  (235) 
OPLS3e

>  <r_lp_Energy>  (235) 
35.0127

>  <b_lp_Chiralities_Consistent>  (235) 
1

>  <s_lp_Variant>  (235) 
64:0-1

>  <s_i_glide_gridfile>  (235) 
pfpi4k_grid

>  <i_i_glide_lignum>  (235) 
13

>  <i_i_glide_rotatable_bonds>  (235) 
1

>  <r_i_docking_score>  (235) 
-3.3626

>  <r_i_glide_ligand_efficiency>  (235) 
-0.152845

>  <r_i_glide_ligand_efficiency_sa>  (235) 
-0.428279

>  <r_i_glide_ligand_efficiency_ln>  (235) 
-0.821942

>  <r_i_glide_gscore>  (235) 
-3.3626

>  <r_i_glide_lipo>  (235) 
-0.199198

>  <r_i_glide_hbond>  (235) 
-0.0897173

>  <r_i_glide_metal>  (235) 
-0

>  <r_i_glide_rewards>  (235) 
-1.2468

>  <r_i_glide_evdw>  (235) 
-22.2764

>  <r_i_glide_ecoul>  (235) 
-5.5546

>  <r_i_glide_erotb>  (235) 
0.181498

>  <r_i_glide_esite>  (235) 
-0.0613756

>  <r_i_glide_emodel>  (235) 
-36.1763

>  <r_i_glide_energy>  (235) 
-27.831

>  <r_i_glide_einternal>  (235) 
0.277481

>  <r_i_glide_intrahb_reward>  (235) 
-0

>  <i_i_glide_confnum>  (235) 
5

>  <i_i_glide_posenum>  (235) 
30

>  <r_i_glide_eff_state_penalty>  (235) 
0

>  <ligand_id>  (235) 
64

>  <original_smiles>  (235) 
CN1C2CCCC1CC(N1C(=O)c3cc(Cl)cnc3C1=O)C2

>  <smiles>  (235) 
[H]c1nc2c(c([H])c1Cl)C(=O)N(C1([H])C([H])([H])C3([H])C([H])([H])C([H])([H])C([H])([H])C([H])(C1([H])[H])[N+]3([H])C([H])([H])[H])C2=O

$$$$
64:1:0
     RDKit          3D

 41 44  0  0  1  0  0  0  0  0999 V2000
   -1.3192   -8.7652    3.2092 C   0  0  0  0  0  0  0  0  0  0  0  0
   -0.1896   -9.5430    3.7781 N   0  0  2  0  0  0  0  0  0  0  0  0
    0.6800   -8.7958    4.7240 C   0  0  1  0  0  0  0  0  0  0  0  0
    1.4893   -9.8088    5.5556 C   0  0  0  0  0  0  0  0  0  0  0  0
    2.2799  -10.8187    4.6978 C   0  0  0  0  0  0  0  0  0  0  0  0
    1.4692  -11.3436    3.4929 C   0  0  0  0  0  0  0  0  0  0  0  0
    0.6382  -10.2571    2.7733 C   0  0  2  0  0  0  0  0  0  0  0  0
    1.4666   -9.2634    1.9261 C   0  0  0  0  0  0  0  0  0  0  0  0
    2.2892   -8.2415    2.7424 C   0  0  1  0  0  0  0  0  0  0  0  0
    2.7266   -7.1247    1.8830 N   0  0  0  0  0  0  0  0  0  0  0  0
    4.0293   -6.8652    1.5848 C   0  0  0  0  0  0  0  0  0  0  0  0
    5.0392   -7.4664    1.9372 O   0  0  0  0  0  0  0  0  0  0  0  0
    4.0167   -5.6689    0.7143 C   0  0  0  0  0  0  0  0  0  0  0  0
    5.0658   -4.9604    0.1131 C   0  0  0  0  0  0  0  0  0  0  0  0
    4.6792   -3.8423   -0.6662 C   0  0  0  0  0  0  0  0  0  0  0  0
    5.8647   -2.8779   -1.4702 Cl  0  0  0  0  0  0  0  0  0  0  0  0
    3.3005   -3.5239   -0.7861 C   0  0  0  0  0  0  0  0  0  0  0  0
    2.3093   -4.2419   -0.1971 N   0  0  0  0  0  0  0  0  0  0  0  0
    2.7127   -5.2944    0.5341 C   0  0  0  0  0  0  0  0  0  0  0  0
    1.8704   -6.2595    1.2808 C   0  0  0  0  0  0  0  0  0  0  0  0
    0.6331   -6.2646    1.3134 O   0  0  0  0  0  0  0  0  0  0  0  0
    1.5407   -7.7289    4.0053 C   0  0  0  0  0  0  0  0  0  0  0  0
   -0.9844   -7.9367    2.5791 H   0  0  0  0  0  0  0  0  0  0  0  0
   -1.9411   -8.3548    4.0111 H   0  0  0  0  0  0  0  0  0  0  0  0
   -1.9576   -9.4164    2.6037 H   0  0  0  0  0  0  0  0  0  0  0  0
    0.0342   -8.2637    5.4245 H   0  0  0  0  0  0  0  0  0  0  0  0
    2.1594   -9.2898    6.2424 H   0  0  0  0  0  0  0  0  0  0  0  0
    0.7921  -10.3628    6.1829 H   0  0  0  0  0  0  0  0  0  0  0  0
    3.2212  -10.3843    4.3652 H   0  0  0  0  0  0  0  0  0  0  0  0
    2.5818  -11.6603    5.3222 H   0  0  0  0  0  0  0  0  0  0  0  0
    2.1347  -11.8480    2.7916 H   0  0  0  0  0  0  0  0  0  0  0  0
    0.7837  -12.1115    3.8506 H   0  0  0  0  0  0  0  0  0  0  0  0
   -0.0337  -10.7784    2.0867 H   0  0  0  0  0  0  0  0  0  0  0  0
    2.1124   -9.8044    1.2283 H   0  0  0  0  0  0  0  0  0  0  0  0
    0.7692   -8.7131    1.3015 H   0  0  0  0  0  0  0  0  0  0  0  0
    3.1808   -8.7623    3.0807 H   0  0  0  0  0  0  0  0  0  0  0  0
    6.0948   -5.2549    0.2407 H   0  0  0  0  0  0  0  0  0  0  0  0
    2.9665   -2.6798   -1.3712 H   0  0  0  0  0  0  0  0  0  0  0  0
    0.8589   -6.9196    3.7512 H   0  0  0  0  0  0  0  0  0  0  0  0
    2.2606   -7.2882    4.6999 H   0  0  0  0  0  0  0  0  0  0  0  0
   -0.6568  -10.2570    4.3337 H   0  0  0  0  0  0  0  0  0  0  0  0
  1  2  1  0
  1 23  1  0
  1 24  1  0
  1 25  1  0
  2  7  1  0
  2  3  1  0
  2 41  1  1
  3 22  1  0
  3  4  1  0
  3 26  1  1
  4  5  1  0
  4 27  1  0
  4 28  1  0
  5  6  1  0
  5 29  1  0
  5 30  1  0
  6  7  1  0
  6 31  1  0
  6 32  1  0
  7  8  1  0
  7 33  1  6
  8  9  1  0
  8 34  1  0
  8 35  1  0
  9 10  1  0
  9 22  1  0
  9 36  1  1
 10 20  1  0
 10 11  1  0
 11 12  2  0
 11 13  1  0
 13 19  2  0
 13 14  1  0
 14 15  2  0
 14 37  1  0
 15 16  1  0
 15 17  1  0
 17 18  2  0
 17 38  1  0
 18 19  1  0
 19 20  1  0
 20 21  2  0
 22 39  1  0
 22 40  1  0
M  CHG  1   2   1
M  END
>  <i_m_ct_stereo_status>  (236) 
1

>  <s_m_source_file>  (236) 
/var/tmp/pbs.5076255.sched01/tmp548j1hfo/88g9dmtei7.sdf

>  <i_m_source_file_index>  (236) 
14

>  <i_lp_mmshare_version>  (236) 
48012

>  <i_f3d_flags>  (236) 
0

>  <s_epik_input>  (236) 
W0NIMl0xW0NIMl1bQ0gyXVtDSF0oTihbQ0gzXSlbQ0BASF0xMilbQ0gyXVtDQEhdKFtDSDJdMilOKEMzPU8pQyg9TyljKGMzNCluW2NIXWMoQ2wpW2NIXTQ=

>  <s_epik_cmdline>  (236) 
J2VwaWtfcHl0aG9uJywgJy1waHQnLCAnMi4wJywgJy1waCcsICc3LjAnLCAnLXRuJywgJzgnLCAnLW1hJywgJzIwMCcsICctaW1hZScsICc8aW5maWxlLm1hZT4nLCAnLW9tYWUnLCAnPG91dGZpbGUubWFlPic=

>  <r_epik_Ionization_Penalty>  (236) 
0.00301213

>  <r_epik_Ionization_Penalty_Charging>  (236) 
0.00301212

>  <r_epik_Ionization_Penalty_Neutral>  (236) 
1.06493e-08

>  <r_epik_State_Penalty>  (236) 
0.00211547

>  <r_epik_Charging_Adjusted_Penalty>  (236) 
0.00512759

>  <i_epik_Tot_Q>  (236) 
1

>  <i_epik_Tot_abs_Q>  (236) 
1

>  <s_lp_Force_Field>  (236) 
OPLS3e

>  <r_lp_Energy>  (236) 
35.4341

>  <b_lp_Chiralities_Consistent>  (236) 
1

>  <s_lp_Variant>  (236) 
64:0-2

>  <s_i_glide_gridfile>  (236) 
pfpi4k_grid

>  <i_i_glide_lignum>  (236) 
14

>  <i_i_glide_rotatable_bonds>  (236) 
1

>  <r_i_docking_score>  (236) 
-4.48094

>  <r_i_glide_ligand_efficiency>  (236) 
-0.203679

>  <r_i_glide_ligand_efficiency_sa>  (236) 
-0.570716

>  <r_i_glide_ligand_efficiency_ln>  (236) 
-1.0953

>  <r_i_glide_gscore>  (236) 
-4.48094

>  <r_i_glide_lipo>  (236) 
-0.55807

>  <r_i_glide_hbond>  (236) 
-0.36

>  <r_i_glide_metal>  (236) 
-0

>  <r_i_glide_rewards>  (236) 
-1.30489

>  <r_i_glide_evdw>  (236) 
-24.849

>  <r_i_glide_ecoul>  (236) 
-7.27514

>  <r_i_glide_erotb>  (236) 
0.181498

>  <r_i_glide_esite>  (236) 
-0.105757

>  <r_i_glide_emodel>  (236) 
-44.2415

>  <r_i_glide_energy>  (236) 
-32.1241

>  <r_i_glide_einternal>  (236) 
0.183277

>  <r_i_glide_intrahb_reward>  (236) 
-0

>  <i_i_glide_confnum>  (236) 
3

>  <i_i_glide_posenum>  (236) 
1

>  <r_i_glide_eff_state_penalty>  (236) 
0

>  <ligand_id>  (236) 
64

>  <original_smiles>  (236) 
CN1C2CCCC1CC(N1C(=O)c3cc(Cl)cnc3C1=O)C2

>  <smiles>  (236) 
[H]c1nc2c(c([H])c1Cl)C(=O)N(C1([H])C([H])([H])C3([H])C([H])([H])C([H])([H])C([H])([H])C([H])(C1([H])[H])[N+]3([H])C([H])([H])[H])C2=O

$$$$
64:1:1
     RDKit          3D

 41 44  0  0  1  0  0  0  0  0999 V2000
    2.5303   -3.6186   -1.2607 C   0  0  0  0  0  0  0  0  0  0  0  0
    3.8211   -3.4076   -0.5591 N   0  0  2  0  0  0  0  0  0  0  0  0
    4.6656   -4.6158   -0.3849 C   0  0  1  0  0  0  0  0  0  0  0  0
    6.1133   -4.1714   -0.0792 C   0  0  0  0  0  0  0  0  0  0  0  0
    6.2203   -3.1944    1.1103 C   0  0  0  0  0  0  0  0  0  0  0  0
    5.1083   -2.1220    1.1047 C   0  0  0  0  0  0  0  0  0  0  0  0
    3.7116   -2.6645    0.7161 C   0  0  2  0  0  0  0  0  0  0  0  0
    3.0184   -3.5160    1.8053 C   0  0  0  0  0  0  0  0  0  0  0  0
    3.6272   -4.9333    1.9872 C   0  0  1  0  0  0  0  0  0  0  0  0
    2.7142   -5.8146    2.7389 N   0  0  0  0  0  0  0  0  0  0  0  0
    2.9913   -6.3109    3.9760 C   0  0  0  0  0  0  0  0  0  0  0  0
    3.9836   -6.1360    4.6790 O   0  0  0  0  0  0  0  0  0  0  0  0
    1.8097   -7.1161    4.3579 C   0  0  0  0  0  0  0  0  0  0  0  0
    1.5408   -7.8601    5.5149 C   0  0  0  0  0  0  0  0  0  0  0  0
    0.2857   -8.5191    5.5395 C   0  0  0  0  0  0  0  0  0  0  0  0
   -0.1793   -9.4661    6.9066 Cl  0  0  0  0  0  0  0  0  0  0  0  0
   -0.5883   -8.3919    4.4277 C   0  0  0  0  0  0  0  0  0  0  0  0
   -0.3042   -7.6453    3.3274 N   0  0  0  0  0  0  0  0  0  0  0  0
    0.9017   -7.0514    3.3347 C   0  0  0  0  0  0  0  0  0  0  0  0
    1.5016   -6.2120    2.2756 C   0  0  0  0  0  0  0  0  0  0  0  0
    0.9642   -5.9326    1.2007 O   0  0  0  0  0  0  0  0  0  0  0  0
    4.0716   -5.5956    0.6527 C   0  0  0  0  0  0  0  0  0  0  0  0
    1.8611   -4.2883   -0.7163 H   0  0  0  0  0  0  0  0  0  0  0  0
    2.7060   -4.0331   -2.2503 H   0  0  0  0  0  0  0  0  0  0  0  0
    2.0292   -2.6655   -1.4240 H   0  0  0  0  0  0  0  0  0  0  0  0
    4.7036   -5.1471   -1.3363 H   0  0  0  0  0  0  0  0  0  0  0  0
    6.7515   -5.0428    0.0866 H   0  0  0  0  0  0  0  0  0  0  0  0
    6.5091   -3.6827   -0.9680 H   0  0  0  0  0  0  0  0  0  0  0  0
    6.2188   -3.7410    2.0526 H   0  0  0  0  0  0  0  0  0  0  0  0
    7.1932   -2.7062    1.0903 H   0  0  0  0  0  0  0  0  0  0  0  0
    5.0618   -1.6176    2.0734 H   0  0  0  0  0  0  0  0  0  0  0  0
    5.3794   -1.3481    0.3860 H   0  0  0  0  0  0  0  0  0  0  0  0
    3.0781   -1.7906    0.5412 H   0  0  0  0  0  0  0  0  0  0  0  0
    3.0054   -2.9776    2.7600 H   0  0  0  0  0  0  0  0  0  0  0  0
    1.9740   -3.5865    1.5142 H   0  0  0  0  0  0  0  0  0  0  0  0
    4.5231   -4.8058    2.5931 H   0  0  0  0  0  0  0  0  0  0  0  0
    2.2406   -7.9158    6.3328 H   0  0  0  0  0  0  0  0  0  0  0  0
   -1.5505   -8.8838    4.4076 H   0  0  0  0  0  0  0  0  0  0  0  0
    3.2299   -6.0718    0.1551 H   0  0  0  0  0  0  0  0  0  0  0  0
    4.7753   -6.4087    0.8609 H   0  0  0  0  0  0  0  0  0  0  0  0
    4.3500   -2.8072   -1.1719 H   0  0  0  0  0  0  0  0  0  0  0  0
  1  2  1  0
  1 23  1  0
  1 24  1  0
  1 25  1  0
  2  7  1  0
  2  3  1  0
  2 41  1  6
  3 22  1  0
  3  4  1  0
  3 26  1  6
  4  5  1  0
  4 27  1  0
  4 28  1  0
  5  6  1  0
  5 29  1  0
  5 30  1  0
  6  7  1  0
  6 31  1  0
  6 32  1  0
  7  8  1  0
  7 33  1  6
  8  9  1  0
  8 34  1  0
  8 35  1  0
  9 10  1  0
  9 22  1  0
  9 36  1  1
 10 20  1  0
 10 11  1  0
 11 12  2  0
 11 13  1  0
 13 19  2  0
 13 14  1  0
 14 15  2  0
 14 37  1  0
 15 16  1  0
 15 17  1  0
 17 18  2  0
 17 38  1  0
 18 19  1  0
 19 20  1  0
 20 21  2  0
 22 39  1  0
 22 40  1  0
M  CHG  1   2   1
M  END
>  <i_m_ct_stereo_status>  (237) 
1

>  <s_m_source_file>  (237) 
/var/tmp/pbs.5076255.sched01/tmp548j1hfo/88g9dmtei7.sdf

>  <i_m_source_file_index>  (237) 
14

>  <i_lp_mmshare_version>  (237) 
48012

>  <i_f3d_flags>  (237) 
0

>  <s_epik_input>  (237) 
W0NIMl0xW0NIMl1bQ0gyXVtDSF0oTihbQ0gzXSlbQ0BASF0xMilbQ0gyXVtDQEhdKFtDSDJdMilOKEMzPU8pQyg9TyljKGMzNCluW2NIXWMoQ2wpW2NIXTQ=

>  <s_epik_cmdline>  (237) 
J2VwaWtfcHl0aG9uJywgJy1waHQnLCAnMi4wJywgJy1waCcsICc3LjAnLCAnLXRuJywgJzgnLCAnLW1hJywgJzIwMCcsICctaW1hZScsICc8aW5maWxlLm1hZT4nLCAnLW9tYWUnLCAnPG91dGZpbGUubWFlPic=

>  <r_epik_Ionization_Penalty>  (237) 
0.00301213

>  <r_epik_Ionization_Penalty_Charging>  (237) 
0.00301212

>  <r_epik_Ionization_Penalty_Neutral>  (237) 
1.06493e-08

>  <r_epik_State_Penalty>  (237) 
0.00211547

>  <r_epik_Charging_Adjusted_Penalty>  (237) 
0.00512759

>  <i_epik_Tot_Q>  (237) 
1

>  <i_epik_Tot_abs_Q>  (237) 
1

>  <s_lp_Force_Field>  (237) 
OPLS3e

>  <r_lp_Energy>  (237) 
35.4341

>  <b_lp_Chiralities_Consistent>  (237) 
1

>  <s_lp_Variant>  (237) 
64:0-2

>  <s_i_glide_gridfile>  (237) 
pfpi4k_grid

>  <i_i_glide_lignum>  (237) 
14

>  <i_i_glide_rotatable_bonds>  (237) 
1

>  <r_i_docking_score>  (237) 
-3.56102

>  <r_i_glide_ligand_efficiency>  (237) 
-0.161865

>  <r_i_glide_ligand_efficiency_sa>  (237) 
-0.453551

>  <r_i_glide_ligand_efficiency_ln>  (237) 
-0.870444

>  <r_i_glide_gscore>  (237) 
-3.56102

>  <r_i_glide_lipo>  (237) 
-0.255838

>  <r_i_glide_hbond>  (237) 
-0.16

>  <r_i_glide_metal>  (237) 
-0

>  <r_i_glide_rewards>  (237) 
-1.22186

>  <r_i_glide_evdw>  (237) 
-16.9391

>  <r_i_glide_ecoul>  (237) 
-8.10136

>  <r_i_glide_erotb>  (237) 
0.181498

>  <r_i_glide_esite>  (237) 
-0.04266

>  <r_i_glide_emodel>  (237) 
-34.6492

>  <r_i_glide_energy>  (237) 
-25.0405

>  <r_i_glide_einternal>  (237) 
0.157977

>  <r_i_glide_intrahb_reward>  (237) 
-0

>  <i_i_glide_confnum>  (237) 
3

>  <i_i_glide_posenum>  (237) 
2

>  <r_i_glide_eff_state_penalty>  (237) 
0

>  <ligand_id>  (237) 
64

>  <original_smiles>  (237) 
CN1C2CCCC1CC(N1C(=O)c3cc(Cl)cnc3C1=O)C2

>  <smiles>  (237) 
[H]c1nc2c(c([H])c1Cl)C(=O)N(C1([H])C([H])([H])C3([H])C([H])([H])C([H])([H])C([H])([H])C([H])(C1([H])[H])[N+]3([H])C([H])([H])[H])C2=O

$$$$
64:1:2
     RDKit          3D

 41 44  0  0  1  0  0  0  0  0999 V2000
    6.2145   -3.6148    2.0087 C   0  0  0  0  0  0  0  0  0  0  0  0
    5.5284   -3.3994    0.7161 N   0  0  2  0  0  0  0  0  0  0  0  0
    4.2326   -2.6810    0.8025 C   0  0  1  0  0  0  0  0  0  0  0  0
    3.8840   -2.1303   -0.5899 C   0  0  0  0  0  0  0  0  0  0  0  0
    3.8958   -3.2068   -1.6965 C   0  0  0  0  0  0  0  0  0  0  0  0
    5.1003   -4.1701   -1.5850 C   0  0  0  0  0  0  0  0  0  0  0  0
    5.4083   -4.6084   -0.1405 C   0  0  2  0  0  0  0  0  0  0  0  0
    4.4209   -5.6212    0.4660 C   0  0  0  0  0  0  0  0  0  0  0  0
    3.0478   -5.0144    0.8700 C   0  0  1  0  0  0  0  0  0  0  0  0
    2.3161   -5.9237    1.7781 N   0  0  0  0  0  0  0  0  0  0  0  0
    2.7235   -6.2919    3.0187 C   0  0  0  0  0  0  0  0  0  0  0  0
    3.7191   -5.9528    3.6455 O   0  0  0  0  0  0  0  0  0  0  0  0
    1.6671   -7.1754    3.5491 C   0  0  0  0  0  0  0  0  0  0  0  0
    1.6104   -7.8253    4.7898 C   0  0  0  0  0  0  0  0  0  0  0  0
    0.4324   -8.5935    4.9884 C   0  0  0  0  0  0  0  0  0  0  0  0
    0.2082   -9.4543    6.4701 Cl  0  0  0  0  0  0  0  0  0  0  0  0
   -0.5545   -8.6460    3.9536 C   0  0  0  0  0  0  0  0  0  0  0  0
   -0.4592   -7.9752    2.7732 N   0  0  0  0  0  0  0  0  0  0  0  0
    0.6852   -7.2860    2.6121 C   0  0  0  0  0  0  0  0  0  0  0  0
    1.1102   -6.4791    1.4507 C   0  0  0  0  0  0  0  0  0  0  0  0
    0.4263   -6.2890    0.4584 O   0  0  0  0  0  0  0  0  0  0  0  0
    3.1475   -3.5688    1.4498 C   0  0  0  0  0  0  0  0  0  0  0  0
    5.6728   -4.2738    2.6908 H   0  0  0  0  0  0  0  0  0  0  0  0
    6.3516   -2.6579    2.5126 H   0  0  0  0  0  0  0  0  0  0  0  0
    7.2028   -4.0514    1.8480 H   0  0  0  0  0  0  0  0  0  0  0  0
    4.3701   -1.8166    1.4564 H   0  0  0  0  0  0  0  0  0  0  0  0
    2.9263   -1.6226   -0.5584 H   0  0  0  0  0  0  0  0  0  0  0  0
    4.6133   -1.3634   -0.8454 H   0  0  0  0  0  0  0  0  0  0  0  0
    2.9588   -3.7591   -1.7019 H   0  0  0  0  0  0  0  0  0  0  0  0
    3.9150   -2.7221   -2.6730 H   0  0  0  0  0  0  0  0  0  0  0  0
    4.9707   -5.0465   -2.2166 H   0  0  0  0  0  0  0  0  0  0  0  0
    5.9823   -3.6649   -1.9799 H   0  0  0  0  0  0  0  0  0  0  0  0
    6.3813   -5.1013   -0.1602 H   0  0  0  0  0  0  0  0  0  0  0  0
    4.2728   -6.4734   -0.1992 H   0  0  0  0  0  0  0  0  0  0  0  0
    4.9336   -6.0332    1.3325 H   0  0  0  0  0  0  0  0  0  0  0  0
    2.4943   -4.9171   -0.0601 H   0  0  0  0  0  0  0  0  0  0  0  0
    2.3884   -7.7358    5.5268 H   0  0  0  0  0  0  0  0  0  0  0  0
   -1.4599   -9.2195    4.0740 H   0  0  0  0  0  0  0  0  0  0  0  0
    3.3810   -3.5958    2.5148 H   0  0  0  0  0  0  0  0  0  0  0  0
    2.1780   -3.0681    1.3930 H   0  0  0  0  0  0  0  0  0  0  0  0
    6.1314   -2.7798    0.1953 H   0  0  0  0  0  0  0  0  0  0  0  0
  1  2  1  0
  1 23  1  0
  1 24  1  0
  1 25  1  0
  2  7  1  0
  2  3  1  0
  2 41  1  6
  3 22  1  0
  3  4  1  0
  3 26  1  1
  4  5  1  0
  4 27  1  0
  4 28  1  0
  5  6  1  0
  5 29  1  0
  5 30  1  0
  6  7  1  0
  6 31  1  0
  6 32  1  0
  7  8  1  0
  7 33  1  6
  8  9  1  0
  8 34  1  0
  8 35  1  0
  9 10  1  0
  9 22  1  0
  9 36  1  6
 10 20  1  0
 10 11  1  0
 11 12  2  0
 11 13  1  0
 13 19  2  0
 13 14  1  0
 14 15  2  0
 14 37  1  0
 15 16  1  0
 15 17  1  0
 17 18  2  0
 17 38  1  0
 18 19  1  0
 19 20  1  0
 20 21  2  0
 22 39  1  0
 22 40  1  0
M  CHG  1   2   1
M  END
>  <i_m_ct_stereo_status>  (238) 
1

>  <s_m_source_file>  (238) 
/var/tmp/pbs.5076255.sched01/tmp548j1hfo/88g9dmtei7.sdf

>  <i_m_source_file_index>  (238) 
14

>  <i_lp_mmshare_version>  (238) 
48012

>  <i_f3d_flags>  (238) 
0

>  <s_epik_input>  (238) 
W0NIMl0xW0NIMl1bQ0gyXVtDSF0oTihbQ0gzXSlbQ0BASF0xMilbQ0gyXVtDQEhdKFtDSDJdMilOKEMzPU8pQyg9TyljKGMzNCluW2NIXWMoQ2wpW2NIXTQ=

>  <s_epik_cmdline>  (238) 
J2VwaWtfcHl0aG9uJywgJy1waHQnLCAnMi4wJywgJy1waCcsICc3LjAnLCAnLXRuJywgJzgnLCAnLW1hJywgJzIwMCcsICctaW1hZScsICc8aW5maWxlLm1hZT4nLCAnLW9tYWUnLCAnPG91dGZpbGUubWFlPic=

>  <r_epik_Ionization_Penalty>  (238) 
0.00301213

>  <r_epik_Ionization_Penalty_Charging>  (238) 
0.00301212

>  <r_epik_Ionization_Penalty_Neutral>  (238) 
1.06493e-08

>  <r_epik_State_Penalty>  (238) 
0.00211547

>  <r_epik_Charging_Adjusted_Penalty>  (238) 
0.00512759

>  <i_epik_Tot_Q>  (238) 
1

>  <i_epik_Tot_abs_Q>  (238) 
1

>  <s_lp_Force_Field>  (238) 
OPLS3e

>  <r_lp_Energy>  (238) 
35.4341

>  <b_lp_Chiralities_Consistent>  (238) 
1

>  <s_lp_Variant>  (238) 
64:0-2

>  <s_i_glide_gridfile>  (238) 
pfpi4k_grid

>  <i_i_glide_lignum>  (238) 
14

>  <i_i_glide_rotatable_bonds>  (238) 
1

>  <r_i_docking_score>  (238) 
-3.42734

>  <r_i_glide_ligand_efficiency>  (238) 
-0.155788

>  <r_i_glide_ligand_efficiency_sa>  (238) 
-0.436524

>  <r_i_glide_ligand_efficiency_ln>  (238) 
-0.837766

>  <r_i_glide_gscore>  (238) 
-3.42734

>  <r_i_glide_lipo>  (238) 
-0.168031

>  <r_i_glide_hbond>  (238) 
-0.250586

>  <r_i_glide_metal>  (238) 
-0

>  <r_i_glide_rewards>  (238) 
-1.22186

>  <r_i_glide_evdw>  (238) 
-21.1807

>  <r_i_glide_ecoul>  (238) 
-5.42178

>  <r_i_glide_erotb>  (238) 
0.181498

>  <r_i_glide_esite>  (238) 
-0.0960518

>  <r_i_glide_emodel>  (238) 
-35.9495

>  <r_i_glide_energy>  (238) 
-26.6025

>  <r_i_glide_einternal>  (238) 
0.0973147

>  <r_i_glide_intrahb_reward>  (238) 
-0

>  <i_i_glide_confnum>  (238) 
1

>  <i_i_glide_posenum>  (238) 
23

>  <r_i_glide_eff_state_penalty>  (238) 
0

>  <ligand_id>  (238) 
64

>  <original_smiles>  (238) 
CN1C2CCCC1CC(N1C(=O)c3cc(Cl)cnc3C1=O)C2

>  <smiles>  (238) 
[H]c1nc2c(c([H])c1Cl)C(=O)N(C1([H])C([H])([H])C3([H])C([H])([H])C([H])([H])C([H])([H])C([H])(C1([H])[H])[N+]3([H])C([H])([H])[H])C2=O

$$$$
65:0:0
     RDKit          3D

 44 46  0  0  1  0  0  0  0  0999 V2000
    5.4579   -0.9381    2.3414 C   0  0  0  0  0  0  0  0  0  0  0  0
    5.2852   -1.3522    0.8711 C   0  0  0  0  0  0  0  0  0  0  0  0
    4.8152   -2.8228    0.6474 C   0  0  2  0  0  0  0  0  0  0  0  0
    5.8573   -3.8894    1.0056 C   0  0  0  0  0  0  0  0  0  0  0  0
    7.0276   -3.5822    1.2783 O   0  0  0  0  0  0  0  0  0  0  0  0
    5.4553   -5.2239    1.0449 N   0  0  0  0  0  0  0  0  0  0  0  0
    4.1768   -5.8056    0.8169 C   0  0  0  0  0  0  0  0  0  0  0  0
    4.7015   -6.9640    1.6695 C   0  0  0  0  0  0  0  0  0  0  0  0
    4.4614   -8.3951    1.2206 C   0  0  0  0  0  0  0  0  0  0  0  0
    6.1227   -6.3607    1.6399 C   0  0  0  0  0  0  0  0  0  0  0  0
    4.3586   -3.0028   -0.7493 N   0  0  0  0  0  0  0  0  0  0  0  0
    3.0829   -3.3261   -1.0462 C   0  0  0  0  0  0  0  0  0  0  0  0
    2.2206   -3.6596   -0.2600 O   0  0  0  0  0  0  0  0  0  0  0  0
    2.9581   -3.2915   -2.3813 N   0  0  0  0  0  0  0  0  0  0  0  0
    4.2017   -2.9005   -3.0587 C   0  0  1  0  0  0  0  0  0  0  0  0
    4.6909   -4.0356   -3.9560 C   0  0  0  0  0  0  0  0  0  0  0  0
    4.0887   -1.5672   -3.7815 C   0  0  0  0  0  0  0  0  0  0  0  0
    3.3473   -0.4140   -3.1310 C   0  0  0  0  0  0  0  0  0  0  0  0
    2.7760   -1.0782   -4.3607 C   0  0  0  0  0  0  0  0  0  0  0  0
    5.1042   -2.7580   -1.8423 C   0  0  0  0  0  0  0  0  0  0  0  0
    6.2876   -2.3851   -1.8912 O   0  0  0  0  0  0  0  0  0  0  0  0
    5.7775    0.1041    2.4253 H   0  0  0  0  0  0  0  0  0  0  0  0
    6.2094   -1.5513    2.8392 H   0  0  0  0  0  0  0  0  0  0  0  0
    4.5167   -1.0448    2.8828 H   0  0  0  0  0  0  0  0  0  0  0  0
    4.5781   -0.6582    0.4108 H   0  0  0  0  0  0  0  0  0  0  0  0
    6.2311   -1.1675    0.3611 H   0  0  0  0  0  0  0  0  0  0  0  0
    3.9597   -2.9671    1.3278 H   0  0  0  0  0  0  0  0  0  0  0  0
    3.3020   -5.3258    1.2720 H   0  0  0  0  0  0  0  0  0  0  0  0
    4.0514   -6.0758   -0.2568 H   0  0  0  0  0  0  0  0  0  0  0  0
    4.2618   -6.8015    2.6746 H   0  0  0  0  0  0  0  0  0  0  0  0
    4.8731   -8.5462    0.2084 H   0  0  0  0  0  0  0  0  0  0  0  0
    3.3937   -8.6376    1.1705 H   0  0  0  0  0  0  0  0  0  0  0  0
    4.9434   -9.1021    1.8912 H   0  0  0  0  0  0  0  0  0  0  0  0
    6.8000   -6.8474    0.9082 H   0  0  0  0  0  0  0  0  0  0  0  0
    6.5632   -6.1796    2.6214 H   0  0  0  0  0  0  0  0  0  0  0  0
    2.0897   -3.3824   -2.8647 H   0  0  0  0  0  0  0  0  0  0  0  0
    5.7077   -3.8592   -4.3227 H   0  0  0  0  0  0  0  0  0  0  0  0
    4.0195   -4.1341   -4.7971 H   0  0  0  0  0  0  0  0  0  0  0  0
    4.6883   -4.9903   -3.4317 H   0  0  0  0  0  0  0  0  0  0  0  0
    4.9901   -1.2859   -4.3371 H   0  0  0  0  0  0  0  0  0  0  0  0
    2.8554   -0.6178   -2.1761 H   0  0  0  0  0  0  0  0  0  0  0  0
    3.7820    0.5755   -3.2389 H   0  0  0  0  0  0  0  0  0  0  0  0
    2.8281   -0.5212   -5.2921 H   0  0  0  0  0  0  0  0  0  0  0  0
    1.9247   -1.7581   -4.2661 H   0  0  0  0  0  0  0  0  0  0  0  0
  1  2  1  0
  1 22  1  0
  1 23  1  0
  1 24  1  0
  2  3  1  0
  2 25  1  0
  2 26  1  0
  3  4  1  0
  3 11  1  0
  3 27  1  1
  4  5  2  0
  4  6  1  0
  6 10  1  0
  6  7  1  0
  7  8  1  0
  7 28  1  0
  7 29  1  0
  8  9  1  0
  8 10  1  0
  8 30  1  0
  9 31  1  0
  9 32  1  0
  9 33  1  0
 10 34  1  0
 10 35  1  0
 11 20  1  0
 11 12  1  0
 12 13  2  0
 12 14  1  0
 14 15  1  0
 14 36  1  0
 15 16  1  6
 15 17  1  0
 15 20  1  0
 16 37  1  0
 16 38  1  0
 16 39  1  0
 17 19  1  0
 17 18  1  0
 17 40  1  0
 18 19  1  0
 18 41  1  0
 18 42  1  0
 19 43  1  0
 19 44  1  0
 20 21  2  0
M  END
>  <i_m_ct_stereo_status>  (239) 
1

>  <s_m_source_file>  (239) 
/var/tmp/pbs.5076255.sched01/tmp548j1hfo/88g9dmtei7.sdf

>  <i_m_source_file_index>  (239) 
15

>  <i_lp_mmshare_version>  (239) 
48012

>  <i_f3d_flags>  (239) 
0

>  <s_epik_input>  (239) 
W0NIM11bQ0hdKFtDSDJdMSlbQ0gyXU4xQyg9TylbQ0BASF0oW0NIMl1bQ0gzXSlOKEMyPU8pQyg9TylbTkhdW0NAQF0yKFtDSDNdKVtDSF0zW0NIMl1bQ0gyXTM=

>  <s_epik_cmdline>  (239) 
J2VwaWtfcHl0aG9uJywgJy1waHQnLCAnMi4wJywgJy1waCcsICc3LjAnLCAnLXRuJywgJzgnLCAnLW1hJywgJzIwMCcsICctaW1hZScsICc8aW5maWxlLm1hZT4nLCAnLW9tYWUnLCAnPG91dGZpbGUubWFlPic=

>  <r_lp_tautomer_probability>  (239) 
1

>  <r_epik_Ionization_Penalty>  (239) 
4.67615e-05

>  <r_epik_Ionization_Penalty_Charging>  (239) 
0

>  <r_epik_Ionization_Penalty_Neutral>  (239) 
4.67615e-05

>  <r_epik_State_Penalty>  (239) 
-0

>  <r_epik_Charging_Adjusted_Penalty>  (239) 
0

>  <i_epik_Tot_Q>  (239) 
0

>  <i_epik_Tot_abs_Q>  (239) 
0

>  <s_lp_Force_Field>  (239) 
OPLS3e

>  <r_lp_Energy>  (239) 
-1.19437

>  <b_lp_Chiralities_Consistent>  (239) 
1

>  <s_lp_Variant>  (239) 
65:0-1

>  <s_i_glide_gridfile>  (239) 
pfpi4k_grid

>  <i_i_glide_lignum>  (239) 
15

>  <i_i_glide_rotatable_bonds>  (239) 
5

>  <r_i_docking_score>  (239) 
-3.4403

>  <r_i_glide_ligand_efficiency>  (239) 
-0.163824

>  <r_i_glide_ligand_efficiency_sa>  (239) 
-0.451978

>  <r_i_glide_ligand_efficiency_ln>  (239) 
-0.850608

>  <r_i_glide_gscore>  (239) 
-3.4403

>  <r_i_glide_lipo>  (239) 
-0.761946

>  <r_i_glide_hbond>  (239) 
-0.0546073

>  <r_i_glide_metal>  (239) 
-0

>  <r_i_glide_rewards>  (239) 
-1.78464

>  <r_i_glide_evdw>  (239) 
-25.9481

>  <r_i_glide_ecoul>  (239) 
-2.54359

>  <r_i_glide_erotb>  (239) 
0.849242

>  <r_i_glide_esite>  (239) 
-0.00940291

>  <r_i_glide_emodel>  (239) 
-34.0069

>  <r_i_glide_energy>  (239) 
-28.4917

>  <r_i_glide_einternal>  (239) 
0.946785

>  <r_i_glide_intrahb_reward>  (239) 
-0

>  <i_i_glide_confnum>  (239) 
4

>  <i_i_glide_posenum>  (239) 
3

>  <r_i_glide_eff_state_penalty>  (239) 
0

>  <ligand_id>  (239) 
65

>  <original_smiles>  (239) 
CCC(C(=O)N1CC(C)C1)N1C(=O)NC(C)(C2CC2)C1=O

>  <smiles>  (239) 
[H]N1C(=O)N(C([H])(C(=O)N2C([H])([H])C([H])(C([H])([H])[H])C2([H])[H])C([H])([H])C([H])([H])[H])C(=O)C1(C([H])([H])[H])C1([H])C([H])([H])C1([H])[H]

$$$$
65:0:1
     RDKit          3D

 44 46  0  0  1  0  0  0  0  0999 V2000
    4.9209   -4.9558    1.6891 C   0  0  0  0  0  0  0  0  0  0  0  0
    5.4312   -3.5065    1.5601 C   0  0  0  0  0  0  0  0  0  0  0  0
    4.4399   -2.5237    0.8967 C   0  0  2  0  0  0  0  0  0  0  0  0
    3.1873   -2.1985    1.7696 C   0  0  0  0  0  0  0  0  0  0  0  0
    2.5409   -3.0650    2.3384 O   0  0  0  0  0  0  0  0  0  0  0  0
    2.8382   -0.8745    1.9577 N   0  0  0  0  0  0  0  0  0  0  0  0
    1.6813   -0.3387    2.6073 C   0  0  0  0  0  0  0  0  0  0  0  0
    2.0778    0.9723    1.8955 C   0  0  0  0  0  0  0  0  0  0  0  0
    2.0539    2.2731    2.6728 C   0  0  0  0  0  0  0  0  0  0  0  0
    3.4335    0.3489    1.5243 C   0  0  0  0  0  0  0  0  0  0  0  0
    4.1840   -2.8452   -0.5281 N   0  0  0  0  0  0  0  0  0  0  0  0
    3.0843   -3.4527   -1.0069 C   0  0  0  0  0  0  0  0  0  0  0  0
    2.1960   -4.0259   -0.3700 O   0  0  0  0  0  0  0  0  0  0  0  0
    3.0879   -3.3055   -2.3359 N   0  0  0  0  0  0  0  0  0  0  0  0
    4.3132   -2.7378   -2.8474 C   0  0  1  0  0  0  0  0  0  0  0  0
    5.0392   -3.7887   -3.6834 C   0  0  0  0  0  0  0  0  0  0  0  0
    4.0942   -1.4517   -3.6406 C   0  0  0  0  0  0  0  0  0  0  0  0
    3.1460   -0.4012   -3.1178 C   0  0  0  0  0  0  0  0  0  0  0  0
    2.7821   -1.1530   -4.3600 C   0  0  0  0  0  0  0  0  0  0  0  0
    5.0084   -2.4561   -1.5102 C   0  0  0  0  0  0  0  0  0  0  0  0
    6.0970   -1.8803   -1.4138 O   0  0  0  0  0  0  0  0  0  0  0  0
    5.6806   -5.5863    2.1514 H   0  0  0  0  0  0  0  0  0  0  0  0
    4.6843   -5.3713    0.7070 H   0  0  0  0  0  0  0  0  0  0  0  0
    4.0194   -5.0169    2.3037 H   0  0  0  0  0  0  0  0  0  0  0  0
    5.7231   -3.1281    2.5498 H   0  0  0  0  0  0  0  0  0  0  0  0
    6.3534   -3.5059    0.9624 H   0  0  0  0  0  0  0  0  0  0  0  0
    5.0171   -1.6003    0.8779 H   0  0  0  0  0  0  0  0  0  0  0  0
    0.7428   -0.7550    2.2515 H   0  0  0  0  0  0  0  0  0  0  0  0
    1.7997   -0.3389    3.7069 H   0  0  0  0  0  0  0  0  0  0  0  0
    1.4398    1.0289    0.9858 H   0  0  0  0  0  0  0  0  0  0  0  0
    2.6682    2.1870    3.5844 H   0  0  0  0  0  0  0  0  0  0  0  0
    1.0432    2.5545    2.9801 H   0  0  0  0  0  0  0  0  0  0  0  0
    2.4693    3.0893    2.0824 H   0  0  0  0  0  0  0  0  0  0  0  0
    4.2818    0.6117    2.1888 H   0  0  0  0  0  0  0  0  0  0  0  0
    3.6919    0.3930    0.4647 H   0  0  0  0  0  0  0  0  0  0  0  0
    2.3030   -3.5434   -2.9133 H   0  0  0  0  0  0  0  0  0  0  0  0
    6.0515   -3.4661   -3.9264 H   0  0  0  0  0  0  0  0  0  0  0  0
    4.5066   -4.0178   -4.6111 H   0  0  0  0  0  0  0  0  0  0  0  0
    5.0969   -4.7080   -3.1131 H   0  0  0  0  0  0  0  0  0  0  0  0
    4.9899   -1.0552   -4.1270 H   0  0  0  0  0  0  0  0  0  0  0  0
    2.6174   -0.6537   -2.1976 H   0  0  0  0  0  0  0  0  0  0  0  0
    3.4804    0.6289   -3.2201 H   0  0  0  0  0  0  0  0  0  0  0  0
    2.8479   -0.6037   -5.2975 H   0  0  0  0  0  0  0  0  0  0  0  0
    1.9815   -1.8900   -4.3103 H   0  0  0  0  0  0  0  0  0  0  0  0
  1  2  1  0
  1 22  1  0
  1 23  1  0
  1 24  1  0
  2  3  1  0
  2 25  1  0
  2 26  1  0
  3  4  1  0
  3 11  1  0
  3 27  1  6
  4  5  2  0
  4  6  1  0
  6 10  1  0
  6  7  1  0
  7  8  1  0
  7 28  1  0
  7 29  1  0
  8  9  1  0
  8 10  1  0
  8 30  1  0
  9 31  1  0
  9 32  1  0
  9 33  1  0
 10 34  1  0
 10 35  1  0
 11 20  1  0
 11 12  1  0
 12 13  2  0
 12 14  1  0
 14 15  1  0
 14 36  1  0
 15 16  1  6
 15 17  1  0
 15 20  1  0
 16 37  1  0
 16 38  1  0
 16 39  1  0
 17 19  1  0
 17 18  1  0
 17 40  1  0
 18 19  1  0
 18 41  1  0
 18 42  1  0
 19 43  1  0
 19 44  1  0
 20 21  2  0
M  END
>  <i_m_ct_stereo_status>  (240) 
1

>  <s_m_source_file>  (240) 
/var/tmp/pbs.5076255.sched01/tmp548j1hfo/88g9dmtei7.sdf

>  <i_m_source_file_index>  (240) 
15

>  <i_lp_mmshare_version>  (240) 
48012

>  <i_f3d_flags>  (240) 
0

>  <s_epik_input>  (240) 
W0NIM11bQ0hdKFtDSDJdMSlbQ0gyXU4xQyg9TylbQ0BASF0oW0NIMl1bQ0gzXSlOKEMyPU8pQyg9TylbTkhdW0NAQF0yKFtDSDNdKVtDSF0zW0NIMl1bQ0gyXTM=

>  <s_epik_cmdline>  (240) 
J2VwaWtfcHl0aG9uJywgJy1waHQnLCAnMi4wJywgJy1waCcsICc3LjAnLCAnLXRuJywgJzgnLCAnLW1hJywgJzIwMCcsICctaW1hZScsICc8aW5maWxlLm1hZT4nLCAnLW9tYWUnLCAnPG91dGZpbGUubWFlPic=

>  <r_lp_tautomer_probability>  (240) 
1

>  <r_epik_Ionization_Penalty>  (240) 
4.67615e-05

>  <r_epik_Ionization_Penalty_Charging>  (240) 
0

>  <r_epik_Ionization_Penalty_Neutral>  (240) 
4.67615e-05

>  <r_epik_State_Penalty>  (240) 
-0

>  <r_epik_Charging_Adjusted_Penalty>  (240) 
0

>  <i_epik_Tot_Q>  (240) 
0

>  <i_epik_Tot_abs_Q>  (240) 
0

>  <s_lp_Force_Field>  (240) 
OPLS3e

>  <r_lp_Energy>  (240) 
-1.19437

>  <b_lp_Chiralities_Consistent>  (240) 
1

>  <s_lp_Variant>  (240) 
65:0-1

>  <s_i_glide_gridfile>  (240) 
pfpi4k_grid

>  <i_i_glide_lignum>  (240) 
15

>  <i_i_glide_rotatable_bonds>  (240) 
5

>  <r_i_docking_score>  (240) 
-3.1397

>  <r_i_glide_ligand_efficiency>  (240) 
-0.149509

>  <r_i_glide_ligand_efficiency_sa>  (240) 
-0.412485

>  <r_i_glide_ligand_efficiency_ln>  (240) 
-0.776284

>  <r_i_glide_gscore>  (240) 
-3.1397

>  <r_i_glide_lipo>  (240) 
-0.58915

>  <r_i_glide_hbond>  (240) 
-0.11546

>  <r_i_glide_metal>  (240) 
-0

>  <r_i_glide_rewards>  (240) 
-1.50925

>  <r_i_glide_evdw>  (240) 
-25.3655

>  <r_i_glide_ecoul>  (240) 
-2.85568

>  <r_i_glide_erotb>  (240) 
0.849242

>  <r_i_glide_esite>  (240) 
-0.0784504

>  <r_i_glide_emodel>  (240) 
-30.6432

>  <r_i_glide_energy>  (240) 
-28.2212

>  <r_i_glide_einternal>  (240) 
3.7544

>  <r_i_glide_intrahb_reward>  (240) 
-0

>  <i_i_glide_confnum>  (240) 
2

>  <i_i_glide_posenum>  (240) 
15

>  <r_i_glide_eff_state_penalty>  (240) 
0

>  <ligand_id>  (240) 
65

>  <original_smiles>  (240) 
CCC(C(=O)N1CC(C)C1)N1C(=O)NC(C)(C2CC2)C1=O

>  <smiles>  (240) 
[H]N1C(=O)N(C([H])(C(=O)N2C([H])([H])C([H])(C([H])([H])[H])C2([H])[H])C([H])([H])C([H])([H])[H])C(=O)C1(C([H])([H])[H])C1([H])C([H])([H])C1([H])[H]

$$$$
65:0:2
     RDKit          3D

 44 46  0  0  1  0  0  0  0  0999 V2000
    5.9974   -3.8707    1.6534 C   0  0  0  0  0  0  0  0  0  0  0  0
    6.0106   -2.3914    1.2328 C   0  0  0  0  0  0  0  0  0  0  0  0
    4.6200   -1.8652    0.7931 C   0  0  2  0  0  0  0  0  0  0  0  0
    3.5802   -1.7447    1.9392 C   0  0  0  0  0  0  0  0  0  0  0  0
    3.4177   -2.6591    2.7508 O   0  0  0  0  0  0  0  0  0  0  0  0
    2.8917   -0.5598    2.1155 N   0  0  0  0  0  0  0  0  0  0  0  0
    2.7978    0.6429    1.3242 C   0  0  0  0  0  0  0  0  0  0  0  0
    2.3794    1.2906    2.6747 C   0  0  0  0  0  0  0  0  0  0  0  0
    1.1991    2.2373    2.6785 C   0  0  0  0  0  0  0  0  0  0  0  0
    2.1687   -0.1157    3.2728 C   0  0  0  0  0  0  0  0  0  0  0  0
    4.1158   -2.5395   -0.4202 N   0  0  0  0  0  0  0  0  0  0  0  0
    3.0503   -3.3556   -0.5140 C   0  0  0  0  0  0  0  0  0  0  0  0
    2.4630   -3.9839    0.3832 O   0  0  0  0  0  0  0  0  0  0  0  0
    2.7320   -3.4454   -1.8101 N   0  0  0  0  0  0  0  0  0  0  0  0
    3.6876   -2.8028   -2.6861 C   0  0  1  0  0  0  0  0  0  0  0  0
    4.4145   -3.8563   -3.5403 C   0  0  0  0  0  0  0  0  0  0  0  0
    3.0626   -1.7104   -3.5582 C   0  0  0  0  0  0  0  0  0  0  0  0
    3.9223   -0.8146   -4.4225 C   0  0  0  0  0  0  0  0  0  0  0  0
    3.1784   -0.2325   -3.2462 C   0  0  0  0  0  0  0  0  0  0  0  0
    4.6383   -2.2438   -1.6346 C   0  0  0  0  0  0  0  0  0  0  0  0
    5.6582   -1.6079   -1.8959 O   0  0  0  0  0  0  0  0  0  0  0  0
    6.9955   -4.1963    1.9421 H   0  0  0  0  0  0  0  0  0  0  0  0
    5.6533   -4.5071    0.8349 H   0  0  0  0  0  0  0  0  0  0  0  0
    5.3369   -4.0378    2.5045 H   0  0  0  0  0  0  0  0  0  0  0  0
    6.4050   -1.7700    2.0483 H   0  0  0  0  0  0  0  0  0  0  0  0
    6.7232   -2.2665    0.4101 H   0  0  0  0  0  0  0  0  0  0  0  0
    4.8429   -0.8395    0.4911 H   0  0  0  0  0  0  0  0  0  0  0  0
    3.7431    1.0105    0.9276 H   0  0  0  0  0  0  0  0  0  0  0  0
    1.9817    0.5626    0.5903 H   0  0  0  0  0  0  0  0  0  0  0  0
    3.2680    1.7532    3.1381 H   0  0  0  0  0  0  0  0  0  0  0  0
    0.3237    1.7588    2.2254 H   0  0  0  0  0  0  0  0  0  0  0  0
    1.4186    3.1397    2.1071 H   0  0  0  0  0  0  0  0  0  0  0  0
    0.9360    2.5223    3.6980 H   0  0  0  0  0  0  0  0  0  0  0  0
    1.1223   -0.4604    3.2738 H   0  0  0  0  0  0  0  0  0  0  0  0
    2.6860   -0.2934    4.2197 H   0  0  0  0  0  0  0  0  0  0  0  0
    1.8986   -3.8869   -2.1532 H   0  0  0  0  0  0  0  0  0  0  0  0
    5.2407   -3.4247   -4.0988 H   0  0  0  0  0  0  0  0  0  0  0  0
    3.7463   -4.3367   -4.2582 H   0  0  0  0  0  0  0  0  0  0  0  0
    4.8428   -4.6461   -2.9194 H   0  0  0  0  0  0  0  0  0  0  0  0
    2.1168   -2.0212   -4.0094 H   0  0  0  0  0  0  0  0  0  0  0  0
    4.9924   -0.9988   -4.3427 H   0  0  0  0  0  0  0  0  0  0  0  0
    3.5632   -0.5452   -5.4175 H   0  0  0  0  0  0  0  0  0  0  0  0
    2.2992    0.3676   -3.4917 H   0  0  0  0  0  0  0  0  0  0  0  0
    3.7876    0.0833   -2.3869 H   0  0  0  0  0  0  0  0  0  0  0  0
  1  2  1  0
  1 22  1  0
  1 23  1  0
  1 24  1  0
  2  3  1  0
  2 25  1  0
  2 26  1  0
  3  4  1  0
  3 11  1  0
  3 27  1  6
  4  5  2  0
  4  6  1  0
  6 10  1  0
  6  7  1  0
  7  8  1  0
  7 28  1  0
  7 29  1  0
  8  9  1  0
  8 10  1  0
  8 30  1  0
  9 31  1  0
  9 32  1  0
  9 33  1  0
 10 34  1  0
 10 35  1  0
 11 20  1  0
 11 12  1  0
 12 13  2  0
 12 14  1  0
 14 15  1  0
 14 36  1  0
 15 16  1  6
 15 17  1  0
 15 20  1  0
 16 37  1  0
 16 38  1  0
 16 39  1  0
 17 19  1  0
 17 18  1  0
 17 40  1  0
 18 19  1  0
 18 41  1  0
 18 42  1  0
 19 43  1  0
 19 44  1  0
 20 21  2  0
M  END
>  <i_m_ct_stereo_status>  (241) 
1

>  <s_m_source_file>  (241) 
/var/tmp/pbs.5076255.sched01/tmp548j1hfo/88g9dmtei7.sdf

>  <i_m_source_file_index>  (241) 
15

>  <i_lp_mmshare_version>  (241) 
48012

>  <i_f3d_flags>  (241) 
0

>  <s_epik_input>  (241) 
W0NIM11bQ0hdKFtDSDJdMSlbQ0gyXU4xQyg9TylbQ0BASF0oW0NIMl1bQ0gzXSlOKEMyPU8pQyg9TylbTkhdW0NAQF0yKFtDSDNdKVtDSF0zW0NIMl1bQ0gyXTM=

>  <s_epik_cmdline>  (241) 
J2VwaWtfcHl0aG9uJywgJy1waHQnLCAnMi4wJywgJy1waCcsICc3LjAnLCAnLXRuJywgJzgnLCAnLW1hJywgJzIwMCcsICctaW1hZScsICc8aW5maWxlLm1hZT4nLCAnLW9tYWUnLCAnPG91dGZpbGUubWFlPic=

>  <r_lp_tautomer_probability>  (241) 
1

>  <r_epik_Ionization_Penalty>  (241) 
4.67615e-05

>  <r_epik_Ionization_Penalty_Charging>  (241) 
0

>  <r_epik_Ionization_Penalty_Neutral>  (241) 
4.67615e-05

>  <r_epik_State_Penalty>  (241) 
-0

>  <r_epik_Charging_Adjusted_Penalty>  (241) 
0

>  <i_epik_Tot_Q>  (241) 
0

>  <i_epik_Tot_abs_Q>  (241) 
0

>  <s_lp_Force_Field>  (241) 
OPLS3e

>  <r_lp_Energy>  (241) 
-1.19437

>  <b_lp_Chiralities_Consistent>  (241) 
1

>  <s_lp_Variant>  (241) 
65:0-1

>  <s_i_glide_gridfile>  (241) 
pfpi4k_grid

>  <i_i_glide_lignum>  (241) 
15

>  <i_i_glide_rotatable_bonds>  (241) 
5

>  <r_i_docking_score>  (241) 
-3.05841

>  <r_i_glide_ligand_efficiency>  (241) 
-0.145638

>  <r_i_glide_ligand_efficiency_sa>  (241) 
-0.401805

>  <r_i_glide_ligand_efficiency_ln>  (241) 
-0.756185

>  <r_i_glide_gscore>  (241) 
-3.05841

>  <r_i_glide_lipo>  (241) 
-0.6505

>  <r_i_glide_hbond>  (241) 
-0.0263397

>  <r_i_glide_metal>  (241) 
-0

>  <r_i_glide_rewards>  (241) 
-1.47749

>  <r_i_glide_evdw>  (241) 
-24.4297

>  <r_i_glide_ecoul>  (241) 
-3.09523

>  <r_i_glide_erotb>  (241) 
0.849242

>  <r_i_glide_esite>  (241) 
-0.067544

>  <r_i_glide_emodel>  (241) 
-25.7817

>  <r_i_glide_energy>  (241) 
-27.525

>  <r_i_glide_einternal>  (241) 
12.9811

>  <r_i_glide_intrahb_reward>  (241) 
-0

>  <i_i_glide_confnum>  (241) 
5

>  <i_i_glide_posenum>  (241) 
40

>  <r_i_glide_eff_state_penalty>  (241) 
0

>  <ligand_id>  (241) 
65

>  <original_smiles>  (241) 
CCC(C(=O)N1CC(C)C1)N1C(=O)NC(C)(C2CC2)C1=O

>  <smiles>  (241) 
[H]N1C(=O)N(C([H])(C(=O)N2C([H])([H])C([H])(C([H])([H])[H])C2([H])[H])C([H])([H])C([H])([H])[H])C(=O)C1(C([H])([H])[H])C1([H])C([H])([H])C1([H])[H]

$$$$
66:0:0
     RDKit          3D

 60 64  0  0  1  0  0  0  0  0999 V2000
    5.7154   -1.3966    3.2373 C   0  0  0  0  0  0  0  0  0  0  0  0
    5.7863   -2.4113    2.3776 C   0  0  0  0  0  0  0  0  0  0  0  0
    6.5995   -2.2433    1.0602 C   0  0  2  0  0  0  0  0  0  0  0  0
    6.3119   -1.2134   -0.1041 C   0  0  0  0  0  0  0  0  0  0  0  0
    5.3275   -1.6350   -1.3442 C   0  0  2  0  0  0  0  0  0  0  0  0
    4.0977   -0.7840   -1.2474 C   0  0  2  0  0  0  0  0  0  0  0  0
    3.6558   -0.7354    0.2112 C   0  0  0  0  0  0  0  0  0  0  0  0
    3.5722   -2.1687    0.7425 C   0  0  1  0  0  0  0  0  0  0  0  0
    2.2126   -2.4912    0.4884 O   0  0  0  0  0  0  0  0  0  0  0  0
    4.5944   -3.3684    0.2108 C   0  0  1  0  0  0  0  0  0  0  0  0
    6.2559   -3.4371    0.3424 C   0  0  2  0  0  0  0  0  0  0  0  0
    7.1621   -4.7062    0.6367 C   0  0  1  0  0  0  0  0  0  0  0  0
    8.5089   -4.5884    1.3748 C   0  0  0  0  0  0  0  0  0  0  0  0
    6.4584   -5.9642    1.0383 C   0  0  0  0  0  0  0  0  0  0  0  0
    4.9589   -5.8870    0.8188 C   0  0  1  0  0  0  0  0  0  0  0  0
    4.4328   -7.2166    1.3984 C   0  0  0  0  0  0  0  0  0  0  0  0
    4.2189   -7.3777    2.5997 O   0  0  0  0  0  0  0  0  0  0  0  0
    4.3388   -8.1685    0.4715 O   0  0  0  0  0  0  0  0  0  0  0  0
    3.7557   -9.4169    0.7803 C   0  0  0  0  0  0  0  0  0  0  0  0
    4.3336   -4.5172    1.3092 C   0  0  2  0  0  0  0  0  0  0  0  0
    2.8422   -4.8101    1.7052 C   0  0  0  0  0  0  0  0  0  0  0  0
    5.0094   -3.7923    2.6083 C   0  0  1  0  0  0  0  0  0  0  0  0
    5.7592   -4.6418    3.4389 O   0  0  0  0  0  0  0  0  0  0  0  0
    4.6276   -3.0647   -1.3645 C   0  0  2  0  0  0  0  0  0  0  0  0
    5.2843   -4.0580   -2.3090 C   0  0  0  0  0  0  0  0  0  0  0  0
    3.3450   -2.7073   -2.1865 C   0  0  1  0  0  0  0  0  0  0  0  0
    2.2440   -3.5598   -2.0028 O   0  0  0  0  0  0  0  0  0  0  0  0
    3.0641   -1.3753   -2.0079 O   0  0  0  0  0  0  0  0  0  0  0  0
    5.1496   -1.4910    4.1591 H   0  0  0  0  0  0  0  0  0  0  0  0
    6.2141   -0.4542    3.0375 H   0  0  0  0  0  0  0  0  0  0  0  0
    7.6719   -2.1813    1.2827 H   0  0  0  0  0  0  0  0  0  0  0  0
    6.1933   -0.1881    0.2424 H   0  0  0  0  0  0  0  0  0  0  0  0
    7.3014   -1.1952   -0.5496 H   0  0  0  0  0  0  0  0  0  0  0  0
    5.8098   -1.4161   -2.2990 H   0  0  0  0  0  0  0  0  0  0  0  0
    4.3038    0.1657   -1.7122 H   0  0  0  0  0  0  0  0  0  0  0  0
    4.2801   -0.1016    0.8346 H   0  0  0  0  0  0  0  0  0  0  0  0
    2.6788   -0.2590    0.2966 H   0  0  0  0  0  0  0  0  0  0  0  0
    3.5044   -2.0224    1.8152 H   0  0  0  0  0  0  0  0  0  0  0  0
    1.8314   -1.8502   -0.1142 H   0  0  0  0  0  0  0  0  0  0  0  0
    6.8318   -3.2568   -0.5661 H   0  0  0  0  0  0  0  0  0  0  0  0
    7.6033   -4.9657   -0.3220 H   0  0  0  0  0  0  0  0  0  0  0  0
    8.3384   -4.4602    2.4304 H   0  0  0  0  0  0  0  0  0  0  0  0
    9.1493   -3.7899    0.9832 H   0  0  0  0  0  0  0  0  0  0  0  0
    9.0584   -5.5343    1.3336 H   0  0  0  0  0  0  0  0  0  0  0  0
    6.8897   -6.7185    0.4109 H   0  0  0  0  0  0  0  0  0  0  0  0
    6.7380   -6.3032    2.0412 H   0  0  0  0  0  0  0  0  0  0  0  0
    4.7407   -5.9456   -0.2544 H   0  0  0  0  0  0  0  0  0  0  0  0
    3.8058   -9.9907   -0.1429 H   0  0  0  0  0  0  0  0  0  0  0  0
    2.7010   -9.2952    1.0186 H   0  0  0  0  0  0  0  0  0  0  0  0
    4.2608   -9.9531    1.5850 H   0  0  0  0  0  0  0  0  0  0  0  0
    2.7281   -5.5808    2.4701 H   0  0  0  0  0  0  0  0  0  0  0  0
    2.2563   -5.0717    0.8154 H   0  0  0  0  0  0  0  0  0  0  0  0
    2.3736   -3.9562    2.1983 H   0  0  0  0  0  0  0  0  0  0  0  0
    4.2054   -3.5052    3.2776 H   0  0  0  0  0  0  0  0  0  0  0  0
    5.2492   -5.4282    3.5788 H   0  0  0  0  0  0  0  0  0  0  0  0
    4.6114   -4.9154   -2.4436 H   0  0  0  0  0  0  0  0  0  0  0  0
    6.1563   -4.4454   -1.8751 H   0  0  0  0  0  0  0  0  0  0  0  0
    5.5281   -3.6521   -3.2934 H   0  0  0  0  0  0  0  0  0  0  0  0
    3.5821   -2.7336   -3.2518 H   0  0  0  0  0  0  0  0  0  0  0  0
    2.5113   -4.4296   -2.2784 H   0  0  0  0  0  0  0  0  0  0  0  0
  1  2  2  0
  1 29  1  0
  1 30  1  0
  2 22  1  0
  2  3  1  0
  3 11  1  0
  3  4  1  0
  3 31  1  1
  4  5  1  0
  4 32  1  0
  4 33  1  0
  5 24  1  0
  5  6  1  0
  5 34  1  6
  6 28  1  0
  6  7  1  0
  6 35  1  6
  7  8  1  0
  7 36  1  0
  7 37  1  0
  8  9  1  0
  8 10  1  0
  8 38  1  1
  9 39  1  0
 10 20  1  6
 10 11  1  0
 10 24  1  0
 11 12  1  0
 11 40  1  6
 12 13  1  0
 12 14  1  0
 12 41  1  6
 13 42  1  0
 13 43  1  0
 13 44  1  0
 14 15  1  0
 14 45  1  0
 14 46  1  0
 15 16  1  0
 15 20  1  0
 15 47  1  6
 16 17  2  0
 16 18  1  0
 18 19  1  0
 19 48  1  0
 19 49  1  0
 19 50  1  0
 20 21  1  1
 20 22  1  0
 21 51  1  0
 21 52  1  0
 21 53  1  0
 22 23  1  0
 22 54  1  1
 23 55  1  0
 24 25  1  6
 24 26  1  0
 25 56  1  0
 25 57  1  0
 25 58  1  0
 26 27  1  0
 26 28  1  0
 26 59  1  6
 27 60  1  0
M  END
>  <i_m_ct_stereo_status>  (242) 
1

>  <s_m_source_file>  (242) 
/var/tmp/pbs.5076255.sched01/tmp548j1hfo/88g9dmtei7.sdf

>  <i_m_source_file_index>  (242) 
16

>  <i_lp_mmshare_version>  (242) 
48012

>  <i_f3d_flags>  (242) 
0

>  <s_epik_input>  (242) 
W0NIM11bQ0BIXTFbQ0gyXVtDQEBIXShDKD1PKU9bQ0gzXSlbQ0BAXTIoW0NIM10pW0NAQEhdKFtPSF0pQyg9W0NIMl0pW0NAQEhdKFtDQEBIXTFDMjM0KVtDSDJdW0NAQEhdNVtDQEhdKFtDSDJdW0NASF0zW09IXSlPW0NASF0oW09IXSlbQ0BdNDVbQ0gzXQ==

>  <s_epik_cmdline>  (242) 
J2VwaWtfcHl0aG9uJywgJy1waHQnLCAnMi4wJywgJy1waCcsICc3LjAnLCAnLXRuJywgJzgnLCAnLW1hJywgJzIwMCcsICctaW1hZScsICc8aW5maWxlLm1hZT4nLCAnLW9tYWUnLCAnPG91dGZpbGUubWFlPic=

>  <r_lp_tautomer_probability>  (242) 
1

>  <r_epik_Ionization_Penalty>  (242) 
2.01028e-07

>  <r_epik_Ionization_Penalty_Charging>  (242) 
0

>  <r_epik_Ionization_Penalty_Neutral>  (242) 
2.01028e-07

>  <r_epik_State_Penalty>  (242) 
-0

>  <r_epik_Charging_Adjusted_Penalty>  (242) 
0

>  <i_epik_Tot_Q>  (242) 
0

>  <i_epik_Tot_abs_Q>  (242) 
0

>  <s_epik_Chemistry_Notes>  (242) 
This compound has an ester and may undergo hydrolysis at high or low pH. This compound contains an acetal/aminal-like group ( X-CH(R)-Y where X, Y are N, S, or O) that may be acid/base labile, releasing an aldehyde.

>  <s_lp_Force_Field>  (242) 
OPLS3e

>  <r_lp_Energy>  (242) 
228.574

>  <b_lp_Chiralities_Consistent>  (242) 
1

>  <s_lp_Variant>  (242) 
66:0-1

>  <s_i_glide_gridfile>  (242) 
pfpi4k_grid

>  <i_i_glide_lignum>  (242) 
16

>  <i_i_glide_rotatable_bonds>  (242) 
5

>  <r_i_docking_score>  (242) 
-2.90747

>  <r_i_glide_ligand_efficiency>  (242) 
-0.103838

>  <r_i_glide_ligand_efficiency_sa>  (242) 
-0.315314

>  <r_i_glide_ligand_efficiency_ln>  (242) 
-0.671129

>  <r_i_glide_gscore>  (242) 
-2.90747

>  <r_i_glide_lipo>  (242) 
-0.626724

>  <r_i_glide_hbond>  (242) 
0

>  <r_i_glide_metal>  (242) 
-0

>  <r_i_glide_rewards>  (242) 
-1.34896

>  <r_i_glide_evdw>  (242) 
1.08551

>  <r_i_glide_ecoul>  (242) 
-6.97078

>  <r_i_glide_erotb>  (242) 
0.0887251

>  <r_i_glide_esite>  (242) 
-0.029172

>  <r_i_glide_emodel>  (242) 
-11.9224

>  <r_i_glide_energy>  (242) 
-5.88527

>  <r_i_glide_einternal>  (242) 
4.67988

>  <r_i_glide_intrahb_reward>  (242) 
-0.5

>  <i_i_glide_confnum>  (242) 
5

>  <i_i_glide_posenum>  (242) 
21

>  <r_i_glide_eff_state_penalty>  (242) 
0

>  <ligand_id>  (242) 
66

>  <original_smiles>  (242) 
C=C1C2CC3C4CC(O)C5(C2C(C)CC(C(=O)OC)C5(C)C1O)C3(C)C(O)O4

>  <smiles>  (242) 
[H]OC1([H])OC2([H])C([H])([H])C([H])(O[H])C34C5([H])C([H])(C(=C([H])[H])C([H])(O[H])C3(C([H])([H])[H])C([H])(C(=O)OC([H])([H])[H])C([H])([H])C5([H])C([H])([H])[H])C([H])([H])C2([H])C14C([H])([H])[H]

$$$$
66:0:1
     RDKit          3D

 60 64  0  0  1  0  0  0  0  0999 V2000
    4.8913   -5.3487    6.5467 C   0  0  0  0  0  0  0  0  0  0  0  0
    4.3440   -5.9381    5.4696 C   0  0  0  0  0  0  0  0  0  0  0  0
    5.2439   -6.4985    4.3278 C   0  0  2  0  0  0  0  0  0  0  0  0
    6.2396   -5.6995    3.3640 C   0  0  0  0  0  0  0  0  0  0  0  0
    5.6522   -5.0790    1.9588 C   0  0  2  0  0  0  0  0  0  0  0  0
    5.6562   -3.5607    2.0609 C   0  0  2  0  0  0  0  0  0  0  0  0
    5.0645   -3.1618    3.3938 C   0  0  0  0  0  0  0  0  0  0  0  0
    3.7271   -3.8915    3.5918 C   0  0  1  0  0  0  0  0  0  0  0  0
    2.8610   -2.8850    3.0861 O   0  0  0  0  0  0  0  0  0  0  0  0
    3.4659   -5.4403    2.9945 C   0  0  1  0  0  0  0  0  0  0  0  0
    4.2647   -6.8746    3.3321 C   0  0  2  0  0  0  0  0  0  0  0  0
    3.6637   -8.3391    3.4454 C   0  0  1  0  0  0  0  0  0  0  0  0
    4.2834   -9.2845    4.5042 C   0  0  0  0  0  0  0  0  0  0  0  0
    2.1548   -8.4643    3.4234 C   0  0  0  0  0  0  0  0  0  0  0  0
    1.4503   -7.1510    3.1054 C   0  0  1  0  0  0  0  0  0  0  0  0
   -0.0634   -7.4511    3.2931 C   0  0  0  0  0  0  0  0  0  0  0  0
   -0.7316   -7.0051    4.2225 O   0  0  0  0  0  0  0  0  0  0  0  0
   -0.5350   -8.3008    2.3649 O   0  0  0  0  0  0  0  0  0  0  0  0
   -1.8674   -8.7719    2.4741 C   0  0  0  0  0  0  0  0  0  0  0  0
    2.1385   -5.8748    3.7814 C   0  0  2  0  0  0  0  0  0  0  0  0
    1.0166   -4.7803    3.9023 C   0  0  0  0  0  0  0  0  0  0  0  0
    2.7523   -6.0395    5.2985 C   0  0  1  0  0  0  0  0  0  0  0  0
    2.2364   -7.1232    6.0322 O   0  0  0  0  0  0  0  0  0  0  0  0
    4.1146   -5.3444    1.5398 C   0  0  2  0  0  0  0  0  0  0  0  0
    3.8289   -6.5011    0.5161 C   0  0  0  0  0  0  0  0  0  0  0  0
    3.9257   -4.0813    0.6355 C   0  0  1  0  0  0  0  0  0  0  0  0
    2.5961   -3.6728    0.5085 O   0  0  0  0  0  0  0  0  0  0  0  0
    4.7796   -3.0737    1.0618 O   0  0  0  0  0  0  0  0  0  0  0  0
    4.2797   -4.9481    7.3428 H   0  0  0  0  0  0  0  0  0  0  0  0
    5.9640   -5.2607    6.6519 H   0  0  0  0  0  0  0  0  0  0  0  0
    5.8243   -7.3201    4.7546 H   0  0  0  0  0  0  0  0  0  0  0  0
    6.9090   -5.0509    3.9077 H   0  0  0  0  0  0  0  0  0  0  0  0
    6.9425   -6.4648    3.0137 H   0  0  0  0  0  0  0  0  0  0  0  0
    6.3132   -5.3533    1.1368 H   0  0  0  0  0  0  0  0  0  0  0  0
    6.6486   -3.1270    1.9318 H   0  0  0  0  0  0  0  0  0  0  0  0
    5.7354   -3.3632    4.2254 H   0  0  0  0  0  0  0  0  0  0  0  0
    4.9539   -2.0710    3.4310 H   0  0  0  0  0  0  0  0  0  0  0  0
    3.5391   -3.7852    4.6522 H   0  0  0  0  0  0  0  0  0  0  0  0
    2.9831   -2.8514    2.1394 H   0  0  0  0  0  0  0  0  0  0  0  0
    4.9242   -7.2397    2.5489 H   0  0  0  0  0  0  0  0  0  0  0  0
    3.9441   -8.8611    2.5260 H   0  0  0  0  0  0  0  0  0  0  0  0
    4.1406   -8.9303    5.5241 H   0  0  0  0  0  0  0  0  0  0  0  0
    5.3496   -9.4284    4.3448 H   0  0  0  0  0  0  0  0  0  0  0  0
    3.8347  -10.2762    4.4465 H   0  0  0  0  0  0  0  0  0  0  0  0
    1.8877   -9.2054    2.6735 H   0  0  0  0  0  0  0  0  0  0  0  0
    1.7847   -8.8983    4.3556 H   0  0  0  0  0  0  0  0  0  0  0  0
    1.5482   -6.9866    2.0302 H   0  0  0  0  0  0  0  0  0  0  0  0
   -2.1114   -9.4736    1.6720 H   0  0  0  0  0  0  0  0  0  0  0  0
   -2.5630   -7.9306    2.4140 H   0  0  0  0  0  0  0  0  0  0  0  0
   -2.0296   -9.2758    3.4296 H   0  0  0  0  0  0  0  0  0  0  0  0
    0.1570   -5.0908    4.4776 H   0  0  0  0  0  0  0  0  0  0  0  0
    0.6811   -4.4464    2.9224 H   0  0  0  0  0  0  0  0  0  0  0  0
    1.3200   -3.9021    4.4667 H   0  0  0  0  0  0  0  0  0  0  0  0
    2.3856   -5.2076    5.8946 H   0  0  0  0  0  0  0  0  0  0  0  0
    2.4550   -7.9287    5.5644 H   0  0  0  0  0  0  0  0  0  0  0  0
    2.8412   -6.3426    0.0904 H   0  0  0  0  0  0  0  0  0  0  0  0
    3.8221   -7.5244    0.8728 H   0  0  0  0  0  0  0  0  0  0  0  0
    4.5351   -6.4898   -0.3155 H   0  0  0  0  0  0  0  0  0  0  0  0
    4.2763   -4.2799   -0.3765 H   0  0  0  0  0  0  0  0  0  0  0  0
    2.5643   -2.9785   -0.1407 H   0  0  0  0  0  0  0  0  0  0  0  0
  1  2  2  0
  1 29  1  0
  1 30  1  0
  2 22  1  0
  2  3  1  0
  3 11  1  0
  3  4  1  0
  3 31  1  1
  4  5  1  0
  4 32  1  0
  4 33  1  0
  5 24  1  0
  5  6  1  0
  5 34  1  6
  6 28  1  0
  6  7  1  0
  6 35  1  6
  7  8  1  0
  7 36  1  0
  7 37  1  0
  8  9  1  0
  8 10  1  0
  8 38  1  1
  9 39  1  0
 10 20  1  6
 10 11  1  0
 10 24  1  0
 11 12  1  0
 11 40  1  6
 12 13  1  0
 12 14  1  0
 12 41  1  6
 13 42  1  0
 13 43  1  0
 13 44  1  0
 14 15  1  0
 14 45  1  0
 14 46  1  0
 15 16  1  0
 15 20  1  0
 15 47  1  6
 16 17  2  0
 16 18  1  0
 18 19  1  0
 19 48  1  0
 19 49  1  0
 19 50  1  0
 20 21  1  1
 20 22  1  0
 21 51  1  0
 21 52  1  0
 21 53  1  0
 22 23  1  0
 22 54  1  1
 23 55  1  0
 24 25  1  6
 24 26  1  0
 25 56  1  0
 25 57  1  0
 25 58  1  0
 26 27  1  0
 26 28  1  0
 26 59  1  6
 27 60  1  0
M  END
>  <i_m_ct_stereo_status>  (243) 
1

>  <s_m_source_file>  (243) 
/var/tmp/pbs.5076255.sched01/tmp548j1hfo/88g9dmtei7.sdf

>  <i_m_source_file_index>  (243) 
16

>  <i_lp_mmshare_version>  (243) 
48012

>  <i_f3d_flags>  (243) 
0

>  <s_epik_input>  (243) 
W0NIM11bQ0BIXTFbQ0gyXVtDQEBIXShDKD1PKU9bQ0gzXSlbQ0BAXTIoW0NIM10pW0NAQEhdKFtPSF0pQyg9W0NIMl0pW0NAQEhdKFtDQEBIXTFDMjM0KVtDSDJdW0NAQEhdNVtDQEhdKFtDSDJdW0NASF0zW09IXSlPW0NASF0oW09IXSlbQ0BdNDVbQ0gzXQ==

>  <s_epik_cmdline>  (243) 
J2VwaWtfcHl0aG9uJywgJy1waHQnLCAnMi4wJywgJy1waCcsICc3LjAnLCAnLXRuJywgJzgnLCAnLW1hJywgJzIwMCcsICctaW1hZScsICc8aW5maWxlLm1hZT4nLCAnLW9tYWUnLCAnPG91dGZpbGUubWFlPic=

>  <r_lp_tautomer_probability>  (243) 
1

>  <r_epik_Ionization_Penalty>  (243) 
2.01028e-07

>  <r_epik_Ionization_Penalty_Charging>  (243) 
0

>  <r_epik_Ionization_Penalty_Neutral>  (243) 
2.01028e-07

>  <r_epik_State_Penalty>  (243) 
-0

>  <r_epik_Charging_Adjusted_Penalty>  (243) 
0

>  <i_epik_Tot_Q>  (243) 
0

>  <i_epik_Tot_abs_Q>  (243) 
0

>  <s_epik_Chemistry_Notes>  (243) 
This compound has an ester and may undergo hydrolysis at high or low pH. This compound contains an acetal/aminal-like group ( X-CH(R)-Y where X, Y are N, S, or O) that may be acid/base labile, releasing an aldehyde.

>  <s_lp_Force_Field>  (243) 
OPLS3e

>  <r_lp_Energy>  (243) 
228.574

>  <b_lp_Chiralities_Consistent>  (243) 
1

>  <s_lp_Variant>  (243) 
66:0-1

>  <s_i_glide_gridfile>  (243) 
pfpi4k_grid

>  <i_i_glide_lignum>  (243) 
16

>  <i_i_glide_rotatable_bonds>  (243) 
5

>  <r_i_docking_score>  (243) 
-2.30097

>  <r_i_glide_ligand_efficiency>  (243) 
-0.0821774

>  <r_i_glide_ligand_efficiency_sa>  (243) 
-0.249539

>  <r_i_glide_ligand_efficiency_ln>  (243) 
-0.531131

>  <r_i_glide_gscore>  (243) 
-2.30097

>  <r_i_glide_lipo>  (243) 
-0.464775

>  <r_i_glide_hbond>  (243) 
0

>  <r_i_glide_metal>  (243) 
-0

>  <r_i_glide_rewards>  (243) 
-0.751476

>  <r_i_glide_evdw>  (243) 
-21.7428

>  <r_i_glide_ecoul>  (243) 
-0.517509

>  <r_i_glide_erotb>  (243) 
0.12675

>  <r_i_glide_esite>  (243) 
-0.0466995

>  <r_i_glide_emodel>  (243) 
-23.5179

>  <r_i_glide_energy>  (243) 
-22.2603

>  <r_i_glide_einternal>  (243) 
1.98572

>  <r_i_glide_intrahb_reward>  (243) 
-0

>  <i_i_glide_confnum>  (243) 
5

>  <i_i_glide_posenum>  (243) 
7

>  <r_i_glide_eff_state_penalty>  (243) 
0

>  <ligand_id>  (243) 
66

>  <original_smiles>  (243) 
C=C1C2CC3C4CC(O)C5(C2C(C)CC(C(=O)OC)C5(C)C1O)C3(C)C(O)O4

>  <smiles>  (243) 
[H]OC1([H])OC2([H])C([H])([H])C([H])(O[H])C34C5([H])C([H])(C(=C([H])[H])C([H])(O[H])C3(C([H])([H])[H])C([H])(C(=O)OC([H])([H])[H])C([H])([H])C5([H])C([H])([H])[H])C([H])([H])C2([H])C14C([H])([H])[H]

$$$$
66:0:2
     RDKit          3D

 60 64  0  0  1  0  0  0  0  0999 V2000
    5.3906   -1.8947    3.9445 C   0  0  0  0  0  0  0  0  0  0  0  0
    5.3983   -2.8741    3.0156 C   0  0  0  0  0  0  0  0  0  0  0  0
    6.2700   -2.7787    1.7278 C   0  0  2  0  0  0  0  0  0  0  0  0
    6.3226   -1.6465    0.5925 C   0  0  0  0  0  0  0  0  0  0  0  0
    5.3597   -1.8569   -0.6873 C   0  0  2  0  0  0  0  0  0  0  0  0
    4.2616   -0.8410   -0.6338 C   0  0  2  0  0  0  0  0  0  0  0  0
    3.6979   -0.7677    0.7700 C   0  0  0  0  0  0  0  0  0  0  0  0
    3.3748   -2.1919    1.2261 C   0  0  1  0  0  0  0  0  0  0  0  0
    2.0158   -2.2574    0.8847 O   0  0  0  0  0  0  0  0  0  0  0  0
    4.2318   -3.5278    0.7219 C   0  0  1  0  0  0  0  0  0  0  0  0
    5.8322   -3.8902    0.9482 C   0  0  2  0  0  0  0  0  0  0  0  0
    6.5294   -5.3032    1.2010 C   0  0  1  0  0  0  0  0  0  0  0  0
    7.7511   -5.3781    2.1493 C   0  0  0  0  0  0  0  0  0  0  0  0
    5.6054   -6.4595    1.4803 C   0  0  0  0  0  0  0  0  0  0  0  0
    4.1403   -6.1193    1.2551 C   0  0  1  0  0  0  0  0  0  0  0  0
    3.3889   -7.3769    1.7640 C   0  0  0  0  0  0  0  0  0  0  0  0
    2.7460   -7.4572    2.8166 O   0  0  0  0  0  0  0  0  0  0  0  0
    3.5860   -8.4096    0.9596 O   0  0  0  0  0  0  0  0  0  0  0  0
    2.7775   -9.5396    1.1328 C   0  0  0  0  0  0  0  0  0  0  0  0
    3.7416   -4.6643    1.7518 C   0  0  2  0  0  0  0  0  0  0  0  0
    2.2036   -4.6998    2.0281 C   0  0  0  0  0  0  0  0  0  0  0  0
    4.4129   -4.1135    3.1318 C   0  0  1  0  0  0  0  0  0  0  0  0
    4.9585   -5.0940    3.9781 O   0  0  0  0  0  0  0  0  0  0  0  0
    4.4994   -3.1901   -0.8141 C   0  0  2  0  0  0  0  0  0  0  0  0
    5.0779   -4.2595   -1.7161 C   0  0  0  0  0  0  0  0  0  0  0  0
    3.3488   -2.6554   -1.7143 C   0  0  1  0  0  0  0  0  0  0  0  0
    2.1336   -3.3710   -1.6145 O   0  0  0  0  0  0  0  0  0  0  0  0
    3.2486   -1.2908   -1.5126 O   0  0  0  0  0  0  0  0  0  0  0  0
    4.7671   -1.9636    4.8301 H   0  0  0  0  0  0  0  0  0  0  0  0
    6.0007   -1.0169    3.8321 H   0  0  0  0  0  0  0  0  0  0  0  0
    7.2721   -2.9850    1.9924 H   0  0  0  0  0  0  0  0  0  0  0  0
    6.3347   -0.6361    0.9915 H   0  0  0  0  0  0  0  0  0  0  0  0
    7.3357   -1.7168    0.1775 H   0  0  0  0  0  0  0  0  0  0  0  0
    5.9132   -1.6899   -1.6074 H   0  0  0  0  0  0  0  0  0  0  0  0
    4.6317    0.1190   -0.9603 H   0  0  0  0  0  0  0  0  0  0  0  0
    4.3739   -0.2845    1.4758 H   0  0  0  0  0  0  0  0  0  0  0  0
    2.8218   -0.1121    0.7911 H   0  0  0  0  0  0  0  0  0  0  0  0
    3.2443   -2.0977    2.2989 H   0  0  0  0  0  0  0  0  0  0  0  0
    1.7773   -1.6566    0.1658 H   0  0  0  0  0  0  0  0  0  0  0  0
    6.5128   -3.7477    0.1110 H   0  0  0  0  0  0  0  0  0  0  0  0
    7.0191   -5.5868    0.2648 H   0  0  0  0  0  0  0  0  0  0  0  0
    7.4768   -5.1059    3.1648 H   0  0  0  0  0  0  0  0  0  0  0  0
    8.5586   -4.7120    1.8461 H   0  0  0  0  0  0  0  0  0  0  0  0
    8.1863   -6.3759    2.2045 H   0  0  0  0  0  0  0  0  0  0  0  0
    5.8964   -7.2733    0.8222 H   0  0  0  0  0  0  0  0  0  0  0  0
    5.7759   -6.8880    2.4718 H   0  0  0  0  0  0  0  0  0  0  0  0
    3.9861   -6.1032    0.1701 H   0  0  0  0  0  0  0  0  0  0  0  0
    3.0250  -10.1828    0.2959 H   0  0  0  0  0  0  0  0  0  0  0  0
    1.7162   -9.3098    1.0352 H   0  0  0  0  0  0  0  0  0  0  0  0
    2.9554  -10.0527    2.0798 H   0  0  0  0  0  0  0  0  0  0  0  0
    1.8645   -5.3908    2.7876 H   0  0  0  0  0  0  0  0  0  0  0  0
    1.6632   -4.8866    1.0977 H   0  0  0  0  0  0  0  0  0  0  0  0
    1.8212   -3.7996    2.5048 H   0  0  0  0  0  0  0  0  0  0  0  0
    3.6135   -3.7349    3.7590 H   0  0  0  0  0  0  0  0  0  0  0  0
    5.6145   -5.5710    3.4967 H   0  0  0  0  0  0  0  0  0  0  0  0
    4.2778   -4.9463   -1.8087 H   0  0  0  0  0  0  0  0  0  0  0  0
    5.8034   -4.9338   -1.2972 H   0  0  0  0  0  0  0  0  0  0  0  0
    5.4263   -3.9284   -2.6950 H   0  0  0  0  0  0  0  0  0  0  0  0
    3.6183   -2.6825   -2.7725 H   0  0  0  0  0  0  0  0  0  0  0  0
    1.4551   -2.7867   -1.9246 H   0  0  0  0  0  0  0  0  0  0  0  0
  1  2  2  0
  1 29  1  0
  1 30  1  0
  2 22  1  0
  2  3  1  0
  3 11  1  0
  3  4  1  0
  3 31  1  1
  4  5  1  0
  4 32  1  0
  4 33  1  0
  5 24  1  0
  5  6  1  0
  5 34  1  6
  6 28  1  0
  6  7  1  0
  6 35  1  6
  7  8  1  0
  7 36  1  0
  7 37  1  0
  8  9  1  0
  8 10  1  0
  8 38  1  1
  9 39  1  0
 10 20  1  6
 10 11  1  0
 10 24  1  0
 11 12  1  0
 11 40  1  6
 12 13  1  0
 12 14  1  0
 12 41  1  6
 13 42  1  0
 13 43  1  0
 13 44  1  0
 14 15  1  0
 14 45  1  0
 14 46  1  0
 15 16  1  0
 15 20  1  0
 15 47  1  6
 16 17  2  0
 16 18  1  0
 18 19  1  0
 19 48  1  0
 19 49  1  0
 19 50  1  0
 20 21  1  1
 20 22  1  0
 21 51  1  0
 21 52  1  0
 21 53  1  0
 22 23  1  0
 22 54  1  1
 23 55  1  0
 24 25  1  6
 24 26  1  0
 25 56  1  0
 25 57  1  0
 25 58  1  0
 26 27  1  0
 26 28  1  0
 26 59  1  6
 27 60  1  0
M  END
>  <i_m_ct_stereo_status>  (244) 
1

>  <s_m_source_file>  (244) 
/var/tmp/pbs.5076255.sched01/tmp548j1hfo/88g9dmtei7.sdf

>  <i_m_source_file_index>  (244) 
16

>  <i_lp_mmshare_version>  (244) 
48012

>  <i_f3d_flags>  (244) 
0

>  <s_epik_input>  (244) 
W0NIM11bQ0BIXTFbQ0gyXVtDQEBIXShDKD1PKU9bQ0gzXSlbQ0BAXTIoW0NIM10pW0NAQEhdKFtPSF0pQyg9W0NIMl0pW0NAQEhdKFtDQEBIXTFDMjM0KVtDSDJdW0NAQEhdNVtDQEhdKFtDSDJdW0NASF0zW09IXSlPW0NASF0oW09IXSlbQ0BdNDVbQ0gzXQ==

>  <s_epik_cmdline>  (244) 
J2VwaWtfcHl0aG9uJywgJy1waHQnLCAnMi4wJywgJy1waCcsICc3LjAnLCAnLXRuJywgJzgnLCAnLW1hJywgJzIwMCcsICctaW1hZScsICc8aW5maWxlLm1hZT4nLCAnLW9tYWUnLCAnPG91dGZpbGUubWFlPic=

>  <r_lp_tautomer_probability>  (244) 
1

>  <r_epik_Ionization_Penalty>  (244) 
2.01028e-07

>  <r_epik_Ionization_Penalty_Charging>  (244) 
0

>  <r_epik_Ionization_Penalty_Neutral>  (244) 
2.01028e-07

>  <r_epik_State_Penalty>  (244) 
-0

>  <r_epik_Charging_Adjusted_Penalty>  (244) 
0

>  <i_epik_Tot_Q>  (244) 
0

>  <i_epik_Tot_abs_Q>  (244) 
0

>  <s_epik_Chemistry_Notes>  (244) 
This compound has an ester and may undergo hydrolysis at high or low pH. This compound contains an acetal/aminal-like group ( X-CH(R)-Y where X, Y are N, S, or O) that may be acid/base labile, releasing an aldehyde.

>  <s_lp_Force_Field>  (244) 
OPLS3e

>  <r_lp_Energy>  (244) 
228.574

>  <b_lp_Chiralities_Consistent>  (244) 
1

>  <s_lp_Variant>  (244) 
66:0-1

>  <s_i_glide_gridfile>  (244) 
pfpi4k_grid

>  <i_i_glide_lignum>  (244) 
16

>  <i_i_glide_rotatable_bonds>  (244) 
5

>  <r_i_docking_score>  (244) 
-2.02657

>  <r_i_glide_ligand_efficiency>  (244) 
-0.0723776

>  <r_i_glide_ligand_efficiency_sa>  (244) 
-0.219781

>  <r_i_glide_ligand_efficiency_ln>  (244) 
-0.467792

>  <r_i_glide_gscore>  (244) 
-2.02657

>  <r_i_glide_lipo>  (244) 
-0.641094

>  <r_i_glide_hbond>  (244) 
0

>  <r_i_glide_metal>  (244) 
-0

>  <r_i_glide_rewards>  (244) 
-0.795005

>  <r_i_glide_evdw>  (244) 
-2.11301

>  <r_i_glide_ecoul>  (244) 
-3.60847

>  <r_i_glide_erotb>  (244) 
0.0887251

>  <r_i_glide_esite>  (244) 
-0.0322776

>  <r_i_glide_emodel>  (244) 
-5.59758

>  <r_i_glide_energy>  (244) 
-5.72148

>  <r_i_glide_einternal>  (244) 
3.45366

>  <r_i_glide_intrahb_reward>  (244) 
-0

>  <i_i_glide_confnum>  (244) 
5

>  <i_i_glide_posenum>  (244) 
17

>  <r_i_glide_eff_state_penalty>  (244) 
0

>  <ligand_id>  (244) 
66

>  <original_smiles>  (244) 
C=C1C2CC3C4CC(O)C5(C2C(C)CC(C(=O)OC)C5(C)C1O)C3(C)C(O)O4

>  <smiles>  (244) 
[H]OC1([H])OC2([H])C([H])([H])C([H])(O[H])C34C5([H])C([H])(C(=C([H])[H])C([H])(O[H])C3(C([H])([H])[H])C([H])(C(=O)OC([H])([H])[H])C([H])([H])C5([H])C([H])([H])[H])C([H])([H])C2([H])C14C([H])([H])[H]

$$$$
67:0:0
     RDKit          3D

 55 60  0  0  1  0  0  0  0  0999 V2000
    3.8178   -1.0682   -3.9875 C   0  0  0  0  0  0  0  0  0  0  0  0
    4.0687   -1.8233   -2.6747 C   0  0  2  0  0  0  0  0  0  0  0  0
    2.8587   -2.7341   -2.4206 C   0  0  0  0  0  0  0  0  0  0  0  0
    3.0284   -3.3663   -1.0445 C   0  0  0  0  0  0  0  0  0  0  0  0
    4.4209   -3.0512   -0.4513 C   0  0  2  0  0  0  0  0  0  0  0  0
    4.7464   -3.7968    0.8940 C   0  0  2  0  0  0  0  0  0  0  0  0
    4.7440   -5.3724    0.8419 C   0  0  1  0  0  0  0  0  0  0  0  0
    6.0436   -5.8455    0.5688 O   0  0  0  0  0  0  0  0  0  0  0  0
    4.1197   -5.9881    2.1648 C   0  0  1  0  0  0  0  0  0  0  0  0
    4.8663   -5.4592    3.4397 C   0  0  2  0  0  0  0  0  0  0  0  0
    6.3219   -5.9650    3.5394 C   0  0  0  0  0  0  0  0  0  0  0  0
    4.1396   -5.9881    4.7007 C   0  0  0  0  0  0  0  0  0  0  0  0
    2.7050   -5.4725    4.8442 C   0  0  0  0  0  0  0  0  0  0  0  0
    1.8841   -5.8162    3.6033 C   0  0  1  0  0  0  0  0  0  0  0  0
    0.6510   -5.1182    3.6834 O   0  0  0  0  0  0  0  0  0  0  0  0
    2.6082   -5.5311    2.2468 C   0  0  2  0  0  0  0  0  0  0  0  0
    1.8032   -6.3164    1.1867 C   0  0  0  0  0  0  0  0  0  0  0  0
    2.5950   -4.0542    1.8811 C   0  0  1  0  0  0  0  0  0  0  0  0
    2.7547   -2.9116    2.6496 O   0  0  0  0  0  0  0  0  0  0  0  0
    4.0217   -3.4073    2.2028 C   0  0  2  0  0  0  0  0  0  0  0  0
    4.8661   -3.9046    3.3789 C   0  0  0  0  0  0  0  0  0  0  0  0
    4.5024   -1.5161   -0.3354 C   0  0  0  0  0  0  0  0  0  0  0  0
    4.1957   -0.9054   -1.6064 O   0  0  0  0  0  0  0  0  0  0  0  0
    5.4577   -3.3912   -1.5612 C   0  0  0  0  0  0  0  0  0  0  0  0
    5.2097   -2.6440   -2.7712 O   0  0  0  0  0  0  0  0  0  0  0  0
    2.9172   -0.4564   -3.9016 H   0  0  0  0  0  0  0  0  0  0  0  0
    3.6443   -1.7868   -4.7878 H   0  0  0  0  0  0  0  0  0  0  0  0
    4.6380   -0.4094   -4.2644 H   0  0  0  0  0  0  0  0  0  0  0  0
    1.9561   -2.1288   -2.4160 H   0  0  0  0  0  0  0  0  0  0  0  0
    2.7677   -3.4762   -3.2212 H   0  0  0  0  0  0  0  0  0  0  0  0
    2.2474   -2.8853   -0.4834 H   0  0  0  0  0  0  0  0  0  0  0  0
    2.8550   -4.4405   -1.1071 H   0  0  0  0  0  0  0  0  0  0  0  0
    5.7851   -3.5042    1.0815 H   0  0  0  0  0  0  0  0  0  0  0  0
    4.1813   -5.7174   -0.0171 H   0  0  0  0  0  0  0  0  0  0  0  0
    6.0170   -6.7940    0.5455 H   0  0  0  0  0  0  0  0  0  0  0  0
    4.1748   -7.0767    2.1249 H   0  0  0  0  0  0  0  0  0  0  0  0
    6.7451   -5.7378    4.5192 H   0  0  0  0  0  0  0  0  0  0  0  0
    6.9819   -5.4902    2.8144 H   0  0  0  0  0  0  0  0  0  0  0  0
    6.3795   -7.0439    3.3920 H   0  0  0  0  0  0  0  0  0  0  0  0
    4.1072   -7.0790    4.6525 H   0  0  0  0  0  0  0  0  0  0  0  0
    4.6981   -5.7393    5.6061 H   0  0  0  0  0  0  0  0  0  0  0  0
    2.2349   -5.9311    5.7174 H   0  0  0  0  0  0  0  0  0  0  0  0
    2.7069   -4.3974    5.0359 H   0  0  0  0  0  0  0  0  0  0  0  0
    1.6486   -6.8799    3.6507 H   0  0  0  0  0  0  0  0  0  0  0  0
    0.8307   -4.1830    3.7286 H   0  0  0  0  0  0  0  0  0  0  0  0
    0.7399   -6.0749    1.2233 H   0  0  0  0  0  0  0  0  0  0  0  0
    1.8895   -7.3899    1.3376 H   0  0  0  0  0  0  0  0  0  0  0  0
    2.1171   -6.1164    0.1627 H   0  0  0  0  0  0  0  0  0  0  0  0
    1.8825   -3.8191    1.1155 H   0  0  0  0  0  0  0  0  0  0  0  0
    4.5118   -3.4469    4.2960 H   0  0  0  0  0  0  0  0  0  0  0  0
    5.8730   -3.5052    3.2568 H   0  0  0  0  0  0  0  0  0  0  0  0
    3.8046   -1.1442    0.4141 H   0  0  0  0  0  0  0  0  0  0  0  0
    5.5007   -1.2118   -0.0185 H   0  0  0  0  0  0  0  0  0  0  0  0
    6.4747   -3.1816   -1.2192 H   0  0  0  0  0  0  0  0  0  0  0  0
    5.4108   -4.4513   -1.8021 H   0  0  0  0  0  0  0  0  0  0  0  0
  2  1  1  6
  1 26  1  0
  1 27  1  0
  1 28  1  0
  2 23  1  0
  2 25  1  0
  2  3  1  0
  3  4  1  0
  3 29  1  0
  3 30  1  0
  5  4  1  6
  4 31  1  0
  4 32  1  0
  5  6  1  0
  5 22  1  0
  5 24  1  0
  6 20  1  0
  6  7  1  0
  6 33  1  1
  7  8  1  0
  7  9  1  0
  7 34  1  6
  8 35  1  0
  9 16  1  0
  9 10  1  0
  9 36  1  6
 10 21  1  0
 10 11  1  6
 10 12  1  0
 11 37  1  0
 11 38  1  0
 11 39  1  0
 12 13  1  0
 12 40  1  0
 12 41  1  0
 13 14  1  0
 13 42  1  0
 13 43  1  0
 14 15  1  0
 14 16  1  0
 14 44  1  1
 15 45  1  0
 16 17  1  6
 16 18  1  0
 17 46  1  0
 17 47  1  0
 17 48  1  0
 18 20  1  0
 18 19  1  0
 18 49  1  6
 20 19  1  1
 20 21  1  0
 21 50  1  0
 21 51  1  0
 22 23  1  0
 22 52  1  0
 22 53  1  0
 24 25  1  0
 24 54  1  0
 24 55  1  0
M  END
>  <i_m_ct_stereo_status>  (245) 
1

>  <s_m_source_file>  (245) 
/var/tmp/pbs.5076255.sched01/tmp548j1hfo/88g9dmtei7.sdf

>  <i_m_source_file_index>  (245) 
17

>  <i_lp_mmshare_version>  (245) 
48012

>  <i_f3d_flags>  (245) 
0

>  <s_epik_input>  (245) 
W0NIM11bQ0BAXTEyW0NIMl1bQ0gyXVtDQEBdKFtDSDJdTzEpKFtDSDJdTzIpW0NAQEhdM1tDQEBIXShbT0hdKVtDQEhdKEM0KFtDSDNdKVtDQEBIXShPNSlbQ0BAXTM1NilbQ0BAXShbQ0gzXSkoW0NIMl02KVtDSDJdW0NIMl1bQ0BIXTRbT0hd

>  <s_epik_cmdline>  (245) 
J2VwaWtfcHl0aG9uJywgJy1waHQnLCAnMi4wJywgJy1waCcsICc3LjAnLCAnLXRuJywgJzgnLCAnLW1hJywgJzIwMCcsICctaW1hZScsICc8aW5maWxlLm1hZT4nLCAnLW9tYWUnLCAnPG91dGZpbGUubWFlPic=

>  <r_lp_tautomer_probability>  (245) 
1

>  <r_epik_Ionization_Penalty>  (245) 
5.55212e-07

>  <r_epik_Ionization_Penalty_Charging>  (245) 
0

>  <r_epik_Ionization_Penalty_Neutral>  (245) 
5.55212e-07

>  <r_epik_State_Penalty>  (245) 
-0

>  <r_epik_Charging_Adjusted_Penalty>  (245) 
0

>  <i_epik_Tot_Q>  (245) 
0

>  <i_epik_Tot_abs_Q>  (245) 
0

>  <s_lp_Force_Field>  (245) 
OPLS3e

>  <r_lp_Energy>  (245) 
93.7969

>  <b_lp_Chiralities_Consistent>  (245) 
1

>  <s_lp_Variant>  (245) 
67:0-1

>  <s_i_glide_gridfile>  (245) 
pfpi4k_grid

>  <i_i_glide_lignum>  (245) 
17

>  <i_i_glide_rotatable_bonds>  (245) 
3

>  <r_i_docking_score>  (245) 
-2.76919

>  <r_i_glide_ligand_efficiency>  (245) 
-0.110768

>  <r_i_glide_ligand_efficiency_sa>  (245) 
-0.323886

>  <r_i_glide_ligand_efficiency_ln>  (245) 
-0.656381

>  <r_i_glide_gscore>  (245) 
-2.76919

>  <r_i_glide_lipo>  (245) 
-0.469787

>  <r_i_glide_hbond>  (245) 
0

>  <r_i_glide_metal>  (245) 
-0

>  <r_i_glide_rewards>  (245) 
-1.01966

>  <r_i_glide_evdw>  (245) 
-26.616

>  <r_i_glide_ecoul>  (245) 
-0.666398

>  <r_i_glide_erotb>  (245) 
0.155201

>  <r_i_glide_esite>  (245) 
-0.00417771

>  <r_i_glide_emodel>  (245) 
-30.5032

>  <r_i_glide_energy>  (245) 
-27.2824

>  <r_i_glide_einternal>  (245) 
0.976926

>  <r_i_glide_intrahb_reward>  (245) 
-0

>  <i_i_glide_confnum>  (245) 
4

>  <i_i_glide_posenum>  (245) 
9

>  <r_i_glide_eff_state_penalty>  (245) 
0

>  <ligand_id>  (245) 
67

>  <original_smiles>  (245) 
CC12CCC(C3C(O)C4C5(C)CCC(O)C4(C)C4OC34C5)(CO1)CO2

>  <smiles>  (245) 
[H]OC1([H])C([H])(C23C([H])([H])OC(C([H])([H])[H])(OC2([H])[H])C([H])([H])C3([H])[H])C23OC2([H])C2(C([H])([H])[H])C([H])(O[H])C([H])([H])C([H])([H])C(C([H])([H])[H])(C3([H])[H])C12[H]

$$$$
67:0:1
     RDKit          3D

 55 60  0  0  1  0  0  0  0  0999 V2000
    4.0302   -1.7699   -3.8999 C   0  0  0  0  0  0  0  0  0  0  0  0
    3.8538   -2.3711   -2.4986 C   0  0  2  0  0  0  0  0  0  0  0  0
    2.4554   -3.0543   -2.4174 C   0  0  0  0  0  0  0  0  0  0  0  0
    2.2591   -3.6022   -1.0015 C   0  0  0  0  0  0  0  0  0  0  0  0
    3.5517   -3.4216   -0.1857 C   0  0  2  0  0  0  0  0  0  0  0  0
    3.3765   -3.9607    1.2931 C   0  0  2  0  0  0  0  0  0  0  0  0
    4.6832   -4.1716    2.1426 C   0  0  1  0  0  0  0  0  0  0  0  0
    4.9818   -3.0032    2.8906 O   0  0  0  0  0  0  0  0  0  0  0  0
    4.5702   -5.4855    3.0288 C   0  0  1  0  0  0  0  0  0  0  0  0
    3.3078   -5.4446    3.9524 C   0  0  2  0  0  0  0  0  0  0  0  0
    3.3965   -4.3572    5.0453 C   0  0  0  0  0  0  0  0  0  0  0  0
    3.1836   -6.7972    4.6997 C   0  0  0  0  0  0  0  0  0  0  0  0
    2.9596   -7.9898    3.7666 C   0  0  0  0  0  0  0  0  0  0  0  0
    4.0742   -8.0767    2.7278 C   0  0  1  0  0  0  0  0  0  0  0  0
    3.7053   -9.0461    1.7574 O   0  0  0  0  0  0  0  0  0  0  0  0
    4.4268   -6.7142    2.0359 C   0  0  2  0  0  0  0  0  0  0  0  0
    5.8032   -6.9598    1.3675 C   0  0  0  0  0  0  0  0  0  0  0  0
    3.4103   -6.3073    0.9714 C   0  0  1  0  0  0  0  0  0  0  0  0
    2.0079   -6.3592    0.9162 O   0  0  0  0  0  0  0  0  0  0  0  0
    2.4748   -5.1715    1.5671 C   0  0  2  0  0  0  0  0  0  0  0  0
    2.0704   -5.1624    3.0531 C   0  0  0  0  0  0  0  0  0  0  0  0
    3.8463   -1.8853   -0.1871 C   0  0  0  0  0  0  0  0  0  0  0  0
    3.9230   -1.3744   -1.5187 O   0  0  0  0  0  0  0  0  0  0  0  0
    4.7285   -4.0155   -1.0358 C   0  0  0  0  0  0  0  0  0  0  0  0
    4.8339   -3.3543   -2.2923 O   0  0  0  0  0  0  0  0  0  0  0  0
    3.2753   -1.0134   -4.0742 H   0  0  0  0  0  0  0  0  0  0  0  0
    3.9344   -2.5683   -4.6285 H   0  0  0  0  0  0  0  0  0  0  0  0
    5.0103   -1.3238   -3.9834 H   0  0  0  0  0  0  0  0  0  0  0  0
    1.7021   -2.3106   -2.6636 H   0  0  0  0  0  0  0  0  0  0  0  0
    2.4122   -3.8526   -3.1432 H   0  0  0  0  0  0  0  0  0  0  0  0
    1.4291   -3.0617   -0.5194 H   0  0  0  0  0  0  0  0  0  0  0  0
    1.9591   -4.6519   -1.0583 H   0  0  0  0  0  0  0  0  0  0  0  0
    2.8285   -3.1601    1.7832 H   0  0  0  0  0  0  0  0  0  0  0  0
    5.5486   -4.2726    1.5091 H   0  0  0  0  0  0  0  0  0  0  0  0
    5.0801   -2.2845    2.2942 H   0  0  0  0  0  0  0  0  0  0  0  0
    5.4726   -5.6001    3.6361 H   0  0  0  0  0  0  0  0  0  0  0  0
    2.5972   -4.4754    5.7803 H   0  0  0  0  0  0  0  0  0  0  0  0
    3.2840   -3.3514    4.6419 H   0  0  0  0  0  0  0  0  0  0  0  0
    4.3526   -4.4023    5.5731 H   0  0  0  0  0  0  0  0  0  0  0  0
    4.1084   -6.9688    5.2575 H   0  0  0  0  0  0  0  0  0  0  0  0
    2.3819   -6.7641    5.4397 H   0  0  0  0  0  0  0  0  0  0  0  0
    2.9414   -8.9113    4.3540 H   0  0  0  0  0  0  0  0  0  0  0  0
    1.9813   -7.9261    3.2881 H   0  0  0  0  0  0  0  0  0  0  0  0
    4.9647   -8.4569    3.2316 H   0  0  0  0  0  0  0  0  0  0  0  0
    3.6599   -9.8992    2.1490 H   0  0  0  0  0  0  0  0  0  0  0  0
    5.7727   -7.8409    0.7273 H   0  0  0  0  0  0  0  0  0  0  0  0
    6.5802   -7.1364    2.1101 H   0  0  0  0  0  0  0  0  0  0  0  0
    6.1368   -6.1379    0.7360 H   0  0  0  0  0  0  0  0  0  0  0  0
    3.7624   -6.3733   -0.0551 H   0  0  0  0  0  0  0  0  0  0  0  0
    1.2638   -5.8775    3.2178 H   0  0  0  0  0  0  0  0  0  0  0  0
    1.6198   -4.1943    3.2848 H   0  0  0  0  0  0  0  0  0  0  0  0
    3.0760   -1.3271    0.3589 H   0  0  0  0  0  0  0  0  0  0  0  0
    4.7964   -1.7021    0.3309 H   0  0  0  0  0  0  0  0  0  0  0  0
    5.6908   -3.8780   -0.5272 H   0  0  0  0  0  0  0  0  0  0  0  0
    4.5998   -5.0745   -1.2570 H   0  0  0  0  0  0  0  0  0  0  0  0
  2  1  1  6
  1 26  1  0
  1 27  1  0
  1 28  1  0
  2 23  1  0
  2 25  1  0
  2  3  1  0
  3  4  1  0
  3 29  1  0
  3 30  1  0
  5  4  1  6
  4 31  1  0
  4 32  1  0
  5  6  1  0
  5 22  1  0
  5 24  1  0
  6 20  1  0
  6  7  1  0
  6 33  1  1
  7  8  1  0
  7  9  1  0
  7 34  1  6
  8 35  1  0
  9 16  1  0
  9 10  1  0
  9 36  1  1
 10 21  1  0
 10 11  1  1
 10 12  1  0
 11 37  1  0
 11 38  1  0
 11 39  1  0
 12 13  1  0
 12 40  1  0
 12 41  1  0
 13 14  1  0
 13 42  1  0
 13 43  1  0
 14 15  1  0
 14 16  1  0
 14 44  1  1
 15 45  1  0
 16 17  1  6
 16 18  1  0
 17 46  1  0
 17 47  1  0
 17 48  1  0
 18 20  1  0
 18 19  1  0
 18 49  1  6
 20 19  1  6
 20 21  1  0
 21 50  1  0
 21 51  1  0
 22 23  1  0
 22 52  1  0
 22 53  1  0
 24 25  1  0
 24 54  1  0
 24 55  1  0
M  END
>  <i_m_ct_stereo_status>  (246) 
1

>  <s_m_source_file>  (246) 
/var/tmp/pbs.5076255.sched01/tmp548j1hfo/88g9dmtei7.sdf

>  <i_m_source_file_index>  (246) 
17

>  <i_lp_mmshare_version>  (246) 
48012

>  <i_f3d_flags>  (246) 
0

>  <s_epik_input>  (246) 
W0NIM11bQ0BAXTEyW0NIMl1bQ0gyXVtDQEBdKFtDSDJdTzEpKFtDSDJdTzIpW0NAQEhdM1tDQEBIXShbT0hdKVtDQEhdKEM0KFtDSDNdKVtDQEBIXShPNSlbQ0BAXTM1NilbQ0BAXShbQ0gzXSkoW0NIMl02KVtDSDJdW0NIMl1bQ0BIXTRbT0hd

>  <s_epik_cmdline>  (246) 
J2VwaWtfcHl0aG9uJywgJy1waHQnLCAnMi4wJywgJy1waCcsICc3LjAnLCAnLXRuJywgJzgnLCAnLW1hJywgJzIwMCcsICctaW1hZScsICc8aW5maWxlLm1hZT4nLCAnLW9tYWUnLCAnPG91dGZpbGUubWFlPic=

>  <r_lp_tautomer_probability>  (246) 
1

>  <r_epik_Ionization_Penalty>  (246) 
5.55212e-07

>  <r_epik_Ionization_Penalty_Charging>  (246) 
0

>  <r_epik_Ionization_Penalty_Neutral>  (246) 
5.55212e-07

>  <r_epik_State_Penalty>  (246) 
-0

>  <r_epik_Charging_Adjusted_Penalty>  (246) 
0

>  <i_epik_Tot_Q>  (246) 
0

>  <i_epik_Tot_abs_Q>  (246) 
0

>  <s_lp_Force_Field>  (246) 
OPLS3e

>  <r_lp_Energy>  (246) 
93.7969

>  <b_lp_Chiralities_Consistent>  (246) 
1

>  <s_lp_Variant>  (246) 
67:0-1

>  <s_i_glide_gridfile>  (246) 
pfpi4k_grid

>  <i_i_glide_lignum>  (246) 
17

>  <i_i_glide_rotatable_bonds>  (246) 
3

>  <r_i_docking_score>  (246) 
-2.74935

>  <r_i_glide_ligand_efficiency>  (246) 
-0.109974

>  <r_i_glide_ligand_efficiency_sa>  (246) 
-0.321566

>  <r_i_glide_ligand_efficiency_ln>  (246) 
-0.651678

>  <r_i_glide_gscore>  (246) 
-2.74935

>  <r_i_glide_lipo>  (246) 
-0.32263

>  <r_i_glide_hbond>  (246) 
0

>  <r_i_glide_metal>  (246) 
-0

>  <r_i_glide_rewards>  (246) 
-1.05827

>  <r_i_glide_evdw>  (246) 
-25.515

>  <r_i_glide_ecoul>  (246) 
-1.65271

>  <r_i_glide_erotb>  (246) 
0.155201

>  <r_i_glide_esite>  (246) 
0

>  <r_i_glide_emodel>  (246) 
-30.5113

>  <r_i_glide_energy>  (246) 
-27.1677

>  <r_i_glide_einternal>  (246) 
2.1587

>  <r_i_glide_intrahb_reward>  (246) 
-0

>  <i_i_glide_confnum>  (246) 
5

>  <i_i_glide_posenum>  (246) 
17

>  <r_i_glide_eff_state_penalty>  (246) 
0

>  <ligand_id>  (246) 
67

>  <original_smiles>  (246) 
CC12CCC(C3C(O)C4C5(C)CCC(O)C4(C)C4OC34C5)(CO1)CO2

>  <smiles>  (246) 
[H]OC1([H])C([H])(C23C([H])([H])OC(C([H])([H])[H])(OC2([H])[H])C([H])([H])C3([H])[H])C23OC2([H])C2(C([H])([H])[H])C([H])(O[H])C([H])([H])C([H])([H])C(C([H])([H])[H])(C3([H])[H])C12[H]

$$$$
67:0:2
     RDKit          3D

 55 60  0  0  1  0  0  0  0  0999 V2000
    3.9818   -1.8429   -3.9194 C   0  0  0  0  0  0  0  0  0  0  0  0
    3.9735   -2.4658   -2.5414 C   0  0  2  0  0  0  0  0  0  0  0  0
    2.5777   -3.0263   -2.2073 C   0  0  0  0  0  0  0  0  0  0  0  0
    2.5758   -3.5692   -0.7725 C   0  0  0  0  0  0  0  0  0  0  0  0
    4.0108   -3.5279   -0.1886 C   0  0  2  0  0  0  0  0  0  0  0  0
    4.1120   -4.1249    1.2617 C   0  0  2  0  0  0  0  0  0  0  0  0
    5.3263   -5.0848    1.5916 C   0  0  1  0  0  0  0  0  0  0  0  0
    6.4183   -4.3403    2.0722 O   0  0  0  0  0  0  0  0  0  0  0  0
    4.8809   -6.2758    2.5496 C   0  0  1  0  0  0  0  0  0  0  0  0
    4.2139   -5.7310    3.8583 C   0  0  2  0  0  0  0  0  0  0  0  0
    5.2191   -4.9901    4.7737 C   0  0  0  0  0  0  0  0  0  0  0  0
    3.6847   -6.9281    4.6873 C   0  0  0  0  0  0  0  0  0  0  0  0
    2.5769   -7.7097    3.9764 C   0  0  0  0  0  0  0  0  0  0  0  0
    3.0626   -8.1996    2.6124 C   0  0  1  0  0  0  0  0  0  0  0  0
    1.9376   -8.7027    1.9065 O   0  0  0  0  0  0  0  0  0  0  0  0
    3.8110   -7.1286    1.7611 C   0  0  2  0  0  0  0  0  0  0  0  0
    4.5426   -7.9383    0.6554 C   0  0  0  0  0  0  0  0  0  0  0  0
    2.8816   -6.1214    1.0833 C   0  0  1  0  0  0  0  0  0  0  0  0
    1.7057   -5.5026    1.5209 O   0  0  0  0  0  0  0  0  0  0  0  0
    2.8771   -4.7582    1.9196 C   0  0  2  0  0  0  0  0  0  0  0  0
    3.0641   -4.7640    3.4457 C   0  0  0  0  0  0  0  0  0  0  0  0
    4.4361   -2.0362   -0.2210 C   0  0  0  0  0  0  0  0  0  0  0  0
    4.3344   -1.4898   -1.5650 O   0  0  0  0  0  0  0  0  0  0  0  0
    4.9618   -4.1922   -1.2164 C   0  0  0  0  0  0  0  0  0  0  0  0
    4.9031   -3.5435   -2.5056 O   0  0  0  0  0  0  0  0  0  0  0  0
    3.2605   -1.0379   -3.9411 H   0  0  0  0  0  0  0  0  0  0  0  0
    3.6911   -2.6072   -4.6319 H   0  0  0  0  0  0  0  0  0  0  0  0
    4.9744   -1.4616   -4.1711 H   0  0  0  0  0  0  0  0  0  0  0  0
    1.8517   -2.2435   -2.3545 H   0  0  0  0  0  0  0  0  0  0  0  0
    2.3784   -3.8223   -2.9081 H   0  0  0  0  0  0  0  0  0  0  0  0
    1.8989   -2.9737   -0.1482 H   0  0  0  0  0  0  0  0  0  0  0  0
    2.1575   -4.5706   -0.8310 H   0  0  0  0  0  0  0  0  0  0  0  0
    4.2744   -3.2517    1.8990 H   0  0  0  0  0  0  0  0  0  0  0  0
    5.7302   -5.5284    0.6910 H   0  0  0  0  0  0  0  0  0  0  0  0
    6.6484   -3.7054    1.4318 H   0  0  0  0  0  0  0  0  0  0  0  0
    5.7427   -6.8966    2.8032 H   0  0  0  0  0  0  0  0  0  0  0  0
    4.7872   -4.7941    5.7556 H   0  0  0  0  0  0  0  0  0  0  0  0
    5.5109   -4.0189    4.3736 H   0  0  0  0  0  0  0  0  0  0  0  0
    6.1287   -5.5768    4.9170 H   0  0  0  0  0  0  0  0  0  0  0  0
    4.5155   -7.6096    4.8756 H   0  0  0  0  0  0  0  0  0  0  0  0
    3.3247   -6.6017    5.6653 H   0  0  0  0  0  0  0  0  0  0  0  0
    2.2911   -8.5705    4.5856 H   0  0  0  0  0  0  0  0  0  0  0  0
    1.6767   -7.1034    3.8755 H   0  0  0  0  0  0  0  0  0  0  0  0
    3.7325   -9.0436    2.7813 H   0  0  0  0  0  0  0  0  0  0  0  0
    1.6237   -9.4860    2.3249 H   0  0  0  0  0  0  0  0  0  0  0  0
    3.8514   -8.5874    0.1188 H   0  0  0  0  0  0  0  0  0  0  0  0
    5.3255   -8.5701    1.0692 H   0  0  0  0  0  0  0  0  0  0  0  0
    4.9850   -7.3009   -0.1039 H   0  0  0  0  0  0  0  0  0  0  0  0
    2.9143   -6.1444    0.0063 H   0  0  0  0  0  0  0  0  0  0  0  0
    2.1204   -4.9865    3.9351 H   0  0  0  0  0  0  0  0  0  0  0  0
    3.2892   -3.7399    3.7625 H   0  0  0  0  0  0  0  0  0  0  0  0
    3.8110   -1.4236    0.4296 H   0  0  0  0  0  0  0  0  0  0  0  0
    5.4711   -1.9288    0.0958 H   0  0  0  0  0  0  0  0  0  0  0  0
    6.0002   -4.1270   -0.8836 H   0  0  0  0  0  0  0  0  0  0  0  0
    4.7201   -5.2468   -1.3609 H   0  0  0  0  0  0  0  0  0  0  0  0
  2  1  1  6
  1 26  1  0
  1 27  1  0
  1 28  1  0
  2 23  1  0
  2 25  1  0
  2  3  1  0
  3  4  1  0
  3 29  1  0
  3 30  1  0
  5  4  1  6
  4 31  1  0
  4 32  1  0
  5  6  1  0
  5 22  1  0
  5 24  1  0
  6 20  1  0
  6  7  1  0
  6 33  1  1
  7  8  1  0
  7  9  1  0
  7 34  1  6
  8 35  1  0
  9 16  1  0
  9 10  1  0
  9 36  1  1
 10 21  1  0
 10 11  1  1
 10 12  1  0
 11 37  1  0
 11 38  1  0
 11 39  1  0
 12 13  1  0
 12 40  1  0
 12 41  1  0
 13 14  1  0
 13 42  1  0
 13 43  1  0
 14 15  1  0
 14 16  1  0
 14 44  1  1
 15 45  1  0
 16 17  1  6
 16 18  1  0
 17 46  1  0
 17 47  1  0
 17 48  1  0
 18 20  1  0
 18 19  1  0
 18 49  1  6
 20 19  1  1
 20 21  1  0
 21 50  1  0
 21 51  1  0
 22 23  1  0
 22 52  1  0
 22 53  1  0
 24 25  1  0
 24 54  1  0
 24 55  1  0
M  END
>  <i_m_ct_stereo_status>  (247) 
1

>  <s_m_source_file>  (247) 
/var/tmp/pbs.5076255.sched01/tmp548j1hfo/88g9dmtei7.sdf

>  <i_m_source_file_index>  (247) 
17

>  <i_lp_mmshare_version>  (247) 
48012

>  <i_f3d_flags>  (247) 
0

>  <s_epik_input>  (247) 
W0NIM11bQ0BAXTEyW0NIMl1bQ0gyXVtDQEBdKFtDSDJdTzEpKFtDSDJdTzIpW0NAQEhdM1tDQEBIXShbT0hdKVtDQEhdKEM0KFtDSDNdKVtDQEBIXShPNSlbQ0BAXTM1NilbQ0BAXShbQ0gzXSkoW0NIMl02KVtDSDJdW0NIMl1bQ0BIXTRbT0hd

>  <s_epik_cmdline>  (247) 
J2VwaWtfcHl0aG9uJywgJy1waHQnLCAnMi4wJywgJy1waCcsICc3LjAnLCAnLXRuJywgJzgnLCAnLW1hJywgJzIwMCcsICctaW1hZScsICc8aW5maWxlLm1hZT4nLCAnLW9tYWUnLCAnPG91dGZpbGUubWFlPic=

>  <r_lp_tautomer_probability>  (247) 
1

>  <r_epik_Ionization_Penalty>  (247) 
5.55212e-07

>  <r_epik_Ionization_Penalty_Charging>  (247) 
0

>  <r_epik_Ionization_Penalty_Neutral>  (247) 
5.55212e-07

>  <r_epik_State_Penalty>  (247) 
-0

>  <r_epik_Charging_Adjusted_Penalty>  (247) 
0

>  <i_epik_Tot_Q>  (247) 
0

>  <i_epik_Tot_abs_Q>  (247) 
0

>  <s_lp_Force_Field>  (247) 
OPLS3e

>  <r_lp_Energy>  (247) 
93.7969

>  <b_lp_Chiralities_Consistent>  (247) 
1

>  <s_lp_Variant>  (247) 
67:0-1

>  <s_i_glide_gridfile>  (247) 
pfpi4k_grid

>  <i_i_glide_lignum>  (247) 
17

>  <i_i_glide_rotatable_bonds>  (247) 
3

>  <r_i_docking_score>  (247) 
-2.71267

>  <r_i_glide_ligand_efficiency>  (247) 
-0.108507

>  <r_i_glide_ligand_efficiency_sa>  (247) 
-0.317276

>  <r_i_glide_ligand_efficiency_ln>  (247) 
-0.642984

>  <r_i_glide_gscore>  (247) 
-2.71267

>  <r_i_glide_lipo>  (247) 
-0.217648

>  <r_i_glide_hbond>  (247) 
-0.0774003

>  <r_i_glide_metal>  (247) 
-0

>  <r_i_glide_rewards>  (247) 
-1.08117

>  <r_i_glide_evdw>  (247) 
-25.0252

>  <r_i_glide_ecoul>  (247) 
-1.60261

>  <r_i_glide_erotb>  (247) 
0.155201

>  <r_i_glide_esite>  (247) 
0

>  <r_i_glide_emodel>  (247) 
-27.0469

>  <r_i_glide_energy>  (247) 
-26.6278

>  <r_i_glide_einternal>  (247) 
7.23203

>  <r_i_glide_intrahb_reward>  (247) 
-0

>  <i_i_glide_confnum>  (247) 
2

>  <i_i_glide_posenum>  (247) 
5

>  <r_i_glide_eff_state_penalty>  (247) 
0

>  <ligand_id>  (247) 
67

>  <original_smiles>  (247) 
CC12CCC(C3C(O)C4C5(C)CCC(O)C4(C)C4OC34C5)(CO1)CO2

>  <smiles>  (247) 
[H]OC1([H])C([H])(C23C([H])([H])OC(C([H])([H])[H])(OC2([H])[H])C([H])([H])C3([H])[H])C23OC2([H])C2(C([H])([H])[H])C([H])(O[H])C([H])([H])C([H])([H])C(C([H])([H])[H])(C3([H])[H])C12[H]

$$$$
69:0:0
     RDKit          3D

 33 35  0  0  1  0  0  0  0  0999 V2000
    5.4686   -4.0456   -0.2883 C   0  0  0  0  0  0  0  0  0  0  0  0
    4.7602   -2.6769   -0.4809 C   0  0  1  0  0  0  0  0  0  0  0  0
    5.3138   -1.7385    0.4107 O   0  0  0  0  0  0  0  0  0  0  0  0
    4.8712   -2.1176   -1.9207 C   0  0  1  0  0  0  0  0  0  0  0  0
    5.6652   -2.9531   -2.7420 O   0  0  0  0  0  0  0  0  0  0  0  0
    3.4111   -2.0628   -2.4307 C   0  0  1  0  0  0  0  0  0  0  0  0
    3.1875   -2.3802   -3.9280 C   0  0  0  0  0  0  0  0  0  0  0  0
    3.7869   -1.3698   -4.7131 O   0  0  0  0  0  0  0  0  0  0  0  0
    2.7204   -2.9616   -1.5764 O   0  0  0  0  0  0  0  0  0  0  0  0
    3.2261   -2.7560   -0.2970 C   0  0  1  0  0  0  0  0  0  0  0  0
    2.8171   -3.9031    0.5638 N   0  0  0  0  0  0  0  0  0  0  0  0
    2.2211   -5.0623    0.2078 C   0  0  0  0  0  0  0  0  0  0  0  0
    1.9279   -5.9304    1.1773 N   0  0  0  0  0  0  0  0  0  0  0  0
    2.4648   -5.2962    2.2811 C   0  0  0  0  0  0  0  0  0  0  0  0
    2.5790   -5.6646    3.6398 C   0  0  0  0  0  0  0  0  0  0  0  0
    3.1728   -4.8035    4.4942 N   0  0  0  0  0  0  0  0  0  0  0  0
    3.6476   -3.6426    4.0304 C   0  0  0  0  0  0  0  0  0  0  0  0
    3.6243   -3.1599    2.7843 N   0  0  0  0  0  0  0  0  0  0  0  0
    3.0138   -4.0284    1.9288 C   0  0  0  0  0  0  0  0  0  0  0  0
    5.0576   -4.7932   -0.9621 H   0  0  0  0  0  0  0  0  0  0  0  0
    5.4030   -4.4636    0.7118 H   0  0  0  0  0  0  0  0  0  0  0  0
    6.5313   -3.9726   -0.5001 H   0  0  0  0  0  0  0  0  0  0  0  0
    5.0902   -2.0167    1.2892 H   0  0  0  0  0  0  0  0  0  0  0  0
    5.3171   -1.1168   -1.9637 H   0  0  0  0  0  0  0  0  0  0  0  0
    5.2702   -3.8127   -2.7330 H   0  0  0  0  0  0  0  0  0  0  0  0
    3.0130   -1.0672   -2.2200 H   0  0  0  0  0  0  0  0  0  0  0  0
    3.6034   -3.3454   -4.2047 H   0  0  0  0  0  0  0  0  0  0  0  0
    2.1245   -2.4431   -4.1688 H   0  0  0  0  0  0  0  0  0  0  0  0
    3.3298   -0.5617   -4.5606 H   0  0  0  0  0  0  0  0  0  0  0  0
    2.7653   -1.8673    0.1527 H   0  0  0  0  0  0  0  0  0  0  0  0
    1.9091   -5.2430   -0.8069 H   0  0  0  0  0  0  0  0  0  0  0  0
    2.2118   -6.6048    4.0298 H   0  0  0  0  0  0  0  0  0  0  0  0
    4.1007   -3.0119    4.7757 H   0  0  0  0  0  0  0  0  0  0  0  0
  1  2  1  0
  1 20  1  0
  1 21  1  0
  1 22  1  0
  2 10  1  0
  2  3  1  1
  2  4  1  0
  3 23  1  0
  4  5  1  0
  4  6  1  0
  4 24  1  1
  5 25  1  0
  6  7  1  0
  6  9  1  0
  6 26  1  6
  7  8  1  0
  7 27  1  0
  7 28  1  0
  8 29  1  0
  9 10  1  0
 10 11  1  0
 10 30  1  1
 11 19  1  0
 11 12  1  0
 12 13  2  0
 12 31  1  0
 13 14  1  0
 14 19  2  0
 14 15  1  0
 15 16  2  0
 15 32  1  0
 16 17  1  0
 17 18  2  0
 17 33  1  0
 18 19  1  0
M  END
>  <i_m_ct_stereo_status>  (248) 
1

>  <s_m_source_file>  (248) 
/var/tmp/pbs.5076255.sched01/tmp548j1hfo/88g9dmtei7.sdf

>  <i_m_source_file_index>  (248) 
19

>  <i_lp_mmshare_version>  (248) 
48012

>  <i_f3d_flags>  (248) 
0

>  <s_epik_input>  (248) 
W0NIM11bQ0BAXTEoW09IXSlbQ0BASF0oW09IXSlbQ0BASF0oW0NIMl1bT0hdKU9bQ0BIXTFuKFtjSF1uMiljKGMyMyluW2NIXW5bY0hdMw==

>  <s_epik_cmdline>  (248) 
J2VwaWtfcHl0aG9uJywgJy1waHQnLCAnMi4wJywgJy1waCcsICc3LjAnLCAnLXRuJywgJzgnLCAnLW1hJywgJzIwMCcsICctaW1hZScsICc8aW5maWxlLm1hZT4nLCAnLW9tYWUnLCAnPG91dGZpbGUubWFlPic=

>  <r_lp_tautomer_probability>  (248) 
1

>  <r_epik_Ionization_Penalty>  (248) 
2.92598e-05

>  <r_epik_Ionization_Penalty_Charging>  (248) 
0

>  <r_epik_Ionization_Penalty_Neutral>  (248) 
2.92598e-05

>  <r_epik_State_Penalty>  (248) 
-0

>  <r_epik_Charging_Adjusted_Penalty>  (248) 
0

>  <i_epik_Tot_Q>  (248) 
0

>  <i_epik_Tot_abs_Q>  (248) 
0

>  <s_epik_Chemistry_Notes>  (248) 
This compound contains an acetal/aminal-like group ( X-CH(R)-Y where X, Y are N, S, or O) that may be acid/base labile, releasing an aldehyde.

>  <s_lp_Force_Field>  (248) 
OPLS3e

>  <r_lp_Energy>  (248) 
17.3102

>  <b_lp_Chiralities_Consistent>  (248) 
1

>  <s_lp_Variant>  (248) 
69:0-1

>  <s_i_glide_gridfile>  (248) 
pfpi4k_grid

>  <i_i_glide_lignum>  (248) 
19

>  <i_i_glide_rotatable_bonds>  (248) 
5

>  <r_i_docking_score>  (248) 
-3.94244

>  <r_i_glide_ligand_efficiency>  (248) 
-0.207497

>  <r_i_glide_ligand_efficiency_sa>  (248) 
-0.553685

>  <r_i_glide_ligand_efficiency_ln>  (248) 
-0.999494

>  <r_i_glide_gscore>  (248) 
-3.94244

>  <r_i_glide_lipo>  (248) 
-0.149982

>  <r_i_glide_hbond>  (248) 
-0.00542811

>  <r_i_glide_metal>  (248) 
-0

>  <r_i_glide_rewards>  (248) 
-2.09373

>  <r_i_glide_evdw>  (248) 
-19.5894

>  <r_i_glide_ecoul>  (248) 
-7.28309

>  <r_i_glide_erotb>  (248) 
0.502481

>  <r_i_glide_esite>  (248) 
-0.12385

>  <r_i_glide_emodel>  (248) 
-38.75

>  <r_i_glide_energy>  (248) 
-26.8725

>  <r_i_glide_einternal>  (248) 
0.25982

>  <r_i_glide_intrahb_reward>  (248) 
-0.5

>  <i_i_glide_confnum>  (248) 
5

>  <i_i_glide_posenum>  (248) 
16

>  <r_i_glide_eff_state_penalty>  (248) 
0

>  <ligand_id>  (248) 
69

>  <original_smiles>  (248) 
CC1(O)C(O)C(CO)OC1n1cnc2cncnc21

>  <smiles>  (248) 
[H]OC([H])([H])C1([H])OC([H])(n2c([H])nc3c([H])nc([H])nc32)C(O[H])(C([H])([H])[H])C1([H])O[H]

$$$$
69:0:1
     RDKit          3D

 33 35  0  0  1  0  0  0  0  0999 V2000
    4.6142   -4.1365   -0.9506 C   0  0  0  0  0  0  0  0  0  0  0  0
    5.2199   -2.8078   -1.4588 C   0  0  1  0  0  0  0  0  0  0  0  0
    6.6097   -2.8144   -1.2403 O   0  0  0  0  0  0  0  0  0  0  0  0
    4.9669   -2.5735   -2.9631 C   0  0  1  0  0  0  0  0  0  0  0  0
    4.2445   -3.5867   -3.6185 O   0  0  0  0  0  0  0  0  0  0  0  0
    4.2319   -1.2180   -3.0443 C   0  0  1  0  0  0  0  0  0  0  0  0
    3.1472   -1.1347   -4.1206 C   0  0  0  0  0  0  0  0  0  0  0  0
    2.9284    0.1953   -4.5545 O   0  0  0  0  0  0  0  0  0  0  0  0
    3.6598   -1.0568   -1.7554 O   0  0  0  0  0  0  0  0  0  0  0  0
    4.6166   -1.5120   -0.8377 C   0  0  1  0  0  0  0  0  0  0  0  0
    3.9490   -1.7071    0.4912 N   0  0  0  0  0  0  0  0  0  0  0  0
    2.7750   -2.3073    0.7715 C   0  0  0  0  0  0  0  0  0  0  0  0
    2.4525   -2.4782    2.0638 N   0  0  0  0  0  0  0  0  0  0  0  0
    3.5042   -1.8271    2.6731 C   0  0  0  0  0  0  0  0  0  0  0  0
    3.7881   -1.5769    4.0332 C   0  0  0  0  0  0  0  0  0  0  0  0
    4.8861   -0.8420    4.3435 N   0  0  0  0  0  0  0  0  0  0  0  0
    5.6804   -0.4441    3.3371 C   0  0  0  0  0  0  0  0  0  0  0  0
    5.5644   -0.6335    2.0193 N   0  0  0  0  0  0  0  0  0  0  0  0
    4.4306   -1.3256    1.7198 C   0  0  0  0  0  0  0  0  0  0  0  0
    3.5520   -4.1935   -1.1507 H   0  0  0  0  0  0  0  0  0  0  0  0
    4.7298   -4.3191    0.1169 H   0  0  0  0  0  0  0  0  0  0  0  0
    5.0406   -5.0160   -1.4386 H   0  0  0  0  0  0  0  0  0  0  0  0
    6.7690   -3.0377   -0.3345 H   0  0  0  0  0  0  0  0  0  0  0  0
    5.9180   -2.5531   -3.5152 H   0  0  0  0  0  0  0  0  0  0  0  0
    3.5147   -3.8411   -3.0759 H   0  0  0  0  0  0  0  0  0  0  0  0
    4.9711   -0.4247   -3.1808 H   0  0  0  0  0  0  0  0  0  0  0  0
    3.4199   -1.6317   -5.0408 H   0  0  0  0  0  0  0  0  0  0  0  0
    2.2314   -1.6298   -3.7734 H   0  0  0  0  0  0  0  0  0  0  0  0
    2.6028    0.7389   -3.8433 H   0  0  0  0  0  0  0  0  0  0  0  0
    5.3449   -0.6986   -0.6856 H   0  0  0  0  0  0  0  0  0  0  0  0
    2.1212   -2.6884   -0.0121 H   0  0  0  0  0  0  0  0  0  0  0  0
    3.1396   -1.9042    4.8371 H   0  0  0  0  0  0  0  0  0  0  0  0
    6.5384    0.1320    3.6483 H   0  0  0  0  0  0  0  0  0  0  0  0
  1  2  1  0
  1 20  1  0
  1 21  1  0
  1 22  1  0
  2 10  1  0
  2  3  1  6
  2  4  1  0
  3 23  1  0
  4  5  1  0
  4  6  1  0
  4 24  1  6
  5 25  1  0
  6  7  1  0
  6  9  1  0
  6 26  1  6
  7  8  1  0
  7 27  1  0
  7 28  1  0
  8 29  1  0
  9 10  1  0
 10 11  1  0
 10 30  1  1
 11 19  1  0
 11 12  1  0
 12 13  2  0
 12 31  1  0
 13 14  1  0
 14 19  2  0
 14 15  1  0
 15 16  2  0
 15 32  1  0
 16 17  1  0
 17 18  2  0
 17 33  1  0
 18 19  1  0
M  END
>  <i_m_ct_stereo_status>  (249) 
1

>  <s_m_source_file>  (249) 
/var/tmp/pbs.5076255.sched01/tmp548j1hfo/88g9dmtei7.sdf

>  <i_m_source_file_index>  (249) 
19

>  <i_lp_mmshare_version>  (249) 
48012

>  <i_f3d_flags>  (249) 
0

>  <s_epik_input>  (249) 
W0NIM11bQ0BAXTEoW09IXSlbQ0BASF0oW09IXSlbQ0BASF0oW0NIMl1bT0hdKU9bQ0BIXTFuKFtjSF1uMiljKGMyMyluW2NIXW5bY0hdMw==

>  <s_epik_cmdline>  (249) 
J2VwaWtfcHl0aG9uJywgJy1waHQnLCAnMi4wJywgJy1waCcsICc3LjAnLCAnLXRuJywgJzgnLCAnLW1hJywgJzIwMCcsICctaW1hZScsICc8aW5maWxlLm1hZT4nLCAnLW9tYWUnLCAnPG91dGZpbGUubWFlPic=

>  <r_lp_tautomer_probability>  (249) 
1

>  <r_epik_Ionization_Penalty>  (249) 
2.92598e-05

>  <r_epik_Ionization_Penalty_Charging>  (249) 
0

>  <r_epik_Ionization_Penalty_Neutral>  (249) 
2.92598e-05

>  <r_epik_State_Penalty>  (249) 
-0

>  <r_epik_Charging_Adjusted_Penalty>  (249) 
0

>  <i_epik_Tot_Q>  (249) 
0

>  <i_epik_Tot_abs_Q>  (249) 
0

>  <s_epik_Chemistry_Notes>  (249) 
This compound contains an acetal/aminal-like group ( X-CH(R)-Y where X, Y are N, S, or O) that may be acid/base labile, releasing an aldehyde.

>  <s_lp_Force_Field>  (249) 
OPLS3e

>  <r_lp_Energy>  (249) 
17.3102

>  <b_lp_Chiralities_Consistent>  (249) 
1

>  <s_lp_Variant>  (249) 
69:0-1

>  <s_i_glide_gridfile>  (249) 
pfpi4k_grid

>  <i_i_glide_lignum>  (249) 
19

>  <i_i_glide_rotatable_bonds>  (249) 
5

>  <r_i_docking_score>  (249) 
-3.57926

>  <r_i_glide_ligand_efficiency>  (249) 
-0.188382

>  <r_i_glide_ligand_efficiency_sa>  (249) 
-0.50268

>  <r_i_glide_ligand_efficiency_ln>  (249) 
-0.90742

>  <r_i_glide_gscore>  (249) 
-3.57926

>  <r_i_glide_lipo>  (249) 
-0.245386

>  <r_i_glide_hbond>  (249) 
0

>  <r_i_glide_metal>  (249) 
-0

>  <r_i_glide_rewards>  (249) 
-1.82702

>  <r_i_glide_evdw>  (249) 
-23.155

>  <r_i_glide_ecoul>  (249) 
-4.87773

>  <r_i_glide_erotb>  (249) 
0.502481

>  <r_i_glide_esite>  (249) 
-0.119933

>  <r_i_glide_emodel>  (249) 
-33.0941

>  <r_i_glide_energy>  (249) 
-28.0327

>  <r_i_glide_einternal>  (249) 
1.91537

>  <r_i_glide_intrahb_reward>  (249) 
-0

>  <i_i_glide_confnum>  (249) 
2

>  <i_i_glide_posenum>  (249) 
40

>  <r_i_glide_eff_state_penalty>  (249) 
0

>  <ligand_id>  (249) 
69

>  <original_smiles>  (249) 
CC1(O)C(O)C(CO)OC1n1cnc2cncnc21

>  <smiles>  (249) 
[H]OC([H])([H])C1([H])OC([H])(n2c([H])nc3c([H])nc([H])nc32)C(O[H])(C([H])([H])[H])C1([H])O[H]

$$$$
69:0:2
     RDKit          3D

 33 35  0  0  1  0  0  0  0  0999 V2000
    5.4725   -3.7648   -0.3009 C   0  0  0  0  0  0  0  0  0  0  0  0
    4.6770   -2.4421   -0.4887 C   0  0  1  0  0  0  0  0  0  0  0  0
    5.1533   -1.4525    0.3999 O   0  0  0  0  0  0  0  0  0  0  0  0
    4.7813   -1.8579   -1.9139 C   0  0  1  0  0  0  0  0  0  0  0  0
    5.6569   -2.6328   -2.7179 O   0  0  0  0  0  0  0  0  0  0  0  0
    3.3404   -1.8881   -2.4660 C   0  0  1  0  0  0  0  0  0  0  0  0
    3.1907   -2.1865   -3.9731 C   0  0  0  0  0  0  0  0  0  0  0  0
    3.7936   -1.1406   -4.7165 O   0  0  0  0  0  0  0  0  0  0  0  0
    2.6935   -2.8516   -1.6449 O   0  0  0  0  0  0  0  0  0  0  0  0
    3.1495   -2.6451   -0.3461 C   0  0  1  0  0  0  0  0  0  0  0  0
    2.7928   -3.8480    0.4710 N   0  0  0  0  0  0  0  0  0  0  0  0
    2.2189   -5.0025    0.0763 C   0  0  0  0  0  0  0  0  0  0  0  0
    1.9784   -5.9196    1.0137 N   0  0  0  0  0  0  0  0  0  0  0  0
    2.5085   -5.3142    2.1357 C   0  0  0  0  0  0  0  0  0  0  0  0
    2.6602   -5.7368    3.4786 C   0  0  0  0  0  0  0  0  0  0  0  0
    3.2400   -4.8926    4.3592 N   0  0  0  0  0  0  0  0  0  0  0  0
    3.6480   -3.6899    3.9413 C   0  0  0  0  0  0  0  0  0  0  0  0
    3.5634   -3.1526    2.7210 N   0  0  0  0  0  0  0  0  0  0  0  0
    2.9967   -4.0123    1.8297 C   0  0  0  0  0  0  0  0  0  0  0  0
    5.1315   -4.5252   -1.0033 H   0  0  0  0  0  0  0  0  0  0  0  0
    5.4048   -4.2097    0.6882 H   0  0  0  0  0  0  0  0  0  0  0  0
    6.5336   -3.6112   -0.4772 H   0  0  0  0  0  0  0  0  0  0  0  0
    4.5212   -0.7497    0.4380 H   0  0  0  0  0  0  0  0  0  0  0  0
    5.1487   -0.8262   -1.9264 H   0  0  0  0  0  0  0  0  0  0  0  0
    5.3203   -3.5195   -2.7252 H   0  0  0  0  0  0  0  0  0  0  0  0
    2.8571   -0.9309   -2.2582 H   0  0  0  0  0  0  0  0  0  0  0  0
    3.6648   -3.1287   -4.2485 H   0  0  0  0  0  0  0  0  0  0  0  0
    2.1463   -2.2870   -4.2684 H   0  0  0  0  0  0  0  0  0  0  0  0
    3.3089   -0.3410   -4.5564 H   0  0  0  0  0  0  0  0  0  0  0  0
    2.6225   -1.8057    0.1190 H   0  0  0  0  0  0  0  0  0  0  0  0
    1.8849   -5.1408   -0.9439 H   0  0  0  0  0  0  0  0  0  0  0  0
    2.3329   -6.7028    3.8346 H   0  0  0  0  0  0  0  0  0  0  0  0
    4.1041   -3.0700    4.6981 H   0  0  0  0  0  0  0  0  0  0  0  0
  1  2  1  0
  1 20  1  0
  1 21  1  0
  1 22  1  0
  2 10  1  0
  2  3  1  1
  2  4  1  0
  3 23  1  0
  4  5  1  0
  4  6  1  0
  4 24  1  1
  5 25  1  0
  6  7  1  0
  6  9  1  0
  6 26  1  6
  7  8  1  0
  7 27  1  0
  7 28  1  0
  8 29  1  0
  9 10  1  0
 10 11  1  0
 10 30  1  1
 11 19  1  0
 11 12  1  0
 12 13  2  0
 12 31  1  0
 13 14  1  0
 14 19  2  0
 14 15  1  0
 15 16  2  0
 15 32  1  0
 16 17  1  0
 17 18  2  0
 17 33  1  0
 18 19  1  0
M  END
>  <i_m_ct_stereo_status>  (250) 
1

>  <s_m_source_file>  (250) 
/var/tmp/pbs.5076255.sched01/tmp548j1hfo/88g9dmtei7.sdf

>  <i_m_source_file_index>  (250) 
19

>  <i_lp_mmshare_version>  (250) 
48012

>  <i_f3d_flags>  (250) 
0

>  <s_epik_input>  (250) 
W0NIM11bQ0BAXTEoW09IXSlbQ0BASF0oW09IXSlbQ0BASF0oW0NIMl1bT0hdKU9bQ0BIXTFuKFtjSF1uMiljKGMyMyluW2NIXW5bY0hdMw==

>  <s_epik_cmdline>  (250) 
J2VwaWtfcHl0aG9uJywgJy1waHQnLCAnMi4wJywgJy1waCcsICc3LjAnLCAnLXRuJywgJzgnLCAnLW1hJywgJzIwMCcsICctaW1hZScsICc8aW5maWxlLm1hZT4nLCAnLW9tYWUnLCAnPG91dGZpbGUubWFlPic=

>  <r_lp_tautomer_probability>  (250) 
1

>  <r_epik_Ionization_Penalty>  (250) 
2.92598e-05

>  <r_epik_Ionization_Penalty_Charging>  (250) 
0

>  <r_epik_Ionization_Penalty_Neutral>  (250) 
2.92598e-05

>  <r_epik_State_Penalty>  (250) 
-0

>  <r_epik_Charging_Adjusted_Penalty>  (250) 
0

>  <i_epik_Tot_Q>  (250) 
0

>  <i_epik_Tot_abs_Q>  (250) 
0

>  <s_epik_Chemistry_Notes>  (250) 
This compound contains an acetal/aminal-like group ( X-CH(R)-Y where X, Y are N, S, or O) that may be acid/base labile, releasing an aldehyde.

>  <s_lp_Force_Field>  (250) 
OPLS3e

>  <r_lp_Energy>  (250) 
17.3102

>  <b_lp_Chiralities_Consistent>  (250) 
1

>  <s_lp_Variant>  (250) 
69:0-1

>  <s_i_glide_gridfile>  (250) 
pfpi4k_grid

>  <i_i_glide_lignum>  (250) 
19

>  <i_i_glide_rotatable_bonds>  (250) 
5

>  <r_i_docking_score>  (250) 
-3.46568

>  <r_i_glide_ligand_efficiency>  (250) 
-0.182404

>  <r_i_glide_ligand_efficiency_sa>  (250) 
-0.486727

>  <r_i_glide_ligand_efficiency_ln>  (250) 
-0.878624

>  <r_i_glide_gscore>  (250) 
-3.46568

>  <r_i_glide_lipo>  (250) 
-0.130371

>  <r_i_glide_hbond>  (250) 
-0.00180351

>  <r_i_glide_metal>  (250) 
-0

>  <r_i_glide_rewards>  (250) 
-1.59373

>  <r_i_glide_evdw>  (250) 
-19.6514

>  <r_i_glide_ecoul>  (250) 
-7.44821

>  <r_i_glide_erotb>  (250) 
0.502481

>  <r_i_glide_esite>  (250) 
-0.142453

>  <r_i_glide_emodel>  (250) 
-33.0056

>  <r_i_glide_energy>  (250) 
-27.0996

>  <r_i_glide_einternal>  (250) 
0.347806

>  <r_i_glide_intrahb_reward>  (250) 
-0

>  <i_i_glide_confnum>  (250) 
5

>  <i_i_glide_posenum>  (250) 
15

>  <r_i_glide_eff_state_penalty>  (250) 
0

>  <ligand_id>  (250) 
69

>  <original_smiles>  (250) 
CC1(O)C(O)C(CO)OC1n1cnc2cncnc21

>  <smiles>  (250) 
[H]OC([H])([H])C1([H])OC([H])(n2c([H])nc3c([H])nc([H])nc32)C(O[H])(C([H])([H])[H])C1([H])O[H]

$$$$
70:0:0
     RDKit          3D

 54 59  0  0  1  0  0  0  0  0999 V2000
    1.1651   -5.8604    0.0909 O   0  0  0  0  0  0  0  0  0  0  0  0
    2.2061   -5.8175    0.7471 C   0  0  0  0  0  0  0  0  0  0  0  0
    2.5067   -6.7412    1.6633 N   0  0  0  0  0  0  0  0  0  0  0  0
    1.7213   -7.9227    2.0054 C   0  0  2  0  0  0  0  0  0  0  0  0
    0.3845   -7.5498    2.7010 C   0  0  2  0  0  0  0  0  0  0  0  0
    0.6698   -6.8173    4.0342 C   0  0  0  0  0  0  0  0  0  0  0  0
    1.4913   -7.7423    4.9595 C   0  0  1  0  0  0  0  0  0  0  0  0
    0.6809   -9.0265    5.2379 C   0  0  0  0  0  0  0  0  0  0  0  0
    0.4048   -9.7560    3.9085 C   0  0  1  0  0  0  0  0  0  0  0  0
   -0.4150   -8.8405    2.9797 C   0  0  0  0  0  0  0  0  0  0  0  0
    1.7385  -10.1234    3.2307 C   0  0  0  0  0  0  0  0  0  0  0  0
    2.5427   -8.8374    2.9457 C   0  0  2  0  0  0  0  0  0  0  0  0
    2.8297   -8.1077    4.2809 C   0  0  0  0  0  0  0  0  0  0  0  0
    3.2349   -4.6834    0.5659 C   0  0  2  0  0  0  0  0  0  0  0  0
    2.7894   -3.7026   -0.5603 C   0  0  0  0  0  0  0  0  0  0  0  0
    3.8438   -2.6000   -0.7610 C   0  0  1  0  0  0  0  0  0  0  0  0
    4.0018   -1.7998    0.5463 C   0  0  0  0  0  0  0  0  0  0  0  0
    4.4596   -2.7470    1.6730 C   0  0  2  0  0  0  0  0  0  0  0  0
    5.8123   -3.3822    1.2913 C   0  0  0  0  0  0  0  0  0  0  0  0
    5.6518   -4.1815   -0.0204 C   0  0  2  0  0  0  0  0  0  0  0  0
    5.1845   -3.2481   -1.1547 C   0  0  0  0  0  0  0  0  0  0  0  0
    4.6076   -5.2963    0.1815 C   0  0  0  0  0  0  0  0  0  0  0  0
    3.4001   -3.8582    1.8765 C   0  0  0  0  0  0  0  0  0  0  0  0
    3.3618   -6.5999    2.1825 H   0  0  0  0  0  0  0  0  0  0  0  0
    1.5119   -8.4626    1.0796 H   0  0  0  0  0  0  0  0  0  0  0  0
   -0.2188   -6.9143    2.0535 H   0  0  0  0  0  0  0  0  0  0  0  0
    1.2097   -5.8852    3.8631 H   0  0  0  0  0  0  0  0  0  0  0  0
   -0.2657   -6.5388    4.5168 H   0  0  0  0  0  0  0  0  0  0  0  0
    1.6977   -7.2307    5.8991 H   0  0  0  0  0  0  0  0  0  0  0  0
    1.2233   -9.6850    5.9192 H   0  0  0  0  0  0  0  0  0  0  0  0
   -0.2625   -8.7771    5.7245 H   0  0  0  0  0  0  0  0  0  0  0  0
   -0.1586  -10.6678    4.1054 H   0  0  0  0  0  0  0  0  0  0  0  0
   -1.3750   -8.6015    3.4347 H   0  0  0  0  0  0  0  0  0  0  0  0
   -0.6391   -9.3600    2.0495 H   0  0  0  0  0  0  0  0  0  0  0  0
    2.3141  -10.7941    3.8708 H   0  0  0  0  0  0  0  0  0  0  0  0
    1.5516  -10.6543    2.2990 H   0  0  0  0  0  0  0  0  0  0  0  0
    3.4820   -9.1156    2.4617 H   0  0  0  0  0  0  0  0  0  0  0  0
    3.4253   -7.2084    4.1169 H   0  0  0  0  0  0  0  0  0  0  0  0
    3.4244   -8.7474    4.9334 H   0  0  0  0  0  0  0  0  0  0  0  0
    2.6405   -4.2357   -1.4967 H   0  0  0  0  0  0  0  0  0  0  0  0
    1.8343   -3.2361   -0.3220 H   0  0  0  0  0  0  0  0  0  0  0  0
    3.5139   -1.9319   -1.5564 H   0  0  0  0  0  0  0  0  0  0  0  0
    4.7228   -0.9901    0.4154 H   0  0  0  0  0  0  0  0  0  0  0  0
    3.0524   -1.3328    0.8076 H   0  0  0  0  0  0  0  0  0  0  0  0
    4.5813   -2.1725    2.5940 H   0  0  0  0  0  0  0  0  0  0  0  0
    6.5736   -2.6138    1.1774 H   0  0  0  0  0  0  0  0  0  0  0  0
    6.1586   -4.0380    2.0899 H   0  0  0  0  0  0  0  0  0  0  0  0
    6.6106   -4.6296   -0.2851 H   0  0  0  0  0  0  0  0  0  0  0  0
    5.0682   -3.8238   -2.0729 H   0  0  0  0  0  0  0  0  0  0  0  0
    5.9332   -2.4850   -1.3554 H   0  0  0  0  0  0  0  0  0  0  0  0
    4.9545   -5.9821    0.9576 H   0  0  0  0  0  0  0  0  0  0  0  0
    4.5178   -5.9141   -0.7171 H   0  0  0  0  0  0  0  0  0  0  0  0
    2.4446   -3.4186    2.1600 H   0  0  0  0  0  0  0  0  0  0  0  0
    3.6939   -4.4884    2.7182 H   0  0  0  0  0  0  0  0  0  0  0  0
  1  2  2  0
  2  3  1  0
 14  2  1  1
  3  4  1  0
  3 24  1  0
  4 12  1  0
  4  5  1  0
  4 25  1  6
  5 10  1  0
  5  6  1  0
  5 26  1  6
  6  7  1  0
  6 27  1  0
  6 28  1  0
  7 13  1  0
  7  8  1  0
  7 29  1  1
  8  9  1  0
  8 30  1  0
  8 31  1  0
  9 10  1  0
  9 11  1  0
  9 32  1  1
 10 33  1  0
 10 34  1  0
 11 12  1  0
 11 35  1  0
 11 36  1  0
 12 13  1  0
 12 37  1  6
 13 38  1  0
 13 39  1  0
 14 22  1  0
 14 23  1  0
 14 15  1  0
 15 16  1  0
 15 40  1  0
 15 41  1  0
 16 21  1  0
 16 17  1  0
 16 42  1  6
 17 18  1  0
 17 43  1  0
 17 44  1  0
 18 19  1  0
 18 23  1  0
 18 45  1  1
 19 20  1  0
 19 46  1  0
 19 47  1  0
 20 21  1  0
 20 22  1  0
 20 48  1  6
 21 49  1  0
 21 50  1  0
 22 51  1  0
 22 52  1  0
 23 53  1  0
 23 54  1  0
M  END
>  <i_m_ct_stereo_status>  (251) 
1

>  <s_m_source_file>  (251) 
/var/tmp/pbs.5076255.sched01/tmp548j1hfo/88g9dmtei7.sdf

>  <i_m_source_file_index>  (251) 
20

>  <i_lp_mmshare_version>  (251) 
48012

>  <i_f3d_flags>  (251) 
0

>  <s_epik_input>  (251) 
W0NIMl0xW0NASF0oW0NIMl0yKVtDSDJdW0NASF0oW0NIMl0zKVtDSDJdW0NAQEhdMVtDSDJdQzIzQyg9TylbTkhdW0NASF0oW0NASF00NSlbQ0BASF02W0NIMl1bQ0BIXShbQ0gyXTUpW0NIMl1bQ0BIXShbQ0gyXTQpW0NIMl02

>  <s_epik_cmdline>  (251) 
J2VwaWtfcHl0aG9uJywgJy1waHQnLCAnMi4wJywgJy1waCcsICc3LjAnLCAnLXRuJywgJzgnLCAnLW1hJywgJzIwMCcsICctaW1hZScsICc8aW5maWxlLm1hZT4nLCAnLW9tYWUnLCAnPG91dGZpbGUubWFlPic=

>  <r_lp_tautomer_probability>  (251) 
1

>  <r_epik_Ionization_Penalty>  (251) 
2.36543e-07

>  <r_epik_Ionization_Penalty_Charging>  (251) 
0

>  <r_epik_Ionization_Penalty_Neutral>  (251) 
2.36543e-07

>  <r_epik_State_Penalty>  (251) 
-0

>  <r_epik_Charging_Adjusted_Penalty>  (251) 
0

>  <i_epik_Tot_Q>  (251) 
0

>  <i_epik_Tot_abs_Q>  (251) 
0

>  <s_lp_Force_Field>  (251) 
OPLS3e

>  <r_lp_Energy>  (251) 
5.2902

>  <b_lp_Chiralities_Consistent>  (251) 
1

>  <s_lp_Variant>  (251) 
70:0-1

>  <s_i_glide_gridfile>  (251) 
pfpi4k_grid

>  <i_i_glide_lignum>  (251) 
20

>  <i_i_glide_rotatable_bonds>  (251) 
3

>  <r_i_docking_score>  (251) 
-3.43169

>  <r_i_glide_ligand_efficiency>  (251) 
-0.149204

>  <r_i_glide_ligand_efficiency_sa>  (251) 
-0.424316

>  <r_i_glide_ligand_efficiency_ln>  (251) 
-0.829813

>  <r_i_glide_gscore>  (251) 
-3.43169

>  <r_i_glide_lipo>  (251) 
-0.308341

>  <r_i_glide_hbond>  (251) 
-0.330786

>  <r_i_glide_metal>  (251) 
-0

>  <r_i_glide_rewards>  (251) 
-1.27175

>  <r_i_glide_evdw>  (251) 
-27.2552

>  <r_i_glide_ecoul>  (251) 
-4.51394

>  <r_i_glide_erotb>  (251) 
0.567062

>  <r_i_glide_esite>  (251) 
-0.0480248

>  <r_i_glide_emodel>  (251) 
-38.4371

>  <r_i_glide_energy>  (251) 
-31.7691

>  <r_i_glide_einternal>  (251) 
0.706296

>  <r_i_glide_intrahb_reward>  (251) 
-0

>  <i_i_glide_confnum>  (251) 
1

>  <i_i_glide_posenum>  (251) 
28

>  <r_i_glide_eff_state_penalty>  (251) 
0

>  <ligand_id>  (251) 
70

>  <original_smiles>  (251) 
O=C(NC1C2CC3CC(C2)CC1C3)C12CC3CC(CC(C3)C1)C2

>  <smiles>  (251) 
[H]N(C(=O)C12C([H])([H])C3([H])C([H])([H])C([H])(C([H])([H])C([H])(C3([H])[H])C1([H])[H])C2([H])[H])C1([H])C2([H])C([H])([H])C3([H])C([H])([H])C([H])(C2([H])[H])C([H])([H])C1([H])C3([H])[H]

$$$$
72:0:0
     RDKit          3D

 54 57  0  0  1  0  0  0  0  0999 V2000
    4.2200    0.5254   -3.1740 C   0  0  0  0  0  0  0  0  0  0  0  0
    3.5256   -0.5465   -3.5916 C   0  0  0  0  0  0  0  0  0  0  0  0
    3.0150   -0.5742   -5.0082 C   0  0  0  0  0  0  0  0  0  0  0  0
    3.2259   -1.7820   -2.7287 C   0  0  0  0  0  0  0  0  0  0  0  0
    3.6719   -1.6730   -1.2322 C   0  0  0  0  0  0  0  0  0  0  0  0
    3.9602   -2.9471   -0.3672 C   0  0  1  0  0  0  0  0  0  0  0  0
    3.0699   -3.9818   -0.8271 O   0  0  0  0  0  0  0  0  0  0  0  0
    2.4041   -4.7285    0.3198 O   0  0  0  0  0  0  0  0  0  0  0  0
    3.4234   -5.0956    1.2154 C   0  0  2  0  0  0  0  0  0  0  0  0
    4.3417   -6.0858    0.5838 C   0  0  1  0  0  0  0  0  0  0  0  0
    5.7522   -5.6709    0.5218 C   0  0  0  0  0  0  0  0  0  0  0  0
    6.2030   -4.5136    0.0085 C   0  0  0  0  0  0  0  0  0  0  0  0
    5.4653   -3.3728   -0.7182 C   0  0  1  0  0  0  0  0  0  0  0  0
    5.7753   -3.5507   -2.2183 C   0  0  0  0  0  0  0  0  0  0  0  0
    3.4988   -6.4681    1.8238 C   0  0  1  0  0  0  0  0  0  0  0  0
    3.9663   -6.5268    3.2866 C   0  0  1  0  0  0  0  0  0  0  0  0
    5.4570   -6.8759    3.4683 C   0  0  0  0  0  0  0  0  0  0  0  0
    3.5406   -5.2949    4.1454 C   0  0  0  0  0  0  0  0  0  0  0  0
    3.1631   -4.0004    3.3762 C   0  0  0  0  0  0  0  0  0  0  0  0
    3.8778   -3.9144    2.0188 C   0  0  2  0  0  0  0  0  0  0  0  0
    3.7424   -2.6138    1.1854 C   0  0  1  0  0  0  0  0  0  0  0  0
    4.7693   -1.5870    1.7552 C   0  0  0  0  0  0  0  0  0  0  0  0
    2.3888   -2.1911    1.4662 O   0  0  0  0  0  0  0  0  0  0  0  0
    2.2137   -0.7422    1.3257 O   0  0  0  0  0  0  0  0  0  0  0  0
    4.3833    1.3751   -3.8142 H   0  0  0  0  0  0  0  0  0  0  0  0
    4.6307    0.5444   -2.1991 H   0  0  0  0  0  0  0  0  0  0  0  0
    1.9184   -0.6121   -5.0148 H   0  0  0  0  0  0  0  0  0  0  0  0
    3.4282   -1.4554   -5.4983 H   0  0  0  0  0  0  0  0  0  0  0  0
    3.3337    0.3077   -5.5672 H   0  0  0  0  0  0  0  0  0  0  0  0
    2.1445   -1.9293   -2.7344 H   0  0  0  0  0  0  0  0  0  0  0  0
    3.6023   -2.6671   -3.2421 H   0  0  0  0  0  0  0  0  0  0  0  0
    4.5524   -1.0607   -1.0603 H   0  0  0  0  0  0  0  0  0  0  0  0
    2.8694   -1.0870   -0.8291 H   0  0  0  0  0  0  0  0  0  0  0  0
    4.0529   -6.6181   -0.3226 H   0  0  0  0  0  0  0  0  0  0  0  0
    6.4764   -6.3637    0.9317 H   0  0  0  0  0  0  0  0  0  0  0  0
    7.2718   -4.3637    0.0585 H   0  0  0  0  0  0  0  0  0  0  0  0
    6.0755   -2.5187   -0.4329 H   0  0  0  0  0  0  0  0  0  0  0  0
    6.8108   -3.8516   -2.3781 H   0  0  0  0  0  0  0  0  0  0  0  0
    5.6885   -2.6182   -2.7761 H   0  0  0  0  0  0  0  0  0  0  0  0
    5.1229   -4.3100   -2.6636 H   0  0  0  0  0  0  0  0  0  0  0  0
    2.6435   -7.1068    1.6244 H   0  0  0  0  0  0  0  0  0  0  0  0
    3.4428   -7.3819    3.7161 H   0  0  0  0  0  0  0  0  0  0  0  0
    6.1026   -6.0352    3.2173 H   0  0  0  0  0  0  0  0  0  0  0  0
    5.7461   -7.7282    2.8537 H   0  0  0  0  0  0  0  0  0  0  0  0
    5.6715   -7.1438    4.5035 H   0  0  0  0  0  0  0  0  0  0  0  0
    2.7052   -5.5735    4.7907 H   0  0  0  0  0  0  0  0  0  0  0  0
    4.3577   -5.0524    4.8244 H   0  0  0  0  0  0  0  0  0  0  0  0
    2.0816   -4.0058    3.2141 H   0  0  0  0  0  0  0  0  0  0  0  0
    3.3907   -3.1261    3.9827 H   0  0  0  0  0  0  0  0  0  0  0  0
    4.9325   -4.0399    2.2590 H   0  0  0  0  0  0  0  0  0  0  0  0
    5.7801   -1.9904    1.7498 H   0  0  0  0  0  0  0  0  0  0  0  0
    4.5410   -1.3368    2.7901 H   0  0  0  0  0  0  0  0  0  0  0  0
    4.7957   -0.6542    1.1977 H   0  0  0  0  0  0  0  0  0  0  0  0
    1.7463   -0.6988    0.4908 H   0  0  0  0  0  0  0  0  0  0  0  0
  1  2  2  0
  1 25  1  0
  1 26  1  0
  2  3  1  0
  2  4  1  0
  3 27  1  0
  3 28  1  0
  3 29  1  0
  4  5  1  0
  4 30  1  0
  4 31  1  0
  6  5  1  6
  5 32  1  0
  5 33  1  0
  6 13  1  0
  6 21  1  0
  6  7  1  0
  7  8  1  0
  9  8  1  6
  9 15  1  0
  9 20  1  0
  9 10  1  0
 10 11  1  0
 10 15  1  0
 10 34  1  6
 11 12  2  3
 11 35  1  0
 12 13  1  0
 12 36  1  0
 13 14  1  0
 13 37  1  1
 14 38  1  0
 14 39  1  0
 14 40  1  0
 15 16  1  0
 15 41  1  6
 16 17  1  0
 16 18  1  0
 16 42  1  1
 17 43  1  0
 17 44  1  0
 17 45  1  0
 18 19  1  0
 18 46  1  0
 18 47  1  0
 19 20  1  0
 19 48  1  0
 19 49  1  0
 20 21  1  0
 20 50  1  1
 21 22  1  0
 21 23  1  6
 22 51  1  0
 22 52  1  0
 22 53  1  0
 23 24  1  0
 24 54  1  0
M  END
>  <i_m_ct_stereo_status>  (252) 
1

>  <s_m_source_file>  (252) 
/var/tmp/pbs.5076255.sched01/tmp548j1hfo/88g9dmtei7.sdf

>  <i_m_source_file_index>  (252) 
23

>  <i_lp_mmshare_version>  (252) 
48012

>  <i_f3d_flags>  (252) 
0

>  <s_epik_input>  (252) 
W0NIMl09QyhbQ0gzXSlbQ0gyXVtDSDJdW0NAQF0oT08xKShbQ0BIXShbQ0gzXSkvW0NIXT1bQ0hdXDIpW0NAQF0oW0NIM10pKE9bT0hdKVtDQEhdM1tDSDJdW0NIMl1bQ0BIXShbQ0gzXSlbQ0BIXTRbQ0BIXTJbQ0BdMTM0

>  <s_epik_cmdline>  (252) 
J2VwaWtfcHl0aG9uJywgJy1waHQnLCAnMi4wJywgJy1waCcsICc3LjAnLCAnLXRuJywgJzgnLCAnLW1hJywgJzIwMCcsICctaW1hZScsICc8aW5maWxlLm1hZT4nLCAnLW9tYWUnLCAnPG91dGZpbGUubWFlPic=

>  <r_lp_tautomer_probability>  (252) 
1

>  <r_epik_Ionization_Penalty>  (252) 
1.72093e-05

>  <r_epik_Ionization_Penalty_Charging>  (252) 
0

>  <r_epik_Ionization_Penalty_Neutral>  (252) 
1.72093e-05

>  <r_epik_State_Penalty>  (252) 
-0

>  <r_epik_Charging_Adjusted_Penalty>  (252) 
0

>  <i_epik_Tot_Q>  (252) 
0

>  <i_epik_Tot_abs_Q>  (252) 
0

>  <s_lp_Force_Field>  (252) 
OPLS3e

>  <r_lp_Energy>  (252) 
65.6945

>  <b_lp_Chiralities_Consistent>  (252) 
1

>  <s_lp_Variant>  (252) 
72:0-1

>  <s_i_glide_gridfile>  (252) 
pfpi4k_grid

>  <i_i_glide_lignum>  (252) 
23

>  <i_i_glide_rotatable_bonds>  (252) 
5

>  <r_i_docking_score>  (252) 
-2.58504

>  <r_i_glide_ligand_efficiency>  (252) 
-0.10771

>  <r_i_glide_ligand_efficiency_sa>  (252) 
-0.31069

>  <r_i_glide_ligand_efficiency_ln>  (252) 
-0.618719

>  <r_i_glide_gscore>  (252) 
-2.58504

>  <r_i_glide_lipo>  (252) 
-0.967392

>  <r_i_glide_hbond>  (252) 
0

>  <r_i_glide_metal>  (252) 
-0

>  <r_i_glide_rewards>  (252) 
-1.12875

>  <r_i_glide_evdw>  (252) 
-15.4421

>  <r_i_glide_ecoul>  (252) 
-2.60836

>  <r_i_glide_erotb>  (252) 
0.674459

>  <r_i_glide_esite>  (252) 
0

>  <r_i_glide_emodel>  (252) 
-18.9993

>  <r_i_glide_energy>  (252) 
-18.0504

>  <r_i_glide_einternal>  (252) 
3.27017

>  <r_i_glide_intrahb_reward>  (252) 
-0

>  <i_i_glide_confnum>  (252) 
1

>  <i_i_glide_posenum>  (252) 
6

>  <r_i_glide_eff_state_penalty>  (252) 
0

>  <ligand_id>  (252) 
72

>  <original_smiles>  (252) 
C=C(C)CCC12OOC34C(C=CC1C)C3C(C)CCC4C2(C)OO

>  <smiles>  (252) 
[H]OOC1(C([H])([H])[H])C2([H])C([H])([H])C([H])([H])C([H])(C([H])([H])[H])C3([H])C4([H])C([H])=C([H])C([H])(C([H])([H])[H])C1(C([H])([H])C([H])([H])C(=C([H])[H])C([H])([H])[H])OOC432

$$$$
72:0:1
     RDKit          3D

 54 57  0  0  1  0  0  0  0  0999 V2000
    3.0172   -1.2701   -2.9010 C   0  0  0  0  0  0  0  0  0  0  0  0
    3.0620   -2.6026   -2.8234 C   0  0  0  0  0  0  0  0  0  0  0  0
    3.0918   -3.4587   -4.0773 C   0  0  0  0  0  0  0  0  0  0  0  0
    3.0930   -3.4109   -1.5114 C   0  0  0  0  0  0  0  0  0  0  0  0
    3.5220   -2.5897   -0.2715 C   0  0  0  0  0  0  0  0  0  0  0  0
    3.7023   -3.2711    1.1392 C   0  0  1  0  0  0  0  0  0  0  0  0
    2.7191   -4.3246    1.2379 O   0  0  0  0  0  0  0  0  0  0  0  0
    1.9379   -4.2604    2.5295 O   0  0  0  0  0  0  0  0  0  0  0  0
    2.8714   -4.2069    3.5777 C   0  0  2  0  0  0  0  0  0  0  0  0
    3.6641   -5.4752    3.6196 C   0  0  1  0  0  0  0  0  0  0  0  0
    5.1146   -5.3004    3.4462 C   0  0  0  0  0  0  0  0  0  0  0  0
    5.7143   -4.6342    2.4424 C   0  0  0  0  0  0  0  0  0  0  0  0
    5.1420   -3.9603    1.1797 C   0  0  1  0  0  0  0  0  0  0  0  0
    5.4436   -4.9345    0.0297 C   0  0  0  0  0  0  0  0  0  0  0  0
    2.7692   -5.0699    4.8156 C   0  0  1  0  0  0  0  0  0  0  0  0
    3.2273   -4.4105    6.1299 C   0  0  1  0  0  0  0  0  0  0  0  0
    4.6627   -4.7699    6.5630 C   0  0  0  0  0  0  0  0  0  0  0  0
    2.9577   -2.8748    6.1982 C   0  0  0  0  0  0  0  0  0  0  0  0
    2.7444   -2.1380    4.8491 C   0  0  0  0  0  0  0  0  0  0  0  0
    3.4687   -2.8407    3.6912 C   0  0  2  0  0  0  0  0  0  0  0  0
    3.5089   -2.1609    2.2912 C   0  0  1  0  0  0  0  0  0  0  0  0
    4.6411   -1.0930    2.3320 C   0  0  0  0  0  0  0  0  0  0  0  0
    2.2051   -1.5181    2.2265 O   0  0  0  0  0  0  0  0  0  0  0  0
    2.2227   -0.3078    1.4045 O   0  0  0  0  0  0  0  0  0  0  0  0
    2.9937   -0.7478   -3.8473 H   0  0  0  0  0  0  0  0  0  0  0  0
    2.9898   -0.6571   -2.0168 H   0  0  0  0  0  0  0  0  0  0  0  0
    2.2190   -4.0996   -4.1188 H   0  0  0  0  0  0  0  0  0  0  0  0
    3.9833   -4.0830   -4.0989 H   0  0  0  0  0  0  0  0  0  0  0  0
    3.1006   -2.8236   -4.9606 H   0  0  0  0  0  0  0  0  0  0  0  0
    2.0828   -3.8086   -1.3502 H   0  0  0  0  0  0  0  0  0  0  0  0
    3.7276   -4.2526   -1.7058 H   0  0  0  0  0  0  0  0  0  0  0  0
    4.4088   -2.0090   -0.4990 H   0  0  0  0  0  0  0  0  0  0  0  0
    2.7101   -1.9039   -0.2059 H   0  0  0  0  0  0  0  0  0  0  0  0
    3.3111   -6.3664    3.1038 H   0  0  0  0  0  0  0  0  0  0  0  0
    5.7433   -5.7584    4.1963 H   0  0  0  0  0  0  0  0  0  0  0  0
    6.7875   -4.6140    2.4780 H   0  0  0  0  0  0  0  0  0  0  0  0
    5.8430   -3.1452    1.0223 H   0  0  0  0  0  0  0  0  0  0  0  0
    6.3926   -5.4615    0.2016 H   0  0  0  0  0  0  0  0  0  0  0  0
    5.5509   -4.4174   -0.9155 H   0  0  0  0  0  0  0  0  0  0  0  0
    4.6710   -5.7055   -0.0619 H   0  0  0  0  0  0  0  0  0  0  0  0
    1.8461   -5.6259    4.9161 H   0  0  0  0  0  0  0  0  0  0  0  0
    2.5996   -4.8622    6.9005 H   0  0  0  0  0  0  0  0  0  0  0  0
    5.4075   -4.2533    5.9593 H   0  0  0  0  0  0  0  0  0  0  0  0
    4.8462   -5.8422    6.4927 H   0  0  0  0  0  0  0  0  0  0  0  0
    4.8391   -4.4845    7.5989 H   0  0  0  0  0  0  0  0  0  0  0  0
    2.0894   -2.6925    6.8400 H   0  0  0  0  0  0  0  0  0  0  0  0
    3.7928   -2.4053    6.7130 H   0  0  0  0  0  0  0  0  0  0  0  0
    1.6708   -2.1120    4.6440 H   0  0  0  0  0  0  0  0  0  0  0  0
    3.0737   -1.1042    4.9383 H   0  0  0  0  0  0  0  0  0  0  0  0
    4.4947   -2.9322    4.0336 H   0  0  0  0  0  0  0  0  0  0  0  0
    5.5942   -1.5429    2.6046 H   0  0  0  0  0  0  0  0  0  0  0  0
    4.4384   -0.3241    3.0754 H   0  0  0  0  0  0  0  0  0  0  0  0
    4.7847   -0.5940    1.3765 H   0  0  0  0  0  0  0  0  0  0  0  0
    1.7264   -0.6298    0.6158 H   0  0  0  0  0  0  0  0  0  0  0  0
  1  2  2  0
  1 25  1  0
  1 26  1  0
  2  3  1  0
  2  4  1  0
  3 27  1  0
  3 28  1  0
  3 29  1  0
  4  5  1  0
  4 30  1  0
  4 31  1  0
  6  5  1  6
  5 32  1  0
  5 33  1  0
  6 13  1  0
  6 21  1  0
  6  7  1  0
  7  8  1  0
  9  8  1  6
  9 15  1  0
  9 20  1  0
  9 10  1  0
 10 11  1  0
 10 15  1  0
 10 34  1  6
 11 12  2  3
 11 35  1  0
 12 13  1  0
 12 36  1  0
 13 14  1  0
 13 37  1  6
 14 38  1  0
 14 39  1  0
 14 40  1  0
 15 16  1  0
 15 41  1  1
 16 17  1  0
 16 18  1  0
 16 42  1  1
 17 43  1  0
 17 44  1  0
 17 45  1  0
 18 19  1  0
 18 46  1  0
 18 47  1  0
 19 20  1  0
 19 48  1  0
 19 49  1  0
 20 21  1  0
 20 50  1  1
 21 22  1  0
 21 23  1  6
 22 51  1  0
 22 52  1  0
 22 53  1  0
 23 24  1  0
 24 54  1  0
M  END
>  <i_m_ct_stereo_status>  (253) 
1

>  <s_m_source_file>  (253) 
/var/tmp/pbs.5076255.sched01/tmp548j1hfo/88g9dmtei7.sdf

>  <i_m_source_file_index>  (253) 
23

>  <i_lp_mmshare_version>  (253) 
48012

>  <i_f3d_flags>  (253) 
0

>  <s_epik_input>  (253) 
W0NIMl09QyhbQ0gzXSlbQ0gyXVtDSDJdW0NAQF0oT08xKShbQ0BIXShbQ0gzXSkvW0NIXT1bQ0hdXDIpW0NAQF0oW0NIM10pKE9bT0hdKVtDQEhdM1tDSDJdW0NIMl1bQ0BIXShbQ0gzXSlbQ0BIXTRbQ0BIXTJbQ0BdMTM0

>  <s_epik_cmdline>  (253) 
J2VwaWtfcHl0aG9uJywgJy1waHQnLCAnMi4wJywgJy1waCcsICc3LjAnLCAnLXRuJywgJzgnLCAnLW1hJywgJzIwMCcsICctaW1hZScsICc8aW5maWxlLm1hZT4nLCAnLW9tYWUnLCAnPG91dGZpbGUubWFlPic=

>  <r_lp_tautomer_probability>  (253) 
1

>  <r_epik_Ionization_Penalty>  (253) 
1.72093e-05

>  <r_epik_Ionization_Penalty_Charging>  (253) 
0

>  <r_epik_Ionization_Penalty_Neutral>  (253) 
1.72093e-05

>  <r_epik_State_Penalty>  (253) 
-0

>  <r_epik_Charging_Adjusted_Penalty>  (253) 
0

>  <i_epik_Tot_Q>  (253) 
0

>  <i_epik_Tot_abs_Q>  (253) 
0

>  <s_lp_Force_Field>  (253) 
OPLS3e

>  <r_lp_Energy>  (253) 
65.6945

>  <b_lp_Chiralities_Consistent>  (253) 
1

>  <s_lp_Variant>  (253) 
72:0-1

>  <s_i_glide_gridfile>  (253) 
pfpi4k_grid

>  <i_i_glide_lignum>  (253) 
23

>  <i_i_glide_rotatable_bonds>  (253) 
5

>  <r_i_docking_score>  (253) 
-2.05296

>  <r_i_glide_ligand_efficiency>  (253) 
-0.08554

>  <r_i_glide_ligand_efficiency_sa>  (253) 
-0.24674

>  <r_i_glide_ligand_efficiency_ln>  (253) 
-0.491368

>  <r_i_glide_gscore>  (253) 
-2.05296

>  <r_i_glide_lipo>  (253) 
-0.321573

>  <r_i_glide_hbond>  (253) 
0

>  <r_i_glide_metal>  (253) 
-0

>  <r_i_glide_rewards>  (253) 
-1.12875

>  <r_i_glide_evdw>  (253) 
-15.8797

>  <r_i_glide_ecoul>  (253) 
-3.22075

>  <r_i_glide_erotb>  (253) 
0.674459

>  <r_i_glide_esite>  (253) 
0

>  <r_i_glide_emodel>  (253) 
-20.1701

>  <r_i_glide_energy>  (253) 
-19.1004

>  <r_i_glide_einternal>  (253) 
2.63939

>  <r_i_glide_intrahb_reward>  (253) 
-0

>  <i_i_glide_confnum>  (253) 
1

>  <i_i_glide_posenum>  (253) 
14

>  <r_i_glide_eff_state_penalty>  (253) 
0

>  <ligand_id>  (253) 
72

>  <original_smiles>  (253) 
C=C(C)CCC12OOC34C(C=CC1C)C3C(C)CCC4C2(C)OO

>  <smiles>  (253) 
[H]OOC1(C([H])([H])[H])C2([H])C([H])([H])C([H])([H])C([H])(C([H])([H])[H])C3([H])C4([H])C([H])=C([H])C([H])(C([H])([H])[H])C1(C([H])([H])C([H])([H])C(=C([H])[H])C([H])([H])[H])OOC432

$$$$
72:0:2
     RDKit          3D

 54 57  0  0  1  0  0  0  0  0999 V2000
    4.2631   -0.3756   -2.6376 C   0  0  0  0  0  0  0  0  0  0  0  0
    3.6205   -1.5494   -2.7296 C   0  0  0  0  0  0  0  0  0  0  0  0
    3.1167   -2.0283   -4.0737 C   0  0  0  0  0  0  0  0  0  0  0  0
    3.3289   -2.4906   -1.5541 C   0  0  0  0  0  0  0  0  0  0  0  0
    3.6784   -1.9331   -0.1483 C   0  0  0  0  0  0  0  0  0  0  0  0
    3.9971   -2.9135    1.0446 C   0  0  1  0  0  0  0  0  0  0  0  0
    3.2390   -4.1329    0.8401 O   0  0  0  0  0  0  0  0  0  0  0  0
    2.5154   -4.5750    2.1006 O   0  0  0  0  0  0  0  0  0  0  0  0
    3.4643   -4.5899    3.1411 C   0  0  2  0  0  0  0  0  0  0  0  0
    4.4900   -5.6297    2.8699 C   0  0  1  0  0  0  0  0  0  0  0  0
    5.8752   -5.1277    2.7687 C   0  0  0  0  0  0  0  0  0  0  0  0
    6.2880   -4.1302    1.9694 C   0  0  0  0  0  0  0  0  0  0  0  0
    5.5450   -3.2919    0.9182 C   0  0  1  0  0  0  0  0  0  0  0  0
    5.9753   -3.8562   -0.4501 C   0  0  0  0  0  0  0  0  0  0  0  0
    3.5805   -5.7354    4.1085 C   0  0  1  0  0  0  0  0  0  0  0  0
    3.9323   -5.3427    5.5562 C   0  0  1  0  0  0  0  0  0  0  0  0
    5.4223   -5.4969    5.9135 C   0  0  0  0  0  0  0  0  0  0  0  0
    3.3625   -3.9584    6.0037 C   0  0  0  0  0  0  0  0  0  0  0  0
    2.9585   -2.9675    4.8799 C   0  0  0  0  0  0  0  0  0  0  0  0
    3.7804   -3.1984    3.6044 C   0  0  2  0  0  0  0  0  0  0  0  0
    3.6334   -2.1960    2.4297 C   0  0  1  0  0  0  0  0  0  0  0  0
    4.5332   -0.9692    2.7504 C   0  0  0  0  0  0  0  0  0  0  0  0
    2.2322   -1.8484    2.4656 O   0  0  0  0  0  0  0  0  0  0  0  0
    1.9822   -0.4757    2.0319 O   0  0  0  0  0  0  0  0  0  0  0  0
    4.4262    0.2265   -3.5225 H   0  0  0  0  0  0  0  0  0  0  0  0
    4.6334    0.0286   -1.7098 H   0  0  0  0  0  0  0  0  0  0  0  0
    2.0285   -2.0845   -4.0718 H   0  0  0  0  0  0  0  0  0  0  0  0
    3.5115   -3.0150   -4.3059 H   0  0  0  0  0  0  0  0  0  0  0  0
    3.4135   -1.3415   -4.8683 H   0  0  0  0  0  0  0  0  0  0  0  0
    2.2596   -2.7024   -1.5689 H   0  0  0  0  0  0  0  0  0  0  0  0
    3.7738   -3.4613   -1.7659 H   0  0  0  0  0  0  0  0  0  0  0  0
    4.5071   -1.2408   -0.1980 H   0  0  0  0  0  0  0  0  0  0  0  0
    2.8186   -1.3198    0.0635 H   0  0  0  0  0  0  0  0  0  0  0  0
    4.3085   -6.4135    2.1307 H   0  0  0  0  0  0  0  0  0  0  0  0
    6.6109   -5.6177    3.3944 H   0  0  0  0  0  0  0  0  0  0  0  0
    7.3438   -3.8969    2.0160 H   0  0  0  0  0  0  0  0  0  0  0  0
    6.0705   -2.3417    0.9937 H   0  0  0  0  0  0  0  0  0  0  0  0
    7.0357   -4.1149   -0.4436 H   0  0  0  0  0  0  0  0  0  0  0  0
    5.8592   -3.1283   -1.2537 H   0  0  0  0  0  0  0  0  0  0  0  0
    5.4154   -4.7608   -0.6979 H   0  0  0  0  0  0  0  0  0  0  0  0
    2.7808   -6.4746    4.0443 H   0  0  0  0  0  0  0  0  0  0  0  0
    3.4312   -6.0900    6.1701 H   0  0  0  0  0  0  0  0  0  0  0  0
    6.0322   -4.7068    5.4782 H   0  0  0  0  0  0  0  0  0  0  0  0
    5.8156   -6.4572    5.5810 H   0  0  0  0  0  0  0  0  0  0  0  0
    5.5684   -5.4530    6.9949 H   0  0  0  0  0  0  0  0  0  0  0  0
    2.4968   -4.1229    6.6461 H   0  0  0  0  0  0  0  0  0  0  0  0
    4.0999   -3.4711    6.6460 H   0  0  0  0  0  0  0  0  0  0  0  0
    1.8979   -3.1017    4.6613 H   0  0  0  0  0  0  0  0  0  0  0  0
    3.0770   -1.9439    5.2348 H   0  0  0  0  0  0  0  0  0  0  0  0
    4.8202   -3.1594    3.9360 H   0  0  0  0  0  0  0  0  0  0  0  0
    5.5690   -1.2626    2.9209 H   0  0  0  0  0  0  0  0  0  0  0  0
    4.2064   -0.4595    3.6574 H   0  0  0  0  0  0  0  0  0  0  0  0
    4.5465   -0.2235    1.9530 H   0  0  0  0  0  0  0  0  0  0  0  0
    1.7522   -0.6138    1.1153 H   0  0  0  0  0  0  0  0  0  0  0  0
  1  2  2  0
  1 25  1  0
  1 26  1  0
  2  3  1  0
  2  4  1  0
  3 27  1  0
  3 28  1  0
  3 29  1  0
  4  5  1  0
  4 30  1  0
  4 31  1  0
  6  5  1  6
  5 32  1  0
  5 33  1  0
  6 13  1  0
  6 21  1  0
  6  7  1  0
  7  8  1  0
  9  8  1  6
  9 15  1  0
  9 20  1  0
  9 10  1  0
 10 11  1  0
 10 15  1  0
 10 34  1  6
 11 12  2  3
 11 35  1  0
 12 13  1  0
 12 36  1  0
 13 14  1  0
 13 37  1  6
 14 38  1  0
 14 39  1  0
 14 40  1  0
 15 16  1  0
 15 41  1  1
 16 17  1  0
 16 18  1  0
 16 42  1  1
 17 43  1  0
 17 44  1  0
 17 45  1  0
 18 19  1  0
 18 46  1  0
 18 47  1  0
 19 20  1  0
 19 48  1  0
 19 49  1  0
 20 21  1  0
 20 50  1  1
 21 22  1  0
 21 23  1  6
 22 51  1  0
 22 52  1  0
 22 53  1  0
 23 24  1  0
 24 54  1  0
M  END
>  <i_m_ct_stereo_status>  (254) 
1

>  <s_m_source_file>  (254) 
/var/tmp/pbs.5076255.sched01/tmp548j1hfo/88g9dmtei7.sdf

>  <i_m_source_file_index>  (254) 
23

>  <i_lp_mmshare_version>  (254) 
48012

>  <i_f3d_flags>  (254) 
0

>  <s_epik_input>  (254) 
W0NIMl09QyhbQ0gzXSlbQ0gyXVtDSDJdW0NAQF0oT08xKShbQ0BIXShbQ0gzXSkvW0NIXT1bQ0hdXDIpW0NAQF0oW0NIM10pKE9bT0hdKVtDQEhdM1tDSDJdW0NIMl1bQ0BIXShbQ0gzXSlbQ0BIXTRbQ0BIXTJbQ0BdMTM0

>  <s_epik_cmdline>  (254) 
J2VwaWtfcHl0aG9uJywgJy1waHQnLCAnMi4wJywgJy1waCcsICc3LjAnLCAnLXRuJywgJzgnLCAnLW1hJywgJzIwMCcsICctaW1hZScsICc8aW5maWxlLm1hZT4nLCAnLW9tYWUnLCAnPG91dGZpbGUubWFlPic=

>  <r_lp_tautomer_probability>  (254) 
1

>  <r_epik_Ionization_Penalty>  (254) 
1.72093e-05

>  <r_epik_Ionization_Penalty_Charging>  (254) 
0

>  <r_epik_Ionization_Penalty_Neutral>  (254) 
1.72093e-05

>  <r_epik_State_Penalty>  (254) 
-0

>  <r_epik_Charging_Adjusted_Penalty>  (254) 
0

>  <i_epik_Tot_Q>  (254) 
0

>  <i_epik_Tot_abs_Q>  (254) 
0

>  <s_lp_Force_Field>  (254) 
OPLS3e

>  <r_lp_Energy>  (254) 
65.6945

>  <b_lp_Chiralities_Consistent>  (254) 
1

>  <s_lp_Variant>  (254) 
72:0-1

>  <s_i_glide_gridfile>  (254) 
pfpi4k_grid

>  <i_i_glide_lignum>  (254) 
23

>  <i_i_glide_rotatable_bonds>  (254) 
5

>  <r_i_docking_score>  (254) 
-1.89238

>  <r_i_glide_ligand_efficiency>  (254) 
-0.078849

>  <r_i_glide_ligand_efficiency_sa>  (254) 
-0.22744

>  <r_i_glide_ligand_efficiency_ln>  (254) 
-0.452933

>  <r_i_glide_gscore>  (254) 
-1.89238

>  <r_i_glide_lipo>  (254) 
-0.426173

>  <r_i_glide_hbond>  (254) 
0

>  <r_i_glide_metal>  (254) 
-0

>  <r_i_glide_rewards>  (254) 
-1.12875

>  <r_i_glide_evdw>  (254) 
-16.6101

>  <r_i_glide_ecoul>  (254) 
-1.20936

>  <r_i_glide_erotb>  (254) 
0.674459

>  <r_i_glide_esite>  (254) 
0

>  <r_i_glide_emodel>  (254) 
-18.5579

>  <r_i_glide_energy>  (254) 
-17.8195

>  <r_i_glide_einternal>  (254) 
3.05366

>  <r_i_glide_intrahb_reward>  (254) 
-0

>  <i_i_glide_confnum>  (254) 
6

>  <i_i_glide_posenum>  (254) 
40

>  <r_i_glide_eff_state_penalty>  (254) 
0

>  <ligand_id>  (254) 
72

>  <original_smiles>  (254) 
C=C(C)CCC12OOC34C(C=CC1C)C3C(C)CCC4C2(C)OO

>  <smiles>  (254) 
[H]OOC1(C([H])([H])[H])C2([H])C([H])([H])C([H])([H])C([H])(C([H])([H])[H])C3([H])C4([H])C([H])=C([H])C([H])(C([H])([H])[H])C1(C([H])([H])C([H])([H])C(=C([H])[H])C([H])([H])[H])OOC432

$$$$
72:1:0
     RDKit          3D

 54 57  0  0  1  0  0  0  0  0999 V2000
    4.1645    0.9046   -3.8630 C   0  0  0  0  0  0  0  0  0  0  0  0
    3.6926   -0.3211   -3.7103 C   0  0  0  0  0  0  0  0  0  0  0  0
    3.0327   -1.0036   -4.8823 C   0  0  0  0  0  0  0  0  0  0  0  0
    3.6987   -1.0747   -2.4070 C   0  0  0  0  0  0  0  0  0  0  0  0
    5.1334   -1.4117   -1.8469 C   0  0  0  0  0  0  0  0  0  0  0  0
    5.2836   -2.4462   -0.6522 C   0  0  1  0  0  0  0  0  0  0  0  0
    6.7268   -2.7003   -0.6163 O   0  0  0  0  0  0  0  0  0  0  0  0
    7.1451   -4.1591   -0.3248 O   0  0  0  0  0  0  0  0  0  0  0  0
    6.3553   -4.7414    0.6791 C   0  0  2  0  0  0  0  0  0  0  0  0
    6.9368   -4.2763    2.0119 C   0  0  1  0  0  0  0  0  0  0  0  0
    5.9952   -3.2658    2.5161 C   0  0  0  0  0  0  0  0  0  0  0  0
    6.0461   -2.1299    1.7993 C   0  0  0  0  0  0  0  0  0  0  0  0
    4.9688   -1.7853    0.7844 C   0  0  1  0  0  0  0  0  0  0  0  0
    4.7461   -0.2709    0.8328 C   0  0  0  0  0  0  0  0  0  0  0  0
    6.8628   -5.7542    1.6894 C   0  0  1  0  0  0  0  0  0  0  0  0
    5.9263   -6.7838    2.3251 C   0  0  1  0  0  0  0  0  0  0  0  0
    5.8394   -6.6705    3.8648 C   0  0  0  0  0  0  0  0  0  0  0  0
    4.5249   -6.8338    1.6670 C   0  0  0  0  0  0  0  0  0  0  0  0
    4.4279   -6.2559    0.2334 C   0  0  0  0  0  0  0  0  0  0  0  0
    4.8936   -4.7939    0.2607 C   0  0  2  0  0  0  0  0  0  0  0  0
    4.5053   -3.8163   -0.9032 C   0  0  1  0  0  0  0  0  0  0  0  0
    2.9153   -3.7011   -0.8778 C   0  0  0  0  0  0  0  0  0  0  0  0
    5.0066   -4.4466   -2.0995 O   0  0  0  0  0  0  0  0  0  0  0  0
    4.3679   -3.9122   -3.2998 O   0  0  0  0  0  0  0  0  0  0  0  0
    4.1585    1.4471   -4.7898 H   0  0  0  0  0  0  0  0  0  0  0  0
    4.6309    1.3232   -2.9807 H   0  0  0  0  0  0  0  0  0  0  0  0
    1.9997   -1.1800   -4.6752 H   0  0  0  0  0  0  0  0  0  0  0  0
    3.4739   -1.9828   -5.0849 H   0  0  0  0  0  0  0  0  0  0  0  0
    3.1005   -0.4100   -5.7856 H   0  0  0  0  0  0  0  0  0  0  0  0
    3.0115   -0.6629   -1.6700 H   0  0  0  0  0  0  0  0  0  0  0  0
    3.2198   -1.9071   -2.8197 H   0  0  0  0  0  0  0  0  0  0  0  0
    5.7406   -1.7861   -2.6750 H   0  0  0  0  0  0  0  0  0  0  0  0
    5.6098   -0.4727   -1.5665 H   0  0  0  0  0  0  0  0  0  0  0  0
    7.9661   -3.9316    2.0032 H   0  0  0  0  0  0  0  0  0  0  0  0
    5.0670   -3.7025    2.8295 H   0  0  0  0  0  0  0  0  0  0  0  0
    7.0233   -1.7995    1.4737 H   0  0  0  0  0  0  0  0  0  0  0  0
    4.0552   -2.2105    1.1880 H   0  0  0  0  0  0  0  0  0  0  0  0
    4.4646    0.0514    1.8333 H   0  0  0  0  0  0  0  0  0  0  0  0
    3.9287    0.0205    0.1839 H   0  0  0  0  0  0  0  0  0  0  0  0
    5.6369    0.2840    0.5425 H   0  0  0  0  0  0  0  0  0  0  0  0
    7.8149   -6.1927    1.4375 H   0  0  0  0  0  0  0  0  0  0  0  0
    6.4037   -7.7583    2.1334 H   0  0  0  0  0  0  0  0  0  0  0  0
    5.3465   -5.7605    4.2117 H   0  0  0  0  0  0  0  0  0  0  0  0
    6.8206   -6.7206    4.3355 H   0  0  0  0  0  0  0  0  0  0  0  0
    5.2632   -7.5037    4.2595 H   0  0  0  0  0  0  0  0  0  0  0  0
    4.2032   -7.8694    1.6678 H   0  0  0  0  0  0  0  0  0  0  0  0
    3.7986   -6.3225    2.3008 H   0  0  0  0  0  0  0  0  0  0  0  0
    5.0054   -6.8474   -0.4716 H   0  0  0  0  0  0  0  0  0  0  0  0
    3.3956   -6.3338   -0.0894 H   0  0  0  0  0  0  0  0  0  0  0  0
    4.3175   -4.4234    1.0875 H   0  0  0  0  0  0  0  0  0  0  0  0
    2.5864   -3.0459   -0.0513 H   0  0  0  0  0  0  0  0  0  0  0  0
    2.4345   -4.6834   -0.8022 H   0  0  0  0  0  0  0  0  0  0  0  0
    2.4307   -3.3193   -1.7465 H   0  0  0  0  0  0  0  0  0  0  0  0
    3.5627   -4.4314   -3.2684 H   0  0  0  0  0  0  0  0  0  0  0  0
  1  2  2  0
  1 25  1  0
  1 26  1  0
  2  3  1  0
  2  4  1  0
  3 27  1  0
  3 28  1  0
  3 29  1  0
  4  5  1  0
  4 30  1  0
  4 31  1  0
  6  5  1  6
  5 32  1  0
  5 33  1  0
  6 13  1  0
  6 21  1  0
  6  7  1  0
  7  8  1  0
  9  8  1  6
  9 15  1  0
  9 20  1  0
  9 10  1  0
 10 11  1  0
 10 15  1  0
 10 34  1  6
 11 12  2  3
 11 35  1  0
 12 13  1  0
 12 36  1  0
 13 14  1  0
 13 37  1  1
 14 38  1  0
 14 39  1  0
 14 40  1  0
 15 16  1  0
 15 41  1  6
 16 17  1  0
 16 18  1  0
 16 42  1  1
 17 43  1  0
 17 44  1  0
 17 45  1  0
 18 19  1  0
 18 46  1  0
 18 47  1  0
 19 20  1  0
 19 48  1  0
 19 49  1  0
 20 21  1  0
 20 50  1  1
 21 22  1  0
 21 23  1  6
 22 51  1  0
 22 52  1  0
 22 53  1  0
 23 24  1  0
 24 54  1  0
M  END
>  <i_m_ct_stereo_status>  (255) 
1

>  <s_m_source_file>  (255) 
/var/tmp/pbs.5076255.sched01/tmp548j1hfo/88g9dmtei7.sdf

>  <i_m_source_file_index>  (255) 
24

>  <i_lp_mmshare_version>  (255) 
48012

>  <i_f3d_flags>  (255) 
0

>  <s_epik_input>  (255) 
W0NIMl09QyhbQ0gzXSlbQ0gyXVtDSDJdW0NAQF0oT08xKShbQ0BIXShbQ0gzXSkvW0NIXT1bQ0hdXDIpW0NAQF0oW0NIM10pKE9bT0hdKVtDQEhdM1tDSDJdW0NIMl1bQ0BIXShbQ0gzXSlbQ0BIXTRbQ0BIXTJbQ0BdMTM0

>  <s_epik_cmdline>  (255) 
J2VwaWtfcHl0aG9uJywgJy1waHQnLCAnMi4wJywgJy1waCcsICc3LjAnLCAnLXRuJywgJzgnLCAnLW1hJywgJzIwMCcsICctaW1hZScsICc8aW5maWxlLm1hZT4nLCAnLW9tYWUnLCAnPG91dGZpbGUubWFlPic=

>  <r_lp_tautomer_probability>  (255) 
1

>  <r_epik_Ionization_Penalty>  (255) 
1.72093e-05

>  <r_epik_Ionization_Penalty_Charging>  (255) 
0

>  <r_epik_Ionization_Penalty_Neutral>  (255) 
1.72093e-05

>  <r_epik_State_Penalty>  (255) 
-0

>  <r_epik_Charging_Adjusted_Penalty>  (255) 
0

>  <i_epik_Tot_Q>  (255) 
0

>  <i_epik_Tot_abs_Q>  (255) 
0

>  <s_lp_Force_Field>  (255) 
OPLS3e

>  <r_lp_Energy>  (255) 
94.9279

>  <b_lp_Chiralities_Consistent>  (255) 
1

>  <s_lp_Variant>  (255) 
72:0-2

>  <s_i_glide_gridfile>  (255) 
pfpi4k_grid

>  <i_i_glide_lignum>  (255) 
24

>  <i_i_glide_rotatable_bonds>  (255) 
5

>  <r_i_docking_score>  (255) 
-2.59737

>  <r_i_glide_ligand_efficiency>  (255) 
-0.108224

>  <r_i_glide_ligand_efficiency_sa>  (255) 
-0.312171

>  <r_i_glide_ligand_efficiency_ln>  (255) 
-0.621669

>  <r_i_glide_gscore>  (255) 
-2.59737

>  <r_i_glide_lipo>  (255) 
-1.00433

>  <r_i_glide_hbond>  (255) 
0

>  <r_i_glide_metal>  (255) 
-0

>  <r_i_glide_rewards>  (255) 
-1.12875

>  <r_i_glide_evdw>  (255) 
-10.5404

>  <r_i_glide_ecoul>  (255) 
-4.07817

>  <r_i_glide_erotb>  (255) 
0.674459

>  <r_i_glide_esite>  (255) 
0

>  <r_i_glide_emodel>  (255) 
-8.38611

>  <r_i_glide_energy>  (255) 
-14.6186

>  <r_i_glide_einternal>  (255) 
10.2583

>  <r_i_glide_intrahb_reward>  (255) 
-0

>  <i_i_glide_confnum>  (255) 
5

>  <i_i_glide_posenum>  (255) 
21

>  <r_i_glide_eff_state_penalty>  (255) 
0

>  <ligand_id>  (255) 
72

>  <original_smiles>  (255) 
C=C(C)CCC12OOC34C(C=CC1C)C3C(C)CCC4C2(C)OO

>  <smiles>  (255) 
[H]OOC1(C([H])([H])[H])C2([H])C([H])([H])C([H])([H])C([H])(C([H])([H])[H])C3([H])C4([H])C([H])=C([H])C([H])(C([H])([H])[H])C1(C([H])([H])C([H])([H])C(=C([H])[H])C([H])([H])[H])OOC432

$$$$
72:2:0
     RDKit          3D

 54 57  0  0  1  0  0  0  0  0999 V2000
    3.1167   -3.5897    5.4408 C   0  0  0  0  0  0  0  0  0  0  0  0
    3.7693   -2.4477    5.1600 C   0  0  0  0  0  0  0  0  0  0  0  0
    4.1651   -1.4647    6.2647 C   0  0  0  0  0  0  0  0  0  0  0  0
    4.2420   -2.0285    3.7613 C   0  0  0  0  0  0  0  0  0  0  0  0
    3.8811   -2.9663    2.5658 C   0  0  0  0  0  0  0  0  0  0  0  0
    4.3516   -2.6176    1.0903 C   0  0  1  0  0  0  0  0  0  0  0  0
    3.6807   -1.3793    0.8206 O   0  0  0  0  0  0  0  0  0  0  0  0
    3.5231   -1.0628   -0.6646 O   0  0  0  0  0  0  0  0  0  0  0  0
    4.2649   -1.9428   -1.4902 C   0  0  2  0  0  0  0  0  0  0  0  0
    5.5486   -1.2921   -1.7507 C   0  0  1  0  0  0  0  0  0  0  0  0
    6.6665   -2.1278   -1.3472 C   0  0  0  0  0  0  0  0  0  0  0  0
    6.8023   -2.6333   -0.1110 C   0  0  0  0  0  0  0  0  0  0  0  0
    5.9177   -2.3375    1.1230 C   0  0  1  0  0  0  0  0  0  0  0  0
    6.3261   -0.9315    1.6484 C   0  0  0  0  0  0  0  0  0  0  0  0
    4.6060   -1.5702   -2.9336 C   0  0  2  0  0  0  0  0  0  0  0  0
    3.2709   -1.1582   -3.4902 C   0  0  1  0  0  0  0  0  0  0  0  0
    3.3816   -0.4850   -4.8769 C   0  0  0  0  0  0  0  0  0  0  0  0
    2.4484   -2.4854   -3.5238 C   0  0  0  0  0  0  0  0  0  0  0  0
    2.4031   -3.2506   -2.1477 C   0  0  0  0  0  0  0  0  0  0  0  0
    3.7808   -3.3219   -1.3948 C   0  0  2  0  0  0  0  0  0  0  0  0
    3.8196   -3.7607    0.1087 C   0  0  1  0  0  0  0  0  0  0  0  0
    4.6582   -5.0640    0.2663 C   0  0  0  0  0  0  0  0  0  0  0  0
    2.4437   -4.0026    0.4511 O   0  0  0  0  0  0  0  0  0  0  0  0
    2.0195   -5.3541    0.0527 O   0  0  0  0  0  0  0  0  0  0  0  0
    2.8631   -3.8596    6.4574 H   0  0  0  0  0  0  0  0  0  0  0  0
    2.8387   -4.2830    4.6599 H   0  0  0  0  0  0  0  0  0  0  0  0
    5.2513   -1.3949    6.3201 H   0  0  0  0  0  0  0  0  0  0  0  0
    3.8142   -1.7984    7.2372 H   0  0  0  0  0  0  0  0  0  0  0  0
    3.7922   -0.4558    6.0892 H   0  0  0  0  0  0  0  0  0  0  0  0
    3.8774   -1.0075    3.5648 H   0  0  0  0  0  0  0  0  0  0  0  0
    5.3135   -1.9719    3.8661 H   0  0  0  0  0  0  0  0  0  0  0  0
    4.3017   -3.9431    2.7765 H   0  0  0  0  0  0  0  0  0  0  0  0
    2.7956   -3.0474    2.5555 H   0  0  0  0  0  0  0  0  0  0  0  0
    5.6851   -0.2420   -1.5351 H   0  0  0  0  0  0  0  0  0  0  0  0
    7.4124   -2.3326   -2.1078 H   0  0  0  0  0  0  0  0  0  0  0  0
    7.6597   -3.2343    0.0744 H   0  0  0  0  0  0  0  0  0  0  0  0
    6.2892   -3.0830    1.8239 H   0  0  0  0  0  0  0  0  0  0  0  0
    7.3939   -0.9999    1.8993 H   0  0  0  0  0  0  0  0  0  0  0  0
    5.8148   -0.5529    2.4982 H   0  0  0  0  0  0  0  0  0  0  0  0
    6.3000   -0.2118    0.7975 H   0  0  0  0  0  0  0  0  0  0  0  0
    5.0633   -2.3303   -3.5822 H   0  0  0  0  0  0  0  0  0  0  0  0
    2.7713   -0.4312   -2.8321 H   0  0  0  0  0  0  0  0  0  0  0  0
    3.8491   -1.1215   -5.6094 H   0  0  0  0  0  0  0  0  0  0  0  0
    3.9635    0.4353   -4.8598 H   0  0  0  0  0  0  0  0  0  0  0  0
    2.3911   -0.2460   -5.2628 H   0  0  0  0  0  0  0  0  0  0  0  0
    1.4368   -2.2908   -3.8618 H   0  0  0  0  0  0  0  0  0  0  0  0
    2.8719   -3.1537   -4.2781 H   0  0  0  0  0  0  0  0  0  0  0  0
    1.6779   -2.7480   -1.5134 H   0  0  0  0  0  0  0  0  0  0  0  0
    1.9920   -4.2409   -2.3270 H   0  0  0  0  0  0  0  0  0  0  0  0
    4.4522   -3.9752   -1.9625 H   0  0  0  0  0  0  0  0  0  0  0  0
    5.7220   -4.9069    0.1117 H   0  0  0  0  0  0  0  0  0  0  0  0
    4.3835   -5.8253   -0.4638 H   0  0  0  0  0  0  0  0  0  0  0  0
    4.5255   -5.4945    1.2569 H   0  0  0  0  0  0  0  0  0  0  0  0
    2.1221   -5.3158   -0.8816 H   0  0  0  0  0  0  0  0  0  0  0  0
  1  2  2  0
  1 25  1  0
  1 26  1  0
  2  3  1  0
  2  4  1  0
  3 27  1  0
  3 28  1  0
  3 29  1  0
  4  5  1  0
  4 30  1  0
  4 31  1  0
  6  5  1  1
  5 32  1  0
  5 33  1  0
  6 13  1  0
  6 21  1  0
  6  7  1  0
  7  8  1  0
  9  8  1  1
  9 15  1  0
  9 20  1  0
  9 10  1  0
 10 11  1  0
 10 15  1  0
 10 34  1  1
 11 12  2  3
 11 35  1  0
 12 13  1  0
 12 36  1  0
 13 14  1  0
 13 37  1  1
 14 38  1  0
 14 39  1  0
 14 40  1  0
 15 16  1  0
 15 41  1  6
 16 17  1  0
 16 18  1  0
 16 42  1  1
 17 43  1  0
 17 44  1  0
 17 45  1  0
 18 19  1  0
 18 46  1  0
 18 47  1  0
 19 20  1  0
 19 48  1  0
 19 49  1  0
 20 21  1  0
 20 50  1  6
 21 22  1  0
 21 23  1  1
 22 51  1  0
 22 52  1  0
 22 53  1  0
 23 24  1  0
 24 54  1  0
M  END
>  <i_m_ct_stereo_status>  (256) 
1

>  <s_m_source_file>  (256) 
/var/tmp/pbs.5076255.sched01/tmp548j1hfo/88g9dmtei7.sdf

>  <i_m_source_file_index>  (256) 
25

>  <i_lp_mmshare_version>  (256) 
48012

>  <i_f3d_flags>  (256) 
0

>  <s_epik_input>  (256) 
W0NIMl09QyhbQ0gzXSlbQ0gyXVtDSDJdW0NAQF0oT08xKShbQ0BIXShbQ0gzXSkvW0NIXT1bQ0hdXDIpW0NAQF0oW0NIM10pKE9bT0hdKVtDQEhdM1tDSDJdW0NIMl1bQ0BIXShbQ0gzXSlbQ0BIXTRbQ0BIXTJbQ0BdMTM0

>  <s_epik_cmdline>  (256) 
J2VwaWtfcHl0aG9uJywgJy1waHQnLCAnMi4wJywgJy1waCcsICc3LjAnLCAnLXRuJywgJzgnLCAnLW1hJywgJzIwMCcsICctaW1hZScsICc8aW5maWxlLm1hZT4nLCAnLW9tYWUnLCAnPG91dGZpbGUubWFlPic=

>  <r_lp_tautomer_probability>  (256) 
1

>  <r_epik_Ionization_Penalty>  (256) 
1.72093e-05

>  <r_epik_Ionization_Penalty_Charging>  (256) 
0

>  <r_epik_Ionization_Penalty_Neutral>  (256) 
1.72093e-05

>  <r_epik_State_Penalty>  (256) 
-0

>  <r_epik_Charging_Adjusted_Penalty>  (256) 
0

>  <i_epik_Tot_Q>  (256) 
0

>  <i_epik_Tot_abs_Q>  (256) 
0

>  <s_lp_Force_Field>  (256) 
OPLS3e

>  <r_lp_Energy>  (256) 
78.3342

>  <b_lp_Chiralities_Consistent>  (256) 
1

>  <s_lp_Variant>  (256) 
72:0-3

>  <s_i_glide_gridfile>  (256) 
pfpi4k_grid

>  <i_i_glide_lignum>  (256) 
25

>  <i_i_glide_rotatable_bonds>  (256) 
5

>  <r_i_docking_score>  (256) 
-2.85384

>  <r_i_glide_ligand_efficiency>  (256) 
-0.11891

>  <r_i_glide_ligand_efficiency_sa>  (256) 
-0.342996

>  <r_i_glide_ligand_efficiency_ln>  (256) 
-0.683056

>  <r_i_glide_gscore>  (256) 
-2.85384

>  <r_i_glide_lipo>  (256) 
-1.0155

>  <r_i_glide_hbond>  (256) 
0

>  <r_i_glide_metal>  (256) 
-0

>  <r_i_glide_rewards>  (256) 
-1.12875

>  <r_i_glide_evdw>  (256) 
-20.578

>  <r_i_glide_ecoul>  (256) 
-2.3677

>  <r_i_glide_erotb>  (256) 
0.674459

>  <r_i_glide_esite>  (256) 
0

>  <r_i_glide_emodel>  (256) 
-24.5471

>  <r_i_glide_energy>  (256) 
-22.9457

>  <r_i_glide_einternal>  (256) 
2.34333

>  <r_i_glide_intrahb_reward>  (256) 
-0

>  <i_i_glide_confnum>  (256) 
4

>  <i_i_glide_posenum>  (256) 
3

>  <r_i_glide_eff_state_penalty>  (256) 
0

>  <ligand_id>  (256) 
72

>  <original_smiles>  (256) 
C=C(C)CCC12OOC34C(C=CC1C)C3C(C)CCC4C2(C)OO

>  <smiles>  (256) 
[H]OOC1(C([H])([H])[H])C2([H])C([H])([H])C([H])([H])C([H])(C([H])([H])[H])C3([H])C4([H])C([H])=C([H])C([H])(C([H])([H])[H])C1(C([H])([H])C([H])([H])C(=C([H])[H])C([H])([H])[H])OOC432

$$$$
72:2:1
     RDKit          3D

 54 57  0  0  1  0  0  0  0  0999 V2000
    3.9590   -0.5836    0.4834 C   0  0  0  0  0  0  0  0  0  0  0  0
    3.9931   -1.5444   -0.4579 C   0  0  0  0  0  0  0  0  0  0  0  0
    4.4254   -1.2499   -1.8873 C   0  0  0  0  0  0  0  0  0  0  0  0
    3.7087   -3.0296   -0.1805 C   0  0  0  0  0  0  0  0  0  0  0  0
    3.2194   -3.3983    1.2663 C   0  0  0  0  0  0  0  0  0  0  0  0
    3.0313   -4.9078    1.6747 C   0  0  1  0  0  0  0  0  0  0  0  0
    2.0424   -5.4169    0.7529 O   0  0  0  0  0  0  0  0  0  0  0  0
    1.3015   -6.6803    1.1966 O   0  0  0  0  0  0  0  0  0  0  0  0
    1.8945   -7.2575    2.3333 C   0  0  2  0  0  0  0  0  0  0  0  0
    2.8220   -8.2897    1.8910 C   0  0  1  0  0  0  0  0  0  0  0  0
    4.1760   -8.0527    2.4105 C   0  0  0  0  0  0  0  0  0  0  0  0
    4.8331   -6.8743    2.2615 C   0  0  0  0  0  0  0  0  0  0  0  0
    4.4186   -5.6698    1.4262 C   0  0  1  0  0  0  0  0  0  0  0  0
    4.7242   -6.0047   -0.0668 C   0  0  0  0  0  0  0  0  0  0  0  0
    1.6340   -8.6913    2.7688 C   0  0  2  0  0  0  0  0  0  0  0  0
    0.1142   -8.7693    2.7213 C   0  0  1  0  0  0  0  0  0  0  0  0
   -0.4269  -10.1961    2.8791 C   0  0  0  0  0  0  0  0  0  0  0  0
   -0.3658   -7.8541    3.8840 C   0  0  0  0  0  0  0  0  0  0  0  0
    0.2595   -6.4218    3.8780 C   0  0  0  0  0  0  0  0  0  0  0  0
    1.7871   -6.3454    3.5209 C   0  0  2  0  0  0  0  0  0  0  0  0
    2.4339   -4.9625    3.1775 C   0  0  1  0  0  0  0  0  0  0  0  0
    3.5266   -4.5939    4.2296 C   0  0  0  0  0  0  0  0  0  0  0  0
    1.4068   -3.9612    3.2354 O   0  0  0  0  0  0  0  0  0  0  0  0
    1.0377   -3.6551    4.6262 O   0  0  0  0  0  0  0  0  0  0  0  0
    4.2384    0.4392    0.2583 H   0  0  0  0  0  0  0  0  0  0  0  0
    3.6635   -0.7992    1.5013 H   0  0  0  0  0  0  0  0  0  0  0  0
    5.3520   -1.7722   -2.1328 H   0  0  0  0  0  0  0  0  0  0  0  0
    4.6073   -0.1859   -2.0326 H   0  0  0  0  0  0  0  0  0  0  0  0
    3.6749   -1.5680   -2.6097 H   0  0  0  0  0  0  0  0  0  0  0  0
    2.9944   -3.4015   -0.9280 H   0  0  0  0  0  0  0  0  0  0  0  0
    4.6722   -3.4555   -0.3681 H   0  0  0  0  0  0  0  0  0  0  0  0
    3.9478   -3.0009    1.9670 H   0  0  0  0  0  0  0  0  0  0  0  0
    2.2915   -2.8476    1.4096 H   0  0  0  0  0  0  0  0  0  0  0  0
    2.8077   -8.6944    0.8868 H   0  0  0  0  0  0  0  0  0  0  0  0
    4.6354   -8.8669    2.9545 H   0  0  0  0  0  0  0  0  0  0  0  0
    5.8075   -6.8255    2.7118 H   0  0  0  0  0  0  0  0  0  0  0  0
    5.1578   -4.9316    1.7577 H   0  0  0  0  0  0  0  0  0  0  0  0
    5.8088   -6.1654   -0.1473 H   0  0  0  0  0  0  0  0  0  0  0  0
    4.4371   -5.2730   -0.7808 H   0  0  0  0  0  0  0  0  0  0  0  0
    4.2556   -6.9710   -0.3213 H   0  0  0  0  0  0  0  0  0  0  0  0
    1.9795   -9.0476    3.7236 H   0  0  0  0  0  0  0  0  0  0  0  0
   -0.2552   -8.3934    1.7685 H   0  0  0  0  0  0  0  0  0  0  0  0
   -0.1529  -10.6637    3.8298 H   0  0  0  0  0  0  0  0  0  0  0  0
   -0.0901  -10.8509    2.0732 H   0  0  0  0  0  0  0  0  0  0  0  0
   -1.5106  -10.1828    2.8373 H   0  0  0  0  0  0  0  0  0  0  0  0
   -1.4506   -7.7837    3.8779 H   0  0  0  0  0  0  0  0  0  0  0  0
   -0.1143   -8.3350    4.8392 H   0  0  0  0  0  0  0  0  0  0  0  0
   -0.2960   -5.8401    3.1362 H   0  0  0  0  0  0  0  0  0  0  0  0
    0.0734   -5.9898    4.8551 H   0  0  0  0  0  0  0  0  0  0  0  0
    2.3393   -6.7889    4.3402 H   0  0  0  0  0  0  0  0  0  0  0  0
    4.4054   -5.2281    4.1686 H   0  0  0  0  0  0  0  0  0  0  0  0
    3.1740   -4.7017    5.2552 H   0  0  0  0  0  0  0  0  0  0  0  0
    3.8626   -3.5635    4.1177 H   0  0  0  0  0  0  0  0  0  0  0  0
    0.3381   -4.2837    4.7628 H   0  0  0  0  0  0  0  0  0  0  0  0
  1  2  2  0
  1 25  1  0
  1 26  1  0
  2  3  1  0
  2  4  1  0
  3 27  1  0
  3 28  1  0
  3 29  1  0
  4  5  1  0
  4 30  1  0
  4 31  1  0
  6  5  1  6
  5 32  1  0
  5 33  1  0
  6 13  1  0
  6 21  1  0
  6  7  1  0
  7  8  1  0
  9  8  1  6
  9 15  1  0
  9 20  1  0
  9 10  1  0
 10 11  1  0
 10 15  1  0
 10 34  1  6
 11 12  2  3
 11 35  1  0
 12 13  1  0
 12 36  1  0
 13 14  1  0
 13 37  1  1
 14 38  1  0
 14 39  1  0
 14 40  1  0
 15 16  1  0
 15 41  1  1
 16 17  1  0
 16 18  1  0
 16 42  1  6
 17 43  1  0
 17 44  1  0
 17 45  1  0
 18 19  1  0
 18 46  1  0
 18 47  1  0
 19 20  1  0
 19 48  1  0
 19 49  1  0
 20 21  1  0
 20 50  1  1
 21 22  1  0
 21 23  1  6
 22 51  1  0
 22 52  1  0
 22 53  1  0
 23 24  1  0
 24 54  1  0
M  END
>  <i_m_ct_stereo_status>  (257) 
1

>  <s_m_source_file>  (257) 
/var/tmp/pbs.5076255.sched01/tmp548j1hfo/88g9dmtei7.sdf

>  <i_m_source_file_index>  (257) 
25

>  <i_lp_mmshare_version>  (257) 
48012

>  <i_f3d_flags>  (257) 
0

>  <s_epik_input>  (257) 
W0NIMl09QyhbQ0gzXSlbQ0gyXVtDSDJdW0NAQF0oT08xKShbQ0BIXShbQ0gzXSkvW0NIXT1bQ0hdXDIpW0NAQF0oW0NIM10pKE9bT0hdKVtDQEhdM1tDSDJdW0NIMl1bQ0BIXShbQ0gzXSlbQ0BIXTRbQ0BIXTJbQ0BdMTM0

>  <s_epik_cmdline>  (257) 
J2VwaWtfcHl0aG9uJywgJy1waHQnLCAnMi4wJywgJy1waCcsICc3LjAnLCAnLXRuJywgJzgnLCAnLW1hJywgJzIwMCcsICctaW1hZScsICc8aW5maWxlLm1hZT4nLCAnLW9tYWUnLCAnPG91dGZpbGUubWFlPic=

>  <r_lp_tautomer_probability>  (257) 
1

>  <r_epik_Ionization_Penalty>  (257) 
1.72093e-05

>  <r_epik_Ionization_Penalty_Charging>  (257) 
0

>  <r_epik_Ionization_Penalty_Neutral>  (257) 
1.72093e-05

>  <r_epik_State_Penalty>  (257) 
-0

>  <r_epik_Charging_Adjusted_Penalty>  (257) 
0

>  <i_epik_Tot_Q>  (257) 
0

>  <i_epik_Tot_abs_Q>  (257) 
0

>  <s_lp_Force_Field>  (257) 
OPLS3e

>  <r_lp_Energy>  (257) 
78.3342

>  <b_lp_Chiralities_Consistent>  (257) 
1

>  <s_lp_Variant>  (257) 
72:0-3

>  <s_i_glide_gridfile>  (257) 
pfpi4k_grid

>  <i_i_glide_lignum>  (257) 
25

>  <i_i_glide_rotatable_bonds>  (257) 
5

>  <r_i_docking_score>  (257) 
-1.65334

>  <r_i_glide_ligand_efficiency>  (257) 
-0.0688892

>  <r_i_glide_ligand_efficiency_sa>  (257) 
-0.198711

>  <r_i_glide_ligand_efficiency_ln>  (257) 
-0.39572

>  <r_i_glide_gscore>  (257) 
-1.65334

>  <r_i_glide_lipo>  (257) 
-0.115732

>  <r_i_glide_hbond>  (257) 
-0.046475

>  <r_i_glide_metal>  (257) 
-0

>  <r_i_glide_rewards>  (257) 
-1.12875

>  <r_i_glide_evdw>  (257) 
-20.3242

>  <r_i_glide_ecoul>  (257) 
-0.137546

>  <r_i_glide_erotb>  (257) 
0.674459

>  <r_i_glide_esite>  (257) 
0

>  <r_i_glide_emodel>  (257) 
-21.8506

>  <r_i_glide_energy>  (257) 
-20.4617

>  <r_i_glide_einternal>  (257) 
0.366193

>  <r_i_glide_intrahb_reward>  (257) 
-0

>  <i_i_glide_confnum>  (257) 
4

>  <i_i_glide_posenum>  (257) 
22

>  <r_i_glide_eff_state_penalty>  (257) 
0

>  <ligand_id>  (257) 
72

>  <original_smiles>  (257) 
C=C(C)CCC12OOC34C(C=CC1C)C3C(C)CCC4C2(C)OO

>  <smiles>  (257) 
[H]OOC1(C([H])([H])[H])C2([H])C([H])([H])C([H])([H])C([H])(C([H])([H])[H])C3([H])C4([H])C([H])=C([H])C([H])(C([H])([H])[H])C1(C([H])([H])C([H])([H])C(=C([H])[H])C([H])([H])[H])OOC432

$$$$
72:2:2
     RDKit          3D

 54 57  0  0  1  0  0  0  0  0999 V2000
    3.9485   -0.4994    0.4821 C   0  0  0  0  0  0  0  0  0  0  0  0
    3.9586   -1.4587   -0.4590 C   0  0  0  0  0  0  0  0  0  0  0  0
    4.4031   -1.1568   -1.8920 C   0  0  0  0  0  0  0  0  0  0  0  0
    3.6432   -2.9256   -0.2010 C   0  0  0  0  0  0  0  0  0  0  0  0
    3.1778   -3.3142    1.2340 C   0  0  0  0  0  0  0  0  0  0  0  0
    3.0361   -4.8412    1.6633 C   0  0  1  0  0  0  0  0  0  0  0  0
    2.0568   -5.3812    0.7562 O   0  0  0  0  0  0  0  0  0  0  0  0
    1.3487   -6.6633    1.1931 O   0  0  0  0  0  0  0  0  0  0  0  0
    1.9711   -7.2015    2.3432 C   0  0  2  0  0  0  0  0  0  0  0  0
    2.9372   -8.2187    1.8928 C   0  0  1  0  0  0  0  0  0  0  0  0
    4.2733   -7.9321    2.3936 C   0  0  0  0  0  0  0  0  0  0  0  0
    4.8992   -6.7495    2.2403 C   0  0  0  0  0  0  0  0  0  0  0  0
    4.4380   -5.5453    1.3774 C   0  0  1  0  0  0  0  0  0  0  0  0
    4.7443   -5.9276   -0.0923 C   0  0  0  0  0  0  0  0  0  0  0  0
    1.7472   -8.6521    2.7676 C   0  0  2  0  0  0  0  0  0  0  0  0
    0.2548   -8.7791    2.7508 C   0  0  1  0  0  0  0  0  0  0  0  0
   -0.2507  -10.2236    2.9094 C   0  0  0  0  0  0  0  0  0  0  0  0
   -0.2530   -7.8728    3.9094 C   0  0  0  0  0  0  0  0  0  0  0  0
    0.3256   -6.4108    3.8868 C   0  0  0  0  0  0  0  0  0  0  0  0
    1.8450   -6.3019    3.5122 C   0  0  2  0  0  0  0  0  0  0  0  0
    2.4573   -4.8891    3.1642 C   0  0  1  0  0  0  0  0  0  0  0  0
    3.5451   -4.4967    4.2102 C   0  0  0  0  0  0  0  0  0  0  0  0
    1.4128   -3.8993    3.2532 O   0  0  0  0  0  0  0  0  0  0  0  0
    1.0203   -3.6422    4.6448 O   0  0  0  0  0  0  0  0  0  0  0  0
    4.2653    0.5269    0.2683 H   0  0  0  0  0  0  0  0  0  0  0  0
    3.6503   -0.7194    1.5112 H   0  0  0  0  0  0  0  0  0  0  0  0
    5.3153   -1.6974   -2.1384 H   0  0  0  0  0  0  0  0  0  0  0  0
    4.6108   -0.0960   -2.0298 H   0  0  0  0  0  0  0  0  0  0  0  0
    3.6468   -1.4560   -2.6189 H   0  0  0  0  0  0  0  0  0  0  0  0
    2.9409   -3.2966   -0.9478 H   0  0  0  0  0  0  0  0  0  0  0  0
    4.6310   -3.3260   -0.3972 H   0  0  0  0  0  0  0  0  0  0  0  0
    3.8909   -2.9160    1.9543 H   0  0  0  0  0  0  0  0  0  0  0  0
    2.2292   -2.7982    1.3897 H   0  0  0  0  0  0  0  0  0  0  0  0
    2.9168   -8.6272    0.8850 H   0  0  0  0  0  0  0  0  0  0  0  0
    4.7707   -8.7456    2.9408 H   0  0  0  0  0  0  0  0  0  0  0  0
    5.8786   -6.6652    2.6790 H   0  0  0  0  0  0  0  0  0  0  0  0
    5.1596   -4.7984    1.7178 H   0  0  0  0  0  0  0  0  0  0  0  0
    5.8242   -6.0271   -0.1864 H   0  0  0  0  0  0  0  0  0  0  0  0
    4.4068   -5.2018   -0.8431 H   0  0  0  0  0  0  0  0  0  0  0  0
    4.2979   -6.9001   -0.3151 H   0  0  0  0  0  0  0  0  0  0  0  0
    2.1294   -8.9977    3.7428 H   0  0  0  0  0  0  0  0  0  0  0  0
   -0.1482   -8.4125    1.7933 H   0  0  0  0  0  0  0  0  0  0  0  0
    0.0436  -10.6782    3.8605 H   0  0  0  0  0  0  0  0  0  0  0  0
    0.0973  -10.8657    2.1014 H   0  0  0  0  0  0  0  0  0  0  0  0
   -1.3368  -10.2446    2.8780 H   0  0  0  0  0  0  0  0  0  0  0  0
   -1.3392   -7.8320    3.9160 H   0  0  0  0  0  0  0  0  0  0  0  0
    0.0226   -8.3387    4.8661 H   0  0  0  0  0  0  0  0  0  0  0  0
   -0.2465   -5.8371    3.1589 H   0  0  0  0  0  0  0  0  0  0  0  0
    0.1432   -5.9779    4.8661 H   0  0  0  0  0  0  0  0  0  0  0  0
    2.4251   -6.7258    4.3466 H   0  0  0  0  0  0  0  0  0  0  0  0
    4.4417   -5.1065    4.1404 H   0  0  0  0  0  0  0  0  0  0  0  0
    3.2059   -4.6144    5.2389 H   0  0  0  0  0  0  0  0  0  0  0  0
    3.8525   -3.4583    4.0890 H   0  0  0  0  0  0  0  0  0  0  0  0
    1.6262   -2.9790    4.8857 H   0  0  0  0  0  0  0  0  0  0  0  0
  1  2  2  0
  1 25  1  0
  1 26  1  0
  2  3  1  0
  2  4  1  0
  3 27  1  0
  3 28  1  0
  3 29  1  0
  4  5  1  0
  4 30  1  0
  4 31  1  0
  6  5  1  6
  5 32  1  0
  5 33  1  0
  6 13  1  0
  6 21  1  0
  6  7  1  0
  7  8  1  0
  9  8  1  6
  9 15  1  0
  9 20  1  0
  9 10  1  0
 10 11  1  0
 10 15  1  0
 10 34  1  6
 11 12  2  3
 11 35  1  0
 12 13  1  0
 12 36  1  0
 13 14  1  0
 13 37  1  1
 14 38  1  0
 14 39  1  0
 14 40  1  0
 15 16  1  0
 15 41  1  1
 16 17  1  0
 16 18  1  0
 16 42  1  6
 17 43  1  0
 17 44  1  0
 17 45  1  0
 18 19  1  0
 18 46  1  0
 18 47  1  0
 19 20  1  0
 19 48  1  0
 19 49  1  0
 20 21  1  0
 20 50  1  1
 21 22  1  0
 21 23  1  6
 22 51  1  0
 22 52  1  0
 22 53  1  0
 23 24  1  0
 24 54  1  0
M  END
>  <i_m_ct_stereo_status>  (258) 
1

>  <s_m_source_file>  (258) 
/var/tmp/pbs.5076255.sched01/tmp548j1hfo/88g9dmtei7.sdf

>  <i_m_source_file_index>  (258) 
25

>  <i_lp_mmshare_version>  (258) 
48012

>  <i_f3d_flags>  (258) 
0

>  <s_epik_input>  (258) 
W0NIMl09QyhbQ0gzXSlbQ0gyXVtDSDJdW0NAQF0oT08xKShbQ0BIXShbQ0gzXSkvW0NIXT1bQ0hdXDIpW0NAQF0oW0NIM10pKE9bT0hdKVtDQEhdM1tDSDJdW0NIMl1bQ0BIXShbQ0gzXSlbQ0BIXTRbQ0BIXTJbQ0BdMTM0

>  <s_epik_cmdline>  (258) 
J2VwaWtfcHl0aG9uJywgJy1waHQnLCAnMi4wJywgJy1waCcsICc3LjAnLCAnLXRuJywgJzgnLCAnLW1hJywgJzIwMCcsICctaW1hZScsICc8aW5maWxlLm1hZT4nLCAnLW9tYWUnLCAnPG91dGZpbGUubWFlPic=

>  <r_lp_tautomer_probability>  (258) 
1

>  <r_epik_Ionization_Penalty>  (258) 
1.72093e-05

>  <r_epik_Ionization_Penalty_Charging>  (258) 
0

>  <r_epik_Ionization_Penalty_Neutral>  (258) 
1.72093e-05

>  <r_epik_State_Penalty>  (258) 
-0

>  <r_epik_Charging_Adjusted_Penalty>  (258) 
0

>  <i_epik_Tot_Q>  (258) 
0

>  <i_epik_Tot_abs_Q>  (258) 
0

>  <s_lp_Force_Field>  (258) 
OPLS3e

>  <r_lp_Energy>  (258) 
78.3342

>  <b_lp_Chiralities_Consistent>  (258) 
1

>  <s_lp_Variant>  (258) 
72:0-3

>  <s_i_glide_gridfile>  (258) 
pfpi4k_grid

>  <i_i_glide_lignum>  (258) 
25

>  <i_i_glide_rotatable_bonds>  (258) 
5

>  <r_i_docking_score>  (258) 
-1.60959

>  <r_i_glide_ligand_efficiency>  (258) 
-0.0670662

>  <r_i_glide_ligand_efficiency_sa>  (258) 
-0.193452

>  <r_i_glide_ligand_efficiency_ln>  (258) 
-0.385249

>  <r_i_glide_gscore>  (258) 
-1.60959

>  <r_i_glide_lipo>  (258) 
-0.11688

>  <r_i_glide_hbond>  (258) 
-0.0447365

>  <r_i_glide_metal>  (258) 
-0

>  <r_i_glide_rewards>  (258) 
-1.12875

>  <r_i_glide_evdw>  (258) 
-20.4441

>  <r_i_glide_ecoul>  (258) 
0.190173

>  <r_i_glide_erotb>  (258) 
0.674459

>  <r_i_glide_esite>  (258) 
0

>  <r_i_glide_emodel>  (258) 
-21.4123

>  <r_i_glide_energy>  (258) 
-20.254

>  <r_i_glide_einternal>  (258) 
0.449068

>  <r_i_glide_intrahb_reward>  (258) 
-0

>  <i_i_glide_confnum>  (258) 
4

>  <i_i_glide_posenum>  (258) 
34

>  <r_i_glide_eff_state_penalty>  (258) 
0

>  <ligand_id>  (258) 
72

>  <original_smiles>  (258) 
C=C(C)CCC12OOC34C(C=CC1C)C3C(C)CCC4C2(C)OO

>  <smiles>  (258) 
[H]OOC1(C([H])([H])[H])C2([H])C([H])([H])C([H])([H])C([H])(C([H])([H])[H])C3([H])C4([H])C([H])=C([H])C([H])(C([H])([H])[H])C1(C([H])([H])C([H])([H])C(=C([H])[H])C([H])([H])[H])OOC432

$$$$
72:3:0
     RDKit          3D

 54 57  0  0  1  0  0  0  0  0999 V2000
    2.5990   -1.8360   -3.9256 C   0  0  0  0  0  0  0  0  0  0  0  0
    3.4791   -1.8542   -2.8974 C   0  0  0  0  0  0  0  0  0  0  0  0
    4.3569   -0.6456   -2.5971 C   0  0  0  0  0  0  0  0  0  0  0  0
    3.6690   -3.0834   -2.0172 C   0  0  0  0  0  0  0  0  0  0  0  0
    3.5714   -2.7248   -0.4982 C   0  0  0  0  0  0  0  0  0  0  0  0
    3.4827   -3.9004    0.5563 C   0  0  1  0  0  0  0  0  0  0  0  0
    2.4260   -4.8118    0.0979 O   0  0  0  0  0  0  0  0  0  0  0  0
    1.5473   -5.3962    1.1626 O   0  0  0  0  0  0  0  0  0  0  0  0
    2.3351   -5.7678    2.2605 C   0  0  2  0  0  0  0  0  0  0  0  0
    2.9267   -7.1322    1.9432 C   0  0  1  0  0  0  0  0  0  0  0  0
    4.3653   -6.9268    1.6829 C   0  0  0  0  0  0  0  0  0  0  0  0
    4.5787   -6.2370    0.5591 C   0  0  0  0  0  0  0  0  0  0  0  0
    4.8412   -4.7533    0.6628 C   0  0  1  0  0  0  0  0  0  0  0  0
    6.0282   -4.3936   -0.2427 C   0  0  0  0  0  0  0  0  0  0  0  0
    2.1930   -6.9212    3.2455 C   0  0  2  0  0  0  0  0  0  0  0  0
    0.7776   -6.7783    3.7598 C   0  0  1  0  0  0  0  0  0  0  0  0
    0.2491   -8.0297    4.4924 C   0  0  0  0  0  0  0  0  0  0  0  0
    0.8705   -5.5276    4.6805 C   0  0  0  0  0  0  0  0  0  0  0  0
    1.4730   -4.2600    3.9801 C   0  0  0  0  0  0  0  0  0  0  0  0
    2.7008   -4.5043    3.0104 C   0  0  2  0  0  0  0  0  0  0  0  0
    3.0562   -3.3294    2.0170 C   0  0  1  0  0  0  0  0  0  0  0  0
    4.1536   -2.4270    2.6769 C   0  0  0  0  0  0  0  0  0  0  0  0
    1.8473   -2.5497    1.9375 O   0  0  0  0  0  0  0  0  0  0  0  0
    2.1298   -1.1697    1.5231 O   0  0  0  0  0  0  0  0  0  0  0  0
    2.4909   -0.9663   -4.5503 H   0  0  0  0  0  0  0  0  0  0  0  0
    1.9807   -2.6930   -4.1282 H   0  0  0  0  0  0  0  0  0  0  0  0
    5.4102   -0.9149   -2.7021 H   0  0  0  0  0  0  0  0  0  0  0  0
    4.2154   -0.2574   -1.5847 H   0  0  0  0  0  0  0  0  0  0  0  0
    4.1430    0.1840   -3.2741 H   0  0  0  0  0  0  0  0  0  0  0  0
    2.8788   -3.8135   -2.2349 H   0  0  0  0  0  0  0  0  0  0  0  0
    4.6134   -3.5363   -2.3508 H   0  0  0  0  0  0  0  0  0  0  0  0
    4.4069   -2.0685   -0.2184 H   0  0  0  0  0  0  0  0  0  0  0  0
    2.6810   -2.1342   -0.4017 H   0  0  0  0  0  0  0  0  0  0  0  0
    2.4423   -7.7620    1.2034 H   0  0  0  0  0  0  0  0  0  0  0  0
    4.8689   -6.6031    2.5807 H   0  0  0  0  0  0  0  0  0  0  0  0
    3.9466   -6.4700   -0.2912 H   0  0  0  0  0  0  0  0  0  0  0  0
    5.2494   -4.6194    1.6593 H   0  0  0  0  0  0  0  0  0  0  0  0
    6.9250   -4.9314    0.0901 H   0  0  0  0  0  0  0  0  0  0  0  0
    6.2866   -3.3341   -0.1997 H   0  0  0  0  0  0  0  0  0  0  0  0
    5.8130   -4.6546   -1.2842 H   0  0  0  0  0  0  0  0  0  0  0  0
    2.8772   -7.0259    4.0828 H   0  0  0  0  0  0  0  0  0  0  0  0
    0.0928   -6.5613    2.9330 H   0  0  0  0  0  0  0  0  0  0  0  0
    0.8520   -8.3082    5.3604 H   0  0  0  0  0  0  0  0  0  0  0  0
    0.2144   -8.8941    3.8284 H   0  0  0  0  0  0  0  0  0  0  0  0
   -0.7636   -7.8704    4.8459 H   0  0  0  0  0  0  0  0  0  0  0  0
   -0.1074   -5.2986    5.0924 H   0  0  0  0  0  0  0  0  0  0  0  0
    1.4867   -5.7848    5.5499 H   0  0  0  0  0  0  0  0  0  0  0  0
    0.6348   -3.7992    3.4337 H   0  0  0  0  0  0  0  0  0  0  0  0
    1.7617   -3.5478    4.7387 H   0  0  0  0  0  0  0  0  0  0  0  0
    3.5840   -4.7074    3.6114 H   0  0  0  0  0  0  0  0  0  0  0  0
    5.0954   -2.9313    2.8303 H   0  0  0  0  0  0  0  0  0  0  0  0
    3.8039   -2.1095    3.6580 H   0  0  0  0  0  0  0  0  0  0  0  0
    4.4012   -1.5281    2.1177 H   0  0  0  0  0  0  0  0  0  0  0  0
    1.6999   -1.1716    0.6506 H   0  0  0  0  0  0  0  0  0  0  0  0
  1  2  2  0
  1 25  1  0
  1 26  1  0
  2  3  1  0
  2  4  1  0
  3 27  1  0
  3 28  1  0
  3 29  1  0
  4  5  1  0
  4 30  1  0
  4 31  1  0
  6  5  1  6
  5 32  1  0
  5 33  1  0
  6 13  1  0
  6 21  1  0
  6  7  1  0
  7  8  1  0
  9  8  1  6
  9 15  1  0
  9 20  1  0
  9 10  1  0
 10 11  1  0
 10 15  1  0
 10 34  1  6
 11 12  2  3
 11 35  1  0
 12 13  1  0
 12 36  1  0
 13 14  1  0
 13 37  1  1
 14 38  1  0
 14 39  1  0
 14 40  1  0
 15 16  1  0
 15 41  1  1
 16 17  1  0
 16 18  1  0
 16 42  1  6
 17 43  1  0
 17 44  1  0
 17 45  1  0
 18 19  1  0
 18 46  1  0
 18 47  1  0
 19 20  1  0
 19 48  1  0
 19 49  1  0
 20 21  1  0
 20 50  1  1
 21 22  1  0
 21 23  1  6
 22 51  1  0
 22 52  1  0
 22 53  1  0
 23 24  1  0
 24 54  1  0
M  END
>  <i_m_ct_stereo_status>  (259) 
1

>  <s_m_source_file>  (259) 
/var/tmp/pbs.5076255.sched01/tmp548j1hfo/88g9dmtei7.sdf

>  <i_m_source_file_index>  (259) 
26

>  <i_lp_mmshare_version>  (259) 
48012

>  <i_f3d_flags>  (259) 
0

>  <s_epik_input>  (259) 
W0NIMl09QyhbQ0gzXSlbQ0gyXVtDSDJdW0NAQF0oT08xKShbQ0BIXShbQ0gzXSkvW0NIXT1bQ0hdXDIpW0NAQF0oW0NIM10pKE9bT0hdKVtDQEhdM1tDSDJdW0NIMl1bQ0BIXShbQ0gzXSlbQ0BIXTRbQ0BIXTJbQ0BdMTM0

>  <s_epik_cmdline>  (259) 
J2VwaWtfcHl0aG9uJywgJy1waHQnLCAnMi4wJywgJy1waCcsICc3LjAnLCAnLXRuJywgJzgnLCAnLW1hJywgJzIwMCcsICctaW1hZScsICc8aW5maWxlLm1hZT4nLCAnLW9tYWUnLCAnPG91dGZpbGUubWFlPic=

>  <r_lp_tautomer_probability>  (259) 
1

>  <r_epik_Ionization_Penalty>  (259) 
1.72093e-05

>  <r_epik_Ionization_Penalty_Charging>  (259) 
0

>  <r_epik_Ionization_Penalty_Neutral>  (259) 
1.72093e-05

>  <r_epik_State_Penalty>  (259) 
-0

>  <r_epik_Charging_Adjusted_Penalty>  (259) 
0

>  <i_epik_Tot_Q>  (259) 
0

>  <i_epik_Tot_abs_Q>  (259) 
0

>  <s_lp_Force_Field>  (259) 
OPLS3e

>  <r_lp_Energy>  (259) 
115.132

>  <b_lp_Chiralities_Consistent>  (259) 
1

>  <s_lp_Variant>  (259) 
72:0-4

>  <s_i_glide_gridfile>  (259) 
pfpi4k_grid

>  <i_i_glide_lignum>  (259) 
26

>  <i_i_glide_rotatable_bonds>  (259) 
5

>  <r_i_docking_score>  (259) 
-2.56434

>  <r_i_glide_ligand_efficiency>  (259) 
-0.106848

>  <r_i_glide_ligand_efficiency_sa>  (259) 
-0.308202

>  <r_i_glide_ligand_efficiency_ln>  (259) 
-0.613764

>  <r_i_glide_gscore>  (259) 
-2.56434

>  <r_i_glide_lipo>  (259) 
-0.450625

>  <r_i_glide_hbond>  (259) 
-0.105387

>  <r_i_glide_metal>  (259) 
-0

>  <r_i_glide_rewards>  (259) 
-1.12875

>  <r_i_glide_evdw>  (259) 
-16.2859

>  <r_i_glide_ecoul>  (259) 
-4.93159

>  <r_i_glide_erotb>  (259) 
0.674459

>  <r_i_glide_esite>  (259) 
0

>  <r_i_glide_emodel>  (259) 
-22.6861

>  <r_i_glide_energy>  (259) 
-21.2175

>  <r_i_glide_einternal>  (259) 
3.26291

>  <r_i_glide_intrahb_reward>  (259) 
-0

>  <i_i_glide_confnum>  (259) 
4

>  <i_i_glide_posenum>  (259) 
35

>  <r_i_glide_eff_state_penalty>  (259) 
0

>  <ligand_id>  (259) 
72

>  <original_smiles>  (259) 
C=C(C)CCC12OOC34C(C=CC1C)C3C(C)CCC4C2(C)OO

>  <smiles>  (259) 
[H]OOC1(C([H])([H])[H])C2([H])C([H])([H])C([H])([H])C([H])(C([H])([H])[H])C3([H])C4([H])C([H])=C([H])C([H])(C([H])([H])[H])C1(C([H])([H])C([H])([H])C(=C([H])[H])C([H])([H])[H])OOC432

$$$$
72:3:1
     RDKit          3D

 54 57  0  0  1  0  0  0  0  0999 V2000
    4.3884   -0.7159    0.4235 C   0  0  0  0  0  0  0  0  0  0  0  0
    4.3026   -1.6731   -0.5312 C   0  0  0  0  0  0  0  0  0  0  0  0
    4.6714   -1.3587   -1.9711 C   0  0  0  0  0  0  0  0  0  0  0  0
    3.8485   -3.1116   -0.2634 C   0  0  0  0  0  0  0  0  0  0  0  0
    3.5326   -3.4654    1.2283 C   0  0  0  0  0  0  0  0  0  0  0  0
    3.1965   -4.9357    1.6592 C   0  0  1  0  0  0  0  0  0  0  0  0
    2.2266   -5.4024    0.6710 O   0  0  0  0  0  0  0  0  0  0  0  0
    1.0808   -6.2501    1.2790 O   0  0  0  0  0  0  0  0  0  0  0  0
    1.6501   -7.1431    2.2154 C   0  0  2  0  0  0  0  0  0  0  0  0
    2.2309   -8.3144    1.4622 C   0  0  1  0  0  0  0  0  0  0  0  0
    3.6997   -8.2123    1.5637 C   0  0  0  0  0  0  0  0  0  0  0  0
    4.2051   -7.1762    0.8860 C   0  0  0  0  0  0  0  0  0  0  0  0
    4.4912   -5.8889    1.6276 C   0  0  1  0  0  0  0  0  0  0  0  0
    5.8643   -5.3497    1.1901 C   0  0  0  0  0  0  0  0  0  0  0  0
    1.2500   -8.5659    2.5813 C   0  0  2  0  0  0  0  0  0  0  0  0
   -0.2312   -8.4702    2.8385 C   0  0  1  0  0  0  0  0  0  0  0  0
   -0.9276   -9.8346    2.8769 C   0  0  0  0  0  0  0  0  0  0  0  0
   -0.2960   -7.7272    4.1962 C   0  0  0  0  0  0  0  0  0  0  0  0
    0.4913   -6.3747    4.2012 C   0  0  0  0  0  0  0  0  0  0  0  0
    1.8873   -6.3514    3.4668 C   0  0  2  0  0  0  0  0  0  0  0  0
    2.4866   -4.9363    3.1141 C   0  0  1  0  0  0  0  0  0  0  0  0
    3.4521   -4.4604    4.2387 C   0  0  0  0  0  0  0  0  0  0  0  0
    1.4188   -3.9764    3.0006 O   0  0  0  0  0  0  0  0  0  0  0  0
    0.9702   -3.4960    4.3149 O   0  0  0  0  0  0  0  0  0  0  0  0
    4.7145    0.2827    0.1756 H   0  0  0  0  0  0  0  0  0  0  0  0
    4.1560   -0.8956    1.4579 H   0  0  0  0  0  0  0  0  0  0  0  0
    3.8183   -1.5354   -2.6263 H   0  0  0  0  0  0  0  0  0  0  0  0
    5.4941   -1.9913   -2.3093 H   0  0  0  0  0  0  0  0  0  0  0  0
    4.9837   -0.3207   -2.0852 H   0  0  0  0  0  0  0  0  0  0  0  0
    2.9928   -3.3664   -0.8947 H   0  0  0  0  0  0  0  0  0  0  0  0
    4.6911   -3.7101   -0.6787 H   0  0  0  0  0  0  0  0  0  0  0  0
    4.3176   -3.1033    1.8926 H   0  0  0  0  0  0  0  0  0  0  0  0
    2.6863   -2.8145    1.4733 H   0  0  0  0  0  0  0  0  0  0  0  0
    1.8537   -8.6433    0.4976 H   0  0  0  0  0  0  0  0  0  0  0  0
    4.0228   -8.3245    2.5906 H   0  0  0  0  0  0  0  0  0  0  0  0
    3.8138   -6.9602   -0.0982 H   0  0  0  0  0  0  0  0  0  0  0  0
    4.6719   -6.2050    2.6528 H   0  0  0  0  0  0  0  0  0  0  0  0
    6.6384   -6.0625    1.4655 H   0  0  0  0  0  0  0  0  0  0  0  0
    6.1226   -4.4159    1.6710 H   0  0  0  0  0  0  0  0  0  0  0  0
    5.9333   -5.2194    0.0935 H   0  0  0  0  0  0  0  0  0  0  0  0
    1.7504   -9.0704    3.4084 H   0  0  0  0  0  0  0  0  0  0  0  0
   -0.7085   -7.8681    2.0603 H   0  0  0  0  0  0  0  0  0  0  0  0
   -0.5239  -10.4871    3.6534 H   0  0  0  0  0  0  0  0  0  0  0  0
   -0.8480  -10.3565    1.9199 H   0  0  0  0  0  0  0  0  0  0  0  0
   -1.9865   -9.7018    3.0797 H   0  0  0  0  0  0  0  0  0  0  0  0
   -1.3323   -7.5621    4.4804 H   0  0  0  0  0  0  0  0  0  0  0  0
    0.1129   -8.3773    4.9769 H   0  0  0  0  0  0  0  0  0  0  0  0
   -0.1817   -5.6634    3.7206 H   0  0  0  0  0  0  0  0  0  0  0  0
    0.6213   -6.0612    5.2310 H   0  0  0  0  0  0  0  0  0  0  0  0
    2.6083   -6.8968    4.0706 H   0  0  0  0  0  0  0  0  0  0  0  0
    4.3716   -5.0322    4.3126 H   0  0  0  0  0  0  0  0  0  0  0  0
    2.9963   -4.5450    5.2293 H   0  0  0  0  0  0  0  0  0  0  0  0
    3.7249   -3.4129    4.1031 H   0  0  0  0  0  0  0  0  0  0  0  0
    0.2937   -4.1204    4.5090 H   0  0  0  0  0  0  0  0  0  0  0  0
  1  2  2  0
  1 25  1  0
  1 26  1  0
  2  3  1  0
  2  4  1  0
  3 27  1  0
  3 28  1  0
  3 29  1  0
  4  5  1  0
  4 30  1  0
  4 31  1  0
  6  5  1  6
  5 32  1  0
  5 33  1  0
  6 13  1  0
  6 21  1  0
  6  7  1  0
  7  8  1  0
  9  8  1  6
  9 15  1  0
  9 20  1  0
  9 10  1  0
 10 11  1  0
 10 15  1  0
 10 34  1  6
 11 12  2  3
 11 35  1  0
 12 13  1  0
 12 36  1  0
 13 14  1  0
 13 37  1  1
 14 38  1  0
 14 39  1  0
 14 40  1  0
 15 16  1  0
 15 41  1  1
 16 17  1  0
 16 18  1  0
 16 42  1  6
 17 43  1  0
 17 44  1  0
 17 45  1  0
 18 19  1  0
 18 46  1  0
 18 47  1  0
 19 20  1  0
 19 48  1  0
 19 49  1  0
 20 21  1  0
 20 50  1  1
 21 22  1  0
 21 23  1  6
 22 51  1  0
 22 52  1  0
 22 53  1  0
 23 24  1  0
 24 54  1  0
M  END
>  <i_m_ct_stereo_status>  (260) 
1

>  <s_m_source_file>  (260) 
/var/tmp/pbs.5076255.sched01/tmp548j1hfo/88g9dmtei7.sdf

>  <i_m_source_file_index>  (260) 
26

>  <i_lp_mmshare_version>  (260) 
48012

>  <i_f3d_flags>  (260) 
0

>  <s_epik_input>  (260) 
W0NIMl09QyhbQ0gzXSlbQ0gyXVtDSDJdW0NAQF0oT08xKShbQ0BIXShbQ0gzXSkvW0NIXT1bQ0hdXDIpW0NAQF0oW0NIM10pKE9bT0hdKVtDQEhdM1tDSDJdW0NIMl1bQ0BIXShbQ0gzXSlbQ0BIXTRbQ0BIXTJbQ0BdMTM0

>  <s_epik_cmdline>  (260) 
J2VwaWtfcHl0aG9uJywgJy1waHQnLCAnMi4wJywgJy1waCcsICc3LjAnLCAnLXRuJywgJzgnLCAnLW1hJywgJzIwMCcsICctaW1hZScsICc8aW5maWxlLm1hZT4nLCAnLW9tYWUnLCAnPG91dGZpbGUubWFlPic=

>  <r_lp_tautomer_probability>  (260) 
1

>  <r_epik_Ionization_Penalty>  (260) 
1.72093e-05

>  <r_epik_Ionization_Penalty_Charging>  (260) 
0

>  <r_epik_Ionization_Penalty_Neutral>  (260) 
1.72093e-05

>  <r_epik_State_Penalty>  (260) 
-0

>  <r_epik_Charging_Adjusted_Penalty>  (260) 
0

>  <i_epik_Tot_Q>  (260) 
0

>  <i_epik_Tot_abs_Q>  (260) 
0

>  <s_lp_Force_Field>  (260) 
OPLS3e

>  <r_lp_Energy>  (260) 
115.132

>  <b_lp_Chiralities_Consistent>  (260) 
1

>  <s_lp_Variant>  (260) 
72:0-4

>  <s_i_glide_gridfile>  (260) 
pfpi4k_grid

>  <i_i_glide_lignum>  (260) 
26

>  <i_i_glide_rotatable_bonds>  (260) 
5

>  <r_i_docking_score>  (260) 
-2.04247

>  <r_i_glide_ligand_efficiency>  (260) 
-0.0851029

>  <r_i_glide_ligand_efficiency_sa>  (260) 
-0.245479

>  <r_i_glide_ligand_efficiency_ln>  (260) 
-0.488857

>  <r_i_glide_gscore>  (260) 
-2.04247

>  <r_i_glide_lipo>  (260) 
-0.347003

>  <r_i_glide_hbond>  (260) 
-0.158057

>  <r_i_glide_metal>  (260) 
-0

>  <r_i_glide_rewards>  (260) 
-1.12875

>  <r_i_glide_evdw>  (260) 
-18.7224

>  <r_i_glide_ecoul>  (260) 
-0.979986

>  <r_i_glide_erotb>  (260) 
0.674459

>  <r_i_glide_esite>  (260) 
0

>  <r_i_glide_emodel>  (260) 
-22.1528

>  <r_i_glide_energy>  (260) 
-19.7024

>  <r_i_glide_einternal>  (260) 
0.404739

>  <r_i_glide_intrahb_reward>  (260) 
-0

>  <i_i_glide_confnum>  (260) 
1

>  <i_i_glide_posenum>  (260) 
15

>  <r_i_glide_eff_state_penalty>  (260) 
0

>  <ligand_id>  (260) 
72

>  <original_smiles>  (260) 
C=C(C)CCC12OOC34C(C=CC1C)C3C(C)CCC4C2(C)OO

>  <smiles>  (260) 
[H]OOC1(C([H])([H])[H])C2([H])C([H])([H])C([H])([H])C([H])(C([H])([H])[H])C3([H])C4([H])C([H])=C([H])C([H])(C([H])([H])[H])C1(C([H])([H])C([H])([H])C(=C([H])[H])C([H])([H])[H])OOC432

$$$$
72:3:2
     RDKit          3D

 54 57  0  0  1  0  0  0  0  0999 V2000
    4.7951   -0.7722    0.8977 C   0  0  0  0  0  0  0  0  0  0  0  0
    3.5177   -0.8841    1.2858 C   0  0  0  0  0  0  0  0  0  0  0  0
    2.6592    0.3584    1.5029 C   0  0  0  0  0  0  0  0  0  0  0  0
    2.8003   -2.2108    1.5701 C   0  0  0  0  0  0  0  0  0  0  0  0
    3.7235   -3.4589    1.6641 C   0  0  0  0  0  0  0  0  0  0  0  0
    3.1908   -4.8818    2.0669 C   0  0  1  0  0  0  0  0  0  0  0  0
    2.2747   -5.2665    1.0031 O   0  0  0  0  0  0  0  0  0  0  0  0
    1.0851   -6.0824    1.5043 O   0  0  0  0  0  0  0  0  0  0  0  0
    1.5484   -7.0300    2.4395 C   0  0  2  0  0  0  0  0  0  0  0  0
    2.0923   -8.2152    1.6769 C   0  0  1  0  0  0  0  0  0  0  0  0
    3.5429   -8.2062    1.8473 C   0  0  0  0  0  0  0  0  0  0  0  0
    4.1176   -7.1576    1.2274 C   0  0  0  0  0  0  0  0  0  0  0  0
    4.4340   -5.9137    2.0294 C   0  0  1  0  0  0  0  0  0  0  0  0
    5.8347   -5.3994    1.6119 C   0  0  0  0  0  0  0  0  0  0  0  0
    1.0198   -8.4321    2.7164 C   0  0  2  0  0  0  0  0  0  0  0  0
   -0.4552   -8.2305    2.9156 C   0  0  1  0  0  0  0  0  0  0  0  0
   -1.2516   -9.5368    2.8631 C   0  0  0  0  0  0  0  0  0  0  0  0
   -0.5416   -7.5362    4.2984 C   0  0  0  0  0  0  0  0  0  0  0  0
    0.3367   -6.2579    4.3964 C   0  0  0  0  0  0  0  0  0  0  0  0
    1.7574   -6.3119    3.7355 C   0  0  2  0  0  0  0  0  0  0  0  0
    2.4396   -4.9169    3.4852 C   0  0  1  0  0  0  0  0  0  0  0  0
    3.4013   -4.5320    4.6490 C   0  0  0  0  0  0  0  0  0  0  0  0
    1.3979   -3.9323    3.3771 O   0  0  0  0  0  0  0  0  0  0  0  0
    0.9608   -3.4581    4.7062 O   0  0  0  0  0  0  0  0  0  0  0  0
    5.2479    0.1975    0.7302 H   0  0  0  0  0  0  0  0  0  0  0  0
    5.4328   -1.6298    0.7417 H   0  0  0  0  0  0  0  0  0  0  0  0
    2.3311    0.4245    2.5411 H   0  0  0  0  0  0  0  0  0  0  0  0
    1.7680    0.3382    0.8785 H   0  0  0  0  0  0  0  0  0  0  0  0
    3.2156    1.2710    1.2800 H   0  0  0  0  0  0  0  0  0  0  0  0
    2.3090   -1.9965    2.5171 H   0  0  0  0  0  0  0  0  0  0  0  0
    2.0184   -2.3575    0.8256 H   0  0  0  0  0  0  0  0  0  0  0  0
    4.1648   -3.5752    0.6761 H   0  0  0  0  0  0  0  0  0  0  0  0
    4.5178   -3.1846    2.3489 H   0  0  0  0  0  0  0  0  0  0  0  0
    1.7657   -8.4600    0.6773 H   0  0  0  0  0  0  0  0  0  0  0  0
    3.8146   -8.3718    2.8781 H   0  0  0  0  0  0  0  0  0  0  0  0
    3.7613   -6.9134    0.2354 H   0  0  0  0  0  0  0  0  0  0  0  0
    4.6100   -6.2876    3.0345 H   0  0  0  0  0  0  0  0  0  0  0  0
    6.5741   -6.1930    1.7412 H   0  0  0  0  0  0  0  0  0  0  0  0
    6.1863   -4.5730    2.2311 H   0  0  0  0  0  0  0  0  0  0  0  0
    5.8713   -5.0956    0.5628 H   0  0  0  0  0  0  0  0  0  0  0  0
    1.4422   -8.9868    3.5514 H   0  0  0  0  0  0  0  0  0  0  0  0
   -0.8489   -7.5688    2.1360 H   0  0  0  0  0  0  0  0  0  0  0  0
   -0.9049  -10.2345    3.6256 H   0  0  0  0  0  0  0  0  0  0  0  0
   -1.1658  -10.0343    1.8970 H   0  0  0  0  0  0  0  0  0  0  0  0
   -2.3045   -9.3462    3.0423 H   0  0  0  0  0  0  0  0  0  0  0  0
   -1.5768   -7.2970    4.5291 H   0  0  0  0  0  0  0  0  0  0  0  0
   -0.2215   -8.2433    5.0710 H   0  0  0  0  0  0  0  0  0  0  0  0
   -0.2673   -5.4883    3.9163 H   0  0  0  0  0  0  0  0  0  0  0  0
    0.4354   -5.9782    5.4354 H   0  0  0  0  0  0  0  0  0  0  0  0
    2.4215   -6.9149    4.3405 H   0  0  0  0  0  0  0  0  0  0  0  0
    4.2727   -5.1700    4.7237 H   0  0  0  0  0  0  0  0  0  0  0  0
    2.9206   -4.6162    5.6201 H   0  0  0  0  0  0  0  0  0  0  0  0
    3.7655   -3.5117    4.5422 H   0  0  0  0  0  0  0  0  0  0  0  0
    1.5800   -2.7757    4.8619 H   0  0  0  0  0  0  0  0  0  0  0  0
  1  2  2  0
  1 25  1  0
  1 26  1  0
  2  3  1  0
  2  4  1  0
  3 27  1  0
  3 28  1  0
  3 29  1  0
  4  5  1  0
  4 30  1  0
  4 31  1  0
  6  5  1  6
  5 32  1  0
  5 33  1  0
  6 13  1  0
  6 21  1  0
  6  7  1  0
  7  8  1  0
  9  8  1  6
  9 15  1  0
  9 20  1  0
  9 10  1  0
 10 11  1  0
 10 15  1  0
 10 34  1  6
 11 12  2  3
 11 35  1  0
 12 13  1  0
 12 36  1  0
 13 14  1  0
 13 37  1  1
 14 38  1  0
 14 39  1  0
 14 40  1  0
 15 16  1  0
 15 41  1  1
 16 17  1  0
 16 18  1  0
 16 42  1  6
 17 43  1  0
 17 44  1  0
 17 45  1  0
 18 19  1  0
 18 46  1  0
 18 47  1  0
 19 20  1  0
 19 48  1  0
 19 49  1  0
 20 21  1  0
 20 50  1  1
 21 22  1  0
 21 23  1  6
 22 51  1  0
 22 52  1  0
 22 53  1  0
 23 24  1  0
 24 54  1  0
M  END
>  <i_m_ct_stereo_status>  (261) 
1

>  <s_m_source_file>  (261) 
/var/tmp/pbs.5076255.sched01/tmp548j1hfo/88g9dmtei7.sdf

>  <i_m_source_file_index>  (261) 
26

>  <i_lp_mmshare_version>  (261) 
48012

>  <i_f3d_flags>  (261) 
0

>  <s_epik_input>  (261) 
W0NIMl09QyhbQ0gzXSlbQ0gyXVtDSDJdW0NAQF0oT08xKShbQ0BIXShbQ0gzXSkvW0NIXT1bQ0hdXDIpW0NAQF0oW0NIM10pKE9bT0hdKVtDQEhdM1tDSDJdW0NIMl1bQ0BIXShbQ0gzXSlbQ0BIXTRbQ0BIXTJbQ0BdMTM0

>  <s_epik_cmdline>  (261) 
J2VwaWtfcHl0aG9uJywgJy1waHQnLCAnMi4wJywgJy1waCcsICc3LjAnLCAnLXRuJywgJzgnLCAnLW1hJywgJzIwMCcsICctaW1hZScsICc8aW5maWxlLm1hZT4nLCAnLW9tYWUnLCAnPG91dGZpbGUubWFlPic=

>  <r_lp_tautomer_probability>  (261) 
1

>  <r_epik_Ionization_Penalty>  (261) 
1.72093e-05

>  <r_epik_Ionization_Penalty_Charging>  (261) 
0

>  <r_epik_Ionization_Penalty_Neutral>  (261) 
1.72093e-05

>  <r_epik_State_Penalty>  (261) 
-0

>  <r_epik_Charging_Adjusted_Penalty>  (261) 
0

>  <i_epik_Tot_Q>  (261) 
0

>  <i_epik_Tot_abs_Q>  (261) 
0

>  <s_lp_Force_Field>  (261) 
OPLS3e

>  <r_lp_Energy>  (261) 
115.132

>  <b_lp_Chiralities_Consistent>  (261) 
1

>  <s_lp_Variant>  (261) 
72:0-4

>  <s_i_glide_gridfile>  (261) 
pfpi4k_grid

>  <i_i_glide_lignum>  (261) 
26

>  <i_i_glide_rotatable_bonds>  (261) 
5

>  <r_i_docking_score>  (261) 
-1.8654

>  <r_i_glide_ligand_efficiency>  (261) 
-0.0777251

>  <r_i_glide_ligand_efficiency_sa>  (261) 
-0.224198

>  <r_i_glide_ligand_efficiency_ln>  (261) 
-0.446476

>  <r_i_glide_gscore>  (261) 
-1.8654

>  <r_i_glide_lipo>  (261) 
-0.296328

>  <r_i_glide_hbond>  (261) 
-0.157692

>  <r_i_glide_metal>  (261) 
-0

>  <r_i_glide_rewards>  (261) 
-1.12875

>  <r_i_glide_evdw>  (261) 
-17.8247

>  <r_i_glide_ecoul>  (261) 
-0.439045

>  <r_i_glide_erotb>  (261) 
0.674459

>  <r_i_glide_esite>  (261) 
0

>  <r_i_glide_emodel>  (261) 
-20.5598

>  <r_i_glide_energy>  (261) 
-18.2637

>  <r_i_glide_einternal>  (261) 
0.514019

>  <r_i_glide_intrahb_reward>  (261) 
-0

>  <i_i_glide_confnum>  (261) 
3

>  <i_i_glide_posenum>  (261) 
10

>  <r_i_glide_eff_state_penalty>  (261) 
0

>  <ligand_id>  (261) 
72

>  <original_smiles>  (261) 
C=C(C)CCC12OOC34C(C=CC1C)C3C(C)CCC4C2(C)OO

>  <smiles>  (261) 
[H]OOC1(C([H])([H])[H])C2([H])C([H])([H])C([H])([H])C([H])(C([H])([H])[H])C3([H])C4([H])C([H])=C([H])C([H])(C([H])([H])[H])C1(C([H])([H])C([H])([H])C(=C([H])[H])C([H])([H])[H])OOC432

$$$$
73:0:0
     RDKit          3D

 41 45  0  0  1  0  0  0  0  0999 V2000
    5.6961   -0.9253    2.9981 N   0  0  0  0  0  0  0  0  0  0  0  0
    5.8261   -1.3839    1.9312 C   0  0  0  0  0  0  0  0  0  0  0  0
    6.0165   -1.9358    0.6195 C   0  0  0  0  0  0  0  0  0  0  0  0
    7.3415   -2.0094    0.1914 C   0  0  0  0  0  0  0  0  0  0  0  0
    7.6708   -2.5425   -1.0646 C   0  0  0  0  0  0  0  0  0  0  0  0
    6.6690   -2.9849   -1.9402 C   0  0  0  0  0  0  0  0  0  0  0  0
    5.3321   -2.9055   -1.5227 C   0  0  0  0  0  0  0  0  0  0  0  0
    4.9979   -2.4110   -0.2655 C   0  0  0  0  0  0  0  0  0  0  0  0
    3.5061   -2.4198   -0.0448 C   0  0  1  0  0  0  0  0  0  0  0  0
    3.0371   -1.0502    0.2103 N   0  0  0  0  0  0  0  0  0  0  0  0
    2.8047   -0.7380    1.6475 C   0  0  2  0  0  0  0  0  0  0  0  0
    1.4891   -1.0441    2.2768 C   0  0  0  0  0  0  0  0  0  0  0  0
    1.9344    0.3985    2.0419 C   0  0  1  0  0  0  0  0  0  0  0  0
    2.3480    1.2192    3.2312 C   0  0  0  0  0  0  0  0  0  0  0  0
    2.0718    2.5976    3.2660 C   0  0  0  0  0  0  0  0  0  0  0  0
    2.4379    3.3723    4.3816 C   0  0  0  0  0  0  0  0  0  0  0  0
    3.0925    2.7739    5.4746 C   0  0  0  0  0  0  0  0  0  0  0  0
    3.3798    1.3993    5.4536 C   0  0  0  0  0  0  0  0  0  0  0  0
    3.0108    0.6300    4.3407 C   0  0  0  0  0  0  0  0  0  0  0  0
    2.9732   -2.9958   -1.3757 C   0  0  1  0  0  0  0  0  0  0  0  0
    3.1007   -2.2688   -2.7043 C   0  0  0  0  0  0  0  0  0  0  0  0
    4.1347   -3.2791   -2.2934 C   0  0  1  0  0  0  0  0  0  0  0  0
    8.1140   -1.6583    0.8586 H   0  0  0  0  0  0  0  0  0  0  0  0
    8.7032   -2.5863   -1.3597 H   0  0  0  0  0  0  0  0  0  0  0  0
    6.9198   -3.3704   -2.9104 H   0  0  0  0  0  0  0  0  0  0  0  0
    3.2373   -3.0850    0.7768 H   0  0  0  0  0  0  0  0  0  0  0  0
    3.6585   -0.3853   -0.1903 H   0  0  0  0  0  0  0  0  0  0  0  0
    3.5570   -0.9432    2.2855 H   0  0  0  0  0  0  0  0  0  0  0  0
    0.7227   -1.4672    1.6581 H   0  0  0  0  0  0  0  0  0  0  0  0
    1.5372   -1.4079    3.3073 H   0  0  0  0  0  0  0  0  0  0  0  0
    1.4456    0.9564    1.2538 H   0  0  0  0  0  0  0  0  0  0  0  0
    1.5661    3.0658    2.4339 H   0  0  0  0  0  0  0  0  0  0  0  0
    2.2141    4.4269    4.4011 H   0  0  0  0  0  0  0  0  0  0  0  0
    3.3718    3.3676    6.3282 H   0  0  0  0  0  0  0  0  0  0  0  0
    3.8795    0.9356    6.2924 H   0  0  0  0  0  0  0  0  0  0  0  0
    3.2419   -0.4247    4.3522 H   0  0  0  0  0  0  0  0  0  0  0  0
    2.1910   -3.7527   -1.3089 H   0  0  0  0  0  0  0  0  0  0  0  0
    2.4116   -2.5482   -3.5002 H   0  0  0  0  0  0  0  0  0  0  0  0
    3.3755   -1.2166   -2.6815 H   0  0  0  0  0  0  0  0  0  0  0  0
    4.1920   -4.2671   -2.7948 H   0  0  0  0  0  0  0  0  0  0  0  0
    2.0915   -0.9478   -0.2481 H   0  0  0  0  0  0  0  0  0  0  0  0
  1  2  3  0
  2  3  1  0
  3  8  2  0
  3  4  1  0
  4  5  2  0
  4 23  1  0
  5  6  1  0
  5 24  1  0
  6  7  2  0
  6 25  1  0
  7 22  1  0
  7  8  1  0
  8  9  1  0
  9 10  1  0
  9 20  1  0
  9 26  1  1
 10 11  1  0
 10 27  1  0
 10 41  1  0
 11 13  1  0
 11 12  1  0
 11 28  1  1
 12 13  1  0
 12 29  1  0
 12 30  1  0
 13 14  1  0
 13 31  1  6
 14 19  1  0
 14 15  2  0
 15 16  1  0
 15 32  1  0
 16 17  2  0
 16 33  1  0
 17 18  1  0
 17 34  1  0
 18 19  2  0
 18 35  1  0
 19 36  1  0
 20 22  1  0
 20 21  1  0
 20 37  1  1
 21 22  1  0
 21 38  1  0
 21 39  1  0
 22 40  1  6
M  CHG  1  10   1
M  END
>  <i_m_ct_stereo_status>  (262) 
1

>  <s_m_source_file>  (262) 
/var/tmp/pbs.5076255.sched01/tmp548j1hfo/88g9dmtei7.sdf

>  <i_m_source_file_index>  (262) 
27

>  <i_lp_mmshare_version>  (262) 
48012

>  <i_f3d_flags>  (262) 
0

>  <s_epik_input>  (262) 
W2NIXTFbY0hdW2NIXWMoQyNOKWMoYzEyKVtDQEhdKFtDQEBIXTNbQ0hdMltDSDJdMylbTkhdW0NAQEhdNFtDSDJdW0NASF00YzVbY0hdW2NIXVtjSF1bY0hdW2NIXTU=

>  <s_epik_cmdline>  (262) 
J2VwaWtfcHl0aG9uJywgJy1waHQnLCAnMi4wJywgJy1waCcsICc3LjAnLCAnLXRuJywgJzgnLCAnLW1hJywgJzIwMCcsICctaW1hZScsICc8aW5maWxlLm1hZT4nLCAnLW9tYWUnLCAnPG91dGZpbGUubWFlPic=

>  <r_epik_Ionization_Penalty>  (262) 
0.0194722

>  <r_epik_Ionization_Penalty_Charging>  (262) 
0.0194722

>  <r_epik_Ionization_Penalty_Neutral>  (262) 
0

>  <r_epik_State_Penalty>  (262) 
0.0155539

>  <r_epik_Charging_Adjusted_Penalty>  (262) 
0.0350261

>  <i_epik_Tot_Q>  (262) 
1

>  <i_epik_Tot_abs_Q>  (262) 
1

>  <s_lp_Force_Field>  (262) 
OPLS3e

>  <r_lp_Energy>  (262) 
38.712

>  <b_lp_Chiralities_Consistent>  (262) 
1

>  <s_lp_Variant>  (262) 
73:0-1

>  <s_i_glide_gridfile>  (262) 
pfpi4k_grid

>  <i_i_glide_lignum>  (262) 
27

>  <i_i_glide_rotatable_bonds>  (262) 
4

>  <r_i_docking_score>  (262) 
-4.16676

>  <r_i_glide_ligand_efficiency>  (262) 
-0.189398

>  <r_i_glide_ligand_efficiency_sa>  (262) 
-0.530701

>  <r_i_glide_ligand_efficiency_ln>  (262) 
-1.01851

>  <r_i_glide_gscore>  (262) 
-4.16676

>  <r_i_glide_lipo>  (262) 
-0.114342

>  <r_i_glide_hbond>  (262) 
-0.170786

>  <r_i_glide_metal>  (262) 
-0

>  <r_i_glide_rewards>  (262) 
-1.66174

>  <r_i_glide_evdw>  (262) 
-23.8905

>  <r_i_glide_ecoul>  (262) 
-10.6294

>  <r_i_glide_erotb>  (262) 
0.660234

>  <r_i_glide_esite>  (262) 
-0.091184

>  <r_i_glide_emodel>  (262) 
-38.6874

>  <r_i_glide_energy>  (262) 
-34.52

>  <r_i_glide_einternal>  (262) 
6.31019

>  <r_i_glide_intrahb_reward>  (262) 
-0

>  <i_i_glide_confnum>  (262) 
6

>  <i_i_glide_posenum>  (262) 
27

>  <r_i_glide_eff_state_penalty>  (262) 
0

>  <ligand_id>  (262) 
73

>  <original_smiles>  (262) 
N#Cc1cccc2c1C(NC1CC1c1ccccc1)C1CC21

>  <smiles>  (262) 
[H]c1c([H])c([H])c(C2([H])C([H])([H])C2([H])[N+]([H])([H])C2([H])c3c(C#N)c([H])c([H])c([H])c3C3([H])C([H])([H])C32[H])c([H])c1[H]

$$$$
73:0:1
     RDKit          3D

 41 45  0  0  1  0  0  0  0  0999 V2000
    5.0071   -2.0386    3.5129 N   0  0  0  0  0  0  0  0  0  0  0  0
    4.7502   -3.1411    3.7504 C   0  0  0  0  0  0  0  0  0  0  0  0
    4.4330   -4.5385    4.0191 C   0  0  0  0  0  0  0  0  0  0  0  0
    4.3393   -5.0027    5.3509 C   0  0  0  0  0  0  0  0  0  0  0  0
    4.0477   -6.3609    5.6206 C   0  0  0  0  0  0  0  0  0  0  0  0
    3.8540   -7.2788    4.5660 C   0  0  0  0  0  0  0  0  0  0  0  0
    3.9613   -6.8085    3.2397 C   0  0  0  0  0  0  0  0  0  0  0  0
    4.2432   -5.4692    2.9703 C   0  0  0  0  0  0  0  0  0  0  0  0
    4.2993   -5.1982    1.4761 C   0  0  1  0  0  0  0  0  0  0  0  0
    5.6108   -4.6583    1.0710 N   0  0  0  0  0  0  0  0  0  0  0  0
    5.6233   -4.0877   -0.2879 C   0  0  2  0  0  0  0  0  0  0  0  0
    6.6424   -2.9802   -0.4802 C   0  0  0  0  0  0  0  0  0  0  0  0
    5.1700   -2.6444   -0.3641 C   0  0  1  0  0  0  0  0  0  0  0  0
    4.4083   -2.1919   -1.5598 C   0  0  0  0  0  0  0  0  0  0  0  0
    3.4296   -3.0435   -2.1178 C   0  0  0  0  0  0  0  0  0  0  0  0
    2.7407   -2.6704   -3.2836 C   0  0  0  0  0  0  0  0  0  0  0  0
    3.0119   -1.4298   -3.8852 C   0  0  0  0  0  0  0  0  0  0  0  0
    3.9669   -0.5621   -3.3243 C   0  0  0  0  0  0  0  0  0  0  0  0
    4.6616   -0.9407   -2.1611 C   0  0  0  0  0  0  0  0  0  0  0  0
    4.0286   -6.5685    0.8530 C   0  0  1  0  0  0  0  0  0  0  0  0
    4.9551   -7.7597    1.0254 C   0  0  0  0  0  0  0  0  0  0  0  0
    3.8077   -7.5597    1.9743 C   0  0  1  0  0  0  0  0  0  0  0  0
    4.5184   -4.3238    6.1631 H   0  0  0  0  0  0  0  0  0  0  0  0
    3.9927   -6.7051    6.6439 H   0  0  0  0  0  0  0  0  0  0  0  0
    3.6323   -8.3161    4.7586 H   0  0  0  0  0  0  0  0  0  0  0  0
    3.4866   -4.5213    1.2072 H   0  0  0  0  0  0  0  0  0  0  0  0
    5.8602   -3.9273    1.7207 H   0  0  0  0  0  0  0  0  0  0  0  0
    5.3927   -4.7857   -1.0933 H   0  0  0  0  0  0  0  0  0  0  0  0
    7.2903   -2.7117    0.3529 H   0  0  0  0  0  0  0  0  0  0  0  0
    7.0983   -2.8944   -1.4682 H   0  0  0  0  0  0  0  0  0  0  0  0
    4.8506   -2.1130    0.5320 H   0  0  0  0  0  0  0  0  0  0  0  0
    3.2137   -3.9960   -1.6596 H   0  0  0  0  0  0  0  0  0  0  0  0
    1.9932   -3.3301   -3.6937 H   0  0  0  0  0  0  0  0  0  0  0  0
    2.4471   -1.1118   -4.7372 H   0  0  0  0  0  0  0  0  0  0  0  0
    4.1466    0.3972   -3.7781 H   0  0  0  0  0  0  0  0  0  0  0  0
    5.3951   -0.2705   -1.7398 H   0  0  0  0  0  0  0  0  0  0  0  0
    3.3293   -6.5908    0.0201 H   0  0  0  0  0  0  0  0  0  0  0  0
    4.8719   -8.5654    0.2977 H   0  0  0  0  0  0  0  0  0  0  0  0
    5.9597   -7.5781    1.4053 H   0  0  0  0  0  0  0  0  0  0  0  0
    2.9529   -8.2304    1.9392 H   0  0  0  0  0  0  0  0  0  0  0  0
    6.2919   -5.4015    1.1283 H   0  0  0  0  0  0  0  0  0  0  0  0
  1  2  3  0
  2  3  1  0
  3  8  2  0
  3  4  1  0
  4  5  2  0
  4 23  1  0
  5  6  1  0
  5 24  1  0
  6  7  2  0
  6 25  1  0
  7 22  1  0
  7  8  1  0
  8  9  1  0
  9 10  1  0
  9 20  1  0
  9 26  1  6
 10 11  1  0
 10 27  1  0
 10 41  1  0
 11 13  1  0
 11 12  1  0
 11 28  1  6
 12 13  1  0
 12 29  1  0
 12 30  1  0
 13 14  1  0
 13 31  1  1
 14 19  1  0
 14 15  2  0
 15 16  1  0
 15 32  1  0
 16 17  2  0
 16 33  1  0
 17 18  1  0
 17 34  1  0
 18 19  2  0
 18 35  1  0
 19 36  1  0
 20 22  1  0
 20 21  1  0
 20 37  1  6
 21 22  1  0
 21 38  1  0
 21 39  1  0
 22 40  1  6
M  CHG  1  10   1
M  END
>  <i_m_ct_stereo_status>  (263) 
1

>  <s_m_source_file>  (263) 
/var/tmp/pbs.5076255.sched01/tmp548j1hfo/88g9dmtei7.sdf

>  <i_m_source_file_index>  (263) 
27

>  <i_lp_mmshare_version>  (263) 
48012

>  <i_f3d_flags>  (263) 
0

>  <s_epik_input>  (263) 
W2NIXTFbY0hdW2NIXWMoQyNOKWMoYzEyKVtDQEhdKFtDQEBIXTNbQ0hdMltDSDJdMylbTkhdW0NAQEhdNFtDSDJdW0NASF00YzVbY0hdW2NIXVtjSF1bY0hdW2NIXTU=

>  <s_epik_cmdline>  (263) 
J2VwaWtfcHl0aG9uJywgJy1waHQnLCAnMi4wJywgJy1waCcsICc3LjAnLCAnLXRuJywgJzgnLCAnLW1hJywgJzIwMCcsICctaW1hZScsICc8aW5maWxlLm1hZT4nLCAnLW9tYWUnLCAnPG91dGZpbGUubWFlPic=

>  <r_epik_Ionization_Penalty>  (263) 
0.0194722

>  <r_epik_Ionization_Penalty_Charging>  (263) 
0.0194722

>  <r_epik_Ionization_Penalty_Neutral>  (263) 
0

>  <r_epik_State_Penalty>  (263) 
0.0155539

>  <r_epik_Charging_Adjusted_Penalty>  (263) 
0.0350261

>  <i_epik_Tot_Q>  (263) 
1

>  <i_epik_Tot_abs_Q>  (263) 
1

>  <s_lp_Force_Field>  (263) 
OPLS3e

>  <r_lp_Energy>  (263) 
38.712

>  <b_lp_Chiralities_Consistent>  (263) 
1

>  <s_lp_Variant>  (263) 
73:0-1

>  <s_i_glide_gridfile>  (263) 
pfpi4k_grid

>  <i_i_glide_lignum>  (263) 
27

>  <i_i_glide_rotatable_bonds>  (263) 
4

>  <r_i_docking_score>  (263) 
-3.1964

>  <r_i_glide_ligand_efficiency>  (263) 
-0.145291

>  <r_i_glide_ligand_efficiency_sa>  (263) 
-0.407111

>  <r_i_glide_ligand_efficiency_ln>  (263) 
-0.781316

>  <r_i_glide_gscore>  (263) 
-3.1964

>  <r_i_glide_lipo>  (263) 
-0.765533

>  <r_i_glide_hbond>  (263) 
0

>  <r_i_glide_metal>  (263) 
-0

>  <r_i_glide_rewards>  (263) 
-1.49102

>  <r_i_glide_evdw>  (263) 
-23.9623

>  <r_i_glide_ecoul>  (263) 
-2.67974

>  <r_i_glide_erotb>  (263) 
0.660234

>  <r_i_glide_esite>  (263) 
0

>  <r_i_glide_emodel>  (263) 
-33.994

>  <r_i_glide_energy>  (263) 
-26.642

>  <r_i_glide_einternal>  (263) 
1.35809

>  <r_i_glide_intrahb_reward>  (263) 
-0

>  <i_i_glide_confnum>  (263) 
4

>  <i_i_glide_posenum>  (263) 
24

>  <r_i_glide_eff_state_penalty>  (263) 
0

>  <ligand_id>  (263) 
73

>  <original_smiles>  (263) 
N#Cc1cccc2c1C(NC1CC1c1ccccc1)C1CC21

>  <smiles>  (263) 
[H]c1c([H])c([H])c(C2([H])C([H])([H])C2([H])[N+]([H])([H])C2([H])c3c(C#N)c([H])c([H])c([H])c3C3([H])C([H])([H])C32[H])c([H])c1[H]

$$$$
73:0:2
     RDKit          3D

 41 45  0  0  1  0  0  0  0  0999 V2000
    4.0851   -1.4054    2.8003 N   0  0  0  0  0  0  0  0  0  0  0  0
    3.4993   -2.3250    3.1485 C   0  0  0  0  0  0  0  0  0  0  0  0
    2.7563   -3.5051    3.6108 C   0  0  0  0  0  0  0  0  0  0  0  0
    2.3734   -3.5302    4.9608 C   0  0  0  0  0  0  0  0  0  0  0  0
    1.7043   -4.6527    5.5041 C   0  0  0  0  0  0  0  0  0  0  0  0
    1.4081   -5.7641    4.6983 C   0  0  0  0  0  0  0  0  0  0  0  0
    1.7962   -5.7362    3.3369 C   0  0  0  0  0  0  0  0  0  0  0  0
    2.4550   -4.6262    2.8004 C   0  0  0  0  0  0  0  0  0  0  0  0
    2.7634   -4.8372    1.3227 C   0  0  1  0  0  0  0  0  0  0  0  0
    4.2117   -4.7498    1.0450 N   0  0  0  0  0  0  0  0  0  0  0  0
    4.5445   -4.2437   -0.3044 C   0  0  2  0  0  0  0  0  0  0  0  0
    5.7836   -3.3639   -0.3470 C   0  0  0  0  0  0  0  0  0  0  0  0
    4.4110   -2.7325   -0.4666 C   0  0  1  0  0  0  0  0  0  0  0  0
    3.9544   -2.1526   -1.7538 C   0  0  0  0  0  0  0  0  0  0  0  0
    3.0410   -2.8814   -2.5417 C   0  0  0  0  0  0  0  0  0  0  0  0
    2.6075   -2.3708   -3.7666 C   0  0  0  0  0  0  0  0  0  0  0  0
    3.0366   -1.0980   -4.1908 C   0  0  0  0  0  0  0  0  0  0  0  0
    3.8990   -0.3380   -3.3821 C   0  0  0  0  0  0  0  0  0  0  0  0
    4.3642   -0.8649   -2.1630 C   0  0  0  0  0  0  0  0  0  0  0  0
    2.2149   -6.2379    1.0216 C   0  0  1  0  0  0  0  0  0  0  0  0
    2.7604   -7.5001    1.6776 C   0  0  0  0  0  0  0  0  0  0  0  0
    1.6012   -6.7733    2.2985 C   0  0  1  0  0  0  0  0  0  0  0  0
    2.6420   -2.7038    5.5867 H   0  0  0  0  0  0  0  0  0  0  0  0
    1.4550   -4.6496    6.5553 H   0  0  0  0  0  0  0  0  0  0  0  0
    0.9058   -6.6235    5.1062 H   0  0  0  0  0  0  0  0  0  0  0  0
    2.2001   -4.1057    0.7425 H   0  0  0  0  0  0  0  0  0  0  0  0
    4.6123   -4.1238    1.7291 H   0  0  0  0  0  0  0  0  0  0  0  0
    4.3021   -4.9272   -1.1221 H   0  0  0  0  0  0  0  0  0  0  0  0
    6.3349   -3.1992    0.5799 H   0  0  0  0  0  0  0  0  0  0  0  0
    6.3973   -3.3842   -1.2511 H   0  0  0  0  0  0  0  0  0  0  0  0
    4.0598   -2.0915    0.3392 H   0  0  0  0  0  0  0  0  0  0  0  0
    2.6674   -3.8407   -2.2158 H   0  0  0  0  0  0  0  0  0  0  0  0
    1.9265   -2.9707   -4.3458 H   0  0  0  0  0  0  0  0  0  0  0  0
    2.6772   -0.6960   -5.1213 H   0  0  0  0  0  0  0  0  0  0  0  0
    4.2021    0.6435   -3.7023 H   0  0  0  0  0  0  0  0  0  0  0  0
    5.0126   -0.2708   -1.5334 H   0  0  0  0  0  0  0  0  0  0  0  0
    1.6303   -6.3538    0.1023 H   0  0  0  0  0  0  0  0  0  0  0  0
    2.5535   -8.4512    1.1855 H   0  0  0  0  0  0  0  0  0  0  0  0
    3.7221   -7.4400    2.1820 H   0  0  0  0  0  0  0  0  0  0  0  0
    0.6147   -7.2285    2.2825 H   0  0  0  0  0  0  0  0  0  0  0  0
    4.6212   -5.6677    1.1565 H   0  0  0  0  0  0  0  0  0  0  0  0
  1  2  3  0
  2  3  1  0
  3  8  2  0
  3  4  1  0
  4  5  2  0
  4 23  1  0
  5  6  1  0
  5 24  1  0
  6  7  2  0
  6 25  1  0
  7 22  1  0
  7  8  1  0
  8  9  1  0
  9 10  1  0
  9 20  1  0
  9 26  1  6
 10 11  1  0
 10 27  1  0
 10 41  1  0
 11 13  1  0
 11 12  1  0
 11 28  1  6
 12 13  1  0
 12 29  1  0
 12 30  1  0
 13 14  1  0
 13 31  1  1
 14 19  1  0
 14 15  2  0
 15 16  1  0
 15 32  1  0
 16 17  2  0
 16 33  1  0
 17 18  1  0
 17 34  1  0
 18 19  2  0
 18 35  1  0
 19 36  1  0
 20 22  1  0
 20 21  1  0
 20 37  1  6
 21 22  1  0
 21 38  1  0
 21 39  1  0
 22 40  1  6
M  CHG  1  10   1
M  END
>  <i_m_ct_stereo_status>  (264) 
1

>  <s_m_source_file>  (264) 
/var/tmp/pbs.5076255.sched01/tmp548j1hfo/88g9dmtei7.sdf

>  <i_m_source_file_index>  (264) 
27

>  <i_lp_mmshare_version>  (264) 
48012

>  <i_f3d_flags>  (264) 
0

>  <s_epik_input>  (264) 
W2NIXTFbY0hdW2NIXWMoQyNOKWMoYzEyKVtDQEhdKFtDQEBIXTNbQ0hdMltDSDJdMylbTkhdW0NAQEhdNFtDSDJdW0NASF00YzVbY0hdW2NIXVtjSF1bY0hdW2NIXTU=

>  <s_epik_cmdline>  (264) 
J2VwaWtfcHl0aG9uJywgJy1waHQnLCAnMi4wJywgJy1waCcsICc3LjAnLCAnLXRuJywgJzgnLCAnLW1hJywgJzIwMCcsICctaW1hZScsICc8aW5maWxlLm1hZT4nLCAnLW9tYWUnLCAnPG91dGZpbGUubWFlPic=

>  <r_epik_Ionization_Penalty>  (264) 
0.0194722

>  <r_epik_Ionization_Penalty_Charging>  (264) 
0.0194722

>  <r_epik_Ionization_Penalty_Neutral>  (264) 
0

>  <r_epik_State_Penalty>  (264) 
0.0155539

>  <r_epik_Charging_Adjusted_Penalty>  (264) 
0.0350261

>  <i_epik_Tot_Q>  (264) 
1

>  <i_epik_Tot_abs_Q>  (264) 
1

>  <s_lp_Force_Field>  (264) 
OPLS3e

>  <r_lp_Energy>  (264) 
38.712

>  <b_lp_Chiralities_Consistent>  (264) 
1

>  <s_lp_Variant>  (264) 
73:0-1

>  <s_i_glide_gridfile>  (264) 
pfpi4k_grid

>  <i_i_glide_lignum>  (264) 
27

>  <i_i_glide_rotatable_bonds>  (264) 
4

>  <r_i_docking_score>  (264) 
-3.0522

>  <r_i_glide_ligand_efficiency>  (264) 
-0.138736

>  <r_i_glide_ligand_efficiency_sa>  (264) 
-0.388744

>  <r_i_glide_ligand_efficiency_ln>  (264) 
-0.746068

>  <r_i_glide_gscore>  (264) 
-3.0522

>  <r_i_glide_lipo>  (264) 
-0.601922

>  <r_i_glide_hbond>  (264) 
0

>  <r_i_glide_metal>  (264) 
-0

>  <r_i_glide_rewards>  (264) 
-1.44969

>  <r_i_glide_evdw>  (264) 
-24.5009

>  <r_i_glide_ecoul>  (264) 
-2.90506

>  <r_i_glide_erotb>  (264) 
0.660234

>  <r_i_glide_esite>  (264) 
-1.2841e-05

>  <r_i_glide_emodel>  (264) 
-33.12

>  <r_i_glide_energy>  (264) 
-27.4059

>  <r_i_glide_einternal>  (264) 
3.07177

>  <r_i_glide_intrahb_reward>  (264) 
-0

>  <i_i_glide_confnum>  (264) 
6

>  <i_i_glide_posenum>  (264) 
25

>  <r_i_glide_eff_state_penalty>  (264) 
0

>  <ligand_id>  (264) 
73

>  <original_smiles>  (264) 
N#Cc1cccc2c1C(NC1CC1c1ccccc1)C1CC21

>  <smiles>  (264) 
[H]c1c([H])c([H])c(C2([H])C([H])([H])C2([H])[N+]([H])([H])C2([H])c3c(C#N)c([H])c([H])c([H])c3C3([H])C([H])([H])C32[H])c([H])c1[H]

$$$$
73:1:0
     RDKit          3D

 40 44  0  0  1  0  0  0  0  0999 V2000
    8.6429   -4.4322    0.5430 N   0  0  0  0  0  0  0  0  0  0  0  0
    8.1546   -5.1924    1.2648 C   0  0  0  0  0  0  0  0  0  0  0  0
    7.5484   -6.1706    2.1781 C   0  0  0  0  0  0  0  0  0  0  0  0
    8.3617   -7.0220    2.9393 C   0  0  0  0  0  0  0  0  0  0  0  0
    7.7912   -7.9819    3.8189 C   0  0  0  0  0  0  0  0  0  0  0  0
    6.3945   -8.0749    3.9793 C   0  0  0  0  0  0  0  0  0  0  0  0
    5.5791   -7.2217    3.2190 C   0  0  0  0  0  0  0  0  0  0  0  0
    6.1448   -6.3063    2.3416 C   0  0  0  0  0  0  0  0  0  0  0  0
    5.0834   -5.4701    1.7040 C   0  0  1  0  0  0  0  0  0  0  0  0
    5.1348   -5.4958    0.2516 N   0  0  0  0  0  0  0  0  0  0  0  0
    5.3405   -4.1975   -0.3743 C   0  0  2  0  0  0  0  0  0  0  0  0
    5.3275   -2.9038    0.4468 C   0  0  0  0  0  0  0  0  0  0  0  0
    4.1579   -3.2710   -0.4407 C   0  0  1  0  0  0  0  0  0  0  0  0
    3.9075   -2.4264   -1.6352 C   0  0  0  0  0  0  0  0  0  0  0  0
    3.2016   -2.9322   -2.7386 C   0  0  0  0  0  0  0  0  0  0  0  0
    3.0160   -2.1265   -3.8657 C   0  0  0  0  0  0  0  0  0  0  0  0
    3.5141   -0.8126   -3.9228 C   0  0  0  0  0  0  0  0  0  0  0  0
    4.2043   -0.3106   -2.8141 C   0  0  0  0  0  0  0  0  0  0  0  0
    4.3874   -1.1020   -1.6801 C   0  0  0  0  0  0  0  0  0  0  0  0
    3.7651   -6.0144    2.2112 C   0  0  1  0  0  0  0  0  0  0  0  0
    3.2920   -7.4343    1.9729 C   0  0  0  0  0  0  0  0  0  0  0  0
    4.0931   -7.1152    3.2055 C   0  0  1  0  0  0  0  0  0  0  0  0
    9.4414   -6.9711    2.8301 H   0  0  0  0  0  0  0  0  0  0  0  0
    8.4364   -8.6445    4.3718 H   0  0  0  0  0  0  0  0  0  0  0  0
    5.9350   -8.7983    4.6355 H   0  0  0  0  0  0  0  0  0  0  0  0
    5.2512   -4.5386    2.2318 H   0  0  0  0  0  0  0  0  0  0  0  0
    4.3801   -6.0218   -0.1796 H   0  0  0  0  0  0  0  0  0  0  0  0
    5.9657   -4.1766   -1.2686 H   0  0  0  0  0  0  0  0  0  0  0  0
    5.0404   -2.8009    1.4962 H   0  0  0  0  0  0  0  0  0  0  0  0
    6.0423   -2.1561    0.1052 H   0  0  0  0  0  0  0  0  0  0  0  0
    3.2267   -3.6271    0.0089 H   0  0  0  0  0  0  0  0  0  0  0  0
    2.7948   -3.9281   -2.7358 H   0  0  0  0  0  0  0  0  0  0  0  0
    2.4415   -2.5431   -4.6569 H   0  0  0  0  0  0  0  0  0  0  0  0
    3.3414   -0.1868   -4.7853 H   0  0  0  0  0  0  0  0  0  0  0  0
    4.5890    0.6903   -2.8183 H   0  0  0  0  0  0  0  0  0  0  0  0
    4.9161   -0.6719   -0.8421 H   0  0  0  0  0  0  0  0  0  0  0  0
    3.0259   -5.2684    2.5206 H   0  0  0  0  0  0  0  0  0  0  0  0
    2.2190   -7.6102    2.0832 H   0  0  0  0  0  0  0  0  0  0  0  0
    3.7836   -7.9627    1.1554 H   0  0  0  0  0  0  0  0  0  0  0  0
    3.6250   -7.0777    4.1918 H   0  0  0  0  0  0  0  0  0  0  0  0
  1  2  3  0
  2  3  1  0
  3  8  2  0
  3  4  1  0
  4  5  2  0
  4 23  1  0
  5  6  1  0
  5 24  1  0
  6  7  2  0
  6 25  1  0
  7 22  1  0
  7  8  1  0
  8  9  1  0
  9 10  1  0
  9 20  1  0
  9 26  1  1
 10 11  1  0
 10 27  1  0
 11 13  1  0
 11 12  1  0
 11 28  1  6
 12 13  1  0
 12 29  1  0
 12 30  1  0
 13 14  1  0
 13 31  1  1
 14 19  1  0
 14 15  2  0
 15 16  1  0
 15 32  1  0
 16 17  2  0
 16 33  1  0
 17 18  1  0
 17 34  1  0
 18 19  2  0
 18 35  1  0
 19 36  1  0
 20 22  1  0
 20 21  1  0
 20 37  1  1
 21 22  1  0
 21 38  1  0
 21 39  1  0
 22 40  1  1
M  END
>  <i_m_ct_stereo_status>  (265) 
1

>  <s_m_source_file>  (265) 
/var/tmp/pbs.5076255.sched01/tmp548j1hfo/88g9dmtei7.sdf

>  <i_m_source_file_index>  (265) 
28

>  <i_lp_mmshare_version>  (265) 
48012

>  <i_f3d_flags>  (265) 
0

>  <s_epik_input>  (265) 
W2NIXTFbY0hdW2NIXWMoQyNOKWMoYzEyKVtDQEhdKFtDQEBIXTNbQ0hdMltDSDJdMylbTkhdW0NAQEhdNFtDSDJdW0NASF00YzVbY0hdW2NIXVtjSF1bY0hdW2NIXTU=

>  <s_epik_cmdline>  (265) 
J2VwaWtfcHl0aG9uJywgJy1waHQnLCAnMi4wJywgJy1waCcsICc3LjAnLCAnLXRuJywgJzgnLCAnLW1hJywgJzIwMCcsICctaW1hZScsICc8aW5maWxlLm1hZT4nLCAnLW9tYWUnLCAnPG91dGZpbGUubWFlPic=

>  <r_epik_Ionization_Penalty>  (265) 
2.03325

>  <r_epik_Ionization_Penalty_Charging>  (265) 
0

>  <r_epik_Ionization_Penalty_Neutral>  (265) 
2.03325

>  <r_epik_State_Penalty>  (265) 
2.16442

>  <r_epik_Charging_Adjusted_Penalty>  (265) 
2.16442

>  <i_epik_Tot_Q>  (265) 
0

>  <i_epik_Tot_abs_Q>  (265) 
0

>  <s_lp_Force_Field>  (265) 
OPLS3e

>  <r_lp_Energy>  (265) 
34.6382

>  <b_lp_Chiralities_Consistent>  (265) 
1

>  <s_lp_Variant>  (265) 
73:0-2

>  <s_i_glide_gridfile>  (265) 
pfpi4k_grid

>  <i_i_glide_lignum>  (265) 
28

>  <i_i_glide_rotatable_bonds>  (265) 
4

>  <r_i_docking_score>  (265) 
-3.46619

>  <r_i_glide_ligand_efficiency>  (265) 
-0.157554

>  <r_i_glide_ligand_efficiency_sa>  (265) 
-0.441473

>  <r_i_glide_ligand_efficiency_ln>  (265) 
-0.847264

>  <r_i_glide_gscore>  (265) 
-3.46619

>  <r_i_glide_lipo>  (265) 
-0.752682

>  <r_i_glide_hbond>  (265) 
0

>  <r_i_glide_metal>  (265) 
-0

>  <r_i_glide_rewards>  (265) 
-1.60885

>  <r_i_glide_evdw>  (265) 
-25.9458

>  <r_i_glide_ecoul>  (265) 
-3.1444

>  <r_i_glide_erotb>  (265) 
0.664287

>  <r_i_glide_esite>  (265) 
0

>  <r_i_glide_emodel>  (265) 
-27.5955

>  <r_i_glide_energy>  (265) 
-29.0902

>  <r_i_glide_einternal>  (265) 
12.8252

>  <r_i_glide_intrahb_reward>  (265) 
-0

>  <i_i_glide_confnum>  (265) 
6

>  <i_i_glide_posenum>  (265) 
24

>  <r_i_glide_eff_state_penalty>  (265) 
0

>  <ligand_id>  (265) 
73

>  <original_smiles>  (265) 
N#Cc1cccc2c1C(NC1CC1c1ccccc1)C1CC21

>  <smiles>  (265) 
[H]c1c([H])c([H])c(C2([H])C([H])([H])C2([H])N([H])C2([H])c3c(C#N)c([H])c([H])c([H])c3C3([H])C([H])([H])C23[H])c([H])c1[H]

$$$$
73:1:1
     RDKit          3D

 40 44  0  0  1  0  0  0  0  0999 V2000
    8.6200   -5.1075    0.9622 N   0  0  0  0  0  0  0  0  0  0  0  0
    7.7989   -5.4433    1.7092 C   0  0  0  0  0  0  0  0  0  0  0  0
    6.7636   -5.8545    2.6641 C   0  0  0  0  0  0  0  0  0  0  0  0
    7.1309   -6.4960    3.8555 C   0  0  0  0  0  0  0  0  0  0  0  0
    6.1465   -6.9001    4.7940 C   0  0  0  0  0  0  0  0  0  0  0  0
    4.7716   -6.6554    4.5679 C   0  0  0  0  0  0  0  0  0  0  0  0
    4.4068   -5.9949    3.3837 C   0  0  0  0  0  0  0  0  0  0  0  0
    5.3822   -5.6051    2.4674 C   0  0  0  0  0  0  0  0  0  0  0  0
    4.7645   -4.8459    1.3323 C   0  0  1  0  0  0  0  0  0  0  0  0
    5.0778   -5.4113    0.0261 N   0  0  0  0  0  0  0  0  0  0  0  0
    5.1574   -4.4602   -1.0629 C   0  0  2  0  0  0  0  0  0  0  0  0
    6.2651   -3.4275   -0.9777 C   0  0  0  0  0  0  0  0  0  0  0  0
    4.8272   -2.9939   -0.8760 C   0  0  1  0  0  0  0  0  0  0  0  0
    4.2176   -2.2483   -1.9659 C   0  0  0  0  0  0  0  0  0  0  0  0
    3.2037   -2.8448   -2.7401 C   0  0  0  0  0  0  0  0  0  0  0  0
    2.6133   -2.1170   -3.7661 C   0  0  0  0  0  0  0  0  0  0  0  0
    3.0143   -0.7859   -4.0131 C   0  0  0  0  0  0  0  0  0  0  0  0
    4.0139   -0.1886   -3.2134 C   0  0  0  0  0  0  0  0  0  0  0  0
    4.6165   -0.9257   -2.1949 C   0  0  0  0  0  0  0  0  0  0  0  0
    3.2551   -4.8664    1.5985 C   0  0  1  0  0  0  0  0  0  0  0  0
    2.4349   -6.1440    1.6577 C   0  0  0  0  0  0  0  0  0  0  0  0
    3.0506   -5.5789    2.9144 C   0  0  1  0  0  0  0  0  0  0  0  0
    8.1700   -6.6956    4.0276 H   0  0  0  0  0  0  0  0  0  0  0  0
    6.4555   -7.4311    5.6822 H   0  0  0  0  0  0  0  0  0  0  0  0
    4.0142   -6.9599    5.2712 H   0  0  0  0  0  0  0  0  0  0  0  0
    5.1654   -3.8401    1.4912 H   0  0  0  0  0  0  0  0  0  0  0  0
    4.3731   -6.0986   -0.2094 H   0  0  0  0  0  0  0  0  0  0  0  0
    5.0295   -4.8703   -2.0706 H   0  0  0  0  0  0  0  0  0  0  0  0
    6.8527   -3.3788   -0.0698 H   0  0  0  0  0  0  0  0  0  0  0  0
    6.8104   -3.1983   -1.8952 H   0  0  0  0  0  0  0  0  0  0  0  0
    4.4641   -2.5883    0.0729 H   0  0  0  0  0  0  0  0  0  0  0  0
    2.8657   -3.8484   -2.5092 H   0  0  0  0  0  0  0  0  0  0  0  0
    1.8134   -2.5710   -4.3264 H   0  0  0  0  0  0  0  0  0  0  0  0
    2.5353   -0.2081   -4.7845 H   0  0  0  0  0  0  0  0  0  0  0  0
    4.2977    0.8376   -3.3653 H   0  0  0  0  0  0  0  0  0  0  0  0
    5.3646   -0.4813   -1.5471 H   0  0  0  0  0  0  0  0  0  0  0  0
    2.7075   -3.9441    1.4004 H   0  0  0  0  0  0  0  0  0  0  0  0
    1.3548   -6.0624    1.5262 H   0  0  0  0  0  0  0  0  0  0  0  0
    2.8771   -7.0492    1.2438 H   0  0  0  0  0  0  0  0  0  0  0  0
    2.4215   -5.0889    3.6592 H   0  0  0  0  0  0  0  0  0  0  0  0
  1  2  3  0
  2  3  1  0
  3  8  2  0
  3  4  1  0
  4  5  2  0
  4 23  1  0
  5  6  1  0
  5 24  1  0
  6  7  2  0
  6 25  1  0
  7 22  1  0
  7  8  1  0
  8  9  1  0
  9 10  1  0
  9 20  1  0
  9 26  1  6
 10 11  1  0
 10 27  1  0
 11 13  1  0
 11 12  1  0
 11 28  1  6
 12 13  1  0
 12 29  1  0
 12 30  1  0
 13 14  1  0
 13 31  1  1
 14 19  1  0
 14 15  2  0
 15 16  1  0
 15 32  1  0
 16 17  2  0
 16 33  1  0
 17 18  1  0
 17 34  1  0
 18 19  2  0
 18 35  1  0
 19 36  1  0
 20 22  1  0
 20 21  1  0
 20 37  1  1
 21 22  1  0
 21 38  1  0
 21 39  1  0
 22 40  1  1
M  END
>  <i_m_ct_stereo_status>  (266) 
1

>  <s_m_source_file>  (266) 
/var/tmp/pbs.5076255.sched01/tmp548j1hfo/88g9dmtei7.sdf

>  <i_m_source_file_index>  (266) 
28

>  <i_lp_mmshare_version>  (266) 
48012

>  <i_f3d_flags>  (266) 
0

>  <s_epik_input>  (266) 
W2NIXTFbY0hdW2NIXWMoQyNOKWMoYzEyKVtDQEhdKFtDQEBIXTNbQ0hdMltDSDJdMylbTkhdW0NAQEhdNFtDSDJdW0NASF00YzVbY0hdW2NIXVtjSF1bY0hdW2NIXTU=

>  <s_epik_cmdline>  (266) 
J2VwaWtfcHl0aG9uJywgJy1waHQnLCAnMi4wJywgJy1waCcsICc3LjAnLCAnLXRuJywgJzgnLCAnLW1hJywgJzIwMCcsICctaW1hZScsICc8aW5maWxlLm1hZT4nLCAnLW9tYWUnLCAnPG91dGZpbGUubWFlPic=

>  <r_epik_Ionization_Penalty>  (266) 
2.03325

>  <r_epik_Ionization_Penalty_Charging>  (266) 
0

>  <r_epik_Ionization_Penalty_Neutral>  (266) 
2.03325

>  <r_epik_State_Penalty>  (266) 
2.16442

>  <r_epik_Charging_Adjusted_Penalty>  (266) 
2.16442

>  <i_epik_Tot_Q>  (266) 
0

>  <i_epik_Tot_abs_Q>  (266) 
0

>  <s_lp_Force_Field>  (266) 
OPLS3e

>  <r_lp_Energy>  (266) 
34.6382

>  <b_lp_Chiralities_Consistent>  (266) 
1

>  <s_lp_Variant>  (266) 
73:0-2

>  <s_i_glide_gridfile>  (266) 
pfpi4k_grid

>  <i_i_glide_lignum>  (266) 
28

>  <i_i_glide_rotatable_bonds>  (266) 
4

>  <r_i_docking_score>  (266) 
-3.27519

>  <r_i_glide_ligand_efficiency>  (266) 
-0.148872

>  <r_i_glide_ligand_efficiency_sa>  (266) 
-0.417146

>  <r_i_glide_ligand_efficiency_ln>  (266) 
-0.800575

>  <r_i_glide_gscore>  (266) 
-3.27519

>  <r_i_glide_lipo>  (266) 
-0.741933

>  <r_i_glide_hbond>  (266) 
0

>  <r_i_glide_metal>  (266) 
-0

>  <r_i_glide_rewards>  (266) 
-1.55464

>  <r_i_glide_evdw>  (266) 
-24.7928

>  <r_i_glide_ecoul>  (266) 
-2.68838

>  <r_i_glide_erotb>  (266) 
0.664287

>  <r_i_glide_esite>  (266) 
0

>  <r_i_glide_emodel>  (266) 
-27.1637

>  <r_i_glide_energy>  (266) 
-27.4812

>  <r_i_glide_einternal>  (266) 
10.7737

>  <r_i_glide_intrahb_reward>  (266) 
-0

>  <i_i_glide_confnum>  (266) 
6

>  <i_i_glide_posenum>  (266) 
30

>  <r_i_glide_eff_state_penalty>  (266) 
0

>  <ligand_id>  (266) 
73

>  <original_smiles>  (266) 
N#Cc1cccc2c1C(NC1CC1c1ccccc1)C1CC21

>  <smiles>  (266) 
[H]c1c([H])c([H])c(C2([H])C([H])([H])C2([H])N([H])C2([H])c3c(C#N)c([H])c([H])c([H])c3C3([H])C([H])([H])C23[H])c([H])c1[H]

$$$$
73:1:2
     RDKit          3D

 40 44  0  0  1  0  0  0  0  0999 V2000
    4.9877   -2.3908    4.2098 N   0  0  0  0  0  0  0  0  0  0  0  0
    4.6248   -3.4896    4.2492 C   0  0  0  0  0  0  0  0  0  0  0  0
    4.1686   -4.8774    4.2836 C   0  0  0  0  0  0  0  0  0  0  0  0
    3.9359   -5.5129    5.5225 C   0  0  0  0  0  0  0  0  0  0  0  0
    3.5059   -6.8615    5.5774 C   0  0  0  0  0  0  0  0  0  0  0  0
    3.3127   -7.6011    4.3880 C   0  0  0  0  0  0  0  0  0  0  0  0
    3.5483   -6.9603    3.1548 C   0  0  0  0  0  0  0  0  0  0  0  0
    3.9678   -5.6312    3.1012 C   0  0  0  0  0  0  0  0  0  0  0  0
    4.1712   -5.1637    1.6692 C   0  0  1  0  0  0  0  0  0  0  0  0
    5.5299   -4.6963    1.4477 N   0  0  0  0  0  0  0  0  0  0  0  0
    5.6706   -4.1225    0.1268 C   0  0  2  0  0  0  0  0  0  0  0  0
    6.6688   -2.9942   -0.0138 C   0  0  0  0  0  0  0  0  0  0  0  0
    5.1928   -2.7046   -0.0742 C   0  0  1  0  0  0  0  0  0  0  0  0
    4.5586   -2.3054   -1.3656 C   0  0  0  0  0  0  0  0  0  0  0  0
    3.7955   -3.2367   -2.0985 C   0  0  0  0  0  0  0  0  0  0  0  0
    3.2252   -2.8885   -3.3343 C   0  0  0  0  0  0  0  0  0  0  0  0
    3.4019   -1.5879   -3.8416 C   0  0  0  0  0  0  0  0  0  0  0  0
    4.1410   -0.6439   -3.1046 C   0  0  0  0  0  0  0  0  0  0  0  0
    4.7202   -1.0023   -1.8726 C   0  0  0  0  0  0  0  0  0  0  0  0
    3.8236   -6.4020    0.8359 C   0  0  1  0  0  0  0  0  0  0  0  0
    4.6170   -7.6919    0.8796 C   0  0  0  0  0  0  0  0  0  0  0  0
    3.4255   -7.5130    1.7823 C   0  0  1  0  0  0  0  0  0  0  0  0
    4.0986   -4.9663    6.4346 H   0  0  0  0  0  0  0  0  0  0  0  0
    3.3383   -7.3317    6.5340 H   0  0  0  0  0  0  0  0  0  0  0  0
    2.9927   -8.6332    4.4176 H   0  0  0  0  0  0  0  0  0  0  0  0
    3.4481   -4.3747    1.4550 H   0  0  0  0  0  0  0  0  0  0  0  0
    6.1685   -5.4706    1.5533 H   0  0  0  0  0  0  0  0  0  0  0  0
    5.5870   -4.7866   -0.7322 H   0  0  0  0  0  0  0  0  0  0  0  0
    7.2127   -2.6964    0.8816 H   0  0  0  0  0  0  0  0  0  0  0  0
    7.2279   -2.9381   -0.9486 H   0  0  0  0  0  0  0  0  0  0  0  0
    4.7426   -2.1811    0.7661 H   0  0  0  0  0  0  0  0  0  0  0  0
    3.6518   -4.2367   -1.7160 H   0  0  0  0  0  0  0  0  0  0  0  0
    2.6512   -3.6236   -3.8779 H   0  0  0  0  0  0  0  0  0  0  0  0
    2.9463   -1.3047   -4.7736 H   0  0  0  0  0  0  0  0  0  0  0  0
    4.2514    0.3597   -3.4802 H   0  0  0  0  0  0  0  0  0  0  0  0
    5.2832   -0.2715   -1.3098 H   0  0  0  0  0  0  0  0  0  0  0  0
    3.1950   -6.2377   -0.0406 H   0  0  0  0  0  0  0  0  0  0  0  0
    4.5148   -8.3725    0.0344 H   0  0  0  0  0  0  0  0  0  0  0  0
    5.6061   -7.6685    1.3336 H   0  0  0  0  0  0  0  0  0  0  0  0
    2.5100   -8.0664    1.5972 H   0  0  0  0  0  0  0  0  0  0  0  0
  1  2  3  0
  2  3  1  0
  3  8  2  0
  3  4  1  0
  4  5  2  0
  4 23  1  0
  5  6  1  0
  5 24  1  0
  6  7  2  0
  6 25  1  0
  7 22  1  0
  7  8  1  0
  8  9  1  0
  9 10  1  0
  9 20  1  0
  9 26  1  6
 10 11  1  0
 10 27  1  0
 11 13  1  0
 11 12  1  0
 11 28  1  6
 12 13  1  0
 12 29  1  0
 12 30  1  0
 13 14  1  0
 13 31  1  1
 14 19  1  0
 14 15  2  0
 15 16  1  0
 15 32  1  0
 16 17  2  0
 16 33  1  0
 17 18  1  0
 17 34  1  0
 18 19  2  0
 18 35  1  0
 19 36  1  0
 20 22  1  0
 20 21  1  0
 20 37  1  6
 21 22  1  0
 21 38  1  0
 21 39  1  0
 22 40  1  6
M  END
>  <i_m_ct_stereo_status>  (267) 
1

>  <s_m_source_file>  (267) 
/var/tmp/pbs.5076255.sched01/tmp548j1hfo/88g9dmtei7.sdf

>  <i_m_source_file_index>  (267) 
28

>  <i_lp_mmshare_version>  (267) 
48012

>  <i_f3d_flags>  (267) 
0

>  <s_epik_input>  (267) 
W2NIXTFbY0hdW2NIXWMoQyNOKWMoYzEyKVtDQEhdKFtDQEBIXTNbQ0hdMltDSDJdMylbTkhdW0NAQEhdNFtDSDJdW0NASF00YzVbY0hdW2NIXVtjSF1bY0hdW2NIXTU=

>  <s_epik_cmdline>  (267) 
J2VwaWtfcHl0aG9uJywgJy1waHQnLCAnMi4wJywgJy1waCcsICc3LjAnLCAnLXRuJywgJzgnLCAnLW1hJywgJzIwMCcsICctaW1hZScsICc8aW5maWxlLm1hZT4nLCAnLW9tYWUnLCAnPG91dGZpbGUubWFlPic=

>  <r_epik_Ionization_Penalty>  (267) 
2.03325

>  <r_epik_Ionization_Penalty_Charging>  (267) 
0

>  <r_epik_Ionization_Penalty_Neutral>  (267) 
2.03325

>  <r_epik_State_Penalty>  (267) 
2.16442

>  <r_epik_Charging_Adjusted_Penalty>  (267) 
2.16442

>  <i_epik_Tot_Q>  (267) 
0

>  <i_epik_Tot_abs_Q>  (267) 
0

>  <s_lp_Force_Field>  (267) 
OPLS3e

>  <r_lp_Energy>  (267) 
34.6382

>  <b_lp_Chiralities_Consistent>  (267) 
1

>  <s_lp_Variant>  (267) 
73:0-2

>  <s_i_glide_gridfile>  (267) 
pfpi4k_grid

>  <i_i_glide_lignum>  (267) 
28

>  <i_i_glide_rotatable_bonds>  (267) 
4

>  <r_i_docking_score>  (267) 
-3.03412

>  <r_i_glide_ligand_efficiency>  (267) 
-0.137914

>  <r_i_glide_ligand_efficiency_sa>  (267) 
-0.386441

>  <r_i_glide_ligand_efficiency_ln>  (267) 
-0.741648

>  <r_i_glide_gscore>  (267) 
-3.03412

>  <r_i_glide_lipo>  (267) 
-0.791744

>  <r_i_glide_hbond>  (267) 
0

>  <r_i_glide_metal>  (267) 
-0

>  <r_i_glide_rewards>  (267) 
-1.48101

>  <r_i_glide_evdw>  (267) 
-24.4326

>  <r_i_glide_ecoul>  (267) 
-1.36014

>  <r_i_glide_erotb>  (267) 
0.664287

>  <r_i_glide_esite>  (267) 
0

>  <r_i_glide_emodel>  (267) 
-30.362

>  <r_i_glide_energy>  (267) 
-25.7927

>  <r_i_glide_einternal>  (267) 
1.32274

>  <r_i_glide_intrahb_reward>  (267) 
-0

>  <i_i_glide_confnum>  (267) 
3

>  <i_i_glide_posenum>  (267) 
34

>  <r_i_glide_eff_state_penalty>  (267) 
0

>  <ligand_id>  (267) 
73

>  <original_smiles>  (267) 
N#Cc1cccc2c1C(NC1CC1c1ccccc1)C1CC21

>  <smiles>  (267) 
[H]c1c([H])c([H])c(C2([H])C([H])([H])C2([H])N([H])C2([H])c3c(C#N)c([H])c([H])c([H])c3C3([H])C([H])([H])C23[H])c([H])c1[H]

$$$$
74:0:0
     RDKit          3D

 68 74  0  0  1  0  0  0  0  0999 V2000
    5.5587   -3.2033   -0.5698 C   0  0  0  0  0  0  0  0  0  0  0  0
    4.7426   -3.4386    0.4599 C   0  0  0  0  0  0  0  0  0  0  0  0
    3.2808   -3.1879    0.2418 C   0  0  0  0  0  0  0  0  0  0  0  0
    2.4125   -4.4605    0.1164 C   0  0  0  0  0  0  0  0  0  0  0  0
    2.0243   -5.3080    1.2264 O   0  0  0  0  0  0  0  0  0  0  0  0
    2.7387   -5.6206    2.4557 C   0  0  2  0  0  0  0  0  0  0  0  0
    4.0848   -6.3946    2.0371 C   0  0  1  0  0  0  0  0  0  0  0  0
    4.3287   -6.8964    0.6098 C   0  0  0  0  0  0  0  0  0  0  0  0
    4.6069   -8.0950    0.4308 O   0  0  0  0  0  0  0  0  0  0  0  0
    5.4407   -6.1276    2.6840 C   0  0  1  0  0  0  0  0  0  0  0  0
    6.1824   -4.9199    2.0580 C   0  0  1  0  0  0  0  0  0  0  0  0
    6.8604   -5.3297    0.8785 O   0  0  0  0  0  0  0  0  0  0  0  0
    5.2683   -3.6626    1.9043 C   0  0  1  0  0  0  0  0  0  0  0  0
    6.1709   -2.5818    2.0764 O   0  0  0  0  0  0  0  0  0  0  0  0
    4.2964   -3.5301    3.1731 C   0  0  2  0  0  0  0  0  0  0  0  0
    5.1321   -3.6021    4.4825 C   0  0  0  0  0  0  0  0  0  0  0  0
    5.7678   -4.9264    4.9630 C   0  0  0  0  0  0  0  0  0  0  0  0
    6.4272   -4.8780    5.9923 O   0  0  0  0  0  0  0  0  0  0  0  0
    5.5586   -6.2818    4.2209 C   0  0  2  0  0  0  0  0  0  0  0  0
    6.8627   -7.0911    4.4818 C   0  0  0  0  0  0  0  0  0  0  0  0
    4.6307   -7.1037    4.9837 O   0  0  0  0  0  0  0  0  0  0  0  0
    3.3232   -7.5938    4.6016 C   0  0  2  0  0  0  0  0  0  0  0  0
    3.2679   -8.9827    4.0728 C   0  0  0  0  0  0  0  0  0  0  0  0
    2.5015   -9.1836    2.9537 C   0  0  0  0  0  0  0  0  0  0  0  0
    1.6398   -8.0637    2.3163 C   0  0  0  0  0  0  0  0  0  0  0  0
    1.6879   -6.6861    3.0868 C   0  0  2  0  0  0  0  0  0  0  0  0
    0.3996   -6.0843    3.0362 O   0  0  0  0  0  0  0  0  0  0  0  0
    1.8632   -7.0826    4.5728 C   0  0  1  0  0  0  0  0  0  0  0  0
    0.6523   -7.8910    5.0973 C   0  0  0  0  0  0  0  0  0  0  0  0
    2.7159   -6.7473    5.7052 C   0  0  2  0  0  0  0  0  0  0  0  0
    2.8515   -5.2770    5.9870 C   0  0  0  0  0  0  0  0  0  0  0  0
    2.3830   -4.3343    4.8623 C   0  0  0  0  0  0  0  0  0  0  0  0
    2.8783   -4.2697    3.3390 C   0  0  2  0  0  0  0  0  0  0  0  0
    1.7588   -3.2163    2.9643 C   0  0  0  0  0  0  0  0  0  0  0  0
    6.6392   -3.2330   -0.4668 H   0  0  0  0  0  0  0  0  0  0  0  0
    5.1848   -2.9608   -1.5600 H   0  0  0  0  0  0  0  0  0  0  0  0
    2.9807   -2.3757    0.8934 H   0  0  0  0  0  0  0  0  0  0  0  0
    3.1799   -2.6988   -0.7295 H   0  0  0  0  0  0  0  0  0  0  0  0
    1.4633   -4.1106   -0.2814 H   0  0  0  0  0  0  0  0  0  0  0  0
    2.7266   -5.0441   -0.7280 H   0  0  0  0  0  0  0  0  0  0  0  0
    3.9595   -7.3775    2.4192 H   0  0  0  0  0  0  0  0  0  0  0  0
    4.4281   -6.1788   -0.1935 H   0  0  0  0  0  0  0  0  0  0  0  0
    6.0430   -6.9715    2.3306 H   0  0  0  0  0  0  0  0  0  0  0  0
    7.0179   -4.6652    2.6967 H   0  0  0  0  0  0  0  0  0  0  0  0
    7.5213   -5.9609    1.1118 H   0  0  0  0  0  0  0  0  0  0  0  0
    5.6921   -1.7711    2.0497 H   0  0  0  0  0  0  0  0  0  0  0  0
    4.0461   -2.4692    3.1497 H   0  0  0  0  0  0  0  0  0  0  0  0
    5.9525   -2.8898    4.4175 H   0  0  0  0  0  0  0  0  0  0  0  0
    4.5619   -3.2026    5.3162 H   0  0  0  0  0  0  0  0  0  0  0  0
    7.7425   -6.5906    4.0644 H   0  0  0  0  0  0  0  0  0  0  0  0
    6.8142   -8.0880    4.0418 H   0  0  0  0  0  0  0  0  0  0  0  0
    7.0573   -7.2437    5.5468 H   0  0  0  0  0  0  0  0  0  0  0  0
    3.8268   -9.7641    4.5534 H   0  0  0  0  0  0  0  0  0  0  0  0
    2.4263  -10.1536    2.4913 H   0  0  0  0  0  0  0  0  0  0  0  0
    1.9029   -7.9371    1.2715 H   0  0  0  0  0  0  0  0  0  0  0  0
    0.6144   -8.4327    2.2806 H   0  0  0  0  0  0  0  0  0  0  0  0
    0.4403   -5.3559    3.6360 H   0  0  0  0  0  0  0  0  0  0  0  0
   -0.0530   -7.2323    5.6006 H   0  0  0  0  0  0  0  0  0  0  0  0
    0.9790   -8.6507    5.8091 H   0  0  0  0  0  0  0  0  0  0  0  0
    0.1097   -8.4283    4.3228 H   0  0  0  0  0  0  0  0  0  0  0  0
    2.5671   -7.3016    6.6295 H   0  0  0  0  0  0  0  0  0  0  0  0
    2.1708   -5.0786    6.8160 H   0  0  0  0  0  0  0  0  0  0  0  0
    3.8033   -5.0578    6.4644 H   0  0  0  0  0  0  0  0  0  0  0  0
    1.3148   -4.5308    4.9088 H   0  0  0  0  0  0  0  0  0  0  0  0
    2.4566   -3.3266    5.2839 H   0  0  0  0  0  0  0  0  0  0  0  0
    1.9901   -2.1936    3.2846 H   0  0  0  0  0  0  0  0  0  0  0  0
    0.7640   -3.4219    3.3498 H   0  0  0  0  0  0  0  0  0  0  0  0
    1.4911   -3.1418    1.9393 H   0  0  0  0  0  0  0  0  0  0  0  0
  1  2  2  0
  1 35  1  0
  1 36  1  0
  2 13  1  0
  2  3  1  0
  3  4  1  0
  3 37  1  0
  3 38  1  0
  4  5  1  0
  4 39  1  0
  4 40  1  0
  6  5  1  6
  6 26  1  0
  6 33  1  0
  6  7  1  0
  7  8  1  0
  7 10  1  0
  7 41  1  1
  8  9  2  0
  8 42  1  0
 10 19  1  0
 10 11  1  0
 10 43  1  6
 11 12  1  0
 11 13  1  0
 11 44  1  1
 12 45  1  0
 13 14  1  1
 13 15  1  0
 14 46  1  0
 15 33  1  0
 15 16  1  0
 15 47  1  6
 16 17  1  0
 16 48  1  0
 16 49  1  0
 17 18  2  0
 17 19  1  0
 19 20  1  6
 19 21  1  0
 20 50  1  0
 20 51  1  0
 20 52  1  0
 22 21  1  6
 22 28  1  0
 22 30  1  0
 22 23  1  0
 23 24  2  0
 23 53  1  0
 24 25  1  0
 24 54  1  0
 25 26  1  0
 25 55  1  0
 25 56  1  0
 26 27  1  1
 26 28  1  0
 27 57  1  0
 28 29  1  1
 28 30  1  0
 29 58  1  0
 29 59  1  0
 29 60  1  0
 30 31  1  0
 30 61  1  1
 31 32  1  0
 31 62  1  0
 31 63  1  0
 32 33  1  0
 32 64  1  0
 32 65  1  0
 33 34  1  6
 34 66  1  0
 34 67  1  0
 34 68  1  0
M  END
>  <i_m_ct_stereo_status>  (268) 
1

>  <s_m_source_file>  (268) 
/var/tmp/pbs.5076255.sched01/tmp548j1hfo/88g9dmtei7.sdf

>  <i_m_source_file_index>  (268) 
29

>  <i_lp_mmshare_version>  (268) 
48012

>  <i_f3d_flags>  (268) 
0

>  <s_epik_input>  (268) 
Tz1bQ0hdW0NASF0xW0NASF0oW0NAQF0oTzIpKFtDSDNdKUMoPU8pW0NIMl0zKVtDQEBIXShbT0hdKVtDQEBdKFtPSF0pKEMoPVtDSDJdKVtDSDJdW0NIMl1PNClbQ0BIXTNbQ0BdNShbQ0gzXSlbQ0gyXVtDSDJdW0NAQEhdNltDQEBdMihbQ0hdPVtDSF1bQ0gyXTcpW0NAXTYoW0NIM10pW0NAXTcoW0NAQF0xNDUpW09IXQ==

>  <s_epik_cmdline>  (268) 
J2VwaWtfcHl0aG9uJywgJy1waHQnLCAnMi4wJywgJy1waCcsICc3LjAnLCAnLXRuJywgJzgnLCAnLW1hJywgJzIwMCcsICctaW1hZScsICc8aW5maWxlLm1hZT4nLCAnLW9tYWUnLCAnPG91dGZpbGUubWFlPic=

>  <r_lp_tautomer_probability>  (268) 
1

>  <r_epik_Ionization_Penalty>  (268) 
3.42801e-06

>  <r_epik_Ionization_Penalty_Charging>  (268) 
0

>  <r_epik_Ionization_Penalty_Neutral>  (268) 
3.42801e-06

>  <r_epik_State_Penalty>  (268) 
-0

>  <r_epik_Charging_Adjusted_Penalty>  (268) 
0

>  <i_epik_Tot_Q>  (268) 
0

>  <i_epik_Tot_abs_Q>  (268) 
0

>  <s_lp_Force_Field>  (268) 
OPLS3e

>  <r_lp_Energy>  (268) 
232.281

>  <b_lp_Chiralities_Consistent>  (268) 
1

>  <s_lp_Variant>  (268) 
74:0-1

>  <s_i_glide_gridfile>  (268) 
pfpi4k_grid

>  <i_i_glide_lignum>  (268) 
29

>  <i_i_glide_rotatable_bonds>  (268) 
4

>  <r_i_docking_score>  (268) 
-2.49033

>  <r_i_glide_ligand_efficiency>  (268) 
-0.0732451

>  <r_i_glide_ligand_efficiency_sa>  (268) 
-0.237286

>  <r_i_glide_ligand_efficiency_ln>  (268) 
-0.550184

>  <r_i_glide_gscore>  (268) 
-2.49033

>  <r_i_glide_lipo>  (268) 
-0.235259

>  <r_i_glide_hbond>  (268) 
-0.0396152

>  <r_i_glide_metal>  (268) 
-0

>  <r_i_glide_rewards>  (268) 
-0.391925

>  <r_i_glide_evdw>  (268) 
-19.8545

>  <r_i_glide_ecoul>  (268) 
-5.53873

>  <r_i_glide_erotb>  (268) 
0

>  <r_i_glide_esite>  (268) 
0

>  <r_i_glide_emodel>  (268) 
-29.3854

>  <r_i_glide_energy>  (268) 
-25.3932

>  <r_i_glide_einternal>  (268) 
0.741614

>  <r_i_glide_intrahb_reward>  (268) 
-0

>  <i_i_glide_confnum>  (268) 
2

>  <i_i_glide_posenum>  (268) 
6

>  <r_i_glide_eff_state_penalty>  (268) 
0

>  <ligand_id>  (268) 
74

>  <original_smiles>  (268) 
C=C1CCOC23C(C=O)C4C(O)C1(O)C1CC(=O)C4(C)OC45C=CCC2(O)C4(C)C5CCC13C

>  <smiles>  (268) 
[H]OC1([H])C2(O[H])C(=C([H])[H])C([H])([H])C([H])([H])OC34C([H])(C([H])=O)C1([H])C1(C([H])([H])[H])OC56C([H])=C([H])C([H])([H])C3(O[H])C5(C([H])([H])[H])C6([H])C([H])([H])C([H])([H])C4(C([H])([H])[H])C2([H])C([H])([H])C1=O

$$$$
74:0:1
     RDKit          3D

 68 74  0  0  1  0  0  0  0  0999 V2000
    6.6904   -5.8680    0.9262 C   0  0  0  0  0  0  0  0  0  0  0  0
    5.8720   -6.0166    1.9885 C   0  0  0  0  0  0  0  0  0  0  0  0
    4.6444   -5.1332    2.0180 C   0  0  0  0  0  0  0  0  0  0  0  0
    3.2859   -5.8154    1.6883 C   0  0  0  0  0  0  0  0  0  0  0  0
    2.5825   -6.6713    2.6047 O   0  0  0  0  0  0  0  0  0  0  0  0
    3.1267   -7.5825    3.5954 C   0  0  2  0  0  0  0  0  0  0  0  0
    3.9844   -8.6950    2.7953 C   0  0  1  0  0  0  0  0  0  0  0  0
    3.8265   -8.9110    1.2701 C   0  0  0  0  0  0  0  0  0  0  0  0
    4.5679   -8.3807    0.4429 O   0  0  0  0  0  0  0  0  0  0  0  0
    5.3258   -9.2323    3.3210 C   0  0  1  0  0  0  0  0  0  0  0  0
    6.5486   -8.3548    2.9716 C   0  0  1  0  0  0  0  0  0  0  0  0
    7.0530   -8.6752    1.6786 O   0  0  0  0  0  0  0  0  0  0  0  0
    6.2733   -6.8409    3.2413 C   0  0  1  0  0  0  0  0  0  0  0  0
    7.5783   -6.3763    3.5697 O   0  0  0  0  0  0  0  0  0  0  0  0
    5.4574   -6.6501    4.6077 C   0  0  2  0  0  0  0  0  0  0  0  0
    6.2020   -7.4396    5.7273 C   0  0  0  0  0  0  0  0  0  0  0  0
    6.1645   -8.9733    5.7823 C   0  0  0  0  0  0  0  0  0  0  0  0
    6.8075   -9.5075    6.6855 O   0  0  0  0  0  0  0  0  0  0  0  0
    5.3807   -9.8436    4.7608 C   0  0  2  0  0  0  0  0  0  0  0  0
    6.1709  -11.1735    4.6440 C   0  0  0  0  0  0  0  0  0  0  0  0
    4.2154  -10.3582    5.4148 O   0  0  0  0  0  0  0  0  0  0  0  0
    2.8084  -10.1167    5.1205 C   0  0  2  0  0  0  0  0  0  0  0  0
    2.1207  -11.1556    4.2981 C   0  0  0  0  0  0  0  0  0  0  0  0
    1.3263  -10.7118    3.2857 C   0  0  0  0  0  0  0  0  0  0  0  0
    1.0453   -9.1965    3.0618 C   0  0  0  0  0  0  0  0  0  0  0  0
    1.7209   -8.2289    4.1142 C   0  0  2  0  0  0  0  0  0  0  0  0
    0.7838   -7.1752    4.3588 O   0  0  0  0  0  0  0  0  0  0  0  0
    1.7200   -9.0470    5.4315 C   0  0  1  0  0  0  0  0  0  0  0  0
    0.2847   -9.3780    5.9101 C   0  0  0  0  0  0  0  0  0  0  0  0
    2.6452   -9.4505    6.4631 C   0  0  2  0  0  0  0  0  0  0  0  0
    3.4358   -8.3237    7.0711 C   0  0  0  0  0  0  0  0  0  0  0  0
    3.4158   -6.9932    6.2819 C   0  0  0  0  0  0  0  0  0  0  0  0
    3.8517   -6.7188    4.7596 C   0  0  2  0  0  0  0  0  0  0  0  0
    3.2780   -5.2363    4.7941 C   0  0  0  0  0  0  0  0  0  0  0  0
    7.6476   -6.3608    0.8485 H   0  0  0  0  0  0  0  0  0  0  0  0
    6.4252   -5.2156    0.1039 H   0  0  0  0  0  0  0  0  0  0  0  0
    4.7107   -4.4773    2.8833 H   0  0  0  0  0  0  0  0  0  0  0  0
    4.7564   -4.3999    1.2180 H   0  0  0  0  0  0  0  0  0  0  0  0
    2.5739   -4.9884    1.5951 H   0  0  0  0  0  0  0  0  0  0  0  0
    3.3029   -6.2545    0.6912 H   0  0  0  0  0  0  0  0  0  0  0  0
    3.4428   -9.5944    2.9707 H   0  0  0  0  0  0  0  0  0  0  0  0
    3.0035   -9.5806    0.9793 H   0  0  0  0  0  0  0  0  0  0  0  0
    5.4686  -10.1085    2.6867 H   0  0  0  0  0  0  0  0  0  0  0  0
    7.4039   -8.6786    3.5737 H   0  0  0  0  0  0  0  0  0  0  0  0
    7.8730   -8.2598    1.5492 H   0  0  0  0  0  0  0  0  0  0  0  0
    8.1524   -6.5412    2.8508 H   0  0  0  0  0  0  0  0  0  0  0  0
    5.7055   -5.6191    4.8558 H   0  0  0  0  0  0  0  0  0  0  0  0
    7.2604   -7.1681    5.7216 H   0  0  0  0  0  0  0  0  0  0  0  0
    5.8832   -7.0753    6.6960 H   0  0  0  0  0  0  0  0  0  0  0  0
    7.1698  -10.9985    4.2426 H   0  0  0  0  0  0  0  0  0  0  0  0
    5.6743  -11.8930    3.9890 H   0  0  0  0  0  0  0  0  0  0  0  0
    6.2971  -11.6760    5.6084 H   0  0  0  0  0  0  0  0  0  0  0  0
    2.2848  -12.2096    4.5195 H   0  0  0  0  0  0  0  0  0  0  0  0
    0.7967  -11.3891    2.6259 H   0  0  0  0  0  0  0  0  0  0  0  0
    1.2945   -8.9114    2.0478 H   0  0  0  0  0  0  0  0  0  0  0  0
   -0.0431   -9.0915    3.0785 H   0  0  0  0  0  0  0  0  0  0  0  0
    0.0203   -7.5525    4.7661 H   0  0  0  0  0  0  0  0  0  0  0  0
   -0.0302   -8.6484    6.6506 H   0  0  0  0  0  0  0  0  0  0  0  0
    0.2689  -10.3715    6.3646 H   0  0  0  0  0  0  0  0  0  0  0  0
   -0.4475   -9.4093    5.1117 H   0  0  0  0  0  0  0  0  0  0  0  0
    2.3064  -10.1325    7.2421 H   0  0  0  0  0  0  0  0  0  0  0  0
    2.9272   -8.0904    8.0077 H   0  0  0  0  0  0  0  0  0  0  0  0
    4.3918   -8.6598    7.4641 H   0  0  0  0  0  0  0  0  0  0  0  0
    2.3672   -6.7434    6.4206 H   0  0  0  0  0  0  0  0  0  0  0  0
    3.9342   -6.2626    6.9173 H   0  0  0  0  0  0  0  0  0  0  0  0
    3.9547   -4.5377    5.2887 H   0  0  0  0  0  0  0  0  0  0  0  0
    2.3235   -5.1150    5.3034 H   0  0  0  0  0  0  0  0  0  0  0  0
    2.9868   -4.7722    3.8702 H   0  0  0  0  0  0  0  0  0  0  0  0
  1  2  2  0
  1 35  1  0
  1 36  1  0
  2 13  1  0
  2  3  1  0
  3  4  1  0
  3 37  1  0
  3 38  1  0
  4  5  1  0
  4 39  1  0
  4 40  1  0
  6  5  1  6
  6 26  1  0
  6 33  1  0
  6  7  1  0
  7  8  1  0
  7 10  1  0
  7 41  1  1
  8  9  2  0
  8 42  1  0
 10 19  1  0
 10 11  1  0
 10 43  1  6
 11 12  1  0
 11 13  1  0
 11 44  1  1
 12 45  1  0
 13 14  1  1
 13 15  1  0
 14 46  1  0
 15 33  1  0
 15 16  1  0
 15 47  1  1
 16 17  1  0
 16 48  1  0
 16 49  1  0
 17 18  2  0
 17 19  1  0
 19 20  1  6
 19 21  1  0
 20 50  1  0
 20 51  1  0
 20 52  1  0
 22 21  1  6
 22 28  1  0
 22 30  1  0
 22 23  1  0
 23 24  2  0
 23 53  1  0
 24 25  1  0
 24 54  1  0
 25 26  1  0
 25 55  1  0
 25 56  1  0
 26 27  1  1
 26 28  1  0
 27 57  1  0
 28 29  1  1
 28 30  1  0
 29 58  1  0
 29 59  1  0
 29 60  1  0
 30 31  1  0
 30 61  1  1
 31 32  1  0
 31 62  1  0
 31 63  1  0
 32 33  1  0
 32 64  1  0
 32 65  1  0
 33 34  1  6
 34 66  1  0
 34 67  1  0
 34 68  1  0
M  END
>  <i_m_ct_stereo_status>  (269) 
1

>  <s_m_source_file>  (269) 
/var/tmp/pbs.5076255.sched01/tmp548j1hfo/88g9dmtei7.sdf

>  <i_m_source_file_index>  (269) 
29

>  <i_lp_mmshare_version>  (269) 
48012

>  <i_f3d_flags>  (269) 
0

>  <s_epik_input>  (269) 
Tz1bQ0hdW0NASF0xW0NASF0oW0NAQF0oTzIpKFtDSDNdKUMoPU8pW0NIMl0zKVtDQEBIXShbT0hdKVtDQEBdKFtPSF0pKEMoPVtDSDJdKVtDSDJdW0NIMl1PNClbQ0BIXTNbQ0BdNShbQ0gzXSlbQ0gyXVtDSDJdW0NAQEhdNltDQEBdMihbQ0hdPVtDSF1bQ0gyXTcpW0NAXTYoW0NIM10pW0NAXTcoW0NAQF0xNDUpW09IXQ==

>  <s_epik_cmdline>  (269) 
J2VwaWtfcHl0aG9uJywgJy1waHQnLCAnMi4wJywgJy1waCcsICc3LjAnLCAnLXRuJywgJzgnLCAnLW1hJywgJzIwMCcsICctaW1hZScsICc8aW5maWxlLm1hZT4nLCAnLW9tYWUnLCAnPG91dGZpbGUubWFlPic=

>  <r_lp_tautomer_probability>  (269) 
1

>  <r_epik_Ionization_Penalty>  (269) 
3.42801e-06

>  <r_epik_Ionization_Penalty_Charging>  (269) 
0

>  <r_epik_Ionization_Penalty_Neutral>  (269) 
3.42801e-06

>  <r_epik_State_Penalty>  (269) 
-0

>  <r_epik_Charging_Adjusted_Penalty>  (269) 
0

>  <i_epik_Tot_Q>  (269) 
0

>  <i_epik_Tot_abs_Q>  (269) 
0

>  <s_lp_Force_Field>  (269) 
OPLS3e

>  <r_lp_Energy>  (269) 
232.281

>  <b_lp_Chiralities_Consistent>  (269) 
1

>  <s_lp_Variant>  (269) 
74:0-1

>  <s_i_glide_gridfile>  (269) 
pfpi4k_grid

>  <i_i_glide_lignum>  (269) 
29

>  <i_i_glide_rotatable_bonds>  (269) 
4

>  <r_i_docking_score>  (269) 
-2.40775

>  <r_i_glide_ligand_efficiency>  (269) 
-0.0708162

>  <r_i_glide_ligand_efficiency_sa>  (269) 
-0.229417

>  <r_i_glide_ligand_efficiency_ln>  (269) 
-0.53194

>  <r_i_glide_gscore>  (269) 
-2.40775

>  <r_i_glide_lipo>  (269) 
-0.34976

>  <r_i_glide_hbond>  (269) 
0

>  <r_i_glide_metal>  (269) 
-0

>  <r_i_glide_rewards>  (269) 
-0.200764

>  <r_i_glide_evdw>  (269) 
-26.5034

>  <r_i_glide_ecoul>  (269) 
-3.21913

>  <r_i_glide_erotb>  (269) 
0

>  <r_i_glide_esite>  (269) 
-0.0491886

>  <r_i_glide_emodel>  (269) 
-33.599

>  <r_i_glide_energy>  (269) 
-29.7225

>  <r_i_glide_einternal>  (269) 
1.23246

>  <r_i_glide_intrahb_reward>  (269) 
-0

>  <i_i_glide_confnum>  (269) 
1

>  <i_i_glide_posenum>  (269) 
28

>  <r_i_glide_eff_state_penalty>  (269) 
0

>  <ligand_id>  (269) 
74

>  <original_smiles>  (269) 
C=C1CCOC23C(C=O)C4C(O)C1(O)C1CC(=O)C4(C)OC45C=CCC2(O)C4(C)C5CCC13C

>  <smiles>  (269) 
[H]OC1([H])C2(O[H])C(=C([H])[H])C([H])([H])C([H])([H])OC34C([H])(C([H])=O)C1([H])C1(C([H])([H])[H])OC56C([H])=C([H])C([H])([H])C3(O[H])C5(C([H])([H])[H])C6([H])C([H])([H])C([H])([H])C4(C([H])([H])[H])C2([H])C([H])([H])C1=O

$$$$
74:0:2
     RDKit          3D

 68 74  0  0  1  0  0  0  0  0999 V2000
    5.6556   -2.4932   -0.6731 C   0  0  0  0  0  0  0  0  0  0  0  0
    4.8157   -2.8415    0.3295 C   0  0  0  0  0  0  0  0  0  0  0  0
    3.3576   -2.6376    0.0841 C   0  0  0  0  0  0  0  0  0  0  0  0
    2.5467   -3.9288   -0.1749 C   0  0  0  0  0  0  0  0  0  0  0  0
    2.1634   -4.8799    0.8542 O   0  0  0  0  0  0  0  0  0  0  0  0
    2.8534   -5.2899    2.0688 C   0  0  2  0  0  0  0  0  0  0  0  0
    4.2234   -5.9681    1.5805 C   0  0  1  0  0  0  0  0  0  0  0  0
    4.4326   -6.3788    0.1065 C   0  0  0  0  0  0  0  0  0  0  0  0
    5.0161   -5.6876   -0.7091 O   0  0  0  0  0  0  0  0  0  0  0  0
    5.5646   -5.7292    2.2650 C   0  0  1  0  0  0  0  0  0  0  0  0
    6.2600   -4.4429    1.7875 C   0  0  1  0  0  0  0  0  0  0  0  0
    7.1574   -4.6644    0.7128 O   0  0  0  0  0  0  0  0  0  0  0  0
    5.3209   -3.2018    1.7425 C   0  0  1  0  0  0  0  0  0  0  0  0
    6.1689   -2.1171    2.0593 O   0  0  0  0  0  0  0  0  0  0  0  0
    4.3250   -3.2189    2.9996 C   0  0  2  0  0  0  0  0  0  0  0  0
    5.1339   -3.3959    4.3153 C   0  0  0  0  0  0  0  0  0  0  0  0
    5.7990   -4.7392    4.6776 C   0  0  0  0  0  0  0  0  0  0  0  0
    6.4326   -4.7795    5.7260 O   0  0  0  0  0  0  0  0  0  0  0  0
    5.6535   -6.0223    3.8056 C   0  0  2  0  0  0  0  0  0  0  0  0
    6.9760   -6.8156    4.0178 C   0  0  0  0  0  0  0  0  0  0  0  0
    4.7400   -6.9456    4.4692 O   0  0  0  0  0  0  0  0  0  0  0  0
    3.4542   -7.4299    4.0275 C   0  0  2  0  0  0  0  0  0  0  0  0
    3.4570   -8.7609    3.3769 C   0  0  0  0  0  0  0  0  0  0  0  0
    2.7088   -8.8818    2.2354 C   0  0  0  0  0  0  0  0  0  0  0  0
    1.8093   -7.7267    1.7140 C   0  0  0  0  0  0  0  0  0  0  0  0
    1.8234   -6.4335    2.5903 C   0  0  2  0  0  0  0  0  0  0  0  0
    0.5320   -5.8611    2.5598 O   0  0  0  0  0  0  0  0  0  0  0  0
    1.9895   -6.9553    4.0296 C   0  0  1  0  0  0  0  0  0  0  0  0
    0.7891   -7.8384    4.4553 C   0  0  0  0  0  0  0  0  0  0  0  0
    2.8157   -6.7009    5.2040 C   0  0  2  0  0  0  0  0  0  0  0  0
    2.8935   -5.2548    5.6183 C   0  0  0  0  0  0  0  0  0  0  0  0
    2.4121   -4.2315    4.5727 C   0  0  0  0  0  0  0  0  0  0  0  0
    2.9358   -4.0146    3.0709 C   0  0  2  0  0  0  0  0  0  0  0  0
    1.7991   -2.9594    2.7712 C   0  0  0  0  0  0  0  0  0  0  0  0
    6.7245   -2.5054   -0.5582 H   0  0  0  0  0  0  0  0  0  0  0  0
    5.2750   -2.1873   -1.6377 H   0  0  0  0  0  0  0  0  0  0  0  0
    2.9989   -1.9025    0.7969 H   0  0  0  0  0  0  0  0  0  0  0  0
    3.2450   -2.0685   -0.8395 H   0  0  0  0  0  0  0  0  0  0  0  0
    1.5828   -3.5736   -0.5331 H   0  0  0  0  0  0  0  0  0  0  0  0
    2.8737   -4.4164   -1.0880 H   0  0  0  0  0  0  0  0  0  0  0  0
    4.1268   -6.9902    1.8599 H   0  0  0  0  0  0  0  0  0  0  0  0
    4.1068   -7.3877   -0.1516 H   0  0  0  0  0  0  0  0  0  0  0  0
    6.1887   -6.5123    1.8375 H   0  0  0  0  0  0  0  0  0  0  0  0
    7.0268   -4.2574    2.4808 H   0  0  0  0  0  0  0  0  0  0  0  0
    7.5544   -3.8414    0.4997 H   0  0  0  0  0  0  0  0  0  0  0  0
    5.6553   -1.3354    2.1179 H   0  0  0  0  0  0  0  0  0  0  0  0
    4.0366   -2.1727    3.0739 H   0  0  0  0  0  0  0  0  0  0  0  0
    5.9338   -2.6665    4.3319 H   0  0  0  0  0  0  0  0  0  0  0  0
    4.5415   -3.0855    5.1702 H   0  0  0  0  0  0  0  0  0  0  0  0
    7.8424   -6.2556    3.6635 H   0  0  0  0  0  0  0  0  0  0  0  0
    6.9642   -7.7717    3.4907 H   0  0  0  0  0  0  0  0  0  0  0  0
    7.1556   -7.0547    5.0691 H   0  0  0  0  0  0  0  0  0  0  0  0
    4.0290   -9.5684    3.8010 H   0  0  0  0  0  0  0  0  0  0  0  0
    2.6605   -9.8050    1.6840 H   0  0  0  0  0  0  0  0  0  0  0  0
    2.0570   -7.4272    0.7135 H   0  0  0  0  0  0  0  0  0  0  0  0
    0.8016   -8.1297    1.6184 H   0  0  0  0  0  0  0  0  0  0  0  0
    0.5501   -5.1834    3.2091 H   0  0  0  0  0  0  0  0  0  0  0  0
    0.0481   -7.2465    4.9985 H   0  0  0  0  0  0  0  0  0  0  0  0
    1.1199   -8.6528    5.1090 H   0  0  0  0  0  0  0  0  0  0  0  0
    0.2699   -8.3232    3.6288 H   0  0  0  0  0  0  0  0  0  0  0  0
    2.6602   -7.3418    6.0687 H   0  0  0  0  0  0  0  0  0  0  0  0
    2.1886   -5.1592    6.4429 H   0  0  0  0  0  0  0  0  0  0  0  0
    3.8206   -5.0556    6.1312 H   0  0  0  0  0  0  0  0  0  0  0  0
    1.3479   -4.4616    4.5797 H   0  0  0  0  0  0  0  0  0  0  0  0
    2.4483   -3.2646    5.0815 H   0  0  0  0  0  0  0  0  0  0  0  0
    1.9895   -1.9628    3.1751 H   0  0  0  0  0  0  0  0  0  0  0  0
    0.8013   -3.2202    3.1244 H   0  0  0  0  0  0  0  0  0  0  0  0
    1.5575   -2.8072    1.7446 H   0  0  0  0  0  0  0  0  0  0  0  0
  1  2  2  0
  1 35  1  0
  1 36  1  0
  2 13  1  0
  2  3  1  0
  3  4  1  0
  3 37  1  0
  3 38  1  0
  4  5  1  0
  4 39  1  0
  4 40  1  0
  6  5  1  6
  6 26  1  0
  6 33  1  0
  6  7  1  0
  7  8  1  0
  7 10  1  0
  7 41  1  1
  8  9  2  0
  8 42  1  0
 10 19  1  0
 10 11  1  0
 10 43  1  6
 11 12  1  0
 11 13  1  0
 11 44  1  1
 12 45  1  0
 13 14  1  1
 13 15  1  0
 14 46  1  0
 15 33  1  0
 15 16  1  0
 15 47  1  1
 16 17  1  0
 16 48  1  0
 16 49  1  0
 17 18  2  0
 17 19  1  0
 19 20  1  6
 19 21  1  0
 20 50  1  0
 20 51  1  0
 20 52  1  0
 22 21  1  6
 22 28  1  0
 22 30  1  0
 22 23  1  0
 23 24  2  0
 23 53  1  0
 24 25  1  0
 24 54  1  0
 25 26  1  0
 25 55  1  0
 25 56  1  0
 26 27  1  1
 26 28  1  0
 27 57  1  0
 28 29  1  1
 28 30  1  0
 29 58  1  0
 29 59  1  0
 29 60  1  0
 30 31  1  0
 30 61  1  1
 31 32  1  0
 31 62  1  0
 31 63  1  0
 32 33  1  0
 32 64  1  0
 32 65  1  0
 33 34  1  6
 34 66  1  0
 34 67  1  0
 34 68  1  0
M  END
>  <i_m_ct_stereo_status>  (270) 
1

>  <s_m_source_file>  (270) 
/var/tmp/pbs.5076255.sched01/tmp548j1hfo/88g9dmtei7.sdf

>  <i_m_source_file_index>  (270) 
29

>  <i_lp_mmshare_version>  (270) 
48012

>  <i_f3d_flags>  (270) 
0

>  <s_epik_input>  (270) 
Tz1bQ0hdW0NASF0xW0NASF0oW0NAQF0oTzIpKFtDSDNdKUMoPU8pW0NIMl0zKVtDQEBIXShbT0hdKVtDQEBdKFtPSF0pKEMoPVtDSDJdKVtDSDJdW0NIMl1PNClbQ0BIXTNbQ0BdNShbQ0gzXSlbQ0gyXVtDSDJdW0NAQEhdNltDQEBdMihbQ0hdPVtDSF1bQ0gyXTcpW0NAXTYoW0NIM10pW0NAXTcoW0NAQF0xNDUpW09IXQ==

>  <s_epik_cmdline>  (270) 
J2VwaWtfcHl0aG9uJywgJy1waHQnLCAnMi4wJywgJy1waCcsICc3LjAnLCAnLXRuJywgJzgnLCAnLW1hJywgJzIwMCcsICctaW1hZScsICc8aW5maWxlLm1hZT4nLCAnLW9tYWUnLCAnPG91dGZpbGUubWFlPic=

>  <r_lp_tautomer_probability>  (270) 
1

>  <r_epik_Ionization_Penalty>  (270) 
3.42801e-06

>  <r_epik_Ionization_Penalty_Charging>  (270) 
0

>  <r_epik_Ionization_Penalty_Neutral>  (270) 
3.42801e-06

>  <r_epik_State_Penalty>  (270) 
-0

>  <r_epik_Charging_Adjusted_Penalty>  (270) 
0

>  <i_epik_Tot_Q>  (270) 
0

>  <i_epik_Tot_abs_Q>  (270) 
0

>  <s_lp_Force_Field>  (270) 
OPLS3e

>  <r_lp_Energy>  (270) 
232.281

>  <b_lp_Chiralities_Consistent>  (270) 
1

>  <s_lp_Variant>  (270) 
74:0-1

>  <s_i_glide_gridfile>  (270) 
pfpi4k_grid

>  <i_i_glide_lignum>  (270) 
29

>  <i_i_glide_rotatable_bonds>  (270) 
4

>  <r_i_docking_score>  (270) 
-2.01308

>  <r_i_glide_ligand_efficiency>  (270) 
-0.0592084

>  <r_i_glide_ligand_efficiency_sa>  (270) 
-0.191812

>  <r_i_glide_ligand_efficiency_ln>  (270) 
-0.444747

>  <r_i_glide_gscore>  (270) 
-2.01308

>  <r_i_glide_lipo>  (270) 
-0.233118

>  <r_i_glide_hbond>  (270) 
-0.0263348

>  <r_i_glide_metal>  (270) 
-0

>  <r_i_glide_rewards>  (270) 
-0.312514

>  <r_i_glide_evdw>  (270) 
-16.3833

>  <r_i_glide_ecoul>  (270) 
-4.14635

>  <r_i_glide_erotb>  (270) 
0

>  <r_i_glide_esite>  (270) 
0

>  <r_i_glide_emodel>  (270) 
-22.7824

>  <r_i_glide_energy>  (270) 
-20.5296

>  <r_i_glide_einternal>  (270) 
1.12665

>  <r_i_glide_intrahb_reward>  (270) 
-0

>  <i_i_glide_confnum>  (270) 
1

>  <i_i_glide_posenum>  (270) 
1

>  <r_i_glide_eff_state_penalty>  (270) 
0

>  <ligand_id>  (270) 
74

>  <original_smiles>  (270) 
C=C1CCOC23C(C=O)C4C(O)C1(O)C1CC(=O)C4(C)OC45C=CCC2(O)C4(C)C5CCC13C

>  <smiles>  (270) 
[H]OC1([H])C2(O[H])C(=C([H])[H])C([H])([H])C([H])([H])OC34C([H])(C([H])=O)C1([H])C1(C([H])([H])[H])OC56C([H])=C([H])C([H])([H])C3(O[H])C5(C([H])([H])[H])C6([H])C([H])([H])C([H])([H])C4(C([H])([H])[H])C2([H])C([H])([H])C1=O

$$$$
75:0:0
     RDKit          3D

 68 76  0  0  1  0  0  0  0  0999 V2000
    9.1578   -6.2582    4.3230 O   0  0  0  0  0  0  0  0  0  0  0  0
    8.2398   -7.2244    4.0231 C   0  0  0  0  0  0  0  0  0  0  0  0
    8.5651   -8.5983    4.1797 C   0  0  0  0  0  0  0  0  0  0  0  0
    7.5543   -9.5897    4.1099 C   0  0  0  0  0  0  0  0  0  0  0  0
    6.2642   -9.1799    3.7219 C   0  0  0  0  0  0  0  0  0  0  0  0
    6.0744   -7.8785    3.3073 C   0  0  0  0  0  0  0  0  0  0  0  0
    6.9288   -6.8586    3.6414 C   0  0  0  0  0  0  0  0  0  0  0  0
    6.2932   -5.6779    3.7793 O   0  0  0  0  0  0  0  0  0  0  0  0
    4.9144   -5.8694    3.3748 C   0  0  1  0  0  0  0  0  0  0  0  0
    4.8852   -4.9108    2.2107 C   0  0  0  0  0  0  0  0  0  0  0  0
    5.0473   -5.2769    0.9004 C   0  0  0  0  0  0  0  0  0  0  0  0
    5.0753   -4.0746    0.1221 C   0  0  0  0  0  0  0  0  0  0  0  0
    5.1831   -3.7757   -1.2625 C   0  0  0  0  0  0  0  0  0  0  0  0
    5.1498   -2.4393   -1.7239 C   0  0  0  0  0  0  0  0  0  0  0  0
    5.0435   -1.3805   -0.7993 C   0  0  0  0  0  0  0  0  0  0  0  0
    5.0127   -1.6550    0.5764 C   0  0  0  0  0  0  0  0  0  0  0  0
    4.9724   -2.9787    1.0337 C   0  0  0  0  0  0  0  0  0  0  0  0
    4.8299   -3.5190    2.3095 N   0  0  0  0  0  0  0  0  0  0  0  0
    4.6614   -2.7432    3.5373 C   0  0  0  0  0  0  0  0  0  0  0  0
    3.2184   -2.3210    3.7750 C   0  0  0  0  0  0  0  0  0  0  0  0
    2.3431   -3.0668    4.6364 C   0  0  0  0  0  0  0  0  0  0  0  0
    1.0815   -2.5308    4.7421 C   0  0  0  0  0  0  0  0  0  0  0  0
    0.9016   -1.0980    3.7907 S   0  0  0  0  0  0  0  0  0  0  0  0
    2.5584   -1.2020    3.2859 C   0  0  0  0  0  0  0  0  0  0  0  0
    3.0825    0.1179    2.3123 Cl  0  0  0  0  0  0  0  0  0  0  0  0
    5.0971   -6.7123    0.4854 C   0  0  0  0  0  0  0  0  0  0  0  0
    4.2149   -7.5188    1.4603 C   0  0  1  0  0  0  0  0  0  0  0  0
    2.9147   -6.9288    1.3148 O   0  0  0  0  0  0  0  0  0  0  0  0
    3.9808   -8.9860    1.0619 C   0  0  0  0  0  0  0  0  0  0  0  0
    2.7965   -9.5875    1.8826 C   0  0  0  0  0  0  0  0  0  0  0  0
    2.6284   -8.9377    3.2273 N   0  0  1  0  0  0  0  0  0  0  0  0
    1.7619   -9.7161    4.1531 C   0  0  0  0  0  0  0  0  0  0  0  0
    1.1557   -8.8685    5.2659 C   0  0  0  0  0  0  0  0  0  0  0  0
    0.2024   -9.4936    6.2564 C   0  0  0  0  0  0  0  0  0  0  0  0
   -0.3102   -8.4990    5.2471 C   0  0  0  0  0  0  0  0  0  0  0  0
    3.9259   -8.4875    3.8176 C   0  0  1  0  0  0  0  0  0  0  0  0
    4.8965   -9.7123    4.0086 C   0  0  0  0  0  0  0  0  0  0  0  0
    4.6924   -7.4046    2.9683 C   0  0  1  0  0  0  0  0  0  0  0  0
    8.8892   -5.3842    4.0837 H   0  0  0  0  0  0  0  0  0  0  0  0
    9.5585   -8.8707    4.4767 H   0  0  0  0  0  0  0  0  0  0  0  0
    7.7486  -10.5993    4.4409 H   0  0  0  0  0  0  0  0  0  0  0  0
    4.2141   -5.5653    4.1577 H   0  0  0  0  0  0  0  0  0  0  0  0
    5.2957   -4.5879   -1.9728 H   0  0  0  0  0  0  0  0  0  0  0  0
    5.2333   -2.2290   -2.7809 H   0  0  0  0  0  0  0  0  0  0  0  0
    4.9980   -0.3607   -1.1381 H   0  0  0  0  0  0  0  0  0  0  0  0
    5.0107   -0.8376    1.2837 H   0  0  0  0  0  0  0  0  0  0  0  0
    5.0332   -3.3356    4.3788 H   0  0  0  0  0  0  0  0  0  0  0  0
    5.3269   -1.8833    3.4984 H   0  0  0  0  0  0  0  0  0  0  0  0
    2.6481   -3.9568    5.1750 H   0  0  0  0  0  0  0  0  0  0  0  0
    0.2309   -2.8583    5.3188 H   0  0  0  0  0  0  0  0  0  0  0  0
    4.7374   -6.8097   -0.5397 H   0  0  0  0  0  0  0  0  0  0  0  0
    6.1276   -7.0700    0.5124 H   0  0  0  0  0  0  0  0  0  0  0  0
    2.7165   -6.8690    0.3948 H   0  0  0  0  0  0  0  0  0  0  0  0
    3.8019   -9.0872   -0.0063 H   0  0  0  0  0  0  0  0  0  0  0  0
    4.8932   -9.5597    1.2310 H   0  0  0  0  0  0  0  0  0  0  0  0
    1.8622   -9.4630    1.3256 H   0  0  0  0  0  0  0  0  0  0  0  0
    2.9379  -10.6676    1.9845 H   0  0  0  0  0  0  0  0  0  0  0  0
    0.9450  -10.1840    3.5909 H   0  0  0  0  0  0  0  0  0  0  0  0
    2.3322  -10.5432    4.5932 H   0  0  0  0  0  0  0  0  0  0  0  0
    1.8291   -8.1351    5.7105 H   0  0  0  0  0  0  0  0  0  0  0  0
   -0.0653  -10.5411    6.1199 H   0  0  0  0  0  0  0  0  0  0  0  0
    0.2617   -9.1641    7.2895 H   0  0  0  0  0  0  0  0  0  0  0  0
   -0.5729   -7.5076    5.6092 H   0  0  0  0  0  0  0  0  0  0  0  0
   -0.9207   -8.8790    4.4267 H   0  0  0  0  0  0  0  0  0  0  0  0
    3.7576   -8.0208    4.7897 H   0  0  0  0  0  0  0  0  0  0  0  0
    4.7012  -10.5545    3.3446 H   0  0  0  0  0  0  0  0  0  0  0  0
    4.8187  -10.0838    5.0320 H   0  0  0  0  0  0  0  0  0  0  0  0
    2.1167   -8.0791    3.0066 H   0  0  0  0  0  0  0  0  0  0  0  0
  1  2  1  0
  1 39  1  0
  2  7  2  0
  2  3  1  0
  3  4  2  0
  3 40  1  0
  4  5  1  0
  4 41  1  0
  5 37  1  0
  5  6  2  0
 38  6  1  6
  6  7  1  0
  7  8  1  0
  8  9  1  0
  9 38  1  0
  9 10  1  0
  9 42  1  1
 10 18  1  0
 10 11  2  0
 11 12  1  0
 11 26  1  0
 12 17  2  0
 12 13  1  0
 13 14  2  0
 13 43  1  0
 14 15  1  0
 14 44  1  0
 15 16  2  0
 15 45  1  0
 16 17  1  0
 16 46  1  0
 17 18  1  0
 18 19  1  0
 19 20  1  0
 19 47  1  0
 19 48  1  0
 20 24  2  0
 20 21  1  0
 21 22  2  0
 21 49  1  0
 22 23  1  0
 22 50  1  0
 23 24  1  0
 24 25  1  0
 26 27  1  0
 26 51  1  0
 26 52  1  0
 27 38  1  0
 27 28  1  1
 27 29  1  0
 28 53  1  0
 29 30  1  0
 29 54  1  0
 29 55  1  0
 30 31  1  0
 30 56  1  0
 30 57  1  0
 31 32  1  0
 31 36  1  0
 31 68  1  6
 32 33  1  0
 32 58  1  0
 32 59  1  0
 33 35  1  0
 33 34  1  0
 33 60  1  0
 34 35  1  0
 34 61  1  0
 34 62  1  0
 35 63  1  0
 35 64  1  0
 36 37  1  0
 36 38  1  0
 36 65  1  1
 37 66  1  0
 37 67  1  0
M  CHG  1  31   1
M  END
>  <i_m_ct_stereo_status>  (271) 
1

>  <s_m_source_file>  (271) 
/var/tmp/pbs.5076255.sched01/tmp548j1hfo/88g9dmtei7.sdf

>  <i_m_source_file_index>  (271) 
30

>  <i_lp_mmshare_version>  (271) 
48012

>  <i_f3d_flags>  (271) 
0

>  <s_epik_input>  (271) 
W0NAXTEyM2M0YzVbY0hdW2NIXWMoW09IXSljNE9bQ0BIXTFjNmMoYzdjKFtjSF1bY0hdW2NIXVtjSF03KW42W0NIMl1jOFtjSF1bY0hdc2M4Q2wpW0NIMl1bQ0BAXTIoW09IXSlbQ0gyXVtDSDJdTihbQ0BIXTNbQ0gyXTUpW0NIMl1bQ0hdOVtDSDJdW0NIMl05

>  <s_epik_cmdline>  (271) 
J2VwaWtfcHl0aG9uJywgJy1waHQnLCAnMi4wJywgJy1waCcsICc3LjAnLCAnLXRuJywgJzgnLCAnLW1hJywgJzIwMCcsICctaW1hZScsICc8aW5maWxlLm1hZT4nLCAnLW9tYWUnLCAnPG91dGZpbGUubWFlPic=

>  <r_lp_tautomer_probability>  (271) 
1

>  <r_epik_Ionization_Penalty>  (271) 
0.0265341

>  <r_epik_Ionization_Penalty_Charging>  (271) 
0.00840723

>  <r_epik_Ionization_Penalty_Neutral>  (271) 
0.0181269

>  <r_epik_State_Penalty>  (271) 
0.0205876

>  <r_epik_Charging_Adjusted_Penalty>  (271) 
0.0289948

>  <i_epik_Tot_Q>  (271) 
1

>  <i_epik_Tot_abs_Q>  (271) 
1

>  <s_lp_Force_Field>  (271) 
OPLS3e

>  <r_lp_Energy>  (271) 
100.082

>  <b_lp_Chiralities_Consistent>  (271) 
1

>  <s_lp_Variant>  (271) 
75:0-1

>  <s_i_glide_gridfile>  (271) 
pfpi4k_grid

>  <i_i_glide_lignum>  (271) 
30

>  <i_i_glide_rotatable_bonds>  (271) 
6

>  <r_i_docking_score>  (271) 
-2.25756

>  <r_i_glide_ligand_efficiency>  (271) 
-0.0594094

>  <r_i_glide_ligand_efficiency_sa>  (271) 
-0.199733

>  <r_i_glide_ligand_efficiency_ln>  (271) 
-0.486795

>  <r_i_glide_gscore>  (271) 
-2.25756

>  <r_i_glide_lipo>  (271) 
-0.488793

>  <r_i_glide_hbond>  (271) 
0

>  <r_i_glide_metal>  (271) 
-0

>  <r_i_glide_rewards>  (271) 
-0.044529

>  <r_i_glide_evdw>  (271) 
-32.1504

>  <r_i_glide_ecoul>  (271) 
-2.58707

>  <r_i_glide_erotb>  (271) 
0.27775

>  <r_i_glide_esite>  (271) 
-0.00640497

>  <r_i_glide_emodel>  (271) 
-39.2276

>  <r_i_glide_energy>  (271) 
-34.7374

>  <r_i_glide_einternal>  (271) 
1.18291

>  <r_i_glide_intrahb_reward>  (271) 
-0

>  <i_i_glide_confnum>  (271) 
5

>  <i_i_glide_posenum>  (271) 
36

>  <r_i_glide_eff_state_penalty>  (271) 
0

>  <ligand_id>  (271) 
75

>  <original_smiles>  (271) 
Oc1ccc2c3c1OC1c4c(c5ccccc5n4Cc4ccsc4Cl)CC4(O)CCN(CC5CC5)C(C2)C314

>  <smiles>  (271) 
[H]Oc1c([H])c([H])c2c3c1OC1([H])c4c(c5c([H])c([H])c([H])c([H])c5n4C([H])([H])c4c(Cl)sc([H])c4[H])C([H])([H])C4(O[H])C([H])([H])C([H])([H])[N+]([H])(C([H])([H])C5([H])C([H])([H])C5([H])[H])C([H])(C2([H])[H])C314

$$$$
75:0:1
     RDKit          3D

 68 76  0  0  1  0  0  0  0  0999 V2000
    9.1602   -6.2655    4.2463 O   0  0  0  0  0  0  0  0  0  0  0  0
    8.2674   -7.2595    3.9699 C   0  0  0  0  0  0  0  0  0  0  0  0
    8.6560   -8.6188    4.0968 C   0  0  0  0  0  0  0  0  0  0  0  0
    7.6830   -9.6509    4.0529 C   0  0  0  0  0  0  0  0  0  0  0  0
    6.3662   -9.2982    3.7028 C   0  0  0  0  0  0  0  0  0  0  0  0
    6.1115   -7.9945    3.3210 C   0  0  0  0  0  0  0  0  0  0  0  0
    6.9371   -6.9421    3.6295 C   0  0  0  0  0  0  0  0  0  0  0  0
    6.2585   -5.7813    3.7977 O   0  0  0  0  0  0  0  0  0  0  0  0
    4.8842   -6.0348    3.4426 C   0  0  1  0  0  0  0  0  0  0  0  0
    4.7695   -5.0616    2.2976 C   0  0  0  0  0  0  0  0  0  0  0  0
    4.8977   -5.4033    0.9799 C   0  0  0  0  0  0  0  0  0  0  0  0
    4.8526   -4.1891    0.2202 C   0  0  0  0  0  0  0  0  0  0  0  0
    4.9108   -3.8647   -1.1550 C   0  0  0  0  0  0  0  0  0  0  0  0
    4.8105   -2.5283   -1.5991 C   0  0  0  0  0  0  0  0  0  0  0  0
    4.6615   -1.4851   -0.6681 C   0  0  0  0  0  0  0  0  0  0  0  0
    4.6297   -1.7805    0.7029 C   0  0  0  0  0  0  0  0  0  0  0  0
    4.7025   -3.1170    1.1453 C   0  0  0  0  0  0  0  0  0  0  0  0
    4.6495   -3.6776    2.4180 N   0  0  0  0  0  0  0  0  0  0  0  0
    4.5060   -2.9421    3.6692 C   0  0  0  0  0  0  0  0  0  0  0  0
    3.0717   -2.9045    4.1366 C   0  0  0  0  0  0  0  0  0  0  0  0
    2.5453   -3.7860    5.1377 C   0  0  0  0  0  0  0  0  0  0  0  0
    1.2196   -3.5756    5.4144 C   0  0  0  0  0  0  0  0  0  0  0  0
    0.5655   -2.2644    4.4839 S   0  0  0  0  0  0  0  0  0  0  0  0
    2.1004   -2.0274    3.7112 C   0  0  0  0  0  0  0  0  0  0  0  0
    2.1732   -0.7387    2.5759 Cl  0  0  0  0  0  0  0  0  0  0  0  0
    4.9870   -6.8325    0.5442 C   0  0  0  0  0  0  0  0  0  0  0  0
    4.1770   -7.6851    1.5457 C   0  0  1  0  0  0  0  0  0  0  0  0
    2.8584   -7.1322    1.4768 O   0  0  0  0  0  0  0  0  0  0  0  0
    3.9714   -9.1584    1.1404 C   0  0  0  0  0  0  0  0  0  0  0  0
    2.8520   -9.8196    1.9978 C   0  0  0  0  0  0  0  0  0  0  0  0
    2.7058   -9.1902    3.3496 N   0  0  1  0  0  0  0  0  0  0  0  0
    1.9081  -10.0158    4.2968 C   0  0  0  0  0  0  0  0  0  0  0  0
    1.2737   -9.1896    5.4058 C   0  0  0  0  0  0  0  0  0  0  0  0
    0.2249   -9.8085    6.3047 C   0  0  0  0  0  0  0  0  0  0  0  0
   -0.1703   -8.7438    5.3152 C   0  0  0  0  0  0  0  0  0  0  0  0
    4.0060   -8.6911    3.8963 C   0  0  1  0  0  0  0  0  0  0  0  0
    5.0236   -9.8772    4.0378 C   0  0  0  0  0  0  0  0  0  0  0  0
    4.7062   -7.5721    3.0313 C   0  0  1  0  0  0  0  0  0  0  0  0
    8.8392   -5.3976    4.0534 H   0  0  0  0  0  0  0  0  0  0  0  0
    9.6702   -8.8529    4.3584 H   0  0  0  0  0  0  0  0  0  0  0  0
    7.9278  -10.6555    4.3655 H   0  0  0  0  0  0  0  0  0  0  0  0
    4.2050   -5.7816    4.2528 H   0  0  0  0  0  0  0  0  0  0  0  0
    5.0118   -4.6592   -1.8759 H   0  0  0  0  0  0  0  0  0  0  0  0
    4.8395   -2.3071   -2.6554 H   0  0  0  0  0  0  0  0  0  0  0  0
    4.5611   -0.4582   -0.9963 H   0  0  0  0  0  0  0  0  0  0  0  0
    4.5251   -0.9801    1.4119 H   0  0  0  0  0  0  0  0  0  0  0  0
    5.1476   -3.4006    4.4245 H   0  0  0  0  0  0  0  0  0  0  0  0
    4.8983   -1.9352    3.5303 H   0  0  0  0  0  0  0  0  0  0  0  0
    3.1421   -4.5382    5.6335 H   0  0  0  0  0  0  0  0  0  0  0  0
    0.5893   -4.0947    6.1203 H   0  0  0  0  0  0  0  0  0  0  0  0
    4.6032   -6.9448   -0.4696 H   0  0  0  0  0  0  0  0  0  0  0  0
    6.0270   -7.1563    0.5350 H   0  0  0  0  0  0  0  0  0  0  0  0
    2.9289   -6.2009    1.6301 H   0  0  0  0  0  0  0  0  0  0  0  0
    3.7283   -9.2539    0.0821 H   0  0  0  0  0  0  0  0  0  0  0  0
    4.9145   -9.6977    1.2616 H   0  0  0  0  0  0  0  0  0  0  0  0
    1.8985   -9.7252    1.4741 H   0  0  0  0  0  0  0  0  0  0  0  0
    3.0389  -10.8903    2.0820 H   0  0  0  0  0  0  0  0  0  0  0  0
    1.1105  -10.5260    3.7560 H   0  0  0  0  0  0  0  0  0  0  0  0
    2.5253  -10.8000    4.7353 H   0  0  0  0  0  0  0  0  0  0  0  0
    1.9521   -8.5168    5.9304 H   0  0  0  0  0  0  0  0  0  0  0  0
   -0.0794  -10.8342    6.1013 H   0  0  0  0  0  0  0  0  0  0  0  0
    0.2364   -9.5327    7.3574 H   0  0  0  0  0  0  0  0  0  0  0  0
   -0.4073   -7.7549    5.7043 H   0  0  0  0  0  0  0  0  0  0  0  0
   -0.7467   -9.0556    4.4453 H   0  0  0  0  0  0  0  0  0  0  0  0
    3.8553   -8.2465    4.8807 H   0  0  0  0  0  0  0  0  0  0  0  0
    4.8440  -10.7245    3.3749 H   0  0  0  0  0  0  0  0  0  0  0  0
    5.0130  -10.2611    5.0578 H   0  0  0  0  0  0  0  0  0  0  0  0
    2.1513   -8.3614    3.1521 H   0  0  0  0  0  0  0  0  0  0  0  0
  1  2  1  0
  1 39  1  0
  2  7  2  0
  2  3  1  0
  3  4  2  0
  3 40  1  0
  4  5  1  0
  4 41  1  0
  5 37  1  0
  5  6  2  0
 38  6  1  6
  6  7  1  0
  7  8  1  0
  8  9  1  0
  9 38  1  0
  9 10  1  0
  9 42  1  1
 10 18  1  0
 10 11  2  0
 11 12  1  0
 11 26  1  0
 12 17  2  0
 12 13  1  0
 13 14  2  0
 13 43  1  0
 14 15  1  0
 14 44  1  0
 15 16  2  0
 15 45  1  0
 16 17  1  0
 16 46  1  0
 17 18  1  0
 18 19  1  0
 19 20  1  0
 19 47  1  0
 19 48  1  0
 20 24  2  0
 20 21  1  0
 21 22  2  0
 21 49  1  0
 22 23  1  0
 22 50  1  0
 23 24  1  0
 24 25  1  0
 26 27  1  0
 26 51  1  0
 26 52  1  0
 27 38  1  0
 27 28  1  1
 27 29  1  0
 28 53  1  0
 29 30  1  0
 29 54  1  0
 29 55  1  0
 30 31  1  0
 30 56  1  0
 30 57  1  0
 31 32  1  0
 31 36  1  0
 31 68  1  6
 32 33  1  0
 32 58  1  0
 32 59  1  0
 33 35  1  0
 33 34  1  0
 33 60  1  0
 34 35  1  0
 34 61  1  0
 34 62  1  0
 35 63  1  0
 35 64  1  0
 36 37  1  0
 36 38  1  0
 36 65  1  1
 37 66  1  0
 37 67  1  0
M  CHG  1  31   1
M  END
>  <i_m_ct_stereo_status>  (272) 
1

>  <s_m_source_file>  (272) 
/var/tmp/pbs.5076255.sched01/tmp548j1hfo/88g9dmtei7.sdf

>  <i_m_source_file_index>  (272) 
30

>  <i_lp_mmshare_version>  (272) 
48012

>  <i_f3d_flags>  (272) 
0

>  <s_epik_input>  (272) 
W0NAXTEyM2M0YzVbY0hdW2NIXWMoW09IXSljNE9bQ0BIXTFjNmMoYzdjKFtjSF1bY0hdW2NIXVtjSF03KW42W0NIMl1jOFtjSF1bY0hdc2M4Q2wpW0NIMl1bQ0BAXTIoW09IXSlbQ0gyXVtDSDJdTihbQ0BIXTNbQ0gyXTUpW0NIMl1bQ0hdOVtDSDJdW0NIMl05

>  <s_epik_cmdline>  (272) 
J2VwaWtfcHl0aG9uJywgJy1waHQnLCAnMi4wJywgJy1waCcsICc3LjAnLCAnLXRuJywgJzgnLCAnLW1hJywgJzIwMCcsICctaW1hZScsICc8aW5maWxlLm1hZT4nLCAnLW9tYWUnLCAnPG91dGZpbGUubWFlPic=

>  <r_lp_tautomer_probability>  (272) 
1

>  <r_epik_Ionization_Penalty>  (272) 
0.0265341

>  <r_epik_Ionization_Penalty_Charging>  (272) 
0.00840723

>  <r_epik_Ionization_Penalty_Neutral>  (272) 
0.0181269

>  <r_epik_State_Penalty>  (272) 
0.0205876

>  <r_epik_Charging_Adjusted_Penalty>  (272) 
0.0289948

>  <i_epik_Tot_Q>  (272) 
1

>  <i_epik_Tot_abs_Q>  (272) 
1

>  <s_lp_Force_Field>  (272) 
OPLS3e

>  <r_lp_Energy>  (272) 
100.082

>  <b_lp_Chiralities_Consistent>  (272) 
1

>  <s_lp_Variant>  (272) 
75:0-1

>  <s_i_glide_gridfile>  (272) 
pfpi4k_grid

>  <i_i_glide_lignum>  (272) 
30

>  <i_i_glide_rotatable_bonds>  (272) 
6

>  <r_i_docking_score>  (272) 
-2.12968

>  <r_i_glide_ligand_efficiency>  (272) 
-0.0560442

>  <r_i_glide_ligand_efficiency_sa>  (272) 
-0.188419

>  <r_i_glide_ligand_efficiency_ln>  (272) 
-0.459222

>  <r_i_glide_gscore>  (272) 
-2.12968

>  <r_i_glide_lipo>  (272) 
-0.355593

>  <r_i_glide_hbond>  (272) 
0

>  <r_i_glide_metal>  (272) 
-0

>  <r_i_glide_rewards>  (272) 
-0.031523

>  <r_i_glide_evdw>  (272) 
-31.8342

>  <r_i_glide_ecoul>  (272) 
-2.80663

>  <r_i_glide_erotb>  (272) 
0.27775

>  <r_i_glide_esite>  (272) 
-0.00760848

>  <r_i_glide_emodel>  (272) 
-39.7369

>  <r_i_glide_energy>  (272) 
-34.6409

>  <r_i_glide_einternal>  (272) 
0.811908

>  <r_i_glide_intrahb_reward>  (272) 
-0

>  <i_i_glide_confnum>  (272) 
3

>  <i_i_glide_posenum>  (272) 
4

>  <r_i_glide_eff_state_penalty>  (272) 
0

>  <ligand_id>  (272) 
75

>  <original_smiles>  (272) 
Oc1ccc2c3c1OC1c4c(c5ccccc5n4Cc4ccsc4Cl)CC4(O)CCN(CC5CC5)C(C2)C314

>  <smiles>  (272) 
[H]Oc1c([H])c([H])c2c3c1OC1([H])c4c(c5c([H])c([H])c([H])c([H])c5n4C([H])([H])c4c(Cl)sc([H])c4[H])C([H])([H])C4(O[H])C([H])([H])C([H])([H])[N+]([H])(C([H])([H])C5([H])C([H])([H])C5([H])[H])C([H])(C2([H])[H])C314

$$$$
75:0:2
     RDKit          3D

 68 76  0  0  1  0  0  0  0  0999 V2000
    8.9688   -6.2809    4.0847 O   0  0  0  0  0  0  0  0  0  0  0  0
    8.1012   -7.3029    3.8392 C   0  0  0  0  0  0  0  0  0  0  0  0
    8.5420   -8.6512    3.9055 C   0  0  0  0  0  0  0  0  0  0  0  0
    7.6020   -9.7144    3.8828 C   0  0  0  0  0  0  0  0  0  0  0  0
    6.2587   -9.3976    3.6091 C   0  0  0  0  0  0  0  0  0  0  0  0
    5.9384   -8.0948    3.2796 C   0  0  0  0  0  0  0  0  0  0  0  0
    6.7431   -7.0229    3.5806 C   0  0  0  0  0  0  0  0  0  0  0  0
    6.0342   -5.8908    3.8085 O   0  0  0  0  0  0  0  0  0  0  0  0
    4.6531   -6.1809    3.5116 C   0  0  1  0  0  0  0  0  0  0  0  0
    4.4554   -5.1830    2.4011 C   0  0  0  0  0  0  0  0  0  0  0  0
    4.5396   -5.4861    1.0698 C   0  0  0  0  0  0  0  0  0  0  0  0
    4.4093   -4.2549    0.3485 C   0  0  0  0  0  0  0  0  0  0  0  0
    4.3880   -3.8892   -1.0175 C   0  0  0  0  0  0  0  0  0  0  0  0
    4.2132   -2.5499   -1.4202 C   0  0  0  0  0  0  0  0  0  0  0  0
    4.0798   -1.5384   -0.4543 C   0  0  0  0  0  0  0  0  0  0  0  0
    4.1267   -1.8695    0.9084 C   0  0  0  0  0  0  0  0  0  0  0  0
    4.2658   -3.2134    1.3086 C   0  0  0  0  0  0  0  0  0  0  0  0
    4.2944   -3.8076    2.5663 N   0  0  0  0  0  0  0  0  0  0  0  0
    4.1904   -3.1096    3.8424 C   0  0  0  0  0  0  0  0  0  0  0  0
    2.7862   -3.1480    4.3928 C   0  0  0  0  0  0  0  0  0  0  0  0
    2.3715   -4.0510    5.4263 C   0  0  0  0  0  0  0  0  0  0  0  0
    1.0547   -3.9129    5.7813 C   0  0  0  0  0  0  0  0  0  0  0  0
    0.2732   -2.6461    4.8888 S   0  0  0  0  0  0  0  0  0  0  0  0
    1.7433   -2.3301    4.0228 C   0  0  0  0  0  0  0  0  0  0  0  0
    1.6750   -1.0483    2.8796 Cl  0  0  0  0  0  0  0  0  0  0  0  0
    4.6510   -6.9041    0.5907 C   0  0  0  0  0  0  0  0  0  0  0  0
    3.9066   -7.8056    1.6025 C   0  0  1  0  0  0  0  0  0  0  0  0
    2.5773   -7.2635    1.5488 O   0  0  0  0  0  0  0  0  0  0  0  0
    3.7231   -9.2756    1.1758 C   0  0  0  0  0  0  0  0  0  0  0  0
    2.6734   -9.9881    2.0804 C   0  0  0  0  0  0  0  0  0  0  0  0
    2.5863   -9.4124    3.4650 N   0  0  1  0  0  0  0  0  0  0  0  0
    1.8668  -10.2932    4.4213 C   0  0  0  0  0  0  0  0  0  0  0  0
    1.3222   -9.5165    5.6122 C   0  0  0  0  0  0  0  0  0  0  0  0
    0.2120  -10.0969    6.4589 C   0  0  0  0  0  0  0  0  0  0  0  0
   -0.0643   -8.9048    5.5825 C   0  0  0  0  0  0  0  0  0  0  0  0
    3.8960   -8.8775    3.9443 C   0  0  1  0  0  0  0  0  0  0  0  0
    4.9559  -10.0314    3.9980 C   0  0  0  0  0  0  0  0  0  0  0  0
    4.5043   -7.7126    3.0690 C   0  0  1  0  0  0  0  0  0  0  0  0
    9.8686   -6.5550    4.1344 H   0  0  0  0  0  0  0  0  0  0  0  0
    9.5734   -8.8702    4.1061 H   0  0  0  0  0  0  0  0  0  0  0  0
    7.8902  -10.7184    4.1563 H   0  0  0  0  0  0  0  0  0  0  0  0
    4.0081   -5.9681    4.3612 H   0  0  0  0  0  0  0  0  0  0  0  0
    4.4872   -4.6547   -1.7637 H   0  0  0  0  0  0  0  0  0  0  0  0
    4.1750   -2.3008   -2.4702 H   0  0  0  0  0  0  0  0  0  0  0  0
    3.9283   -0.5097   -0.7509 H   0  0  0  0  0  0  0  0  0  0  0  0
    4.0288   -1.0909    1.6429 H   0  0  0  0  0  0  0  0  0  0  0  0
    4.8956   -3.5562    4.5466 H   0  0  0  0  0  0  0  0  0  0  0  0
    4.5286   -2.0827    3.7079 H   0  0  0  0  0  0  0  0  0  0  0  0
    3.0405   -4.7664    5.8844 H   0  0  0  0  0  0  0  0  0  0  0  0
    0.4972   -4.4632    6.5239 H   0  0  0  0  0  0  0  0  0  0  0  0
    4.2160   -6.9995   -0.4026 H   0  0  0  0  0  0  0  0  0  0  0  0
    5.6946   -7.2047    0.5109 H   0  0  0  0  0  0  0  0  0  0  0  0
    1.9667   -7.8083    2.0056 H   0  0  0  0  0  0  0  0  0  0  0  0
    3.4247   -9.3668    0.1309 H   0  0  0  0  0  0  0  0  0  0  0  0
    4.6887   -9.7870    1.2357 H   0  0  0  0  0  0  0  0  0  0  0  0
    1.6903   -9.9133    1.6127 H   0  0  0  0  0  0  0  0  0  0  0  0
    2.9090  -11.0540    2.1100 H   0  0  0  0  0  0  0  0  0  0  0  0
    1.0227  -10.7608    3.9113 H   0  0  0  0  0  0  0  0  0  0  0  0
    2.5094  -11.1019    4.7677 H   0  0  0  0  0  0  0  0  0  0  0  0
    2.0711   -8.9775    6.1912 H   0  0  0  0  0  0  0  0  0  0  0  0
   -0.1805  -11.0681    6.1623 H   0  0  0  0  0  0  0  0  0  0  0  0
    0.2658   -9.9297    7.5339 H   0  0  0  0  0  0  0  0  0  0  0  0
   -0.1861   -7.9424    6.0762 H   0  0  0  0  0  0  0  0  0  0  0  0
   -0.6781   -9.0639    4.6959 H   0  0  0  0  0  0  0  0  0  0  0  0
    3.7874   -8.4551    4.9441 H   0  0  0  0  0  0  0  0  0  0  0  0
    4.7654  -10.8670    3.3229 H   0  0  0  0  0  0  0  0  0  0  0  0
    5.0089  -10.4387    5.0069 H   0  0  0  0  0  0  0  0  0  0  0  0
    1.9714   -8.6115    3.4083 H   0  0  0  0  0  0  0  0  0  0  0  0
  1  2  1  0
  1 39  1  0
  2  7  2  0
  2  3  1  0
  3  4  2  0
  3 40  1  0
  4  5  1  0
  4 41  1  0
  5 37  1  0
  5  6  2  0
 38  6  1  6
  6  7  1  0
  7  8  1  0
  8  9  1  0
  9 38  1  0
  9 10  1  0
  9 42  1  1
 10 18  1  0
 10 11  2  0
 11 12  1  0
 11 26  1  0
 12 17  2  0
 12 13  1  0
 13 14  2  0
 13 43  1  0
 14 15  1  0
 14 44  1  0
 15 16  2  0
 15 45  1  0
 16 17  1  0
 16 46  1  0
 17 18  1  0
 18 19  1  0
 19 20  1  0
 19 47  1  0
 19 48  1  0
 20 24  2  0
 20 21  1  0
 21 22  2  0
 21 49  1  0
 22 23  1  0
 22 50  1  0
 23 24  1  0
 24 25  1  0
 26 27  1  0
 26 51  1  0
 26 52  1  0
 27 38  1  0
 27 28  1  1
 27 29  1  0
 28 53  1  0
 29 30  1  0
 29 54  1  0
 29 55  1  0
 30 31  1  0
 30 56  1  0
 30 57  1  0
 31 32  1  0
 31 36  1  0
 31 68  1  6
 32 33  1  0
 32 58  1  0
 32 59  1  0
 33 35  1  0
 33 34  1  0
 33 60  1  0
 34 35  1  0
 34 61  1  0
 34 62  1  0
 35 63  1  0
 35 64  1  0
 36 37  1  0
 36 38  1  0
 36 65  1  1
 37 66  1  0
 37 67  1  0
M  CHG  1  31   1
M  END
>  <i_m_ct_stereo_status>  (273) 
1

>  <s_m_source_file>  (273) 
/var/tmp/pbs.5076255.sched01/tmp548j1hfo/88g9dmtei7.sdf

>  <i_m_source_file_index>  (273) 
30

>  <i_lp_mmshare_version>  (273) 
48012

>  <i_f3d_flags>  (273) 
0

>  <s_epik_input>  (273) 
W0NAXTEyM2M0YzVbY0hdW2NIXWMoW09IXSljNE9bQ0BIXTFjNmMoYzdjKFtjSF1bY0hdW2NIXVtjSF03KW42W0NIMl1jOFtjSF1bY0hdc2M4Q2wpW0NIMl1bQ0BAXTIoW09IXSlbQ0gyXVtDSDJdTihbQ0BIXTNbQ0gyXTUpW0NIMl1bQ0hdOVtDSDJdW0NIMl05

>  <s_epik_cmdline>  (273) 
J2VwaWtfcHl0aG9uJywgJy1waHQnLCAnMi4wJywgJy1waCcsICc3LjAnLCAnLXRuJywgJzgnLCAnLW1hJywgJzIwMCcsICctaW1hZScsICc8aW5maWxlLm1hZT4nLCAnLW9tYWUnLCAnPG91dGZpbGUubWFlPic=

>  <r_lp_tautomer_probability>  (273) 
1

>  <r_epik_Ionization_Penalty>  (273) 
0.0265341

>  <r_epik_Ionization_Penalty_Charging>  (273) 
0.00840723

>  <r_epik_Ionization_Penalty_Neutral>  (273) 
0.0181269

>  <r_epik_State_Penalty>  (273) 
0.0205876

>  <r_epik_Charging_Adjusted_Penalty>  (273) 
0.0289948

>  <i_epik_Tot_Q>  (273) 
1

>  <i_epik_Tot_abs_Q>  (273) 
1

>  <s_lp_Force_Field>  (273) 
OPLS3e

>  <r_lp_Energy>  (273) 
100.082

>  <b_lp_Chiralities_Consistent>  (273) 
1

>  <s_lp_Variant>  (273) 
75:0-1

>  <s_i_glide_gridfile>  (273) 
pfpi4k_grid

>  <i_i_glide_lignum>  (273) 
30

>  <i_i_glide_rotatable_bonds>  (273) 
6

>  <r_i_docking_score>  (273) 
-1.91718

>  <r_i_glide_ligand_efficiency>  (273) 
-0.0504521

>  <r_i_glide_ligand_efficiency_sa>  (273) 
-0.169619

>  <r_i_glide_ligand_efficiency_ln>  (273) 
-0.4134

>  <r_i_glide_gscore>  (273) 
-1.91718

>  <r_i_glide_lipo>  (273) 
-0.281344

>  <r_i_glide_hbond>  (273) 
0

>  <r_i_glide_metal>  (273) 
-0

>  <r_i_glide_rewards>  (273) 
-0.0106614

>  <r_i_glide_evdw>  (273) 
-30.9554

>  <r_i_glide_ecoul>  (273) 
-2.31229

>  <r_i_glide_erotb>  (273) 
0.27775

>  <r_i_glide_esite>  (273) 
-0.00831019

>  <r_i_glide_emodel>  (273) 
-37.5978

>  <r_i_glide_energy>  (273) 
-33.2677

>  <r_i_glide_einternal>  (273) 
1.10681

>  <r_i_glide_intrahb_reward>  (273) 
-0

>  <i_i_glide_confnum>  (273) 
6

>  <i_i_glide_posenum>  (273) 
1

>  <r_i_glide_eff_state_penalty>  (273) 
0

>  <ligand_id>  (273) 
75

>  <original_smiles>  (273) 
Oc1ccc2c3c1OC1c4c(c5ccccc5n4Cc4ccsc4Cl)CC4(O)CCN(CC5CC5)C(C2)C314

>  <smiles>  (273) 
[H]Oc1c([H])c([H])c2c3c1OC1([H])c4c(c5c([H])c([H])c([H])c([H])c5n4C([H])([H])c4c(Cl)sc([H])c4[H])C([H])([H])C4(O[H])C([H])([H])C([H])([H])[N+]([H])(C([H])([H])C5([H])C([H])([H])C5([H])[H])C([H])(C2([H])[H])C314

$$$$
75:1:0
     RDKit          3D

 67 75  0  0  1  0  0  0  0  0999 V2000
    6.7746   -6.4155    7.3384 O   0  0  0  0  0  0  0  0  0  0  0  0
    6.1710   -7.3541    6.5653 C   0  0  0  0  0  0  0  0  0  0  0  0
    6.3274   -8.7391    6.8776 C   0  0  0  0  0  0  0  0  0  0  0  0
    5.5381   -9.7069    6.2187 C   0  0  0  0  0  0  0  0  0  0  0  0
    4.7370   -9.2956    5.1509 C   0  0  0  0  0  0  0  0  0  0  0  0
    4.8443   -7.9824    4.7236 C   0  0  0  0  0  0  0  0  0  0  0  0
    5.3425   -6.9746    5.4893 C   0  0  0  0  0  0  0  0  0  0  0  0
    4.7796   -5.7680    5.2175 O   0  0  0  0  0  0  0  0  0  0  0  0
    3.9030   -5.9510    4.0721 C   0  0  1  0  0  0  0  0  0  0  0  0
    4.5922   -4.9959    3.1114 C   0  0  0  0  0  0  0  0  0  0  0  0
    5.5099   -5.3972    2.1744 C   0  0  0  0  0  0  0  0  0  0  0  0
    6.0534   -4.2216    1.5611 C   0  0  0  0  0  0  0  0  0  0  0  0
    7.0156   -3.9766    0.5319 C   0  0  0  0  0  0  0  0  0  0  0  0
    7.3349   -2.6602    0.1285 C   0  0  0  0  0  0  0  0  0  0  0  0
    6.6970   -1.5736    0.7512 C   0  0  0  0  0  0  0  0  0  0  0  0
    5.7364   -1.7842    1.7601 C   0  0  0  0  0  0  0  0  0  0  0  0
    5.4073   -3.0924    2.1750 C   0  0  0  0  0  0  0  0  0  0  0  0
    4.5126   -3.5934    3.1315 N   0  0  0  0  0  0  0  0  0  0  0  0
    3.6900   -2.8067    4.0740 C   0  0  0  0  0  0  0  0  0  0  0  0
    3.0227   -1.6081    3.4512 C   0  0  0  0  0  0  0  0  0  0  0  0
    1.8206   -1.6715    2.6682 C   0  0  0  0  0  0  0  0  0  0  0  0
    1.4629   -0.4756    2.1032 C   0  0  0  0  0  0  0  0  0  0  0  0
    2.5664    0.7949    2.5320 S   0  0  0  0  0  0  0  0  0  0  0  0
    3.4512   -0.3080    3.5576 C   0  0  0  0  0  0  0  0  0  0  0  0
    4.7896    0.3253    4.4314 Cl  0  0  0  0  0  0  0  0  0  0  0  0
    5.7580   -6.8503    1.8828 C   0  0  0  0  0  0  0  0  0  0  0  0
    4.4341   -7.6205    2.1355 C   0  0  1  0  0  0  0  0  0  0  0  0
    3.4858   -7.0063    1.2536 O   0  0  0  0  0  0  0  0  0  0  0  0
    4.4342   -9.0837    1.6521 C   0  0  0  0  0  0  0  0  0  0  0  0
    2.9823   -9.6491    1.6370 C   0  0  0  0  0  0  0  0  0  0  0  0
    2.0803   -8.9894    2.6297 N   0  0  1  0  0  0  0  0  0  0  0  0
    0.8236   -9.7549    2.8691 C   0  0  0  0  0  0  0  0  0  0  0  0
   -0.3312   -8.8466    3.2401 C   0  0  0  0  0  0  0  0  0  0  0  0
   -1.7471   -9.2365    2.8728 C   0  0  0  0  0  0  0  0  0  0  0  0
   -1.0899   -8.0793    2.1732 C   0  0  0  0  0  0  0  0  0  0  0  0
    2.7919   -8.5569    3.8663 C   0  0  1  0  0  0  0  0  0  0  0  0
    3.4469   -9.7977    4.5789 C   0  0  0  0  0  0  0  0  0  0  0  0
    3.9324   -7.4891    3.6327 C   0  0  1  0  0  0  0  0  0  0  0  0
    6.9477   -9.0193    7.6917 H   0  0  0  0  0  0  0  0  0  0  0  0
    5.4690  -10.7202    6.6026 H   0  0  0  0  0  0  0  0  0  0  0  0
    2.8755   -5.6388    4.2941 H   0  0  0  0  0  0  0  0  0  0  0  0
    7.4988   -4.8234    0.0588 H   0  0  0  0  0  0  0  0  0  0  0  0
    8.0688   -2.4777   -0.6475 H   0  0  0  0  0  0  0  0  0  0  0  0
    6.9044   -0.5517    0.4921 H   0  0  0  0  0  0  0  0  0  0  0  0
    5.2847   -0.8964    2.1762 H   0  0  0  0  0  0  0  0  0  0  0  0
    2.9039   -3.4365    4.4948 H   0  0  0  0  0  0  0  0  0  0  0  0
    4.3170   -2.5126    4.9170 H   0  0  0  0  0  0  0  0  0  0  0  0
    1.3066   -2.6093    2.5043 H   0  0  0  0  0  0  0  0  0  0  0  0
    0.6503   -0.2645    1.4266 H   0  0  0  0  0  0  0  0  0  0  0  0
    6.0679   -6.9572    0.8437 H   0  0  0  0  0  0  0  0  0  0  0  0
    6.5639   -7.2625    2.5035 H   0  0  0  0  0  0  0  0  0  0  0  0
    3.8583   -6.9796    0.3854 H   0  0  0  0  0  0  0  0  0  0  0  0
    4.8692   -9.1827    0.6575 H   0  0  0  0  0  0  0  0  0  0  0  0
    5.0681   -9.6751    2.3203 H   0  0  0  0  0  0  0  0  0  0  0  0
    2.5550   -9.5117    0.6390 H   0  0  0  0  0  0  0  0  0  0  0  0
    3.0287  -10.7255    1.8053 H   0  0  0  0  0  0  0  0  0  0  0  0
    0.5492  -10.2989    1.9626 H   0  0  0  0  0  0  0  0  0  0  0  0
    0.9536  -10.5111    3.6445 H   0  0  0  0  0  0  0  0  0  0  0  0
   -0.2263   -8.3577    4.2125 H   0  0  0  0  0  0  0  0  0  0  0  0
   -1.8896  -10.1518    2.3008 H   0  0  0  0  0  0  0  0  0  0  0  0
   -2.5315   -9.0015    3.5883 H   0  0  0  0  0  0  0  0  0  0  0  0
   -1.4369   -7.0806    2.4324 H   0  0  0  0  0  0  0  0  0  0  0  0
   -0.7908   -8.2256    1.1360 H   0  0  0  0  0  0  0  0  0  0  0  0
    2.0796   -8.0816    4.5543 H   0  0  0  0  0  0  0  0  0  0  0  0
    3.6509  -10.6479    3.9195 H   0  0  0  0  0  0  0  0  0  0  0  0
    2.7926  -10.1523    5.3702 H   0  0  0  0  0  0  0  0  0  0  0  0
    1.8081   -8.1257    2.1467 H   0  0  0  0  0  0  0  0  0  0  0  0
  1  2  1  0
  2  7  2  0
  2  3  1  0
  3  4  2  0
  3 39  1  0
  4  5  1  0
  4 40  1  0
  5 37  1  0
  5  6  2  0
 38  6  1  1
  6  7  1  0
  7  8  1  0
  8  9  1  0
  9 38  1  0
  9 10  1  0
  9 41  1  1
 10 18  1  0
 10 11  2  0
 11 12  1  0
 11 26  1  0
 12 17  2  0
 12 13  1  0
 13 14  2  0
 13 42  1  0
 14 15  1  0
 14 43  1  0
 15 16  2  0
 15 44  1  0
 16 17  1  0
 16 45  1  0
 17 18  1  0
 18 19  1  0
 19 20  1  0
 19 46  1  0
 19 47  1  0
 20 24  2  0
 20 21  1  0
 21 22  2  0
 21 48  1  0
 22 23  1  0
 22 49  1  0
 23 24  1  0
 24 25  1  0
 26 27  1  0
 26 50  1  0
 26 51  1  0
 27 38  1  0
 27 28  1  6
 27 29  1  0
 28 52  1  0
 29 30  1  0
 29 53  1  0
 29 54  1  0
 30 31  1  0
 30 55  1  0
 30 56  1  0
 31 32  1  0
 31 36  1  0
 31 67  1  6
 32 33  1  0
 32 57  1  0
 32 58  1  0
 33 35  1  0
 33 34  1  0
 33 59  1  0
 34 35  1  0
 34 60  1  0
 34 61  1  0
 35 62  1  0
 35 63  1  0
 36 37  1  0
 36 38  1  0
 36 64  1  1
 37 65  1  0
 37 66  1  0
M  CHG  2   1  -1  31   1
M  END
>  <i_m_ct_stereo_status>  (274) 
1

>  <s_m_source_file>  (274) 
/var/tmp/pbs.5076255.sched01/tmp548j1hfo/88g9dmtei7.sdf

>  <i_m_source_file_index>  (274) 
31

>  <i_lp_mmshare_version>  (274) 
48012

>  <i_f3d_flags>  (274) 
0

>  <s_epik_input>  (274) 
W0NAXTEyM2M0YzVbY0hdW2NIXWMoW09IXSljNE9bQ0BIXTFjNmMoYzdjKFtjSF1bY0hdW2NIXVtjSF03KW42W0NIMl1jOFtjSF1bY0hdc2M4Q2wpW0NIMl1bQ0BAXTIoW09IXSlbQ0gyXVtDSDJdTihbQ0BIXTNbQ0gyXTUpW0NIMl1bQ0hdOVtDSDJdW0NIMl05

>  <s_epik_cmdline>  (274) 
J2VwaWtfcHl0aG9uJywgJy1waHQnLCAnMi4wJywgJy1waCcsICc3LjAnLCAnLXRuJywgJzgnLCAnLW1hJywgJzIwMCcsICctaW1hZScsICc8aW5maWxlLm1hZT4nLCAnLW9tYWUnLCAnPG91dGZpbGUubWFlPic=

>  <r_epik_Ionization_Penalty>  (274) 
2.08256

>  <r_epik_Ionization_Penalty_Charging>  (274) 
2.08256

>  <r_epik_Ionization_Penalty_Neutral>  (274) 
1.38229e-06

>  <r_epik_State_Penalty>  (274) 
2.21548

>  <r_epik_Charging_Adjusted_Penalty>  (274) 
4.29805

>  <i_epik_Tot_Q>  (274) 
0

>  <i_epik_Tot_abs_Q>  (274) 
2

>  <s_lp_Force_Field>  (274) 
OPLS3e

>  <r_lp_Energy>  (274) 
98.1863

>  <b_lp_Chiralities_Consistent>  (274) 
1

>  <s_lp_Variant>  (274) 
75:0-2

>  <s_i_glide_gridfile>  (274) 
pfpi4k_grid

>  <i_i_glide_lignum>  (274) 
31

>  <i_i_glide_rotatable_bonds>  (274) 
5

>  <r_i_docking_score>  (274) 
-2.45075

>  <r_i_glide_ligand_efficiency>  (274) 
-0.0644934

>  <r_i_glide_ligand_efficiency_sa>  (274) 
-0.216825

>  <r_i_glide_ligand_efficiency_ln>  (274) 
-0.528454

>  <r_i_glide_gscore>  (274) 
-2.45075

>  <r_i_glide_lipo>  (274) 
-0.697784

>  <r_i_glide_hbond>  (274) 
0

>  <r_i_glide_metal>  (274) 
-0

>  <r_i_glide_rewards>  (274) 
-0.0226434

>  <r_i_glide_evdw>  (274) 
-30.4574

>  <r_i_glide_ecoul>  (274) 
-3.241

>  <r_i_glide_erotb>  (274) 
0.278698

>  <r_i_glide_esite>  (274) 
0

>  <r_i_glide_emodel>  (274) 
-36.5981

>  <r_i_glide_energy>  (274) 
-33.6984

>  <r_i_glide_einternal>  (274) 
4.42083

>  <r_i_glide_intrahb_reward>  (274) 
-0

>  <i_i_glide_confnum>  (274) 
1

>  <i_i_glide_posenum>  (274) 
32

>  <r_i_glide_eff_state_penalty>  (274) 
0

>  <ligand_id>  (274) 
75

>  <original_smiles>  (274) 
Oc1ccc2c3c1OC1c4c(c5ccccc5n4Cc4ccsc4Cl)CC4(O)CCN(CC5CC5)C(C2)C314

>  <smiles>  (274) 
[H]OC12C([H])([H])c3c(n(C([H])([H])c4c(Cl)sc([H])c4[H])c4c([H])c([H])c([H])c([H])c34)C3([H])Oc4c([O-])c([H])c([H])c5c4C31C([H])(C5([H])[H])[N+]([H])(C([H])([H])C1([H])C([H])([H])C1([H])[H])C([H])([H])C2([H])[H]

$$$$
75:1:1
     RDKit          3D

 67 75  0  0  1  0  0  0  0  0999 V2000
    7.0643   -6.4256    7.1433 O   0  0  0  0  0  0  0  0  0  0  0  0
    6.4266   -7.3540    6.3788 C   0  0  0  0  0  0  0  0  0  0  0  0
    6.5853   -8.7374    6.6539 C   0  0  0  0  0  0  0  0  0  0  0  0
    5.7620   -9.7011    6.0267 C   0  0  0  0  0  0  0  0  0  0  0  0
    4.9136   -9.2597    4.9956 C   0  0  0  0  0  0  0  0  0  0  0  0
    5.0011   -7.9442    4.5855 C   0  0  0  0  0  0  0  0  0  0  0  0
    5.5511   -6.9459    5.3453 C   0  0  0  0  0  0  0  0  0  0  0  0
    4.9724   -5.7361    5.1235 O   0  0  0  0  0  0  0  0  0  0  0  0
    4.0520   -5.8956    4.0212 C   0  0  1  0  0  0  0  0  0  0  0  0
    4.7023   -4.9306    3.0544 C   0  0  0  0  0  0  0  0  0  0  0  0
    5.5753   -5.3164    2.0696 C   0  0  0  0  0  0  0  0  0  0  0  0
    6.0774   -4.1238    1.4555 C   0  0  0  0  0  0  0  0  0  0  0  0
    6.9800   -3.8446    0.3953 C   0  0  0  0  0  0  0  0  0  0  0  0
    7.2839   -2.5191    0.0090 C   0  0  0  0  0  0  0  0  0  0  0  0
    6.6878   -1.4491    0.6921 C   0  0  0  0  0  0  0  0  0  0  0  0
    5.8034   -1.6961    1.7448 C   0  0  0  0  0  0  0  0  0  0  0  0
    5.4769   -3.0164    2.1244 C   0  0  0  0  0  0  0  0  0  0  0  0
    4.6213   -3.5335    3.1022 N   0  0  0  0  0  0  0  0  0  0  0  0
    3.8389   -2.7622    4.0805 C   0  0  0  0  0  0  0  0  0  0  0  0
    3.1405   -1.5717    3.4743 C   0  0  0  0  0  0  0  0  0  0  0  0
    2.0169   -1.6684    2.5902 C   0  0  0  0  0  0  0  0  0  0  0  0
    1.6070   -0.4588    2.0881 C   0  0  0  0  0  0  0  0  0  0  0  0
    2.5837    0.8523    2.6874 S   0  0  0  0  0  0  0  0  0  0  0  0
    3.5085   -0.2613    3.6590 C   0  0  0  0  0  0  0  0  0  0  0  0
    4.8248    0.3736    4.5691 Cl  0  0  0  0  0  0  0  0  0  0  0  0
    5.8041   -6.7617    1.7307 C   0  0  0  0  0  0  0  0  0  0  0  0
    4.4949   -7.5292    2.0248 C   0  0  1  0  0  0  0  0  0  0  0  0
    3.5679   -6.8543    1.1639 O   0  0  0  0  0  0  0  0  0  0  0  0
    4.4516   -8.9860    1.5220 C   0  0  0  0  0  0  0  0  0  0  0  0
    2.9973   -9.5520    1.5610 C   0  0  0  0  0  0  0  0  0  0  0  0
    2.1360   -8.9086    2.6108 N   0  0  1  0  0  0  0  0  0  0  0  0
    0.9014   -9.6813    2.8946 C   0  0  0  0  0  0  0  0  0  0  0  0
   -0.2412   -8.7591    3.2896 C   0  0  0  0  0  0  0  0  0  0  0  0
   -1.6718   -9.1755    3.0220 C   0  0  0  0  0  0  0  0  0  0  0  0
   -1.0698   -8.0491    2.2339 C   0  0  0  0  0  0  0  0  0  0  0  0
    2.9121   -8.4926    3.8182 C   0  0  1  0  0  0  0  0  0  0  0  0
    3.5940   -9.7474    4.4768 C   0  0  0  0  0  0  0  0  0  0  0  0
    4.0495   -7.4306    3.5436 C   0  0  1  0  0  0  0  0  0  0  0  0
    7.2455   -9.0412    7.4453 H   0  0  0  0  0  0  0  0  0  0  0  0
    5.7090  -10.7117    6.3885 H   0  0  0  0  0  0  0  0  0  0  0  0
    3.0401   -5.5830    4.2856 H   0  0  0  0  0  0  0  0  0  0  0  0
    7.4482   -4.6669   -0.1248 H   0  0  0  0  0  0  0  0  0  0  0  0
    7.9837   -2.3265   -0.7920 H   0  0  0  0  0  0  0  0  0  0  0  0
    6.8934   -0.4161    0.4515 H   0  0  0  0  0  0  0  0  0  0  0  0
    5.3989   -0.8418    2.2454 H   0  0  0  0  0  0  0  0  0  0  0  0
    3.0851   -3.4010    4.5401 H   0  0  0  0  0  0  0  0  0  0  0  0
    4.5104   -2.4599    4.8852 H   0  0  0  0  0  0  0  0  0  0  0  0
    1.5844   -2.6196    2.3202 H   0  0  0  0  0  0  0  0  0  0  0  0
    0.8217   -0.2532    1.3743 H   0  0  0  0  0  0  0  0  0  0  0  0
    6.0553   -6.8479    0.6741 H   0  0  0  0  0  0  0  0  0  0  0  0
    6.6358   -7.1843    2.2977 H   0  0  0  0  0  0  0  0  0  0  0  0
    2.7359   -7.2884    1.1518 H   0  0  0  0  0  0  0  0  0  0  0  0
    4.8501   -9.0687    0.5065 H   0  0  0  0  0  0  0  0  0  0  0  0
    5.1154   -9.5953    2.1448 H   0  0  0  0  0  0  0  0  0  0  0  0
    2.5303   -9.4108    0.5852 H   0  0  0  0  0  0  0  0  0  0  0  0
    3.0429  -10.6378    1.6986 H   0  0  0  0  0  0  0  0  0  0  0  0
    0.5953  -10.2261    2.0014 H   0  0  0  0  0  0  0  0  0  0  0  0
    1.0551  -10.4270    3.6742 H   0  0  0  0  0  0  0  0  0  0  0  0
   -0.0891   -8.2213    4.2272 H   0  0  0  0  0  0  0  0  0  0  0  0
   -1.8291  -10.1198    2.5078 H   0  0  0  0  0  0  0  0  0  0  0  0
   -2.4216   -8.9171    3.7684 H   0  0  0  0  0  0  0  0  0  0  0  0
   -1.4270   -7.0464    2.4624 H   0  0  0  0  0  0  0  0  0  0  0  0
   -0.8346   -8.2415    1.1886 H   0  0  0  0  0  0  0  0  0  0  0  0
    2.2361   -8.0324    4.5411 H   0  0  0  0  0  0  0  0  0  0  0  0
    3.7729  -10.5833    3.7992 H   0  0  0  0  0  0  0  0  0  0  0  0
    2.9739  -10.1193    5.2927 H   0  0  0  0  0  0  0  0  0  0  0  0
    1.7761   -8.0601    2.2115 H   0  0  0  0  0  0  0  0  0  0  0  0
  1  2  1  0
  2  7  2  0
  2  3  1  0
  3  4  2  0
  3 39  1  0
  4  5  1  0
  4 40  1  0
  5 37  1  0
  5  6  2  0
 38  6  1  1
  6  7  1  0
  7  8  1  0
  8  9  1  0
  9 38  1  0
  9 10  1  0
  9 41  1  1
 10 18  1  0
 10 11  2  0
 11 12  1  0
 11 26  1  0
 12 17  2  0
 12 13  1  0
 13 14  2  0
 13 42  1  0
 14 15  1  0
 14 43  1  0
 15 16  2  0
 15 44  1  0
 16 17  1  0
 16 45  1  0
 17 18  1  0
 18 19  1  0
 19 20  1  0
 19 46  1  0
 19 47  1  0
 20 24  2  0
 20 21  1  0
 21 22  2  0
 21 48  1  0
 22 23  1  0
 22 49  1  0
 23 24  1  0
 24 25  1  0
 26 27  1  0
 26 50  1  0
 26 51  1  0
 27 38  1  0
 27 28  1  6
 27 29  1  0
 28 52  1  0
 29 30  1  0
 29 53  1  0
 29 54  1  0
 30 31  1  0
 30 55  1  0
 30 56  1  0
 31 32  1  0
 31 36  1  0
 31 67  1  6
 32 33  1  0
 32 57  1  0
 32 58  1  0
 33 35  1  0
 33 34  1  0
 33 59  1  0
 34 35  1  0
 34 60  1  0
 34 61  1  0
 35 62  1  0
 35 63  1  0
 36 37  1  0
 36 38  1  0
 36 64  1  1
 37 65  1  0
 37 66  1  0
M  CHG  2   1  -1  31   1
M  END
>  <i_m_ct_stereo_status>  (275) 
1

>  <s_m_source_file>  (275) 
/var/tmp/pbs.5076255.sched01/tmp548j1hfo/88g9dmtei7.sdf

>  <i_m_source_file_index>  (275) 
31

>  <i_lp_mmshare_version>  (275) 
48012

>  <i_f3d_flags>  (275) 
0

>  <s_epik_input>  (275) 
W0NAXTEyM2M0YzVbY0hdW2NIXWMoW09IXSljNE9bQ0BIXTFjNmMoYzdjKFtjSF1bY0hdW2NIXVtjSF03KW42W0NIMl1jOFtjSF1bY0hdc2M4Q2wpW0NIMl1bQ0BAXTIoW09IXSlbQ0gyXVtDSDJdTihbQ0BIXTNbQ0gyXTUpW0NIMl1bQ0hdOVtDSDJdW0NIMl05

>  <s_epik_cmdline>  (275) 
J2VwaWtfcHl0aG9uJywgJy1waHQnLCAnMi4wJywgJy1waCcsICc3LjAnLCAnLXRuJywgJzgnLCAnLW1hJywgJzIwMCcsICctaW1hZScsICc8aW5maWxlLm1hZT4nLCAnLW9tYWUnLCAnPG91dGZpbGUubWFlPic=

>  <r_epik_Ionization_Penalty>  (275) 
2.08256

>  <r_epik_Ionization_Penalty_Charging>  (275) 
2.08256

>  <r_epik_Ionization_Penalty_Neutral>  (275) 
1.38229e-06

>  <r_epik_State_Penalty>  (275) 
2.21548

>  <r_epik_Charging_Adjusted_Penalty>  (275) 
4.29805

>  <i_epik_Tot_Q>  (275) 
0

>  <i_epik_Tot_abs_Q>  (275) 
2

>  <s_lp_Force_Field>  (275) 
OPLS3e

>  <r_lp_Energy>  (275) 
98.1863

>  <b_lp_Chiralities_Consistent>  (275) 
1

>  <s_lp_Variant>  (275) 
75:0-2

>  <s_i_glide_gridfile>  (275) 
pfpi4k_grid

>  <i_i_glide_lignum>  (275) 
31

>  <i_i_glide_rotatable_bonds>  (275) 
5

>  <r_i_docking_score>  (275) 
-2.35632

>  <r_i_glide_ligand_efficiency>  (275) 
-0.0620083

>  <r_i_glide_ligand_efficiency_sa>  (275) 
-0.208471

>  <r_i_glide_ligand_efficiency_ln>  (275) 
-0.508091

>  <r_i_glide_gscore>  (275) 
-2.35632

>  <r_i_glide_lipo>  (275) 
-0.685185

>  <r_i_glide_hbond>  (275) 
0

>  <r_i_glide_metal>  (275) 
-0

>  <r_i_glide_rewards>  (275) 
-0.0301016

>  <r_i_glide_evdw>  (275) 
-30.4285

>  <r_i_glide_ecoul>  (275) 
-2.65537

>  <r_i_glide_erotb>  (275) 
0.278698

>  <r_i_glide_esite>  (275) 
0

>  <r_i_glide_emodel>  (275) 
-36.2997

>  <r_i_glide_energy>  (275) 
-33.0838

>  <r_i_glide_einternal>  (275) 
4.04251

>  <r_i_glide_intrahb_reward>  (275) 
-0

>  <i_i_glide_confnum>  (275) 
1

>  <i_i_glide_posenum>  (275) 
29

>  <r_i_glide_eff_state_penalty>  (275) 
0

>  <ligand_id>  (275) 
75

>  <original_smiles>  (275) 
Oc1ccc2c3c1OC1c4c(c5ccccc5n4Cc4ccsc4Cl)CC4(O)CCN(CC5CC5)C(C2)C314

>  <smiles>  (275) 
[H]OC12C([H])([H])c3c(n(C([H])([H])c4c(Cl)sc([H])c4[H])c4c([H])c([H])c([H])c([H])c34)C3([H])Oc4c([O-])c([H])c([H])c5c4C31C([H])(C5([H])[H])[N+]([H])(C([H])([H])C1([H])C([H])([H])C1([H])[H])C([H])([H])C2([H])[H]

$$$$
75:1:2
     RDKit          3D

 67 75  0  0  1  0  0  0  0  0999 V2000
    8.9821   -6.2580    4.2990 O   0  0  0  0  0  0  0  0  0  0  0  0
    8.1263   -7.2691    4.0062 C   0  0  0  0  0  0  0  0  0  0  0  0
    8.5870   -8.6049    4.0788 C   0  0  0  0  0  0  0  0  0  0  0  0
    7.6743   -9.6819    4.0416 C   0  0  0  0  0  0  0  0  0  0  0  0
    6.3312   -9.3846    3.7450 C   0  0  0  0  0  0  0  0  0  0  0  0
    5.9970   -8.0912    3.4002 C   0  0  0  0  0  0  0  0  0  0  0  0
    6.7705   -7.0038    3.7129 C   0  0  0  0  0  0  0  0  0  0  0  0
    6.0363   -5.8830    3.9269 O   0  0  0  0  0  0  0  0  0  0  0  0
    4.6662   -6.1943    3.5913 C   0  0  1  0  0  0  0  0  0  0  0  0
    4.4905   -5.2125    2.4594 C   0  0  0  0  0  0  0  0  0  0  0  0
    4.6252   -5.5344    1.1343 C   0  0  0  0  0  0  0  0  0  0  0  0
    4.5234   -4.3147    0.3913 C   0  0  0  0  0  0  0  0  0  0  0  0
    4.5611   -3.9690   -0.9823 C   0  0  0  0  0  0  0  0  0  0  0  0
    4.4035   -2.6325   -1.4097 C   0  0  0  0  0  0  0  0  0  0  0  0
    4.2301   -1.6108   -0.4637 C   0  0  0  0  0  0  0  0  0  0  0  0
    4.2323   -1.9200    0.9055 C   0  0  0  0  0  0  0  0  0  0  0  0
    4.3437   -3.2593    1.3298 C   0  0  0  0  0  0  0  0  0  0  0  0
    4.3105   -3.8357    2.5964 N   0  0  0  0  0  0  0  0  0  0  0  0
    4.1378   -3.1116    3.8533 C   0  0  0  0  0  0  0  0  0  0  0  0
    2.6813   -2.9986    4.2463 C   0  0  0  0  0  0  0  0  0  0  0  0
    2.0344   -3.9386    5.1150 C   0  0  0  0  0  0  0  0  0  0  0  0
    0.7127   -3.6555    5.3478 C   0  0  0  0  0  0  0  0  0  0  0  0
    0.2050   -2.2136    4.5310 S   0  0  0  0  0  0  0  0  0  0  0  0
    1.8004   -2.0000    3.8814 C   0  0  0  0  0  0  0  0  0  0  0  0
    2.0211   -0.5782    2.9402 Cl  0  0  0  0  0  0  0  0  0  0  0  0
    4.7676   -6.9537    0.6785 C   0  0  0  0  0  0  0  0  0  0  0  0
    4.0039   -7.8512    1.6770 C   0  0  1  0  0  0  0  0  0  0  0  0
    2.6698   -7.3322    1.5794 O   0  0  0  0  0  0  0  0  0  0  0  0
    3.8538   -9.3260    1.2557 C   0  0  0  0  0  0  0  0  0  0  0  0
    2.7914  -10.0498    2.1402 C   0  0  0  0  0  0  0  0  0  0  0  0
    2.6646   -9.4655    3.5190 N   0  0  1  0  0  0  0  0  0  0  0  0
    1.9501  -10.3603    4.4633 C   0  0  0  0  0  0  0  0  0  0  0  0
    1.2776   -9.5698    5.5771 C   0  0  0  0  0  0  0  0  0  0  0  0
    0.1489  -10.1891    6.3641 C   0  0  0  0  0  0  0  0  0  0  0  0
   -0.1399   -9.0571    5.4142 C   0  0  0  0  0  0  0  0  0  0  0  0
    3.9536   -8.9075    4.0289 C   0  0  1  0  0  0  0  0  0  0  0  0
    5.0362  -10.0437    4.1069 C   0  0  0  0  0  0  0  0  0  0  0  0
    4.5579   -7.7363    3.1593 C   0  0  1  0  0  0  0  0  0  0  0  0
    9.6232   -8.7834    4.3009 H   0  0  0  0  0  0  0  0  0  0  0  0
    7.9772  -10.6725    4.3288 H   0  0  0  0  0  0  0  0  0  0  0  0
    3.9932   -5.9741    4.4200 H   0  0  0  0  0  0  0  0  0  0  0  0
    4.6937   -4.7502   -1.7143 H   0  0  0  0  0  0  0  0  0  0  0  0
    4.4196   -2.3953   -2.4630 H   0  0  0  0  0  0  0  0  0  0  0  0
    4.0968   -0.5849   -0.7743 H   0  0  0  0  0  0  0  0  0  0  0  0
    4.1429   -1.1280    1.6258 H   0  0  0  0  0  0  0  0  0  0  0  0
    4.7168   -3.6158    4.6329 H   0  0  0  0  0  0  0  0  0  0  0  0
    4.5923   -2.1273    3.7542 H   0  0  0  0  0  0  0  0  0  0  0  0
    2.5457   -4.7816    5.5558 H   0  0  0  0  0  0  0  0  0  0  0  0
    0.0023   -4.1865    5.9596 H   0  0  0  0  0  0  0  0  0  0  0  0
    4.3542   -7.0642   -0.3243 H   0  0  0  0  0  0  0  0  0  0  0  0
    5.8187   -7.2431    0.6338 H   0  0  0  0  0  0  0  0  0  0  0  0
    2.0623   -7.8682    2.0537 H   0  0  0  0  0  0  0  0  0  0  0  0
    3.5787   -9.4216    0.2026 H   0  0  0  0  0  0  0  0  0  0  0  0
    4.8250   -9.8236    1.3382 H   0  0  0  0  0  0  0  0  0  0  0  0
    1.8169   -9.9859    1.6504 H   0  0  0  0  0  0  0  0  0  0  0  0
    3.0319  -11.1144    2.1794 H   0  0  0  0  0  0  0  0  0  0  0  0
    1.1735  -10.9108    3.9256 H   0  0  0  0  0  0  0  0  0  0  0  0
    2.6195  -11.1048    4.8951 H   0  0  0  0  0  0  0  0  0  0  0  0
    1.9494   -8.9553    6.1769 H   0  0  0  0  0  0  0  0  0  0  0  0
   -0.1689  -11.1880    6.0792 H   0  0  0  0  0  0  0  0  0  0  0  0
    0.0871   -9.9748    7.4271 H   0  0  0  0  0  0  0  0  0  0  0  0
   -0.3760   -8.0879    5.8498 H   0  0  0  0  0  0  0  0  0  0  0  0
   -0.6579   -9.2948    4.4855 H   0  0  0  0  0  0  0  0  0  0  0  0
    3.8055   -8.4882    5.0260 H   0  0  0  0  0  0  0  0  0  0  0  0
    4.8747  -10.8812    3.4274 H   0  0  0  0  0  0  0  0  0  0  0  0
    5.0755  -10.4467    5.1191 H   0  0  0  0  0  0  0  0  0  0  0  0
    2.0388   -8.6804    3.4449 H   0  0  0  0  0  0  0  0  0  0  0  0
  1  2  1  0
  2  7  2  0
  2  3  1  0
  3  4  2  0
  3 39  1  0
  4  5  1  0
  4 40  1  0
  5 37  1  0
  5  6  2  0
 38  6  1  6
  6  7  1  0
  7  8  1  0
  8  9  1  0
  9 38  1  0
  9 10  1  0
  9 41  1  1
 10 18  1  0
 10 11  2  0
 11 12  1  0
 11 26  1  0
 12 17  2  0
 12 13  1  0
 13 14  2  0
 13 42  1  0
 14 15  1  0
 14 43  1  0
 15 16  2  0
 15 44  1  0
 16 17  1  0
 16 45  1  0
 17 18  1  0
 18 19  1  0
 19 20  1  0
 19 46  1  0
 19 47  1  0
 20 24  2  0
 20 21  1  0
 21 22  2  0
 21 48  1  0
 22 23  1  0
 22 49  1  0
 23 24  1  0
 24 25  1  0
 26 27  1  0
 26 50  1  0
 26 51  1  0
 27 38  1  0
 27 28  1  1
 27 29  1  0
 28 52  1  0
 29 30  1  0
 29 53  1  0
 29 54  1  0
 30 31  1  0
 30 55  1  0
 30 56  1  0
 31 32  1  0
 31 36  1  0
 31 67  1  6
 32 33  1  0
 32 57  1  0
 32 58  1  0
 33 35  1  0
 33 34  1  0
 33 59  1  0
 34 35  1  0
 34 60  1  0
 34 61  1  0
 35 62  1  0
 35 63  1  0
 36 37  1  0
 36 38  1  0
 36 64  1  1
 37 65  1  0
 37 66  1  0
M  CHG  2   1  -1  31   1
M  END
>  <i_m_ct_stereo_status>  (276) 
1

>  <s_m_source_file>  (276) 
/var/tmp/pbs.5076255.sched01/tmp548j1hfo/88g9dmtei7.sdf

>  <i_m_source_file_index>  (276) 
31

>  <i_lp_mmshare_version>  (276) 
48012

>  <i_f3d_flags>  (276) 
0

>  <s_epik_input>  (276) 
W0NAXTEyM2M0YzVbY0hdW2NIXWMoW09IXSljNE9bQ0BIXTFjNmMoYzdjKFtjSF1bY0hdW2NIXVtjSF03KW42W0NIMl1jOFtjSF1bY0hdc2M4Q2wpW0NIMl1bQ0BAXTIoW09IXSlbQ0gyXVtDSDJdTihbQ0BIXTNbQ0gyXTUpW0NIMl1bQ0hdOVtDSDJdW0NIMl05

>  <s_epik_cmdline>  (276) 
J2VwaWtfcHl0aG9uJywgJy1waHQnLCAnMi4wJywgJy1waCcsICc3LjAnLCAnLXRuJywgJzgnLCAnLW1hJywgJzIwMCcsICctaW1hZScsICc8aW5maWxlLm1hZT4nLCAnLW9tYWUnLCAnPG91dGZpbGUubWFlPic=

>  <r_epik_Ionization_Penalty>  (276) 
2.08256

>  <r_epik_Ionization_Penalty_Charging>  (276) 
2.08256

>  <r_epik_Ionization_Penalty_Neutral>  (276) 
1.38229e-06

>  <r_epik_State_Penalty>  (276) 
2.21548

>  <r_epik_Charging_Adjusted_Penalty>  (276) 
4.29805

>  <i_epik_Tot_Q>  (276) 
0

>  <i_epik_Tot_abs_Q>  (276) 
2

>  <s_lp_Force_Field>  (276) 
OPLS3e

>  <r_lp_Energy>  (276) 
98.1863

>  <b_lp_Chiralities_Consistent>  (276) 
1

>  <s_lp_Variant>  (276) 
75:0-2

>  <s_i_glide_gridfile>  (276) 
pfpi4k_grid

>  <i_i_glide_lignum>  (276) 
31

>  <i_i_glide_rotatable_bonds>  (276) 
5

>  <r_i_docking_score>  (276) 
-1.71913

>  <r_i_glide_ligand_efficiency>  (276) 
-0.0452402

>  <r_i_glide_ligand_efficiency_sa>  (276) 
-0.152097

>  <r_i_glide_ligand_efficiency_ln>  (276) 
-0.370695

>  <r_i_glide_gscore>  (276) 
-1.71913

>  <r_i_glide_lipo>  (276) 
-0.295692

>  <r_i_glide_hbond>  (276) 
0

>  <r_i_glide_metal>  (276) 
-0

>  <r_i_glide_rewards>  (276) 
-0.0111077

>  <r_i_glide_evdw>  (276) 
-30.5407

>  <r_i_glide_ecoul>  (276) 
-1.03879

>  <r_i_glide_erotb>  (276) 
0.278698

>  <r_i_glide_esite>  (276) 
-0.00817642

>  <r_i_glide_emodel>  (276) 
-34.4786

>  <r_i_glide_energy>  (276) 
-31.5795

>  <r_i_glide_einternal>  (276) 
2.06557

>  <r_i_glide_intrahb_reward>  (276) 
-0

>  <i_i_glide_confnum>  (276) 
1

>  <i_i_glide_posenum>  (276) 
10

>  <r_i_glide_eff_state_penalty>  (276) 
0

>  <ligand_id>  (276) 
75

>  <original_smiles>  (276) 
Oc1ccc2c3c1OC1c4c(c5ccccc5n4Cc4ccsc4Cl)CC4(O)CCN(CC5CC5)C(C2)C314

>  <smiles>  (276) 
[H]OC12C([H])([H])c3c(n(C([H])([H])c4c(Cl)sc([H])c4[H])c4c([H])c([H])c([H])c([H])c34)C3([H])Oc4c([O-])c([H])c([H])c5c4C31C([H])(C5([H])[H])[N+]([H])(C([H])([H])C1([H])C([H])([H])C1([H])[H])C([H])([H])C2([H])[H]

$$$$
75:2:0
     RDKit          3D

 67 75  0  0  1  0  0  0  0  0999 V2000
    8.7159   -5.9196    1.6789 O   0  0  0  0  0  0  0  0  0  0  0  0
    7.5642   -6.5579    2.0407 C   0  0  0  0  0  0  0  0  0  0  0  0
    7.6268   -7.9404    2.3808 C   0  0  0  0  0  0  0  0  0  0  0  0
    6.5056   -8.5892    2.9657 C   0  0  0  0  0  0  0  0  0  0  0  0
    5.2837   -7.8969    3.0177 C   0  0  0  0  0  0  0  0  0  0  0  0
    5.2292   -6.6302    2.4479 C   0  0  0  0  0  0  0  0  0  0  0  0
    6.3371   -5.8742    2.1224 C   0  0  0  0  0  0  0  0  0  0  0  0
    6.0951   -4.5335    2.2347 O   0  0  0  0  0  0  0  0  0  0  0  0
    4.6870   -4.3705    2.4741 C   0  0  1  0  0  0  0  0  0  0  0  0
    4.3577   -3.6455    1.2002 C   0  0  0  0  0  0  0  0  0  0  0  0
    3.8016   -4.2325    0.0986 C   0  0  0  0  0  0  0  0  0  0  0  0
    3.7656   -3.2332   -0.9351 C   0  0  0  0  0  0  0  0  0  0  0  0
    3.2930   -3.1575   -2.2767 C   0  0  0  0  0  0  0  0  0  0  0  0
    3.3794   -1.9798   -3.0502 C   0  0  0  0  0  0  0  0  0  0  0  0
    3.9480   -0.8296   -2.4899 C   0  0  0  0  0  0  0  0  0  0  0  0
    4.4502   -0.8770   -1.1733 C   0  0  0  0  0  0  0  0  0  0  0  0
    4.3440   -2.0516   -0.3989 C   0  0  0  0  0  0  0  0  0  0  0  0
    4.6692   -2.3192    0.9289 N   0  0  0  0  0  0  0  0  0  0  0  0
    5.2616   -1.3687    1.8780 C   0  0  0  0  0  0  0  0  0  0  0  0
    4.2358   -0.4127    2.4363 C   0  0  0  0  0  0  0  0  0  0  0  0
    3.1082    0.1232    1.7316 C   0  0  0  0  0  0  0  0  0  0  0  0
    2.3498    1.0011    2.4624 C   0  0  0  0  0  0  0  0  0  0  0  0
    2.9869    1.1986    4.0697 S   0  0  0  0  0  0  0  0  0  0  0  0
    4.2823    0.0918    3.7185 C   0  0  0  0  0  0  0  0  0  0  0  0
    5.4189   -0.2173    4.9641 Cl  0  0  0  0  0  0  0  0  0  0  0  0
    3.2894   -5.6337    0.1292 C   0  0  0  0  0  0  0  0  0  0  0  0
    2.8331   -5.9608    1.5639 C   0  0  1  0  0  0  0  0  0  0  0  0
    1.8101   -4.9982    1.7844 O   0  0  0  0  0  0  0  0  0  0  0  0
    2.0492   -7.2664    1.7374 C   0  0  0  0  0  0  0  0  0  0  0  0
    1.3494   -7.3275    3.1277 C   0  0  0  0  0  0  0  0  0  0  0  0
    2.0907   -6.6826    4.2311 N   0  0  0  0  0  0  0  0  0  0  0  0
    1.3375   -5.6184    4.8941 C   0  0  0  0  0  0  0  0  0  0  0  0
    1.8317   -5.3253    6.3011 C   0  0  0  0  0  0  0  0  0  0  0  0
    1.1672   -5.9588    7.5069 C   0  0  0  0  0  0  0  0  0  0  0  0
    0.9790   -4.4915    7.2374 C   0  0  0  0  0  0  0  0  0  0  0  0
    3.5241   -6.4678    3.9842 C   0  0  1  0  0  0  0  0  0  0  0  0
    4.1374   -7.9096    3.9909 C   0  0  0  0  0  0  0  0  0  0  0  0
    3.9874   -5.8062    2.6318 C   0  0  1  0  0  0  0  0  0  0  0  0
    9.4579   -6.5131    1.6710 H   0  0  0  0  0  0  0  0  0  0  0  0
    8.5717   -8.4431    2.3417 H   0  0  0  0  0  0  0  0  0  0  0  0
    6.6123   -9.5488    3.4340 H   0  0  0  0  0  0  0  0  0  0  0  0
    4.4931   -3.7520    3.3576 H   0  0  0  0  0  0  0  0  0  0  0  0
    2.8138   -4.0040   -2.7233 H   0  0  0  0  0  0  0  0  0  0  0  0
    2.9630   -1.9683   -4.0479 H   0  0  0  0  0  0  0  0  0  0  0  0
    3.9485    0.1030   -3.0394 H   0  0  0  0  0  0  0  0  0  0  0  0
    4.8051    0.0192   -0.6975 H   0  0  0  0  0  0  0  0  0  0  0  0
    5.7591   -1.9129    2.6813 H   0  0  0  0  0  0  0  0  0  0  0  0
    6.0583   -0.8358    1.3601 H   0  0  0  0  0  0  0  0  0  0  0  0
    2.8492   -0.1217    0.7136 H   0  0  0  0  0  0  0  0  0  0  0  0
    1.4752    1.5304    2.1356 H   0  0  0  0  0  0  0  0  0  0  0  0
    2.4323   -5.7214   -0.5327 H   0  0  0  0  0  0  0  0  0  0  0  0
    4.0565   -6.3411   -0.2048 H   0  0  0  0  0  0  0  0  0  0  0  0
    2.2200   -4.1469    1.7330 H   0  0  0  0  0  0  0  0  0  0  0  0
    1.2968   -7.3763    0.9532 H   0  0  0  0  0  0  0  0  0  0  0  0
    2.7336   -8.1084    1.6202 H   0  0  0  0  0  0  0  0  0  0  0  0
    0.3725   -6.8473    3.0282 H   0  0  0  0  0  0  0  0  0  0  0  0
    1.1337   -8.3653    3.3845 H   0  0  0  0  0  0  0  0  0  0  0  0
    1.3271   -4.6983    4.3143 H   0  0  0  0  0  0  0  0  0  0  0  0
    0.2973   -5.9355    4.9899 H   0  0  0  0  0  0  0  0  0  0  0  0
    2.8974   -5.1154    6.3962 H   0  0  0  0  0  0  0  0  0  0  0  0
    0.3304   -6.6288    7.3143 H   0  0  0  0  0  0  0  0  0  0  0  0
    1.8077   -6.2405    8.3400 H   0  0  0  0  0  0  0  0  0  0  0  0
    1.4875   -3.7973    7.9040 H   0  0  0  0  0  0  0  0  0  0  0  0
    0.0093   -4.1614    6.8690 H   0  0  0  0  0  0  0  0  0  0  0  0
    3.9917   -5.9146    4.7982 H   0  0  0  0  0  0  0  0  0  0  0  0
    3.4555   -8.7078    3.6937 H   0  0  0  0  0  0  0  0  0  0  0  0
    4.4951   -8.1646    4.9882 H   0  0  0  0  0  0  0  0  0  0  0  0
  1  2  1  0
  1 39  1  0
  2  7  2  0
  2  3  1  0
  3  4  2  0
  3 40  1  0
  4  5  1  0
  4 41  1  0
  5 37  1  0
  5  6  2  0
 38  6  1  6
  6  7  1  0
  7  8  1  0
  8  9  1  0
  9 38  1  0
  9 10  1  0
  9 42  1  1
 10 18  1  0
 10 11  2  0
 11 12  1  0
 11 26  1  0
 12 17  2  0
 12 13  1  0
 13 14  2  0
 13 43  1  0
 14 15  1  0
 14 44  1  0
 15 16  2  0
 15 45  1  0
 16 17  1  0
 16 46  1  0
 17 18  1  0
 18 19  1  0
 19 20  1  0
 19 47  1  0
 19 48  1  0
 20 24  2  0
 20 21  1  0
 21 22  2  0
 21 49  1  0
 22 23  1  0
 22 50  1  0
 23 24  1  0
 24 25  1  0
 26 27  1  0
 26 51  1  0
 26 52  1  0
 27 38  1  0
 27 28  1  1
 27 29  1  0
 28 53  1  0
 29 30  1  0
 29 54  1  0
 29 55  1  0
 30 31  1  0
 30 56  1  0
 30 57  1  0
 31 32  1  0
 31 36  1  0
 32 33  1  0
 32 58  1  0
 32 59  1  0
 33 35  1  0
 33 34  1  0
 33 60  1  0
 34 35  1  0
 34 61  1  0
 34 62  1  0
 35 63  1  0
 35 64  1  0
 36 37  1  0
 36 38  1  0
 36 65  1  1
 37 66  1  0
 37 67  1  0
M  END
>  <i_m_ct_stereo_status>  (277) 
1

>  <s_m_source_file>  (277) 
/var/tmp/pbs.5076255.sched01/tmp548j1hfo/88g9dmtei7.sdf

>  <i_m_source_file_index>  (277) 
32

>  <i_lp_mmshare_version>  (277) 
48012

>  <i_f3d_flags>  (277) 
0

>  <s_epik_input>  (277) 
W0NAXTEyM2M0YzVbY0hdW2NIXWMoW09IXSljNE9bQ0BIXTFjNmMoYzdjKFtjSF1bY0hdW2NIXVtjSF03KW42W0NIMl1jOFtjSF1bY0hdc2M4Q2wpW0NIMl1bQ0BAXTIoW09IXSlbQ0gyXVtDSDJdTihbQ0BIXTNbQ0gyXTUpW0NIMl1bQ0hdOVtDSDJdW0NIMl05

>  <s_epik_cmdline>  (277) 
J2VwaWtfcHl0aG9uJywgJy1waHQnLCAnMi4wJywgJy1waCcsICc3LjAnLCAnLXRuJywgJzgnLCAnLW1hJywgJzIwMCcsICctaW1hZScsICc8aW5maWxlLm1hZT4nLCAnLW9tYWUnLCAnPG91dGZpbGUubWFlPic=

>  <r_epik_Ionization_Penalty>  (277) 
2.5264

>  <r_epik_Ionization_Penalty_Charging>  (277) 
0

>  <r_epik_Ionization_Penalty_Neutral>  (277) 
2.5264

>  <r_epik_State_Penalty>  (277) 
2.70638

>  <r_epik_Charging_Adjusted_Penalty>  (277) 
2.70638

>  <i_epik_Tot_Q>  (277) 
0

>  <i_epik_Tot_abs_Q>  (277) 
0

>  <s_lp_Force_Field>  (277) 
OPLS3e

>  <r_lp_Energy>  (277) 
102.568

>  <b_lp_Chiralities_Consistent>  (277) 
1

>  <s_lp_Variant>  (277) 
75:0-3

>  <s_i_glide_gridfile>  (277) 
pfpi4k_grid

>  <i_i_glide_lignum>  (277) 
32

>  <i_i_glide_rotatable_bonds>  (277) 
6

>  <r_i_docking_score>  (277) 
-2.56818

>  <r_i_glide_ligand_efficiency>  (277) 
-0.0675836

>  <r_i_glide_ligand_efficiency_sa>  (277) 
-0.227214

>  <r_i_glide_ligand_efficiency_ln>  (277) 
-0.553774

>  <r_i_glide_gscore>  (277) 
-2.56818

>  <r_i_glide_lipo>  (277) 
-0.444403

>  <r_i_glide_hbond>  (277) 
-0.0337631

>  <r_i_glide_metal>  (277) 
-0

>  <r_i_glide_rewards>  (277) 
-0.0168949

>  <r_i_glide_evdw>  (277) 
-29.4653

>  <r_i_glide_ecoul>  (277) 
-5.857

>  <r_i_glide_erotb>  (277) 
0.278698

>  <r_i_glide_esite>  (277) 
0

>  <r_i_glide_emodel>  (277) 
-39.8562

>  <r_i_glide_energy>  (277) 
-35.3222

>  <r_i_glide_einternal>  (277) 
1.55718

>  <r_i_glide_intrahb_reward>  (277) 
-0

>  <i_i_glide_confnum>  (277) 
1

>  <i_i_glide_posenum>  (277) 
40

>  <r_i_glide_eff_state_penalty>  (277) 
0

>  <ligand_id>  (277) 
75

>  <original_smiles>  (277) 
Oc1ccc2c3c1OC1c4c(c5ccccc5n4Cc4ccsc4Cl)CC4(O)CCN(CC5CC5)C(C2)C314

>  <smiles>  (277) 
[H]Oc1c([H])c([H])c2c3c1OC1([H])c4c(c5c([H])c([H])c([H])c([H])c5n4C([H])([H])c4c(Cl)sc([H])c4[H])C([H])([H])C4(O[H])C([H])([H])C([H])([H])N(C([H])([H])C5([H])C([H])([H])C5([H])[H])C([H])(C2([H])[H])C314

$$$$
75:2:1
     RDKit          3D

 67 75  0  0  1  0  0  0  0  0999 V2000
    8.2136   -7.1146    2.3164 O   0  0  0  0  0  0  0  0  0  0  0  0
    6.9908   -7.7104    2.5105 C   0  0  0  0  0  0  0  0  0  0  0  0
    6.8762   -9.1113    2.6557 C   0  0  0  0  0  0  0  0  0  0  0  0
    5.6525   -9.7046    3.0582 C   0  0  0  0  0  0  0  0  0  0  0  0
    4.5217   -8.8663    3.1612 C   0  0  0  0  0  0  0  0  0  0  0  0
    4.6237   -7.5554    2.7596 C   0  0  0  0  0  0  0  0  0  0  0  0
    5.8285   -6.9069    2.6440 C   0  0  0  0  0  0  0  0  0  0  0  0
    5.7267   -5.5886    2.9198 O   0  0  0  0  0  0  0  0  0  0  0  0
    4.3268   -5.2815    3.0916 C   0  0  1  0  0  0  0  0  0  0  0  0
    4.1699   -4.3489    1.9019 C   0  0  0  0  0  0  0  0  0  0  0  0
    3.6610   -4.7107    0.6840 C   0  0  0  0  0  0  0  0  0  0  0  0
    3.8078   -3.5850   -0.1967 C   0  0  0  0  0  0  0  0  0  0  0  0
    3.4537   -3.3054   -1.5337 C   0  0  0  0  0  0  0  0  0  0  0  0
    3.7173   -2.0589   -2.1137 C   0  0  0  0  0  0  0  0  0  0  0  0
    4.3667   -1.0587   -1.3447 C   0  0  0  0  0  0  0  0  0  0  0  0
    4.7455   -1.3181   -0.0376 C   0  0  0  0  0  0  0  0  0  0  0  0
    4.4494   -2.5527    0.5535 C   0  0  0  0  0  0  0  0  0  0  0  0
    4.6358   -3.0382    1.8433 N   0  0  0  0  0  0  0  0  0  0  0  0
    5.2211   -2.2922    2.9484 C   0  0  0  0  0  0  0  0  0  0  0  0
    4.1873   -1.5139    3.7501 C   0  0  0  0  0  0  0  0  0  0  0  0
    3.9374   -1.7985    5.1337 C   0  0  0  0  0  0  0  0  0  0  0  0
    2.9932   -0.9774    5.7008 C   0  0  0  0  0  0  0  0  0  0  0  0
    2.3683    0.1750    4.5616 S   0  0  0  0  0  0  0  0  0  0  0  0
    3.4007   -0.4662    3.3143 C   0  0  0  0  0  0  0  0  0  0  0  0
    3.3159    0.2770    1.7517 Cl  0  0  0  0  0  0  0  0  0  0  0  0
    3.0078   -6.0565    0.4728 C   0  0  0  0  0  0  0  0  0  0  0  0
    2.3896   -6.5066    1.8168 C   0  0  1  0  0  0  0  0  0  0  0  0
    1.4568   -5.4605    2.1060 O   0  0  0  0  0  0  0  0  0  0  0  0
    1.4739   -7.7363    1.7484 C   0  0  0  0  0  0  0  0  0  0  0  0
    0.6489   -7.8994    3.0575 C   0  0  0  0  0  0  0  0  0  0  0  0
    1.3599   -7.5056    4.2934 N   0  0  0  0  0  0  0  0  0  0  0  0
    0.6631   -6.4697    5.0599 C   0  0  0  0  0  0  0  0  0  0  0  0
    1.1133   -6.3962    6.5082 C   0  0  0  0  0  0  0  0  0  0  0  0
    0.4631   -5.3808    7.4205 C   0  0  0  0  0  0  0  0  0  0  0  0
    1.9007   -5.2031    7.0021 C   0  0  0  0  0  0  0  0  0  0  0  0
    2.8315   -7.4302    4.1880 C   0  0  1  0  0  0  0  0  0  0  0  0
    3.3009   -8.9217    4.0269 C   0  0  0  0  0  0  0  0  0  0  0  0
    3.4621   -6.6266    2.9781 C   0  0  1  0  0  0  0  0  0  0  0  0
    8.9275   -7.7049    2.1043 H   0  0  0  0  0  0  0  0  0  0  0  0
    7.7562   -9.7248    2.5905 H   0  0  0  0  0  0  0  0  0  0  0  0
    5.6265  -10.7332    3.3954 H   0  0  0  0  0  0  0  0  0  0  0  0
    4.1177   -4.7610    4.0240 H   0  0  0  0  0  0  0  0  0  0  0  0
    2.9325   -4.0499   -2.1094 H   0  0  0  0  0  0  0  0  0  0  0  0
    3.3872   -1.8442   -3.1203 H   0  0  0  0  0  0  0  0  0  0  0  0
    4.5164   -0.0802   -1.7848 H   0  0  0  0  0  0  0  0  0  0  0  0
    5.1941   -0.5325    0.5769 H   0  0  0  0  0  0  0  0  0  0  0  0
    5.7590   -2.9935    3.5899 H   0  0  0  0  0  0  0  0  0  0  0  0
    5.9938   -1.6364    2.5487 H   0  0  0  0  0  0  0  0  0  0  0  0
    4.4544   -2.5798    5.6819 H   0  0  0  0  0  0  0  0  0  0  0  0
    2.6144   -0.9597    6.7243 H   0  0  0  0  0  0  0  0  0  0  0  0
    2.2377   -5.9650   -0.2917 H   0  0  0  0  0  0  0  0  0  0  0  0
    3.7406   -6.7792    0.1189 H   0  0  0  0  0  0  0  0  0  0  0  0
    1.9636   -4.6851    2.2849 H   0  0  0  0  0  0  0  0  0  0  0  0
    0.7909   -7.6576    0.8964 H   0  0  0  0  0  0  0  0  0  0  0  0
    2.0781   -8.6213    1.5571 H   0  0  0  0  0  0  0  0  0  0  0  0
   -0.2652   -7.3163    2.9628 H   0  0  0  0  0  0  0  0  0  0  0  0
    0.3273   -8.9406    3.1488 H   0  0  0  0  0  0  0  0  0  0  0  0
    0.7507   -5.4911    4.5879 H   0  0  0  0  0  0  0  0  0  0  0  0
   -0.3993   -6.7219    5.0795 H   0  0  0  0  0  0  0  0  0  0  0  0
    1.3192   -7.3623    6.9681 H   0  0  0  0  0  0  0  0  0  0  0  0
   -0.2769   -4.7104    6.9856 H   0  0  0  0  0  0  0  0  0  0  0  0
    0.2826   -5.6631    8.4560 H   0  0  0  0  0  0  0  0  0  0  0  0
    2.6679   -5.3866    7.7518 H   0  0  0  0  0  0  0  0  0  0  0  0
    2.1315   -4.4259    6.2744 H   0  0  0  0  0  0  0  0  0  0  0  0
    3.2580   -7.0274    5.1108 H   0  0  0  0  0  0  0  0  0  0  0  0
    2.5687   -9.5786    3.5559 H   0  0  0  0  0  0  0  0  0  0  0  0
    3.5237   -9.3404    5.0041 H   0  0  0  0  0  0  0  0  0  0  0  0
  1  2  1  0
  1 39  1  0
  2  7  2  0
  2  3  1  0
  3  4  2  0
  3 40  1  0
  4  5  1  0
  4 41  1  0
  5 37  1  0
  5  6  2  0
 38  6  1  6
  6  7  1  0
  7  8  1  0
  8  9  1  0
  9 38  1  0
  9 10  1  0
  9 42  1  1
 10 18  1  0
 10 11  2  0
 11 12  1  0
 11 26  1  0
 12 17  2  0
 12 13  1  0
 13 14  2  0
 13 43  1  0
 14 15  1  0
 14 44  1  0
 15 16  2  0
 15 45  1  0
 16 17  1  0
 16 46  1  0
 17 18  1  0
 18 19  1  0
 19 20  1  0
 19 47  1  0
 19 48  1  0
 20 24  2  0
 20 21  1  0
 21 22  2  0
 21 49  1  0
 22 23  1  0
 22 50  1  0
 23 24  1  0
 24 25  1  0
 26 27  1  0
 26 51  1  0
 26 52  1  0
 27 38  1  0
 27 28  1  1
 27 29  1  0
 28 53  1  0
 29 30  1  0
 29 54  1  0
 29 55  1  0
 30 31  1  0
 30 56  1  0
 30 57  1  0
 31 32  1  0
 31 36  1  0
 32 33  1  0
 32 58  1  0
 32 59  1  0
 33 35  1  0
 33 34  1  0
 33 60  1  0
 34 35  1  0
 34 61  1  0
 34 62  1  0
 35 63  1  0
 35 64  1  0
 36 37  1  0
 36 38  1  0
 36 65  1  1
 37 66  1  0
 37 67  1  0
M  END
>  <i_m_ct_stereo_status>  (278) 
1

>  <s_m_source_file>  (278) 
/var/tmp/pbs.5076255.sched01/tmp548j1hfo/88g9dmtei7.sdf

>  <i_m_source_file_index>  (278) 
32

>  <i_lp_mmshare_version>  (278) 
48012

>  <i_f3d_flags>  (278) 
0

>  <s_epik_input>  (278) 
W0NAXTEyM2M0YzVbY0hdW2NIXWMoW09IXSljNE9bQ0BIXTFjNmMoYzdjKFtjSF1bY0hdW2NIXVtjSF03KW42W0NIMl1jOFtjSF1bY0hdc2M4Q2wpW0NIMl1bQ0BAXTIoW09IXSlbQ0gyXVtDSDJdTihbQ0BIXTNbQ0gyXTUpW0NIMl1bQ0hdOVtDSDJdW0NIMl05

>  <s_epik_cmdline>  (278) 
J2VwaWtfcHl0aG9uJywgJy1waHQnLCAnMi4wJywgJy1waCcsICc3LjAnLCAnLXRuJywgJzgnLCAnLW1hJywgJzIwMCcsICctaW1hZScsICc8aW5maWxlLm1hZT4nLCAnLW9tYWUnLCAnPG91dGZpbGUubWFlPic=

>  <r_epik_Ionization_Penalty>  (278) 
2.5264

>  <r_epik_Ionization_Penalty_Charging>  (278) 
0

>  <r_epik_Ionization_Penalty_Neutral>  (278) 
2.5264

>  <r_epik_State_Penalty>  (278) 
2.70638

>  <r_epik_Charging_Adjusted_Penalty>  (278) 
2.70638

>  <i_epik_Tot_Q>  (278) 
0

>  <i_epik_Tot_abs_Q>  (278) 
0

>  <s_lp_Force_Field>  (278) 
OPLS3e

>  <r_lp_Energy>  (278) 
102.568

>  <b_lp_Chiralities_Consistent>  (278) 
1

>  <s_lp_Variant>  (278) 
75:0-3

>  <s_i_glide_gridfile>  (278) 
pfpi4k_grid

>  <i_i_glide_lignum>  (278) 
32

>  <i_i_glide_rotatable_bonds>  (278) 
6

>  <r_i_docking_score>  (278) 
-2.03515

>  <r_i_glide_ligand_efficiency>  (278) 
-0.0535565

>  <r_i_glide_ligand_efficiency_sa>  (278) 
-0.180055

>  <r_i_glide_ligand_efficiency_ln>  (278) 
-0.438837

>  <r_i_glide_gscore>  (278) 
-2.03515

>  <r_i_glide_lipo>  (278) 
-0.315936

>  <r_i_glide_hbond>  (278) 
-0.0454358

>  <r_i_glide_metal>  (278) 
-0

>  <r_i_glide_rewards>  (278) 
-0.0346207

>  <r_i_glide_evdw>  (278) 
-28.6352

>  <r_i_glide_ecoul>  (278) 
-3.2406

>  <r_i_glide_erotb>  (278) 
0.278698

>  <r_i_glide_esite>  (278) 
0

>  <r_i_glide_emodel>  (278) 
-34.3526

>  <r_i_glide_energy>  (278) 
-31.8758

>  <r_i_glide_einternal>  (278) 
0.76004

>  <r_i_glide_intrahb_reward>  (278) 
-0

>  <i_i_glide_confnum>  (278) 
1

>  <i_i_glide_posenum>  (278) 
1

>  <r_i_glide_eff_state_penalty>  (278) 
0

>  <ligand_id>  (278) 
75

>  <original_smiles>  (278) 
Oc1ccc2c3c1OC1c4c(c5ccccc5n4Cc4ccsc4Cl)CC4(O)CCN(CC5CC5)C(C2)C314

>  <smiles>  (278) 
[H]Oc1c([H])c([H])c2c3c1OC1([H])c4c(c5c([H])c([H])c([H])c([H])c5n4C([H])([H])c4c(Cl)sc([H])c4[H])C([H])([H])C4(O[H])C([H])([H])C([H])([H])N(C([H])([H])C5([H])C([H])([H])C5([H])[H])C([H])(C2([H])[H])C314

$$$$
75:2:2
     RDKit          3D

 67 75  0  0  1  0  0  0  0  0999 V2000
    8.9519   -6.2628    4.2487 O   0  0  0  0  0  0  0  0  0  0  0  0
    8.1068   -7.2958    3.9436 C   0  0  0  0  0  0  0  0  0  0  0  0
    8.5637   -8.6411    4.0253 C   0  0  0  0  0  0  0  0  0  0  0  0
    7.6298   -9.7121    3.9493 C   0  0  0  0  0  0  0  0  0  0  0  0
    6.3002   -9.4151    3.5980 C   0  0  0  0  0  0  0  0  0  0  0  0
    5.9792   -8.1085    3.2694 C   0  0  0  0  0  0  0  0  0  0  0  0
    6.7706   -7.0332    3.6073 C   0  0  0  0  0  0  0  0  0  0  0  0
    6.0516   -5.9071    3.8253 O   0  0  0  0  0  0  0  0  0  0  0  0
    4.6920   -6.2114    3.4540 C   0  0  1  0  0  0  0  0  0  0  0  0
    4.5465   -5.2213    2.3294 C   0  0  0  0  0  0  0  0  0  0  0  0
    4.6631   -5.5476    1.0066 C   0  0  0  0  0  0  0  0  0  0  0  0
    4.5966   -4.3229    0.2701 C   0  0  0  0  0  0  0  0  0  0  0  0
    4.6458   -3.9787   -1.1023 C   0  0  0  0  0  0  0  0  0  0  0  0
    4.5227   -2.6400   -1.5309 C   0  0  0  0  0  0  0  0  0  0  0  0
    4.3513   -1.6095   -0.5894 C   0  0  0  0  0  0  0  0  0  0  0  0
    4.3082   -1.9238    0.7828 C   0  0  0  0  0  0  0  0  0  0  0  0
    4.4206   -3.2642    1.2082 C   0  0  0  0  0  0  0  0  0  0  0  0
    4.3848   -3.8455    2.4758 N   0  0  0  0  0  0  0  0  0  0  0  0
    4.2297   -3.1340    3.7433 C   0  0  0  0  0  0  0  0  0  0  0  0
    2.8256   -3.2303    4.2897 C   0  0  0  0  0  0  0  0  0  0  0  0
    2.3753   -4.2279    5.2249 C   0  0  0  0  0  0  0  0  0  0  0  0
    1.0480   -4.1270    5.5419 C   0  0  0  0  0  0  0  0  0  0  0  0
    0.3190   -2.7346    4.8163 S   0  0  0  0  0  0  0  0  0  0  0  0
    1.8114   -2.3496    4.0122 C   0  0  0  0  0  0  0  0  0  0  0  0
    1.8315   -0.9317    3.0381 Cl  0  0  0  0  0  0  0  0  0  0  0  0
    4.7396   -6.9785    0.5613 C   0  0  0  0  0  0  0  0  0  0  0  0
    3.9529   -7.8391    1.5764 C   0  0  1  0  0  0  0  0  0  0  0  0
    2.6411   -7.2711    1.5212 O   0  0  0  0  0  0  0  0  0  0  0  0
    3.7142   -9.2999    1.1732 C   0  0  0  0  0  0  0  0  0  0  0  0
    2.6523   -9.9744    2.0886 C   0  0  0  0  0  0  0  0  0  0  0  0
    2.6755   -9.5386    3.4963 N   0  0  0  0  0  0  0  0  0  0  0  0
    1.3963   -8.9948    3.9536 C   0  0  0  0  0  0  0  0  0  0  0  0
    1.2134   -9.0778    5.4587 C   0  0  0  0  0  0  0  0  0  0  0  0
   -0.1766   -8.8760    6.0338 C   0  0  0  0  0  0  0  0  0  0  0  0
    0.8857   -7.8370    6.2576 C   0  0  0  0  0  0  0  0  0  0  0  0
    3.9186   -8.8851    3.9378 C   0  0  1  0  0  0  0  0  0  0  0  0
    4.9806  -10.0411    3.9605 C   0  0  0  0  0  0  0  0  0  0  0  0
    4.5457   -7.7452    3.0366 C   0  0  1  0  0  0  0  0  0  0  0  0
    8.5481   -5.4175    4.1296 H   0  0  0  0  0  0  0  0  0  0  0  0
    9.5901   -8.8291    4.2739 H   0  0  0  0  0  0  0  0  0  0  0  0
    7.9205  -10.7133    4.2407 H   0  0  0  0  0  0  0  0  0  0  0  0
    3.9895   -6.0376    4.2544 H   0  0  0  0  0  0  0  0  0  0  0  0
    4.7599   -4.7651   -1.8287 H   0  0  0  0  0  0  0  0  0  0  0  0
    4.5448   -2.4143   -2.5882 H   0  0  0  0  0  0  0  0  0  0  0  0
    4.2385   -0.5817   -0.9112 H   0  0  0  0  0  0  0  0  0  0  0  0
    4.1655   -1.1379    1.5024 H   0  0  0  0  0  0  0  0  0  0  0  0
    4.9512   -3.5244    4.4610 H   0  0  0  0  0  0  0  0  0  0  0  0
    4.5129   -2.0938    3.5899 H   0  0  0  0  0  0  0  0  0  0  0  0
    3.0106   -4.9951    5.6577 H   0  0  0  0  0  0  0  0  0  0  0  0
    0.4826   -4.7744    6.1946 H   0  0  0  0  0  0  0  0  0  0  0  0
    4.3221   -7.0774   -0.4444 H   0  0  0  0  0  0  0  0  0  0  0  0
    5.7791   -7.3067    0.5188 H   0  0  0  0  0  0  0  0  0  0  0  0
    2.7144   -6.3652    1.7794 H   0  0  0  0  0  0  0  0  0  0  0  0
    3.3986   -9.3905    0.1307 H   0  0  0  0  0  0  0  0  0  0  0  0
    4.6576   -9.8422    1.2288 H   0  0  0  0  0  0  0  0  0  0  0  0
    1.6664   -9.7819    1.6643 H   0  0  0  0  0  0  0  0  0  0  0  0
    2.7779  -11.0588    2.0756 H   0  0  0  0  0  0  0  0  0  0  0  0
    1.2526   -7.9709    3.6108 H   0  0  0  0  0  0  0  0  0  0  0  0
    0.5874   -9.5870    3.5210 H   0  0  0  0  0  0  0  0  0  0  0  0
    1.7886   -9.8606    5.9532 H   0  0  0  0  0  0  0  0  0  0  0  0
   -0.9779   -8.6437    5.3331 H   0  0  0  0  0  0  0  0  0  0  0  0
   -0.4707   -9.4804    6.8903 H   0  0  0  0  0  0  0  0  0  0  0  0
    1.3065   -7.7515    7.2560 H   0  0  0  0  0  0  0  0  0  0  0  0
    0.8120   -6.9141    5.6921 H   0  0  0  0  0  0  0  0  0  0  0  0
    3.7964   -8.5099    4.9597 H   0  0  0  0  0  0  0  0  0  0  0  0
    4.7926  -10.8482    3.2515 H   0  0  0  0  0  0  0  0  0  0  0  0
    5.0221  -10.4963    4.9489 H   0  0  0  0  0  0  0  0  0  0  0  0
  1  2  1  0
  1 39  1  0
  2  7  2  0
  2  3  1  0
  3  4  2  0
  3 40  1  0
  4  5  1  0
  4 41  1  0
  5 37  1  0
  5  6  2  0
 38  6  1  6
  6  7  1  0
  7  8  1  0
  8  9  1  0
  9 38  1  0
  9 10  1  0
  9 42  1  1
 10 18  1  0
 10 11  2  0
 11 12  1  0
 11 26  1  0
 12 17  2  0
 12 13  1  0
 13 14  2  0
 13 43  1  0
 14 15  1  0
 14 44  1  0
 15 16  2  0
 15 45  1  0
 16 17  1  0
 16 46  1  0
 17 18  1  0
 18 19  1  0
 19 20  1  0
 19 47  1  0
 19 48  1  0
 20 24  2  0
 20 21  1  0
 21 22  2  0
 21 49  1  0
 22 23  1  0
 22 50  1  0
 23 24  1  0
 24 25  1  0
 26 27  1  0
 26 51  1  0
 26 52  1  0
 27 38  1  0
 27 28  1  1
 27 29  1  0
 28 53  1  0
 29 30  1  0
 29 54  1  0
 29 55  1  0
 30 31  1  0
 30 56  1  0
 30 57  1  0
 31 32  1  0
 31 36  1  0
 32 33  1  0
 32 58  1  0
 32 59  1  0
 33 35  1  0
 33 34  1  0
 33 60  1  0
 34 35  1  0
 34 61  1  0
 34 62  1  0
 35 63  1  0
 35 64  1  0
 36 37  1  0
 36 38  1  0
 36 65  1  1
 37 66  1  0
 37 67  1  0
M  END
>  <i_m_ct_stereo_status>  (279) 
1

>  <s_m_source_file>  (279) 
/var/tmp/pbs.5076255.sched01/tmp548j1hfo/88g9dmtei7.sdf

>  <i_m_source_file_index>  (279) 
32

>  <i_lp_mmshare_version>  (279) 
48012

>  <i_f3d_flags>  (279) 
0

>  <s_epik_input>  (279) 
W0NAXTEyM2M0YzVbY0hdW2NIXWMoW09IXSljNE9bQ0BIXTFjNmMoYzdjKFtjSF1bY0hdW2NIXVtjSF03KW42W0NIMl1jOFtjSF1bY0hdc2M4Q2wpW0NIMl1bQ0BAXTIoW09IXSlbQ0gyXVtDSDJdTihbQ0BIXTNbQ0gyXTUpW0NIMl1bQ0hdOVtDSDJdW0NIMl05

>  <s_epik_cmdline>  (279) 
J2VwaWtfcHl0aG9uJywgJy1waHQnLCAnMi4wJywgJy1waCcsICc3LjAnLCAnLXRuJywgJzgnLCAnLW1hJywgJzIwMCcsICctaW1hZScsICc8aW5maWxlLm1hZT4nLCAnLW9tYWUnLCAnPG91dGZpbGUubWFlPic=

>  <r_epik_Ionization_Penalty>  (279) 
2.5264

>  <r_epik_Ionization_Penalty_Charging>  (279) 
0

>  <r_epik_Ionization_Penalty_Neutral>  (279) 
2.5264

>  <r_epik_State_Penalty>  (279) 
2.70638

>  <r_epik_Charging_Adjusted_Penalty>  (279) 
2.70638

>  <i_epik_Tot_Q>  (279) 
0

>  <i_epik_Tot_abs_Q>  (279) 
0

>  <s_lp_Force_Field>  (279) 
OPLS3e

>  <r_lp_Energy>  (279) 
102.568

>  <b_lp_Chiralities_Consistent>  (279) 
1

>  <s_lp_Variant>  (279) 
75:0-3

>  <s_i_glide_gridfile>  (279) 
pfpi4k_grid

>  <i_i_glide_lignum>  (279) 
32

>  <i_i_glide_rotatable_bonds>  (279) 
6

>  <r_i_docking_score>  (279) 
-1.55742

>  <r_i_glide_ligand_efficiency>  (279) 
-0.0409849

>  <r_i_glide_ligand_efficiency_sa>  (279) 
-0.13779

>  <r_i_glide_ligand_efficiency_ln>  (279) 
-0.335827

>  <r_i_glide_gscore>  (279) 
-1.55742

>  <r_i_glide_lipo>  (279) 
-0.289423

>  <r_i_glide_hbond>  (279) 
0

>  <r_i_glide_metal>  (279) 
-0

>  <r_i_glide_rewards>  (279) 
-0.0151156

>  <r_i_glide_evdw>  (279) 
-30.6534

>  <r_i_glide_ecoul>  (279) 
0.00725405

>  <r_i_glide_erotb>  (279) 
0.278698

>  <r_i_glide_esite>  (279) 
0

>  <r_i_glide_emodel>  (279) 
-33.3238

>  <r_i_glide_energy>  (279) 
-30.6462

>  <r_i_glide_einternal>  (279) 
0.522644

>  <r_i_glide_intrahb_reward>  (279) 
-0

>  <i_i_glide_confnum>  (279) 
4

>  <i_i_glide_posenum>  (279) 
21

>  <r_i_glide_eff_state_penalty>  (279) 
0

>  <ligand_id>  (279) 
75

>  <original_smiles>  (279) 
Oc1ccc2c3c1OC1c4c(c5ccccc5n4Cc4ccsc4Cl)CC4(O)CCN(CC5CC5)C(C2)C314

>  <smiles>  (279) 
[H]Oc1c([H])c([H])c2c3c1OC1([H])c4c(c5c([H])c([H])c([H])c([H])c5n4C([H])([H])c4c(Cl)sc([H])c4[H])C([H])([H])C4(O[H])C([H])([H])C([H])([H])N(C([H])([H])C5([H])C([H])([H])C5([H])[H])C([H])(C2([H])[H])C314

$$$$
76:0:0
     RDKit          3D

 52 56  0  0  1  0  0  0  0  0999 V2000
    6.8188   -6.5945    3.3517 C   0  0  0  0  0  0  0  0  0  0  0  0
    6.5871   -5.7398    2.0881 C   0  0  2  0  0  0  0  0  0  0  0  0
    7.9353   -5.1350    1.5601 C   0  0  0  0  0  0  0  0  0  0  0  0
    7.8030   -3.7889    0.7774 C   0  0  0  0  0  0  0  0  0  0  0  0
    6.4958   -3.7167   -0.0145 C   0  0  2  0  0  0  0  0  0  0  0  0
    6.1926   -2.4638   -0.8780 C   0  0  1  0  0  0  0  0  0  0  0  0
    6.9195   -2.5785   -2.0844 O   0  0  0  0  0  0  0  0  0  0  0  0
    4.6448   -2.2112   -1.1026 C   0  0  1  0  0  0  0  0  0  0  0  0
    4.5228   -0.8189   -1.7525 C   0  0  0  0  0  0  0  0  0  0  0  0
    3.3239   -0.6494   -2.4345 O   0  0  0  0  0  0  0  0  0  0  0  0
    3.3509   -0.9748   -4.0750 S   0  0  0  0  0  0  0  0  0  0  0  0
    2.2175   -0.2532   -4.7243 O   0  0  0  0  0  0  0  0  0  0  0  0
    4.6205   -0.7760   -4.6523 O   0  0  0  0  0  0  0  0  0  0  0  0
    3.0782   -2.6392   -4.1133 O   0  0  0  0  0  0  0  0  0  0  0  0
    4.0524   -3.3920   -3.3943 C   0  0  0  0  0  0  0  0  0  0  0  0
    3.8939   -3.3787   -1.8386 C   0  0  2  0  0  0  0  0  0  0  0  0
    2.3640   -3.4537   -1.5392 C   0  0  0  0  0  0  0  0  0  0  0  0
    4.5085   -4.5397   -1.3829 O   0  0  0  0  0  0  0  0  0  0  0  0
    4.3552   -4.7504    0.1177 O   0  0  0  0  0  0  0  0  0  0  0  0
    5.2749   -3.9450    0.8685 C   0  0  1  0  0  0  0  0  0  0  0  0
    5.5878   -4.5737    2.2491 C   0  0  1  0  0  0  0  0  0  0  0  0
    4.1943   -4.6310    2.8872 C   0  0  0  0  0  0  0  0  0  0  0  0
    3.4388   -3.4142    2.2630 C   0  0  0  0  0  0  0  0  0  0  0  0
    4.4497   -2.7229    1.3015 C   0  0  1  0  0  0  0  0  0  0  0  0
    5.1747   -1.5885    2.0603 C   0  0  0  0  0  0  0  0  0  0  0  0
    3.9290   -2.0583    0.1489 O   0  0  0  0  0  0  0  0  0  0  0  0
    7.2341   -6.0329    4.1831 H   0  0  0  0  0  0  0  0  0  0  0  0
    7.5180   -7.4029    3.1294 H   0  0  0  0  0  0  0  0  0  0  0  0
    5.8959   -7.0613    3.6831 H   0  0  0  0  0  0  0  0  0  0  0  0
    6.1974   -6.4020    1.3230 H   0  0  0  0  0  0  0  0  0  0  0  0
    8.6290   -4.9635    2.3823 H   0  0  0  0  0  0  0  0  0  0  0  0
    8.4310   -5.8708    0.9179 H   0  0  0  0  0  0  0  0  0  0  0  0
    7.7575   -2.9754    1.4864 H   0  0  0  0  0  0  0  0  0  0  0  0
    8.6745   -3.5943    0.1481 H   0  0  0  0  0  0  0  0  0  0  0  0
    6.6191   -4.5704   -0.6838 H   0  0  0  0  0  0  0  0  0  0  0  0
    6.6177   -1.5847   -0.4021 H   0  0  0  0  0  0  0  0  0  0  0  0
    6.6052   -3.3237   -2.5669 H   0  0  0  0  0  0  0  0  0  0  0  0
    4.5308   -0.0601   -0.9748 H   0  0  0  0  0  0  0  0  0  0  0  0
    5.3645   -0.5625   -2.3869 H   0  0  0  0  0  0  0  0  0  0  0  0
    3.9091   -4.4144   -3.7361 H   0  0  0  0  0  0  0  0  0  0  0  0
    5.0578   -3.1270   -3.6848 H   0  0  0  0  0  0  0  0  0  0  0  0
    1.8842   -2.5308   -1.8344 H   0  0  0  0  0  0  0  0  0  0  0  0
    2.1019   -3.6110   -0.4928 H   0  0  0  0  0  0  0  0  0  0  0  0
    1.8403   -4.2047   -2.1221 H   0  0  0  0  0  0  0  0  0  0  0  0
    6.1360   -3.8593    2.8493 H   0  0  0  0  0  0  0  0  0  0  0  0
    3.6936   -5.5682    2.6556 H   0  0  0  0  0  0  0  0  0  0  0  0
    4.2631   -4.5426    3.9704 H   0  0  0  0  0  0  0  0  0  0  0  0
    2.5693   -3.7755    1.7181 H   0  0  0  0  0  0  0  0  0  0  0  0
    3.0693   -2.7222    3.0164 H   0  0  0  0  0  0  0  0  0  0  0  0
    5.4170   -1.8515    3.0871 H   0  0  0  0  0  0  0  0  0  0  0  0
    4.5192   -0.7178    2.1123 H   0  0  0  0  0  0  0  0  0  0  0  0
    6.0962   -1.2577    1.5855 H   0  0  0  0  0  0  0  0  0  0  0  0
  1  2  1  0
  1 27  1  0
  1 28  1  0
  1 29  1  0
  2 21  1  0
  2  3  1  0
  2 30  1  6
  3  4  1  0
  3 31  1  0
  3 32  1  0
  4  5  1  0
  4 33  1  0
  4 34  1  0
  5 20  1  0
  5  6  1  0
  5 35  1  6
  6  7  1  0
  6  8  1  0
  6 36  1  1
  7 37  1  0
  8 16  1  0
  8 26  1  0
  8  9  1  6
  9 10  1  0
  9 38  1  0
  9 39  1  0
 10 11  1  0
 11 12  2  0
 11 13  2  0
 11 14  1  0
 14 15  1  0
 15 16  1  0
 15 40  1  0
 15 41  1  0
 16 17  1  6
 16 18  1  0
 17 42  1  0
 17 43  1  0
 17 44  1  0
 18 19  1  0
 20 19  1  6
 20 24  1  0
 20 21  1  0
 21 22  1  0
 21 45  1  1
 22 23  1  0
 22 46  1  0
 22 47  1  0
 23 24  1  0
 23 48  1  0
 23 49  1  0
 24 25  1  1
 24 26  1  0
 25 50  1  0
 25 51  1  0
 25 52  1  0
M  END
>  <i_m_ct_stereo_status>  (280) 
1

>  <s_m_source_file>  (280) 
/var/tmp/pbs.5076255.sched01/tmp548j1hfo/88g9dmtei7.sdf

>  <i_m_source_file_index>  (280) 
33

>  <i_lp_mmshare_version>  (280) 
48012

>  <i_f3d_flags>  (280) 
0

>  <s_epik_input>  (280) 
W0NIM11bQ0BdMShPMilbQ0gyXVtDSDJdW0NASF0zW0NASF0oW0NIM10pW0NIMl1bQ0gyXVtDQEhdKFtDQEhdNFtPSF0pW0NAXTEzT09bQ0BdKFtDQEBdMjQ1KShbQ0gzXSlbQ0gyXU9TKD1PKSg9TylPW0NIMl01

>  <s_epik_cmdline>  (280) 
J2VwaWtfcHl0aG9uJywgJy1waHQnLCAnMi4wJywgJy1waCcsICc3LjAnLCAnLXRuJywgJzgnLCAnLW1hJywgJzIwMCcsICctaW1hZScsICc8aW5maWxlLm1hZT4nLCAnLW9tYWUnLCAnPG91dGZpbGUubWFlPic=

>  <r_lp_tautomer_probability>  (280) 
1

>  <r_epik_Ionization_Penalty>  (280) 
3.69616e-07

>  <r_epik_Ionization_Penalty_Charging>  (280) 
0

>  <r_epik_Ionization_Penalty_Neutral>  (280) 
3.69616e-07

>  <r_epik_State_Penalty>  (280) 
-0

>  <r_epik_Charging_Adjusted_Penalty>  (280) 
0

>  <i_epik_Tot_Q>  (280) 
0

>  <i_epik_Tot_abs_Q>  (280) 
0

>  <s_lp_Force_Field>  (280) 
OPLS3e

>  <r_lp_Energy>  (280) 
66.3585

>  <b_lp_Chiralities_Consistent>  (280) 
1

>  <s_lp_Variant>  (280) 
76:0-1

>  <s_i_glide_gridfile>  (280) 
pfpi4k_grid

>  <i_i_glide_lignum>  (280) 
33

>  <i_i_glide_rotatable_bonds>  (280) 
1

>  <r_i_docking_score>  (280) 
-2.97761

>  <r_i_glide_ligand_efficiency>  (280) 
-0.114524

>  <r_i_glide_ligand_efficiency_sa>  (280) 
-0.339275

>  <r_i_glide_ligand_efficiency_ln>  (280) 
-0.699282

>  <r_i_glide_gscore>  (280) 
-2.97761

>  <r_i_glide_lipo>  (280) 
-0.803352

>  <r_i_glide_hbond>  (280) 
-0.0898462

>  <r_i_glide_metal>  (280) 
-0

>  <r_i_glide_rewards>  (280) 
-0.936382

>  <r_i_glide_evdw>  (280) 
-20.3385

>  <r_i_glide_ecoul>  (280) 
-0.874054

>  <r_i_glide_erotb>  (280) 
0

>  <r_i_glide_esite>  (280) 
0

>  <r_i_glide_emodel>  (280) 
-25.9465

>  <r_i_glide_energy>  (280) 
-21.2125

>  <r_i_glide_einternal>  (280) 
2.54696e-05

>  <r_i_glide_intrahb_reward>  (280) 
-0

>  <i_i_glide_confnum>  (280) 
1

>  <i_i_glide_posenum>  (280) 
6

>  <r_i_glide_eff_state_penalty>  (280) 
0

>  <ligand_id>  (280) 
76

>  <original_smiles>  (280) 
CC1CCC2C(O)C34COS(=O)(=O)OCC3(C)OOC23C1CCC3(C)O4

>  <smiles>  (280) 
[H]OC1([H])C2([H])C([H])([H])C([H])([H])C([H])(C([H])([H])[H])C3([H])C([H])([H])C([H])([H])C4(C([H])([H])[H])OC15C([H])([H])OS(=O)(=O)OC([H])([H])C5(C([H])([H])[H])OOC234

$$$$
76:0:1
     RDKit          3D

 52 56  0  0  1  0  0  0  0  0999 V2000
   -0.6838   -9.1614    3.2856 C   0  0  0  0  0  0  0  0  0  0  0  0
    0.5293   -8.4342    2.6479 C   0  0  2  0  0  0  0  0  0  0  0  0
    1.7128   -9.4317    2.4275 C   0  0  0  0  0  0  0  0  0  0  0  0
    3.1343   -8.8082    2.4444 C   0  0  0  0  0  0  0  0  0  0  0  0
    3.1218   -7.3555    1.9156 C   0  0  2  0  0  0  0  0  0  0  0  0
    4.4442   -6.5732    1.8734 C   0  0  1  0  0  0  0  0  0  0  0  0
    5.1230   -6.9287    0.6832 O   0  0  0  0  0  0  0  0  0  0  0  0
    4.2549   -5.0067    1.9980 C   0  0  1  0  0  0  0  0  0  0  0  0
    5.6685   -4.3761    2.1757 C   0  0  0  0  0  0  0  0  0  0  0  0
    5.7971   -2.9985    1.8481 O   0  0  0  0  0  0  0  0  0  0  0  0
    6.1964   -2.6814    0.2196 S   0  0  0  0  0  0  0  0  0  0  0  0
    6.5797   -1.2703    0.1286 O   0  0  0  0  0  0  0  0  0  0  0  0
    7.1250   -3.7399   -0.2706 O   0  0  0  0  0  0  0  0  0  0  0  0
    4.7225   -2.8521   -0.6039 O   0  0  0  0  0  0  0  0  0  0  0  0
    4.1119   -4.1231   -0.4588 C   0  0  0  0  0  0  0  0  0  0  0  0
    3.3662   -4.3413    0.8914 C   0  0  2  0  0  0  0  0  0  0  0  0
    2.7063   -3.0038    1.2901 C   0  0  0  0  0  0  0  0  0  0  0  0
    2.3489   -5.2915    0.5379 O   0  0  0  0  0  0  0  0  0  0  0  0
    1.4346   -5.6042    1.7866 O   0  0  0  0  0  0  0  0  0  0  0  0
    2.1410   -6.4887    2.6856 C   0  0  1  0  0  0  0  0  0  0  0  0
    1.1122   -7.3054    3.5079 C   0  0  1  0  0  0  0  0  0  0  0  0
    0.3015   -6.1923    4.2076 C   0  0  0  0  0  0  0  0  0  0  0  0
    1.3517   -5.0379    4.3811 C   0  0  0  0  0  0  0  0  0  0  0  0
    2.6916   -5.5774    3.7889 C   0  0  1  0  0  0  0  0  0  0  0  0
    3.5069   -6.2021    4.9401 C   0  0  0  0  0  0  0  0  0  0  0  0
    3.5729   -4.6254    3.2090 O   0  0  0  0  0  0  0  0  0  0  0  0
   -0.4518   -9.6528    4.2324 H   0  0  0  0  0  0  0  0  0  0  0  0
   -1.0295   -9.9552    2.6099 H   0  0  0  0  0  0  0  0  0  0  0  0
   -1.5350   -8.5044    3.4431 H   0  0  0  0  0  0  0  0  0  0  0  0
    0.1915   -8.0337    1.7023 H   0  0  0  0  0  0  0  0  0  0  0  0
    1.6605  -10.2929    3.1066 H   0  0  0  0  0  0  0  0  0  0  0  0
    1.5661   -9.8708    1.4364 H   0  0  0  0  0  0  0  0  0  0  0  0
    3.4914   -8.8125    3.4740 H   0  0  0  0  0  0  0  0  0  0  0  0
    3.8296   -9.4320    1.8819 H   0  0  0  0  0  0  0  0  0  0  0  0
    2.7475   -7.4828    0.9076 H   0  0  0  0  0  0  0  0  0  0  0  0
    5.0904   -6.8979    2.6739 H   0  0  0  0  0  0  0  0  0  0  0  0
    4.6091   -6.6974   -0.0592 H   0  0  0  0  0  0  0  0  0  0  0  0
    5.9526   -4.4721    3.2185 H   0  0  0  0  0  0  0  0  0  0  0  0
    6.4282   -4.9618    1.6503 H   0  0  0  0  0  0  0  0  0  0  0  0
    3.3537   -4.1221   -1.2564 H   0  0  0  0  0  0  0  0  0  0  0  0
    4.8022   -4.9243   -0.7309 H   0  0  0  0  0  0  0  0  0  0  0  0
    3.4479   -2.2779    1.6207 H   0  0  0  0  0  0  0  0  0  0  0  0
    1.9877   -3.1011    2.0944 H   0  0  0  0  0  0  0  0  0  0  0  0
    2.1969   -2.5451    0.4455 H   0  0  0  0  0  0  0  0  0  0  0  0
    1.5886   -7.8167    4.3311 H   0  0  0  0  0  0  0  0  0  0  0  0
   -0.5417   -5.8818    3.5997 H   0  0  0  0  0  0  0  0  0  0  0  0
   -0.0903   -6.5204    5.1737 H   0  0  0  0  0  0  0  0  0  0  0  0
    0.9993   -4.1592    3.8287 H   0  0  0  0  0  0  0  0  0  0  0  0
    1.4573   -4.7297    5.4179 H   0  0  0  0  0  0  0  0  0  0  0  0
    2.8961   -6.7553    5.6494 H   0  0  0  0  0  0  0  0  0  0  0  0
    3.9875   -5.4081    5.5034 H   0  0  0  0  0  0  0  0  0  0  0  0
    4.2913   -6.8662    4.6022 H   0  0  0  0  0  0  0  0  0  0  0  0
  1  2  1  0
  1 27  1  0
  1 28  1  0
  1 29  1  0
  2 21  1  0
  2  3  1  0
  2 30  1  6
  3  4  1  0
  3 31  1  0
  3 32  1  0
  4  5  1  0
  4 33  1  0
  4 34  1  0
  5 20  1  0
  5  6  1  0
  5 35  1  6
  6  7  1  0
  6  8  1  0
  6 36  1  1
  7 37  1  0
  8 16  1  0
  8 26  1  0
  8  9  1  1
  9 10  1  0
  9 38  1  0
  9 39  1  0
 10 11  1  0
 11 12  2  0
 11 13  2  0
 11 14  1  0
 14 15  1  0
 15 16  1  0
 15 40  1  0
 15 41  1  0
 16 17  1  1
 16 18  1  0
 17 42  1  0
 17 43  1  0
 17 44  1  0
 18 19  1  0
 20 19  1  6
 20 24  1  0
 20 21  1  0
 21 22  1  0
 21 45  1  1
 22 23  1  0
 22 46  1  0
 22 47  1  0
 23 24  1  0
 23 48  1  0
 23 49  1  0
 24 25  1  1
 24 26  1  0
 25 50  1  0
 25 51  1  0
 25 52  1  0
M  END
>  <i_m_ct_stereo_status>  (281) 
1

>  <s_m_source_file>  (281) 
/var/tmp/pbs.5076255.sched01/tmp548j1hfo/88g9dmtei7.sdf

>  <i_m_source_file_index>  (281) 
33

>  <i_lp_mmshare_version>  (281) 
48012

>  <i_f3d_flags>  (281) 
0

>  <s_epik_input>  (281) 
W0NIM11bQ0BdMShPMilbQ0gyXVtDSDJdW0NASF0zW0NASF0oW0NIM10pW0NIMl1bQ0gyXVtDQEhdKFtDQEhdNFtPSF0pW0NAXTEzT09bQ0BdKFtDQEBdMjQ1KShbQ0gzXSlbQ0gyXU9TKD1PKSg9TylPW0NIMl01

>  <s_epik_cmdline>  (281) 
J2VwaWtfcHl0aG9uJywgJy1waHQnLCAnMi4wJywgJy1waCcsICc3LjAnLCAnLXRuJywgJzgnLCAnLW1hJywgJzIwMCcsICctaW1hZScsICc8aW5maWxlLm1hZT4nLCAnLW9tYWUnLCAnPG91dGZpbGUubWFlPic=

>  <r_lp_tautomer_probability>  (281) 
1

>  <r_epik_Ionization_Penalty>  (281) 
3.69616e-07

>  <r_epik_Ionization_Penalty_Charging>  (281) 
0

>  <r_epik_Ionization_Penalty_Neutral>  (281) 
3.69616e-07

>  <r_epik_State_Penalty>  (281) 
-0

>  <r_epik_Charging_Adjusted_Penalty>  (281) 
0

>  <i_epik_Tot_Q>  (281) 
0

>  <i_epik_Tot_abs_Q>  (281) 
0

>  <s_lp_Force_Field>  (281) 
OPLS3e

>  <r_lp_Energy>  (281) 
66.3585

>  <b_lp_Chiralities_Consistent>  (281) 
1

>  <s_lp_Variant>  (281) 
76:0-1

>  <s_i_glide_gridfile>  (281) 
pfpi4k_grid

>  <i_i_glide_lignum>  (281) 
33

>  <i_i_glide_rotatable_bonds>  (281) 
1

>  <r_i_docking_score>  (281) 
-2.82886

>  <r_i_glide_ligand_efficiency>  (281) 
-0.108802

>  <r_i_glide_ligand_efficiency_sa>  (281) 
-0.322327

>  <r_i_glide_ligand_efficiency_ln>  (281) 
-0.664349

>  <r_i_glide_gscore>  (281) 
-2.82886

>  <r_i_glide_lipo>  (281) 
-0.189756

>  <r_i_glide_hbond>  (281) 
-0.0930509

>  <r_i_glide_metal>  (281) 
-0

>  <r_i_glide_rewards>  (281) 
-0.82019

>  <r_i_glide_evdw>  (281) 
-24.902

>  <r_i_glide_ecoul>  (281) 
-3

>  <r_i_glide_erotb>  (281) 
0

>  <r_i_glide_esite>  (281) 
-0.0307662

>  <r_i_glide_emodel>  (281) 
-32.6453

>  <r_i_glide_energy>  (281) 
-27.902

>  <r_i_glide_einternal>  (281) 
0.000708437

>  <r_i_glide_intrahb_reward>  (281) 
-0

>  <i_i_glide_confnum>  (281) 
2

>  <i_i_glide_posenum>  (281) 
1

>  <r_i_glide_eff_state_penalty>  (281) 
0

>  <ligand_id>  (281) 
76

>  <original_smiles>  (281) 
CC1CCC2C(O)C34COS(=O)(=O)OCC3(C)OOC23C1CCC3(C)O4

>  <smiles>  (281) 
[H]OC1([H])C2([H])C([H])([H])C([H])([H])C([H])(C([H])([H])[H])C3([H])C([H])([H])C([H])([H])C4(C([H])([H])[H])OC15C([H])([H])OS(=O)(=O)OC([H])([H])C5(C([H])([H])[H])OOC234

$$$$
76:0:2
     RDKit          3D

 52 56  0  0  1  0  0  0  0  0999 V2000
    0.7852   -9.9908    2.9009 C   0  0  0  0  0  0  0  0  0  0  0  0
    1.6550   -8.8595    2.2956 C   0  0  2  0  0  0  0  0  0  0  0  0
    2.9371   -9.4537    1.6161 C   0  0  0  0  0  0  0  0  0  0  0  0
    4.1797   -8.5119    1.5844 C   0  0  0  0  0  0  0  0  0  0  0  0
    3.7770   -7.0301    1.4694 C   0  0  2  0  0  0  0  0  0  0  0  0
    4.8699   -5.9517    1.4238 C   0  0  1  0  0  0  0  0  0  0  0  0
    5.3452   -5.8504    0.0971 O   0  0  0  0  0  0  0  0  0  0  0  0
    4.4017   -4.5496    1.9977 C   0  0  1  0  0  0  0  0  0  0  0  0
    5.6638   -3.6548    2.1029 C   0  0  0  0  0  0  0  0  0  0  0  0
    5.4422   -2.2580    2.1477 O   0  0  0  0  0  0  0  0  0  0  0  0
    5.3966   -1.4749    0.6410 S   0  0  0  0  0  0  0  0  0  0  0  0
    5.4269   -0.0444    0.9047 O   0  0  0  0  0  0  0  0  0  0  0  0
    6.4083   -2.0962   -0.2666 O   0  0  0  0  0  0  0  0  0  0  0  0
    3.8580   -1.8296    0.0348 O   0  0  0  0  0  0  0  0  0  0  0  0
    3.5558   -3.2055   -0.0858 C   0  0  0  0  0  0  0  0  0  0  0  0
    3.1880   -3.8919    1.2610 C   0  0  2  0  0  0  0  0  0  0  0  0
    2.3713   -2.8815    2.1132 C   0  0  0  0  0  0  0  0  0  0  0  0
    2.3464   -4.9704    0.8329 O   0  0  0  0  0  0  0  0  0  0  0  0
    1.7859   -5.7411    2.0755 O   0  0  0  0  0  0  0  0  0  0  0  0
    2.8127   -6.6294    2.5899 C   0  0  1  0  0  0  0  0  0  0  0  0
    2.1656   -7.8259    3.3100 C   0  0  1  0  0  0  0  0  0  0  0  0
    1.3190   -7.1292    4.3927 C   0  0  0  0  0  0  0  0  0  0  0  0
    2.1365   -5.8289    4.7072 C   0  0  0  0  0  0  0  0  0  0  0  0
    3.4018   -5.8747    3.7948 C   0  0  1  0  0  0  0  0  0  0  0  0
    4.5488   -6.5266    4.5976 C   0  0  0  0  0  0  0  0  0  0  0  0
    3.9329   -4.6321    3.3585 O   0  0  0  0  0  0  0  0  0  0  0  0
    1.3041  -10.6152    3.6338 H   0  0  0  0  0  0  0  0  0  0  0  0
    0.4551  -10.6635    2.1038 H   0  0  0  0  0  0  0  0  0  0  0  0
   -0.1283   -9.6108    3.3634 H   0  0  0  0  0  0  0  0  0  0  0  0
    1.0437   -8.3445    1.5540 H   0  0  0  0  0  0  0  0  0  0  0  0
    3.2072  -10.4201    2.0469 H   0  0  0  0  0  0  0  0  0  0  0  0
    2.6673   -9.6909    0.5857 H   0  0  0  0  0  0  0  0  0  0  0  0
    4.7380   -8.6605    2.5040 H   0  0  0  0  0  0  0  0  0  0  0  0
    4.8477   -8.7995    0.7738 H   0  0  0  0  0  0  0  0  0  0  0  0
    3.2250   -7.0097    0.5356 H   0  0  0  0  0  0  0  0  0  0  0  0
    5.7254   -6.2746    2.0065 H   0  0  0  0  0  0  0  0  0  0  0  0
    4.6302   -5.6836   -0.4898 H   0  0  0  0  0  0  0  0  0  0  0  0
    6.1677   -3.9184    3.0285 H   0  0  0  0  0  0  0  0  0  0  0  0
    6.3943   -3.8927    1.3324 H   0  0  0  0  0  0  0  0  0  0  0  0
    2.6653   -3.2108   -0.7157 H   0  0  0  0  0  0  0  0  0  0  0  0
    4.3239   -3.7262   -0.6523 H   0  0  0  0  0  0  0  0  0  0  0  0
    3.0053   -2.0950    2.5082 H   0  0  0  0  0  0  0  0  0  0  0  0
    1.8701   -3.3368    2.9584 H   0  0  0  0  0  0  0  0  0  0  0  0
    1.6113   -2.3789    1.5178 H   0  0  0  0  0  0  0  0  0  0  0  0
    2.9026   -8.3800    3.8869 H   0  0  0  0  0  0  0  0  0  0  0  0
    0.3178   -6.8831    4.0268 H   0  0  0  0  0  0  0  0  0  0  0  0
    1.2047   -7.7563    5.2822 H   0  0  0  0  0  0  0  0  0  0  0  0
    1.5084   -4.9642    4.4806 H   0  0  0  0  0  0  0  0  0  0  0  0
    2.3961   -5.7545    5.7656 H   0  0  0  0  0  0  0  0  0  0  0  0
    4.2279   -7.3585    5.2148 H   0  0  0  0  0  0  0  0  0  0  0  0
    4.9698   -5.7843    5.2725 H   0  0  0  0  0  0  0  0  0  0  0  0
    5.3611   -6.8788    3.9742 H   0  0  0  0  0  0  0  0  0  0  0  0
  1  2  1  0
  1 27  1  0
  1 28  1  0
  1 29  1  0
  2 21  1  0
  2  3  1  0
  2 30  1  6
  3  4  1  0
  3 31  1  0
  3 32  1  0
  4  5  1  0
  4 33  1  0
  4 34  1  0
  5 20  1  0
  5  6  1  0
  5 35  1  6
  6  7  1  0
  6  8  1  0
  6 36  1  1
  7 37  1  0
  8 16  1  0
  8 26  1  0
  8  9  1  1
  9 10  1  0
  9 38  1  0
  9 39  1  0
 10 11  1  0
 11 12  2  0
 11 13  2  0
 11 14  1  0
 14 15  1  0
 15 16  1  0
 15 40  1  0
 15 41  1  0
 16 17  1  1
 16 18  1  0
 17 42  1  0
 17 43  1  0
 17 44  1  0
 18 19  1  0
 20 19  1  6
 20 24  1  0
 20 21  1  0
 21 22  1  0
 21 45  1  1
 22 23  1  0
 22 46  1  0
 22 47  1  0
 23 24  1  0
 23 48  1  0
 23 49  1  0
 24 25  1  1
 24 26  1  0
 25 50  1  0
 25 51  1  0
 25 52  1  0
M  END
>  <i_m_ct_stereo_status>  (282) 
1

>  <s_m_source_file>  (282) 
/var/tmp/pbs.5076255.sched01/tmp548j1hfo/88g9dmtei7.sdf

>  <i_m_source_file_index>  (282) 
33

>  <i_lp_mmshare_version>  (282) 
48012

>  <i_f3d_flags>  (282) 
0

>  <s_epik_input>  (282) 
W0NIM11bQ0BdMShPMilbQ0gyXVtDSDJdW0NASF0zW0NASF0oW0NIM10pW0NIMl1bQ0gyXVtDQEhdKFtDQEhdNFtPSF0pW0NAXTEzT09bQ0BdKFtDQEBdMjQ1KShbQ0gzXSlbQ0gyXU9TKD1PKSg9TylPW0NIMl01

>  <s_epik_cmdline>  (282) 
J2VwaWtfcHl0aG9uJywgJy1waHQnLCAnMi4wJywgJy1waCcsICc3LjAnLCAnLXRuJywgJzgnLCAnLW1hJywgJzIwMCcsICctaW1hZScsICc8aW5maWxlLm1hZT4nLCAnLW9tYWUnLCAnPG91dGZpbGUubWFlPic=

>  <r_lp_tautomer_probability>  (282) 
1

>  <r_epik_Ionization_Penalty>  (282) 
3.69616e-07

>  <r_epik_Ionization_Penalty_Charging>  (282) 
0

>  <r_epik_Ionization_Penalty_Neutral>  (282) 
3.69616e-07

>  <r_epik_State_Penalty>  (282) 
-0

>  <r_epik_Charging_Adjusted_Penalty>  (282) 
0

>  <i_epik_Tot_Q>  (282) 
0

>  <i_epik_Tot_abs_Q>  (282) 
0

>  <s_lp_Force_Field>  (282) 
OPLS3e

>  <r_lp_Energy>  (282) 
66.3585

>  <b_lp_Chiralities_Consistent>  (282) 
1

>  <s_lp_Variant>  (282) 
76:0-1

>  <s_i_glide_gridfile>  (282) 
pfpi4k_grid

>  <i_i_glide_lignum>  (282) 
33

>  <i_i_glide_rotatable_bonds>  (282) 
1

>  <r_i_docking_score>  (282) 
-2.82772

>  <r_i_glide_ligand_efficiency>  (282) 
-0.108758

>  <r_i_glide_ligand_efficiency_sa>  (282) 
-0.322196

>  <r_i_glide_ligand_efficiency_ln>  (282) 
-0.66408

>  <r_i_glide_gscore>  (282) 
-2.82772

>  <r_i_glide_lipo>  (282) 
-0.258539

>  <r_i_glide_hbond>  (282) 
-0.00126543

>  <r_i_glide_metal>  (282) 
-0

>  <r_i_glide_rewards>  (282) 
-0.861775

>  <r_i_glide_evdw>  (282) 
-24.9059

>  <r_i_glide_ecoul>  (282) 
-2.91126

>  <r_i_glide_erotb>  (282) 
0

>  <r_i_glide_esite>  (282) 
-0.024152

>  <r_i_glide_emodel>  (282) 
-32.5831

>  <r_i_glide_energy>  (282) 
-27.8172

>  <r_i_glide_einternal>  (282) 
0.0261898

>  <r_i_glide_intrahb_reward>  (282) 
-0

>  <i_i_glide_confnum>  (282) 
1

>  <i_i_glide_posenum>  (282) 
5

>  <r_i_glide_eff_state_penalty>  (282) 
0

>  <ligand_id>  (282) 
76

>  <original_smiles>  (282) 
CC1CCC2C(O)C34COS(=O)(=O)OCC3(C)OOC23C1CCC3(C)O4

>  <smiles>  (282) 
[H]OC1([H])C2([H])C([H])([H])C([H])([H])C([H])(C([H])([H])[H])C3([H])C([H])([H])C([H])([H])C4(C([H])([H])[H])OC15C([H])([H])OS(=O)(=O)OC([H])([H])C5(C([H])([H])[H])OOC234

$$$$
77:0:0
     RDKit          3D

 50 55  0  0  1  0  0  0  0  0999 V2000
    7.9036   -3.5455   -0.2302 C   0  0  0  0  0  0  0  0  0  0  0  0
    6.4522   -3.8318   -0.2988 N   0  0  0  0  0  0  0  0  0  0  0  0
    6.0148   -5.0786    0.3594 C   0  0  2  0  0  0  0  0  0  0  0  0
    4.6343   -5.5329   -0.2164 C   0  0  0  0  0  0  0  0  0  0  0  0
    3.3504   -4.8268    0.3462 C   0  0  2  0  0  0  0  0  0  0  0  0
    2.7257   -4.1114   -0.7217 O   0  0  0  0  0  0  0  0  0  0  0  0
    3.3665   -2.9719   -1.1347 C   0  0  0  0  0  0  0  0  0  0  0  0
    3.4087   -2.6512   -2.5058 C   0  0  0  0  0  0  0  0  0  0  0  0
    2.8330   -3.4544   -3.4362 O   0  0  0  0  0  0  0  0  0  0  0  0
    4.0730   -1.4999   -2.9405 C   0  0  0  0  0  0  0  0  0  0  0  0
    4.6815   -0.6593   -2.0003 C   0  0  0  0  0  0  0  0  0  0  0  0
    4.6277   -0.9486   -0.6242 C   0  0  0  0  0  0  0  0  0  0  0  0
    3.9676   -2.1130   -0.1857 C   0  0  0  0  0  0  0  0  0  0  0  0
    3.8079   -2.4606    1.2810 C   0  0  1  0  0  0  0  0  0  0  0  0
    2.3297   -2.3194    1.7539 C   0  0  2  0  0  0  0  0  0  0  0  0
    2.0888   -1.1853    2.7175 C   0  0  0  0  0  0  0  0  0  0  0  0
    2.4129   -1.5115    3.9678 C   0  0  0  0  0  0  0  0  0  0  0  0
    2.9484   -2.9146    4.0727 C   0  0  0  0  0  0  0  0  0  0  0  0
    2.6143   -3.5058    2.6680 C   0  0  1  0  0  0  0  0  0  0  0  0
    1.7871   -4.6490    2.8116 O   0  0  0  0  0  0  0  0  0  0  0  0
    2.4973   -5.7150    3.4939 C   0  0  0  0  0  0  0  0  0  0  0  0
    4.0239   -5.6950    3.2776 C   0  0  0  0  0  0  0  0  0  0  0  0
    4.5957   -4.8286    2.4120 C   0  0  0  0  0  0  0  0  0  0  0  0
    6.0209   -4.9047    1.9037 C   0  0  1  0  0  0  0  0  0  0  0  0
    6.7534   -5.9566    2.5109 O   0  0  0  0  0  0  0  0  0  0  0  0
    3.6453   -3.9657    1.6048 C   0  0  1  0  0  0  0  0  0  0  0  0
    8.0857   -2.5464   -0.6284 H   0  0  0  0  0  0  0  0  0  0  0  0
    8.4825   -4.2569   -0.8235 H   0  0  0  0  0  0  0  0  0  0  0  0
    8.2856   -3.5614    0.7936 H   0  0  0  0  0  0  0  0  0  0  0  0
    5.9426   -3.0836    0.1450 H   0  0  0  0  0  0  0  0  0  0  0  0
    6.7287   -5.8512    0.0765 H   0  0  0  0  0  0  0  0  0  0  0  0
    4.6615   -5.4615   -1.3041 H   0  0  0  0  0  0  0  0  0  0  0  0
    4.5313   -6.6005   -0.0088 H   0  0  0  0  0  0  0  0  0  0  0  0
    2.6378   -5.6102    0.6091 H   0  0  0  0  0  0  0  0  0  0  0  0
    2.6214   -4.3137   -3.0807 H   0  0  0  0  0  0  0  0  0  0  0  0
    4.1079   -1.2744   -3.9941 H   0  0  0  0  0  0  0  0  0  0  0  0
    5.1761    0.2258   -2.3609 H   0  0  0  0  0  0  0  0  0  0  0  0
    5.0692   -0.2602    0.0842 H   0  0  0  0  0  0  0  0  0  0  0  0
    4.5230   -1.9461    1.9298 H   0  0  0  0  0  0  0  0  0  0  0  0
    1.5635   -2.4907    1.0017 H   0  0  0  0  0  0  0  0  0  0  0  0
    1.6797   -0.2295    2.4201 H   0  0  0  0  0  0  0  0  0  0  0  0
    2.3121   -0.8601    4.8240 H   0  0  0  0  0  0  0  0  0  0  0  0
    4.0194   -2.8673    4.2769 H   0  0  0  0  0  0  0  0  0  0  0  0
    2.4583   -3.4283    4.9007 H   0  0  0  0  0  0  0  0  0  0  0  0
    2.2947   -5.6763    4.5639 H   0  0  0  0  0  0  0  0  0  0  0  0
    2.1041   -6.6651    3.1313 H   0  0  0  0  0  0  0  0  0  0  0  0
    4.5991   -6.4598    3.7856 H   0  0  0  0  0  0  0  0  0  0  0  0
    6.4879   -3.9626    2.1876 H   0  0  0  0  0  0  0  0  0  0  0  0
    7.6808   -5.8358    2.3567 H   0  0  0  0  0  0  0  0  0  0  0  0
    6.1726   -3.8770   -1.2681 H   0  0  0  0  0  0  0  0  0  0  0  0
  1  2  1  0
  1 27  1  0
  1 28  1  0
  1 29  1  0
  2  3  1  0
  2 30  1  0
  2 50  1  0
  3 24  1  0
  3  4  1  0
  3 31  1  1
  4  5  1  0
  4 32  1  0
  4 33  1  0
  5 26  1  0
  5  6  1  0
  5 34  1  1
  6  7  1  0
  7 13  2  0
  7  8  1  0
  8  9  1  0
  8 10  2  0
  9 35  1  0
 10 11  1  0
 10 36  1  0
 11 12  2  0
 11 37  1  0
 12 13  1  0
 12 38  1  0
 13 14  1  0
 14 26  1  0
 14 15  1  0
 14 39  1  1
 15 19  1  0
 15 16  1  0
 15 40  1  6
 16 17  2  0
 16 41  1  0
 17 18  1  0
 17 42  1  0
 18 19  1  0
 18 43  1  0
 18 44  1  0
 19 26  1  0
 19 20  1  1
 20 21  1  0
 21 22  1  0
 21 45  1  0
 21 46  1  0
 22 23  2  0
 22 47  1  0
 23 24  1  0
 26 23  1  1
 24 25  1  0
 24 48  1  6
 25 49  1  0
M  CHG  1   2   1
M  END
>  <i_m_ct_stereo_status>  (283) 
1

>  <s_m_source_file>  (283) 
/var/tmp/pbs.5076255.sched01/tmp548j1hfo/88g9dmtei7.sdf

>  <i_m_source_file_index>  (283) 
34

>  <i_lp_mmshare_version>  (283) 
48012

>  <i_f3d_flags>  (283) 
0

>  <s_epik_input>  (283) 
TzFbQ0gyXVtDSF09QzJbQ0BASF0oW09IXSlbQ0BIXShbTkhdW0NIM10pW0NIMl1bQ0BASF0oW0NAQF0yM1tDQF0xNDUpT2M2YyhbY0hdW2NIXVtjSF1jNltPSF0pW0NASF0zW0NIXTRbQ0hdPVtDSF1bQ0gyXTU=

>  <s_epik_cmdline>  (283) 
J2VwaWtfcHl0aG9uJywgJy1waHQnLCAnMi4wJywgJy1waCcsICc3LjAnLCAnLXRuJywgJzgnLCAnLW1hJywgJzIwMCcsICctaW1hZScsICc8aW5maWxlLm1hZT4nLCAnLW9tYWUnLCAnPG91dGZpbGUubWFlPic=

>  <r_lp_tautomer_probability>  (283) 
1

>  <r_epik_Ionization_Penalty>  (283) 
0.0247124

>  <r_epik_Ionization_Penalty_Charging>  (283) 
0.0239487

>  <r_epik_Ionization_Penalty_Neutral>  (283) 
0.000763643

>  <r_epik_State_Penalty>  (283) 
0.0194123

>  <r_epik_Charging_Adjusted_Penalty>  (283) 
0.043361

>  <i_epik_Tot_Q>  (283) 
1

>  <i_epik_Tot_abs_Q>  (283) 
1

>  <s_lp_Force_Field>  (283) 
OPLS3e

>  <r_lp_Energy>  (283) 
97.5389

>  <b_lp_Chiralities_Consistent>  (283) 
1

>  <s_lp_Variant>  (283) 
77:0-1

>  <s_i_glide_gridfile>  (283) 
pfpi4k_grid

>  <i_i_glide_lignum>  (283) 
34

>  <i_i_glide_rotatable_bonds>  (283) 
3

>  <r_i_docking_score>  (283) 
-3.08746

>  <r_i_glide_ligand_efficiency>  (283) 
-0.118748

>  <r_i_glide_ligand_efficiency_sa>  (283) 
-0.351792

>  <r_i_glide_ligand_efficiency_ln>  (283) 
-0.72508

>  <r_i_glide_gscore>  (283) 
-3.08746

>  <r_i_glide_lipo>  (283) 
-0.380692

>  <r_i_glide_hbond>  (283) 
0

>  <r_i_glide_metal>  (283) 
-0

>  <r_i_glide_rewards>  (283) 
-0.992594

>  <r_i_glide_evdw>  (283) 
-22.3788

>  <r_i_glide_ecoul>  (283) 
-3.9682

>  <r_i_glide_erotb>  (283) 
0

>  <r_i_glide_esite>  (283) 
0

>  <r_i_glide_emodel>  (283) 
-30.4348

>  <r_i_glide_energy>  (283) 
-26.347

>  <r_i_glide_einternal>  (283) 
0.960556

>  <r_i_glide_intrahb_reward>  (283) 
-0

>  <i_i_glide_confnum>  (283) 
2

>  <i_i_glide_posenum>  (283) 
8

>  <r_i_glide_eff_state_penalty>  (283) 
0

>  <ligand_id>  (283) 
77

>  <original_smiles>  (283) 
CNC1CC2Oc3c(O)cccc3C3C4C=CCC45OCC=C(C1O)C235

>  <smiles>  (283) 
[H]Oc1c([H])c([H])c([H])c2c1OC1([H])C([H])([H])C([H])([N+]([H])([H])C([H])([H])[H])C([H])(O[H])C3=C([H])C([H])([H])OC45C([H])([H])C([H])=C([H])C4([H])C2([H])C315

$$$$
77:0:1
     RDKit          3D

 50 55  0  0  1  0  0  0  0  0999 V2000
    5.8434   -3.2428   -2.6749 C   0  0  0  0  0  0  0  0  0  0  0  0
    6.5191   -3.0868   -1.3860 N   0  0  0  0  0  0  0  0  0  0  0  0
    6.3293   -4.1484   -0.3704 C   0  0  2  0  0  0  0  0  0  0  0  0
    4.9229   -4.8582   -0.4548 C   0  0  0  0  0  0  0  0  0  0  0  0
    3.7371   -4.0710    0.2049 C   0  0  2  0  0  0  0  0  0  0  0  0
    2.7250   -3.7110   -0.7530 O   0  0  0  0  0  0  0  0  0  0  0  0
    2.9653   -2.6120   -1.5461 C   0  0  0  0  0  0  0  0  0  0  0  0
    2.6932   -2.6606   -2.9427 C   0  0  0  0  0  0  0  0  0  0  0  0
    2.2184   -3.7871   -3.5300 O   0  0  0  0  0  0  0  0  0  0  0  0
    3.1730   -1.6807   -3.8253 C   0  0  0  0  0  0  0  0  0  0  0  0
    3.8911   -0.5986   -3.3242 C   0  0  0  0  0  0  0  0  0  0  0  0
    4.2201   -0.5702   -1.9540 C   0  0  0  0  0  0  0  0  0  0  0  0
    3.7400   -1.5439   -1.0551 C   0  0  0  0  0  0  0  0  0  0  0  0
    4.0693   -1.5178    0.4261 C   0  0  1  0  0  0  0  0  0  0  0  0
    2.7375   -1.3848    1.2304 C   0  0  2  0  0  0  0  0  0  0  0  0
    2.5496   -0.0667    1.9222 C   0  0  0  0  0  0  0  0  0  0  0  0
    3.1988   -0.0325    3.0867 C   0  0  0  0  0  0  0  0  0  0  0  0
    3.9428   -1.3185    3.3499 C   0  0  0  0  0  0  0  0  0  0  0  0
    3.3857   -2.2784    2.2708 C   0  0  1  0  0  0  0  0  0  0  0  0
    2.7771   -3.4070    2.8923 O   0  0  0  0  0  0  0  0  0  0  0  0
    3.7541   -4.2135    3.6006 C   0  0  0  0  0  0  0  0  0  0  0  0
    5.1776   -4.1320    3.0009 C   0  0  0  0  0  0  0  0  0  0  0  0
    5.4197   -3.4741    1.8400 C   0  0  0  0  0  0  0  0  0  0  0  0
    6.6853   -3.5753    1.0161 C   0  0  1  0  0  0  0  0  0  0  0  0
    7.7094   -4.3310    1.6388 O   0  0  0  0  0  0  0  0  0  0  0  0
    4.2078   -2.9059    1.1158 C   0  0  1  0  0  0  0  0  0  0  0  0
    5.8513   -2.3672   -3.3158 H   0  0  0  0  0  0  0  0  0  0  0  0
    4.8542   -3.3293   -2.4280 H   0  0  0  0  0  0  0  0  0  0  0  0
    5.8707   -4.1955   -3.1780 H   0  0  0  0  0  0  0  0  0  0  0  0
    7.4782   -3.0306   -1.6768 H   0  0  0  0  0  0  0  0  0  0  0  0
    7.1081   -4.8474   -0.5685 H   0  0  0  0  0  0  0  0  0  0  0  0
    4.6588   -5.1102   -1.4765 H   0  0  0  0  0  0  0  0  0  0  0  0
    4.9660   -5.8544   -0.0072 H   0  0  0  0  0  0  0  0  0  0  0  0
    3.2213   -4.7950    0.8286 H   0  0  0  0  0  0  0  0  0  0  0  0
    1.3534   -3.7065   -3.7888 H   0  0  0  0  0  0  0  0  0  0  0  0
    3.0194   -1.7724   -4.8887 H   0  0  0  0  0  0  0  0  0  0  0  0
    4.1980    0.2053   -3.9779 H   0  0  0  0  0  0  0  0  0  0  0  0
    4.6664    0.2892   -1.5782 H   0  0  0  0  0  0  0  0  0  0  0  0
    4.8625   -0.8082    0.7029 H   0  0  0  0  0  0  0  0  0  0  0  0
    1.8352   -1.8004    0.7963 H   0  0  0  0  0  0  0  0  0  0  0  0
    1.9281    0.7060    1.4893 H   0  0  0  0  0  0  0  0  0  0  0  0
    3.2245    0.7918    3.7850 H   0  0  0  0  0  0  0  0  0  0  0  0
    5.0142   -1.1582    3.2334 H   0  0  0  0  0  0  0  0  0  0  0  0
    3.7480   -1.6649    4.3606 H   0  0  0  0  0  0  0  0  0  0  0  0
    3.7732   -3.9306    4.6546 H   0  0  0  0  0  0  0  0  0  0  0  0
    3.4161   -5.2528    3.5858 H   0  0  0  0  0  0  0  0  0  0  0  0
    5.9524   -4.6936    3.5043 H   0  0  0  0  0  0  0  0  0  0  0  0
    7.1077   -2.5756    0.9131 H   0  0  0  0  0  0  0  0  0  0  0  0
    7.4730   -5.2428    1.6884 H   0  0  0  0  0  0  0  0  0  0  0  0
    6.2276   -2.2277   -0.9378 H   0  0  0  0  0  0  0  0  0  0  0  0
  1  2  1  0
  1 27  1  0
  1 28  1  0
  1 29  1  0
  2  3  1  0
  2 30  1  0
  2 50  1  0
  3 24  1  0
  3  4  1  0
  3 31  1  6
  4  5  1  0
  4 32  1  0
  4 33  1  0
  5 26  1  0
  5  6  1  0
  5 34  1  1
  6  7  1  0
  7 13  2  0
  7  8  1  0
  8  9  1  0
  8 10  2  0
  9 35  1  0
 10 11  1  0
 10 36  1  0
 11 12  2  0
 11 37  1  0
 12 13  1  0
 12 38  1  0
 13 14  1  0
 14 26  1  0
 14 15  1  0
 14 39  1  6
 15 19  1  0
 15 16  1  0
 15 40  1  6
 16 17  2  0
 16 41  1  0
 17 18  1  0
 17 42  1  0
 18 19  1  0
 18 43  1  0
 18 44  1  0
 19 26  1  0
 19 20  1  1
 20 21  1  0
 21 22  1  0
 21 45  1  0
 21 46  1  0
 22 23  2  0
 22 47  1  0
 23 24  1  0
 26 23  1  1
 24 25  1  0
 24 48  1  6
 25 49  1  0
M  CHG  1   2   1
M  END
>  <i_m_ct_stereo_status>  (284) 
1

>  <s_m_source_file>  (284) 
/var/tmp/pbs.5076255.sched01/tmp548j1hfo/88g9dmtei7.sdf

>  <i_m_source_file_index>  (284) 
34

>  <i_lp_mmshare_version>  (284) 
48012

>  <i_f3d_flags>  (284) 
0

>  <s_epik_input>  (284) 
TzFbQ0gyXVtDSF09QzJbQ0BASF0oW09IXSlbQ0BIXShbTkhdW0NIM10pW0NIMl1bQ0BASF0oW0NAQF0yM1tDQF0xNDUpT2M2YyhbY0hdW2NIXVtjSF1jNltPSF0pW0NASF0zW0NIXTRbQ0hdPVtDSF1bQ0gyXTU=

>  <s_epik_cmdline>  (284) 
J2VwaWtfcHl0aG9uJywgJy1waHQnLCAnMi4wJywgJy1waCcsICc3LjAnLCAnLXRuJywgJzgnLCAnLW1hJywgJzIwMCcsICctaW1hZScsICc8aW5maWxlLm1hZT4nLCAnLW9tYWUnLCAnPG91dGZpbGUubWFlPic=

>  <r_lp_tautomer_probability>  (284) 
1

>  <r_epik_Ionization_Penalty>  (284) 
0.0247124

>  <r_epik_Ionization_Penalty_Charging>  (284) 
0.0239487

>  <r_epik_Ionization_Penalty_Neutral>  (284) 
0.000763643

>  <r_epik_State_Penalty>  (284) 
0.0194123

>  <r_epik_Charging_Adjusted_Penalty>  (284) 
0.043361

>  <i_epik_Tot_Q>  (284) 
1

>  <i_epik_Tot_abs_Q>  (284) 
1

>  <s_lp_Force_Field>  (284) 
OPLS3e

>  <r_lp_Energy>  (284) 
97.5389

>  <b_lp_Chiralities_Consistent>  (284) 
1

>  <s_lp_Variant>  (284) 
77:0-1

>  <s_i_glide_gridfile>  (284) 
pfpi4k_grid

>  <i_i_glide_lignum>  (284) 
34

>  <i_i_glide_rotatable_bonds>  (284) 
3

>  <r_i_docking_score>  (284) 
-0.700906

>  <r_i_glide_ligand_efficiency>  (284) 
-0.0269579

>  <r_i_glide_ligand_efficiency_sa>  (284) 
-0.0798628

>  <r_i_glide_ligand_efficiency_ln>  (284) 
-0.164606

>  <r_i_glide_gscore>  (284) 
-0.700906

>  <r_i_glide_lipo>  (284) 
-0.828051

>  <r_i_glide_hbond>  (284) 
0

>  <r_i_glide_metal>  (284) 
-0

>  <r_i_glide_rewards>  (284) 
-0.992594

>  <r_i_glide_evdw>  (284) 
-6.24404

>  <r_i_glide_ecoul>  (284) 
-1.9674

>  <r_i_glide_erotb>  (284) 
0

>  <r_i_glide_esite>  (284) 
0

>  <r_i_glide_emodel>  (284) 
2.29452

>  <r_i_glide_energy>  (284) 
-8.21144

>  <r_i_glide_einternal>  (284) 
7.12818

>  <r_i_glide_intrahb_reward>  (284) 
-0

>  <i_i_glide_confnum>  (284) 
1

>  <i_i_glide_posenum>  (284) 
3

>  <r_i_glide_eff_state_penalty>  (284) 
0

>  <ligand_id>  (284) 
77

>  <original_smiles>  (284) 
CNC1CC2Oc3c(O)cccc3C3C4C=CCC45OCC=C(C1O)C235

>  <smiles>  (284) 
[H]Oc1c([H])c([H])c([H])c2c1OC1([H])C([H])([H])C([H])([N+]([H])([H])C([H])([H])[H])C([H])(O[H])C3=C([H])C([H])([H])OC45C([H])([H])C([H])=C([H])C4([H])C2([H])C315

$$$$
77:1:0
     RDKit          3D

 49 54  0  0  1  0  0  0  0  0999 V2000
    6.3113   -3.3264   -2.2503 C   0  0  0  0  0  0  0  0  0  0  0  0
    6.7339   -3.4493   -0.8473 N   0  0  0  0  0  0  0  0  0  0  0  0
    6.2010   -4.5863   -0.0847 C   0  0  2  0  0  0  0  0  0  0  0  0
    4.7859   -5.1506   -0.5287 C   0  0  0  0  0  0  0  0  0  0  0  0
    3.4918   -4.5777    0.1576 C   0  0  2  0  0  0  0  0  0  0  0  0
    2.6315   -3.9451   -0.8105 O   0  0  0  0  0  0  0  0  0  0  0  0
    3.0982   -2.7590   -1.3223 C   0  0  0  0  0  0  0  0  0  0  0  0
    3.0101   -2.5050   -2.7115 C   0  0  0  0  0  0  0  0  0  0  0  0
    2.5249   -3.4607   -3.5505 O   0  0  0  0  0  0  0  0  0  0  0  0
    3.5744   -1.3281   -3.2371 C   0  0  0  0  0  0  0  0  0  0  0  0
    4.2336   -0.4216   -2.3810 C   0  0  0  0  0  0  0  0  0  0  0  0
    4.3185   -0.6745   -0.9958 C   0  0  0  0  0  0  0  0  0  0  0  0
    3.7457   -1.8448   -0.4668 C   0  0  0  0  0  0  0  0  0  0  0  0
    3.7820   -2.1708    1.0073 C   0  0  1  0  0  0  0  0  0  0  0  0
    2.3555   -2.1938    1.6229 C   0  0  2  0  0  0  0  0  0  0  0  0
    2.0814   -1.0635    2.5808 C   0  0  0  0  0  0  0  0  0  0  0  0
    2.5512   -1.3217    3.8001 C   0  0  0  0  0  0  0  0  0  0  0  0
    3.2461   -2.6566    3.8790 C   0  0  0  0  0  0  0  0  0  0  0  0
    2.8586   -3.3127    2.5249 C   0  0  1  0  0  0  0  0  0  0  0  0
    2.1941   -4.5468    2.7585 O   0  0  0  0  0  0  0  0  0  0  0  0
    3.0983   -5.5001    3.3752 C   0  0  0  0  0  0  0  0  0  0  0  0
    4.5836   -5.3010    3.0104 C   0  0  0  0  0  0  0  0  0  0  0  0
    4.9490   -4.3931    2.0748 C   0  0  0  0  0  0  0  0  0  0  0  0
    6.3157   -4.2727    1.4349 C   0  0  1  0  0  0  0  0  0  0  0  0
    7.2683   -5.1236    2.0693 O   0  0  0  0  0  0  0  0  0  0  0  0
    3.8286   -3.6745    1.3634 C   0  0  1  0  0  0  0  0  0  0  0  0
    6.8082   -2.4811   -2.7497 H   0  0  0  0  0  0  0  0  0  0  0  0
    5.2375   -3.1462   -2.2785 H   0  0  0  0  0  0  0  0  0  0  0  0
    6.4565   -4.2264   -2.8472 H   0  0  0  0  0  0  0  0  0  0  0  0
    7.7480   -3.4673   -0.7786 H   0  0  0  0  0  0  0  0  0  0  0  0
    6.8927   -5.4030   -0.2729 H   0  0  0  0  0  0  0  0  0  0  0  0
    4.6481   -5.1603   -1.6014 H   0  0  0  0  0  0  0  0  0  0  0  0
    4.8095   -6.2123   -0.2677 H   0  0  0  0  0  0  0  0  0  0  0  0
    2.9339   -5.4480    0.5054 H   0  0  0  0  0  0  0  0  0  0  0  0
    2.3970   -4.2894   -3.1087 H   0  0  0  0  0  0  0  0  0  0  0  0
    3.5839   -1.1609   -4.2972 H   0  0  0  0  0  0  0  0  0  0  0  0
    4.6966    0.4575   -2.7914 H   0  0  0  0  0  0  0  0  0  0  0  0
    4.8236    0.0192   -0.3428 H   0  0  0  0  0  0  0  0  0  0  0  0
    4.5057   -1.5759    1.5752 H   0  0  0  0  0  0  0  0  0  0  0  0
    1.5544   -2.4734    0.9478 H   0  0  0  0  0  0  0  0  0  0  0  0
    1.5530   -0.1644    2.2998 H   0  0  0  0  0  0  0  0  0  0  0  0
    2.4532   -0.6564    4.6409 H   0  0  0  0  0  0  0  0  0  0  0  0
    4.3191   -2.4830    3.9921 H   0  0  0  0  0  0  0  0  0  0  0  0
    2.8846   -3.1951    4.7580 H   0  0  0  0  0  0  0  0  0  0  0  0
    2.9985   -5.4589    4.4613 H   0  0  0  0  0  0  0  0  0  0  0  0
    2.7928   -6.5041    3.0676 H   0  0  0  0  0  0  0  0  0  0  0  0
    5.2898   -5.9670    3.4847 H   0  0  0  0  0  0  0  0  0  0  0  0
    6.6327   -3.2420    1.5915 H   0  0  0  0  0  0  0  0  0  0  0  0
    7.0592   -6.0295    1.8970 H   0  0  0  0  0  0  0  0  0  0  0  0
  1  2  1  0
  1 27  1  0
  1 28  1  0
  1 29  1  0
  2  3  1  0
  2 30  1  0
  3 24  1  0
  3  4  1  0
  3 31  1  1
  4  5  1  0
  4 32  1  0
  4 33  1  0
  5 26  1  0
  5  6  1  0
  5 34  1  1
  6  7  1  0
  7 13  2  0
  7  8  1  0
  8  9  1  0
  8 10  2  0
  9 35  1  0
 10 11  1  0
 10 36  1  0
 11 12  2  0
 11 37  1  0
 12 13  1  0
 12 38  1  0
 13 14  1  0
 14 26  1  0
 14 15  1  0
 14 39  1  1
 15 19  1  0
 15 16  1  0
 15 40  1  6
 16 17  2  0
 16 41  1  0
 17 18  1  0
 17 42  1  0
 18 19  1  0
 18 43  1  0
 18 44  1  0
 19 26  1  0
 19 20  1  1
 20 21  1  0
 21 22  1  0
 21 45  1  0
 21 46  1  0
 22 23  2  0
 22 47  1  0
 23 24  1  0
 26 23  1  1
 24 25  1  0
 24 48  1  6
 25 49  1  0
M  END
>  <i_m_ct_stereo_status>  (285) 
1

>  <s_m_source_file>  (285) 
/var/tmp/pbs.5076255.sched01/tmp548j1hfo/88g9dmtei7.sdf

>  <i_m_source_file_index>  (285) 
35

>  <i_lp_mmshare_version>  (285) 
48012

>  <i_f3d_flags>  (285) 
0

>  <s_epik_input>  (285) 
TzFbQ0gyXVtDSF09QzJbQ0BASF0oW09IXSlbQ0BIXShbTkhdW0NIM10pW0NIMl1bQ0BASF0oW0NAQF0yM1tDQF0xNDUpT2M2YyhbY0hdW2NIXVtjSF1jNltPSF0pW0NASF0zW0NIXTRbQ0hdPVtDSF1bQ0gyXTU=

>  <s_epik_cmdline>  (285) 
J2VwaWtfcHl0aG9uJywgJy1waHQnLCAnMi4wJywgJy1waCcsICc3LjAnLCAnLXRuJywgJzgnLCAnLW1hJywgJzIwMCcsICctaW1hZScsICc8aW5maWxlLm1hZT4nLCAnLW9tYWUnLCAnPG91dGZpbGUubWFlPic=

>  <r_lp_tautomer_probability>  (285) 
1

>  <r_epik_Ionization_Penalty>  (285) 
1.91336

>  <r_epik_Ionization_Penalty_Charging>  (285) 
0

>  <r_epik_Ionization_Penalty_Neutral>  (285) 
1.91336

>  <r_epik_State_Penalty>  (285) 
2.03505

>  <r_epik_Charging_Adjusted_Penalty>  (285) 
2.03505

>  <i_epik_Tot_Q>  (285) 
0

>  <i_epik_Tot_abs_Q>  (285) 
0

>  <s_lp_Force_Field>  (285) 
OPLS3e

>  <r_lp_Energy>  (285) 
100.963

>  <b_lp_Chiralities_Consistent>  (285) 
1

>  <s_lp_Variant>  (285) 
77:0-2

>  <s_i_glide_gridfile>  (285) 
pfpi4k_grid

>  <i_i_glide_lignum>  (285) 
35

>  <i_i_glide_rotatable_bonds>  (285) 
3

>  <r_i_docking_score>  (285) 
-2.85653

>  <r_i_glide_ligand_efficiency>  (285) 
-0.109866

>  <r_i_glide_ligand_efficiency_sa>  (285) 
-0.325479

>  <r_i_glide_ligand_efficiency_ln>  (285) 
-0.670846

>  <r_i_glide_gscore>  (285) 
-2.85653

>  <r_i_glide_lipo>  (285) 
-0.549072

>  <r_i_glide_hbond>  (285) 
0

>  <r_i_glide_metal>  (285) 
-0

>  <r_i_glide_rewards>  (285) 
-0.999466

>  <r_i_glide_evdw>  (285) 
-18.227

>  <r_i_glide_ecoul>  (285) 
-2.64427

>  <r_i_glide_erotb>  (285) 
0

>  <r_i_glide_esite>  (285) 
0

>  <r_i_glide_emodel>  (285) 
-20.0021

>  <r_i_glide_energy>  (285) 
-20.8713

>  <r_i_glide_einternal>  (285) 
4.96952

>  <r_i_glide_intrahb_reward>  (285) 
-0

>  <i_i_glide_confnum>  (285) 
2

>  <i_i_glide_posenum>  (285) 
39

>  <r_i_glide_eff_state_penalty>  (285) 
0

>  <ligand_id>  (285) 
77

>  <original_smiles>  (285) 
CNC1CC2Oc3c(O)cccc3C3C4C=CCC45OCC=C(C1O)C235

>  <smiles>  (285) 
[H]Oc1c([H])c([H])c([H])c2c1OC1([H])C([H])([H])C([H])(N([H])C([H])([H])[H])C([H])(O[H])C3=C([H])C([H])([H])OC45C([H])([H])C([H])=C([H])C4([H])C2([H])C315

$$$$
78:0:0
     RDKit          3D

 34 36  0  0  1  0  0  0  0  0999 V2000
    0.1473   -7.8503    2.1543 C   0  0  0  0  0  0  0  0  0  0  0  0
    1.3191   -8.4681    2.4979 N   0  0  0  0  0  0  0  0  0  0  0  0
    2.1866   -7.6261    1.9589 C   0  0  0  0  0  0  0  0  0  0  0  0
    1.6033   -6.5934    1.3499 N   0  0  0  0  0  0  0  0  0  0  0  0
    0.2614   -6.6966    1.4840 N   0  0  0  0  0  0  0  0  0  0  0  0
    2.2288   -5.4492    0.7255 C   0  0  0  0  0  0  0  0  0  0  0  0
    3.7344   -5.6928    0.4697 C   0  0  1  0  0  0  0  0  0  0  0  0
    4.4721   -4.4470    0.1742 N   0  0  0  0  0  0  0  0  0  0  0  0
    3.7922   -3.4978   -0.7262 C   0  0  0  0  0  0  0  0  0  0  0  0
    4.7910   -2.5686   -1.3994 C   0  0  0  0  0  0  0  0  0  0  0  0
    4.2218   -1.3696   -2.1751 C   0  0  0  0  0  0  0  0  0  0  0  0
    4.2899   -2.2247   -3.4382 C   0  0  0  0  0  0  0  0  0  0  0  0
    5.3778   -3.0459   -2.7381 C   0  0  0  0  0  0  0  0  0  0  0  0
    4.3820   -6.4173    1.6635 C   0  0  0  0  0  0  0  0  0  0  0  0
    3.6785   -7.7559    1.9707 C   0  0  0  0  0  0  0  0  0  0  0  0
   -0.8202   -8.2396    2.4211 H   0  0  0  0  0  0  0  0  0  0  0  0
    1.6969   -5.2283   -0.2000 H   0  0  0  0  0  0  0  0  0  0  0  0
    2.1060   -4.6033    1.4039 H   0  0  0  0  0  0  0  0  0  0  0  0
    3.8277   -6.3412   -0.3995 H   0  0  0  0  0  0  0  0  0  0  0  0
    4.6443   -3.9732    1.0493 H   0  0  0  0  0  0  0  0  0  0  0  0
    3.2364   -4.0402   -1.4925 H   0  0  0  0  0  0  0  0  0  0  0  0
    3.0587   -2.9271   -0.1556 H   0  0  0  0  0  0  0  0  0  0  0  0
    5.5745   -2.2257   -0.7152 H   0  0  0  0  0  0  0  0  0  0  0  0
    3.2145   -1.0719   -1.8730 H   0  0  0  0  0  0  0  0  0  0  0  0
    4.9012   -0.5141   -2.1964 H   0  0  0  0  0  0  0  0  0  0  0  0
    3.3733   -2.7880   -3.6091 H   0  0  0  0  0  0  0  0  0  0  0  0
    4.6148   -1.6874   -4.3239 H   0  0  0  0  0  0  0  0  0  0  0  0
    6.3903   -2.6759   -2.9180 H   0  0  0  0  0  0  0  0  0  0  0  0
    5.3086   -4.1245   -2.9022 H   0  0  0  0  0  0  0  0  0  0  0  0
    5.4509   -6.5778    1.5042 H   0  0  0  0  0  0  0  0  0  0  0  0
    4.2810   -5.7656    2.5366 H   0  0  0  0  0  0  0  0  0  0  0  0
    3.9914   -8.1163    2.9515 H   0  0  0  0  0  0  0  0  0  0  0  0
    3.9617   -8.5099    1.2314 H   0  0  0  0  0  0  0  0  0  0  0  0
    5.3548   -4.7127   -0.2417 H   0  0  0  0  0  0  0  0  0  0  0  0
  1  5  2  0
  1  2  1  0
  1 16  1  0
  2  3  2  0
  3 15  1  0
  3  4  1  0
  4  5  1  0
  4  6  1  0
  6  7  1  0
  6 17  1  0
  6 18  1  0
  7  8  1  0
  7 14  1  0
  7 19  1  6
  8  9  1  0
  8 20  1  0
  8 34  1  0
  9 10  1  0
  9 21  1  0
  9 22  1  0
 10 13  1  0
 10 11  1  0
 10 23  1  0
 11 12  1  0
 11 24  1  0
 11 25  1  0
 12 13  1  0
 12 26  1  0
 12 27  1  0
 13 28  1  0
 13 29  1  0
 14 15  1  0
 14 30  1  0
 14 31  1  0
 15 32  1  0
 15 33  1  0
M  CHG  1   8   1
M  END
>  <i_m_ct_stereo_status>  (286) 
1

>  <s_m_source_file>  (286) 
/var/tmp/pbs.5076255.sched01/tmp548j1hfo/88g9dmtei7.sdf

>  <i_m_source_file_index>  (286) 
36

>  <i_lp_mmshare_version>  (286) 
48012

>  <i_f3d_flags>  (286) 
0

>  <s_epik_input>  (286) 
bjFbY0hdbm4oYzEyKVtDSDJdW0NASF0oW0NIMl1bQ0gyXTIpW05IXVtDSDJdW0NIXTNbQ0gyXVtDSDJdW0NIMl0z

>  <s_epik_cmdline>  (286) 
J2VwaWtfcHl0aG9uJywgJy1waHQnLCAnMi4wJywgJy1waCcsICc3LjAnLCAnLXRuJywgJzgnLCAnLW1hJywgJzIwMCcsICctaW1hZScsICc8aW5maWxlLm1hZT4nLCAnLW9tYWUnLCAnPG91dGZpbGUubWFlPic=

>  <r_lp_tautomer_probability>  (286) 
1

>  <r_epik_Ionization_Penalty>  (286) 
0.00255983

>  <r_epik_Ionization_Penalty_Charging>  (286) 
0.00255805

>  <r_epik_Ionization_Penalty_Neutral>  (286) 
1.77303e-06

>  <r_epik_State_Penalty>  (286) 
-0

>  <r_epik_Charging_Adjusted_Penalty>  (286) 
0.00255805

>  <i_epik_Tot_Q>  (286) 
1

>  <i_epik_Tot_abs_Q>  (286) 
1

>  <s_lp_Force_Field>  (286) 
OPLS3e

>  <r_lp_Energy>  (286) 
28.685

>  <b_lp_Chiralities_Consistent>  (286) 
1

>  <s_lp_Variant>  (286) 
78:0-1

>  <s_i_glide_gridfile>  (286) 
pfpi4k_grid

>  <i_i_glide_lignum>  (286) 
36

>  <i_i_glide_rotatable_bonds>  (286) 
3

>  <r_i_docking_score>  (286) 
-3.38474

>  <r_i_glide_ligand_efficiency>  (286) 
-0.225649

>  <r_i_glide_ligand_efficiency_sa>  (286) 
-0.556499

>  <r_i_glide_ligand_efficiency_ln>  (286) 
-0.912808

>  <r_i_glide_gscore>  (286) 
-3.38474

>  <r_i_glide_lipo>  (286) 
-0.44901

>  <r_i_glide_hbond>  (286) 
-0.0918726

>  <r_i_glide_metal>  (286) 
-0

>  <r_i_glide_rewards>  (286) 
-1.99571

>  <r_i_glide_evdw>  (286) 
-23.4259

>  <r_i_glide_ecoul>  (286) 
-4.71416

>  <r_i_glide_erotb>  (286) 
1.15383

>  <r_i_glide_esite>  (286) 
-0.123556

>  <r_i_glide_emodel>  (286) 
-32.9252

>  <r_i_glide_energy>  (286) 
-28.14

>  <r_i_glide_einternal>  (286) 
2.48008

>  <r_i_glide_intrahb_reward>  (286) 
-0

>  <i_i_glide_confnum>  (286) 
2

>  <i_i_glide_posenum>  (286) 
1

>  <r_i_glide_eff_state_penalty>  (286) 
0

>  <ligand_id>  (286) 
78

>  <original_smiles>  (286) 
c1nc2n(n1)CC(NCC1CCC1)CC2

>  <smiles>  (286) 
[H]c1nc2n(n1)C([H])([H])C([H])([N+]([H])([H])C([H])([H])C1([H])C([H])([H])C([H])([H])C1([H])[H])C([H])([H])C2([H])[H]

$$$$
78:0:1
     RDKit          3D

 34 36  0  0  1  0  0  0  0  0999 V2000
    1.9467   -7.2024    2.1344 C   0  0  0  0  0  0  0  0  0  0  0  0
    3.2664   -7.0082    2.4470 N   0  0  0  0  0  0  0  0  0  0  0  0
    3.5443   -5.9835    1.6582 C   0  0  0  0  0  0  0  0  0  0  0  0
    2.4947   -5.5742    0.9372 N   0  0  0  0  0  0  0  0  0  0  0  0
    1.4274   -6.3348    1.2520 N   0  0  0  0  0  0  0  0  0  0  0  0
    2.4077   -4.4548    0.0304 C   0  0  0  0  0  0  0  0  0  0  0  0
    3.7880   -3.9053   -0.3465 C   0  0  1  0  0  0  0  0  0  0  0  0
    3.6803   -2.5660   -0.9345 N   0  0  0  0  0  0  0  0  0  0  0  0
    3.0667   -2.5204   -2.2694 C   0  0  0  0  0  0  0  0  0  0  0  0
    3.0248   -1.0813   -2.7553 C   0  0  0  0  0  0  0  0  0  0  0  0
    2.7191   -0.7749   -4.2217 C   0  0  0  0  0  0  0  0  0  0  0  0
    4.2062   -0.6894   -4.4427 C   0  0  0  0  0  0  0  0  0  0  0  0
    4.3321   -0.3410   -2.9677 C   0  0  0  0  0  0  0  0  0  0  0  0
    4.7075   -3.8754    0.8838 C   0  0  0  0  0  0  0  0  0  0  0  0
    4.8443   -5.2734    1.5215 C   0  0  0  0  0  0  0  0  0  0  0  0
    1.3369   -7.9762    2.5752 H   0  0  0  0  0  0  0  0  0  0  0  0
    1.8282   -4.7573   -0.8428 H   0  0  0  0  0  0  0  0  0  0  0  0
    1.8471   -3.6772    0.5446 H   0  0  0  0  0  0  0  0  0  0  0  0
    4.2245   -4.5738   -1.0793 H   0  0  0  0  0  0  0  0  0  0  0  0
    3.1516   -1.9656   -0.3161 H   0  0  0  0  0  0  0  0  0  0  0  0
    3.6338   -3.1327   -2.9613 H   0  0  0  0  0  0  0  0  0  0  0  0
    2.0542   -2.9149   -2.2567 H   0  0  0  0  0  0  0  0  0  0  0  0
    2.3704   -0.4545   -2.1692 H   0  0  0  0  0  0  0  0  0  0  0  0
    2.1944   -1.5877   -4.7095 H   0  0  0  0  0  0  0  0  0  0  0  0
    2.2181    0.1871   -4.3704 H   0  0  0  0  0  0  0  0  0  0  0  0
    4.6166   -1.6615   -4.6960 H   0  0  0  0  0  0  0  0  0  0  0  0
    4.5056    0.1184   -5.1016 H   0  0  0  0  0  0  0  0  0  0  0  0
    4.2520    0.7369   -2.7952 H   0  0  0  0  0  0  0  0  0  0  0  0
    5.1984   -0.7732   -2.4721 H   0  0  0  0  0  0  0  0  0  0  0  0
    5.6963   -3.4767    0.6475 H   0  0  0  0  0  0  0  0  0  0  0  0
    4.2521   -3.2116    1.6236 H   0  0  0  0  0  0  0  0  0  0  0  0
    5.2865   -5.1854    2.5129 H   0  0  0  0  0  0  0  0  0  0  0  0
    5.4997   -5.9021    0.9203 H   0  0  0  0  0  0  0  0  0  0  0  0
    4.6197   -2.2180   -1.0413 H   0  0  0  0  0  0  0  0  0  0  0  0
  1  5  2  0
  1  2  1  0
  1 16  1  0
  2  3  2  0
  3 15  1  0
  3  4  1  0
  4  5  1  0
  4  6  1  0
  6  7  1  0
  6 17  1  0
  6 18  1  0
  7  8  1  0
  7 14  1  0
  7 19  1  6
  8  9  1  0
  8 20  1  0
  8 34  1  0
  9 10  1  0
  9 21  1  0
  9 22  1  0
 10 13  1  0
 10 11  1  0
 10 23  1  0
 11 12  1  0
 11 24  1  0
 11 25  1  0
 12 13  1  0
 12 26  1  0
 12 27  1  0
 13 28  1  0
 13 29  1  0
 14 15  1  0
 14 30  1  0
 14 31  1  0
 15 32  1  0
 15 33  1  0
M  CHG  1   8   1
M  END
>  <i_m_ct_stereo_status>  (287) 
1

>  <s_m_source_file>  (287) 
/var/tmp/pbs.5076255.sched01/tmp548j1hfo/88g9dmtei7.sdf

>  <i_m_source_file_index>  (287) 
36

>  <i_lp_mmshare_version>  (287) 
48012

>  <i_f3d_flags>  (287) 
0

>  <s_epik_input>  (287) 
bjFbY0hdbm4oYzEyKVtDSDJdW0NASF0oW0NIMl1bQ0gyXTIpW05IXVtDSDJdW0NIXTNbQ0gyXVtDSDJdW0NIMl0z

>  <s_epik_cmdline>  (287) 
J2VwaWtfcHl0aG9uJywgJy1waHQnLCAnMi4wJywgJy1waCcsICc3LjAnLCAnLXRuJywgJzgnLCAnLW1hJywgJzIwMCcsICctaW1hZScsICc8aW5maWxlLm1hZT4nLCAnLW9tYWUnLCAnPG91dGZpbGUubWFlPic=

>  <r_lp_tautomer_probability>  (287) 
1

>  <r_epik_Ionization_Penalty>  (287) 
0.00255983

>  <r_epik_Ionization_Penalty_Charging>  (287) 
0.00255805

>  <r_epik_Ionization_Penalty_Neutral>  (287) 
1.77303e-06

>  <r_epik_State_Penalty>  (287) 
-0

>  <r_epik_Charging_Adjusted_Penalty>  (287) 
0.00255805

>  <i_epik_Tot_Q>  (287) 
1

>  <i_epik_Tot_abs_Q>  (287) 
1

>  <s_lp_Force_Field>  (287) 
OPLS3e

>  <r_lp_Energy>  (287) 
28.685

>  <b_lp_Chiralities_Consistent>  (287) 
1

>  <s_lp_Variant>  (287) 
78:0-1

>  <s_i_glide_gridfile>  (287) 
pfpi4k_grid

>  <i_i_glide_lignum>  (287) 
36

>  <i_i_glide_rotatable_bonds>  (287) 
3

>  <r_i_docking_score>  (287) 
-3.01497

>  <r_i_glide_ligand_efficiency>  (287) 
-0.200998

>  <r_i_glide_ligand_efficiency_sa>  (287) 
-0.495704

>  <r_i_glide_ligand_efficiency_ln>  (287) 
-0.813088

>  <r_i_glide_gscore>  (287) 
-3.01497

>  <r_i_glide_lipo>  (287) 
-0.46747

>  <r_i_glide_hbond>  (287) 
-0.0455464

>  <r_i_glide_metal>  (287) 
-0

>  <r_i_glide_rewards>  (287) 
-2.03676

>  <r_i_glide_evdw>  (287) 
-12.8777

>  <r_i_glide_ecoul>  (287) 
-5.93989

>  <r_i_glide_erotb>  (287) 
1.15383

>  <r_i_glide_esite>  (287) 
-0.0841591

>  <r_i_glide_emodel>  (287) 
-23.8438

>  <r_i_glide_energy>  (287) 
-18.8176

>  <r_i_glide_einternal>  (287) 
0.518121

>  <r_i_glide_intrahb_reward>  (287) 
-0

>  <i_i_glide_confnum>  (287) 
2

>  <i_i_glide_posenum>  (287) 
20

>  <r_i_glide_eff_state_penalty>  (287) 
0

>  <ligand_id>  (287) 
78

>  <original_smiles>  (287) 
c1nc2n(n1)CC(NCC1CCC1)CC2

>  <smiles>  (287) 
[H]c1nc2n(n1)C([H])([H])C([H])([N+]([H])([H])C([H])([H])C1([H])C([H])([H])C([H])([H])C1([H])[H])C([H])([H])C2([H])[H]

$$$$
78:0:2
     RDKit          3D

 34 36  0  0  1  0  0  0  0  0999 V2000
    1.2945   -5.2907    4.6294 C   0  0  0  0  0  0  0  0  0  0  0  0
    1.6060   -6.5098    4.0988 N   0  0  0  0  0  0  0  0  0  0  0  0
    2.1235   -6.1289    2.9398 C   0  0  0  0  0  0  0  0  0  0  0  0
    2.1032   -4.8058    2.7686 N   0  0  0  0  0  0  0  0  0  0  0  0
    1.5605   -4.2315    3.8626 N   0  0  0  0  0  0  0  0  0  0  0  0
    2.6246   -4.0241    1.6637 C   0  0  0  0  0  0  0  0  0  0  0  0
    2.8977   -4.9192    0.4342 C   0  0  1  0  0  0  0  0  0  0  0  0
    3.7608   -4.2417   -0.5536 N   0  0  0  0  0  0  0  0  0  0  0  0
    3.1925   -3.0294   -1.1734 C   0  0  0  0  0  0  0  0  0  0  0  0
    4.2193   -2.3827   -2.0945 C   0  0  0  0  0  0  0  0  0  0  0  0
    3.8035   -1.0900   -2.8093 C   0  0  0  0  0  0  0  0  0  0  0  0
    3.4187   -1.9481   -4.0082 C   0  0  0  0  0  0  0  0  0  0  0  0
    4.4015   -2.9998   -3.4882 C   0  0  0  0  0  0  0  0  0  0  0  0
    3.5505   -6.2460    0.8685 C   0  0  0  0  0  0  0  0  0  0  0  0
    2.6621   -7.0199    1.8649 C   0  0  0  0  0  0  0  0  0  0  0  0
    0.8507   -5.1644    5.6015 H   0  0  0  0  0  0  0  0  0  0  0  0
    1.9187   -3.2253    1.4433 H   0  0  0  0  0  0  0  0  0  0  0  0
    3.5516   -3.5576    1.9991 H   0  0  0  0  0  0  0  0  0  0  0  0
    1.9538   -5.1461   -0.0561 H   0  0  0  0  0  0  0  0  0  0  0  0
    4.6330   -4.0074   -0.1012 H   0  0  0  0  0  0  0  0  0  0  0  0
    2.2941   -3.3039   -1.7289 H   0  0  0  0  0  0  0  0  0  0  0  0
    2.8801   -2.3104   -0.4170 H   0  0  0  0  0  0  0  0  0  0  0  0
    5.1814   -2.2327   -1.5971 H   0  0  0  0  0  0  0  0  0  0  0  0
    2.9674   -0.5694   -2.3408 H   0  0  0  0  0  0  0  0  0  0  0  0
    4.6365   -0.4153   -3.0164 H   0  0  0  0  0  0  0  0  0  0  0  0
    2.3821   -2.2805   -3.9648 H   0  0  0  0  0  0  0  0  0  0  0  0
    3.6674   -1.5077   -4.9704 H   0  0  0  0  0  0  0  0  0  0  0  0
    5.4155   -2.8849   -3.8713 H   0  0  0  0  0  0  0  0  0  0  0  0
    4.0556   -4.0321   -3.5715 H   0  0  0  0  0  0  0  0  0  0  0  0
    3.8057   -6.8766    0.0134 H   0  0  0  0  0  0  0  0  0  0  0  0
    4.4950   -6.0077    1.3637 H   0  0  0  0  0  0  0  0  0  0  0  0
    3.2376   -7.8195    2.3316 H   0  0  0  0  0  0  0  0  0  0  0  0
    1.8148   -7.4774    1.3482 H   0  0  0  0  0  0  0  0  0  0  0  0
    3.9257   -4.9050   -1.3072 H   0  0  0  0  0  0  0  0  0  0  0  0
  1  5  2  0
  1  2  1  0
  1 16  1  0
  2  3  2  0
  3 15  1  0
  3  4  1  0
  4  5  1  0
  4  6  1  0
  6  7  1  0
  6 17  1  0
  6 18  1  0
  7  8  1  0
  7 14  1  0
  7 19  1  6
  8  9  1  0
  8 20  1  0
  8 34  1  0
  9 10  1  0
  9 21  1  0
  9 22  1  0
 10 13  1  0
 10 11  1  0
 10 23  1  0
 11 12  1  0
 11 24  1  0
 11 25  1  0
 12 13  1  0
 12 26  1  0
 12 27  1  0
 13 28  1  0
 13 29  1  0
 14 15  1  0
 14 30  1  0
 14 31  1  0
 15 32  1  0
 15 33  1  0
M  CHG  1   8   1
M  END
>  <i_m_ct_stereo_status>  (288) 
1

>  <s_m_source_file>  (288) 
/var/tmp/pbs.5076255.sched01/tmp548j1hfo/88g9dmtei7.sdf

>  <i_m_source_file_index>  (288) 
36

>  <i_lp_mmshare_version>  (288) 
48012

>  <i_f3d_flags>  (288) 
0

>  <s_epik_input>  (288) 
bjFbY0hdbm4oYzEyKVtDSDJdW0NASF0oW0NIMl1bQ0gyXTIpW05IXVtDSDJdW0NIXTNbQ0gyXVtDSDJdW0NIMl0z

>  <s_epik_cmdline>  (288) 
J2VwaWtfcHl0aG9uJywgJy1waHQnLCAnMi4wJywgJy1waCcsICc3LjAnLCAnLXRuJywgJzgnLCAnLW1hJywgJzIwMCcsICctaW1hZScsICc8aW5maWxlLm1hZT4nLCAnLW9tYWUnLCAnPG91dGZpbGUubWFlPic=

>  <r_lp_tautomer_probability>  (288) 
1

>  <r_epik_Ionization_Penalty>  (288) 
0.00255983

>  <r_epik_Ionization_Penalty_Charging>  (288) 
0.00255805

>  <r_epik_Ionization_Penalty_Neutral>  (288) 
1.77303e-06

>  <r_epik_State_Penalty>  (288) 
-0

>  <r_epik_Charging_Adjusted_Penalty>  (288) 
0.00255805

>  <i_epik_Tot_Q>  (288) 
1

>  <i_epik_Tot_abs_Q>  (288) 
1

>  <s_lp_Force_Field>  (288) 
OPLS3e

>  <r_lp_Energy>  (288) 
28.685

>  <b_lp_Chiralities_Consistent>  (288) 
1

>  <s_lp_Variant>  (288) 
78:0-1

>  <s_i_glide_gridfile>  (288) 
pfpi4k_grid

>  <i_i_glide_lignum>  (288) 
36

>  <i_i_glide_rotatable_bonds>  (288) 
3

>  <r_i_docking_score>  (288) 
-2.72723

>  <r_i_glide_ligand_efficiency>  (288) 
-0.181815

>  <r_i_glide_ligand_efficiency_sa>  (288) 
-0.448395

>  <r_i_glide_ligand_efficiency_ln>  (288) 
-0.735489

>  <r_i_glide_gscore>  (288) 
-2.72723

>  <r_i_glide_lipo>  (288) 
-0.276916

>  <r_i_glide_hbond>  (288) 
0

>  <r_i_glide_metal>  (288) 
-0

>  <r_i_glide_rewards>  (288) 
-1.99571

>  <r_i_glide_evdw>  (288) 
-19.6964

>  <r_i_glide_ecoul>  (288) 
-3.84215

>  <r_i_glide_erotb>  (288) 
1.15383

>  <r_i_glide_esite>  (288) 
-0.0472887

>  <r_i_glide_emodel>  (288) 
-28.3822

>  <r_i_glide_energy>  (288) 
-23.5386

>  <r_i_glide_einternal>  (288) 
0.0897335

>  <r_i_glide_intrahb_reward>  (288) 
-0

>  <i_i_glide_confnum>  (288) 
2

>  <i_i_glide_posenum>  (288) 
5

>  <r_i_glide_eff_state_penalty>  (288) 
0

>  <ligand_id>  (288) 
78

>  <original_smiles>  (288) 
c1nc2n(n1)CC(NCC1CCC1)CC2

>  <smiles>  (288) 
[H]c1nc2n(n1)C([H])([H])C([H])([N+]([H])([H])C([H])([H])C1([H])C([H])([H])C([H])([H])C1([H])[H])C([H])([H])C2([H])[H]

$$$$
79:0:0
     RDKit          3D

 13 13  0  0  1  0  0  0  0  0999 V2000
    4.5788   -1.0266   -1.1673 C   0  0  0  0  0  0  0  0  0  0  0  0
    4.3302   -1.8518   -2.1980 C   0  0  0  0  0  0  0  0  0  0  0  0
    4.3814   -3.2361   -2.1950 C   0  0  0  0  0  0  0  0  0  0  0  0
    4.0708   -3.6371   -3.4050 N   0  0  0  0  0  0  0  0  0  0  0  0
    3.8141   -2.6506   -4.1935 N   0  0  0  0  0  0  0  0  0  0  0  0
    3.9566   -1.5090   -3.4851 C   0  0  0  0  0  0  0  0  0  0  0  0
    3.7925   -0.2385   -4.0020 C   0  0  0  0  0  0  0  0  0  0  0  0
    4.5170    0.0516   -1.2400 H   0  0  0  0  0  0  0  0  0  0  0  0
    4.8452   -1.4371   -0.1964 H   0  0  0  0  0  0  0  0  0  0  0  0
    4.6003   -3.9150   -1.3873 H   0  0  0  0  0  0  0  0  0  0  0  0
    3.9117    0.6662   -3.4220 H   0  0  0  0  0  0  0  0  0  0  0  0
    3.5081   -0.1289   -5.0337 H   0  0  0  0  0  0  0  0  0  0  0  0
    4.0004   -4.6408   -3.6103 H   0  0  0  0  0  0  0  0  0  0  0  0
  1  2  2  0
  1  8  1  0
  1  9  1  0
  2  6  1  0
  2  3  1  0
  3  4  2  0
  3 10  1  0
  4  5  1  0
  4 13  1  0
  5  6  1  0
  6  7  2  0
  7 11  1  0
  7 12  1  0
M  CHG  2   4   1   5  -1
M  END
>  <i_m_ct_stereo_status>  (289) 
1

>  <s_m_source_file>  (289) 
/var/tmp/pbs.5076255.sched01/tmp548j1hfo/88g9dmtei7.sdf

>  <i_m_source_file_index>  (289) 
37

>  <i_lp_mmshare_version>  (289) 
48012

>  <i_f3d_flags>  (289) 
0

>  <s_epik_input>  (289) 
W0NIMl09YzFbY0hdbltuSF1jMT1bQ0gyXQ==

>  <s_epik_cmdline>  (289) 
J2VwaWtfcHl0aG9uJywgJy1waHQnLCAnMi4wJywgJy1waCcsICc3LjAnLCAnLXRuJywgJzgnLCAnLW1hJywgJzIwMCcsICctaW1hZScsICc8aW5maWxlLm1hZT4nLCAnLW9tYWUnLCAnPG91dGZpbGUubWFlPic=

>  <r_epik_Ionization_Penalty>  (289) 
0.000665264

>  <r_epik_Ionization_Penalty_Charging>  (289) 
0

>  <r_epik_Ionization_Penalty_Neutral>  (289) 
0.000665264

>  <r_epik_State_Penalty>  (289) 
0.143208

>  <r_epik_Charging_Adjusted_Penalty>  (289) 
0.143208

>  <i_epik_Tot_Q>  (289) 
0

>  <i_epik_Tot_abs_Q>  (289) 
2

>  <s_epik_Chemistry_Notes>  (289) 
This compound has an imine and may undergo hydrolysis.

>  <s_lp_Force_Field>  (289) 
OPLS3e

>  <r_lp_Energy>  (289) 
1.7759

>  <b_lp_Chiralities_Consistent>  (289) 
1

>  <s_lp_Variant>  (289) 
79:0-1

>  <s_i_glide_gridfile>  (289) 
pfpi4k_grid

>  <i_i_glide_lignum>  (289) 
37

>  <i_i_glide_rotatable_bonds>  (289) 
0

>  <r_i_docking_score>  (289) 
-5.06236

>  <r_i_glide_ligand_efficiency>  (289) 
-0.723195

>  <r_i_glide_ligand_efficiency_sa>  (289) 
-1.38342

>  <r_i_glide_ligand_efficiency_ln>  (289) 
-1.71844

>  <r_i_glide_gscore>  (289) 
-5.06236

>  <r_i_glide_lipo>  (289) 
-0.432028

>  <r_i_glide_hbond>  (289) 
-0.500107

>  <r_i_glide_metal>  (289) 
-0

>  <r_i_glide_rewards>  (289) 
-2.25

>  <r_i_glide_evdw>  (289) 
-13.2809

>  <r_i_glide_ecoul>  (289) 
-8.10791

>  <r_i_glide_erotb>  (289) 
0

>  <r_i_glide_esite>  (289) 
0

>  <r_i_glide_emodel>  (289) 
-28.728

>  <r_i_glide_energy>  (289) 
-21.3888

>  <r_i_glide_einternal>  (289) 
0

>  <r_i_glide_intrahb_reward>  (289) 
-0

>  <i_i_glide_confnum>  (289) 
2

>  <i_i_glide_posenum>  (289) 
36

>  <r_i_glide_eff_state_penalty>  (289) 
0

>  <ligand_id>  (289) 
79

>  <original_smiles>  (289) 
C=c1cn[nH]c1=C

>  <smiles>  (289) 
[H]C([H])=c1[n-][n+]([H])c([H])c1=C([H])[H]

$$$$
79:0:1
     RDKit          3D

 13 13  0  0  1  0  0  0  0  0999 V2000
    3.4804   -0.5076   -4.2170 C   0  0  0  0  0  0  0  0  0  0  0  0
    3.4464   -1.5769   -3.3987 C   0  0  0  0  0  0  0  0  0  0  0  0
    2.6056   -2.6843   -3.4915 C   0  0  0  0  0  0  0  0  0  0  0  0
    2.8528   -3.4523   -2.4597 N   0  0  0  0  0  0  0  0  0  0  0  0
    3.8235   -3.0056   -1.7515 N   0  0  0  0  0  0  0  0  0  0  0  0
    4.1961   -1.8189   -2.2647 C   0  0  0  0  0  0  0  0  0  0  0  0
    5.1805   -1.0280   -1.7345 C   0  0  0  0  0  0  0  0  0  0  0  0
    4.1371    0.3463   -4.0716 H   0  0  0  0  0  0  0  0  0  0  0  0
    2.7999   -0.4661   -5.0570 H   0  0  0  0  0  0  0  0  0  0  0  0
    1.8607   -2.9169   -4.2379 H   0  0  0  0  0  0  0  0  0  0  0  0
    5.4457   -0.0629   -2.1473 H   0  0  0  0  0  0  0  0  0  0  0  0
    5.6814   -1.3480   -0.8308 H   0  0  0  0  0  0  0  0  0  0  0  0
    2.4409   -4.4016   -2.4028 H   0  0  0  0  0  0  0  0  0  0  0  0
  1  2  2  0
  1  8  1  0
  1  9  1  0
  2  6  1  0
  2  3  1  0
  3  4  2  0
  3 10  1  0
  4  5  1  0
  4 13  1  0
  5  6  1  0
  6  7  2  0
  7 11  1  0
  7 12  1  0
M  CHG  2   4   1   5  -1
M  END
>  <i_m_ct_stereo_status>  (290) 
1

>  <s_m_source_file>  (290) 
/var/tmp/pbs.5076255.sched01/tmp548j1hfo/88g9dmtei7.sdf

>  <i_m_source_file_index>  (290) 
37

>  <i_lp_mmshare_version>  (290) 
48012

>  <i_f3d_flags>  (290) 
0

>  <s_epik_input>  (290) 
W0NIMl09YzFbY0hdbltuSF1jMT1bQ0gyXQ==

>  <s_epik_cmdline>  (290) 
J2VwaWtfcHl0aG9uJywgJy1waHQnLCAnMi4wJywgJy1waCcsICc3LjAnLCAnLXRuJywgJzgnLCAnLW1hJywgJzIwMCcsICctaW1hZScsICc8aW5maWxlLm1hZT4nLCAnLW9tYWUnLCAnPG91dGZpbGUubWFlPic=

>  <r_epik_Ionization_Penalty>  (290) 
0.000665264

>  <r_epik_Ionization_Penalty_Charging>  (290) 
0

>  <r_epik_Ionization_Penalty_Neutral>  (290) 
0.000665264

>  <r_epik_State_Penalty>  (290) 
0.143208

>  <r_epik_Charging_Adjusted_Penalty>  (290) 
0.143208

>  <i_epik_Tot_Q>  (290) 
0

>  <i_epik_Tot_abs_Q>  (290) 
2

>  <s_epik_Chemistry_Notes>  (290) 
This compound has an imine and may undergo hydrolysis.

>  <s_lp_Force_Field>  (290) 
OPLS3e

>  <r_lp_Energy>  (290) 
1.7759

>  <b_lp_Chiralities_Consistent>  (290) 
1

>  <s_lp_Variant>  (290) 
79:0-1

>  <s_i_glide_gridfile>  (290) 
pfpi4k_grid

>  <i_i_glide_lignum>  (290) 
37

>  <i_i_glide_rotatable_bonds>  (290) 
0

>  <r_i_docking_score>  (290) 
-4.99236

>  <r_i_glide_ligand_efficiency>  (290) 
-0.713195

>  <r_i_glide_ligand_efficiency_sa>  (290) 
-1.36429

>  <r_i_glide_ligand_efficiency_ln>  (290) 
-1.69468

>  <r_i_glide_gscore>  (290) 
-4.99236

>  <r_i_glide_lipo>  (290) 
-0.637788

>  <r_i_glide_hbond>  (290) 
-0.251415

>  <r_i_glide_metal>  (290) 
-0

>  <r_i_glide_rewards>  (290) 
-2.25

>  <r_i_glide_evdw>  (290) 
-14.5664

>  <r_i_glide_ecoul>  (290) 
-7.49895

>  <r_i_glide_erotb>  (290) 
0

>  <r_i_glide_esite>  (290) 
0

>  <r_i_glide_emodel>  (290) 
-29.0005

>  <r_i_glide_energy>  (290) 
-22.0653

>  <r_i_glide_einternal>  (290) 
0

>  <r_i_glide_intrahb_reward>  (290) 
-0

>  <i_i_glide_confnum>  (290) 
1

>  <i_i_glide_posenum>  (290) 
21

>  <r_i_glide_eff_state_penalty>  (290) 
0

>  <ligand_id>  (290) 
79

>  <original_smiles>  (290) 
C=c1cn[nH]c1=C

>  <smiles>  (290) 
[H]C([H])=c1[n-][n+]([H])c([H])c1=C([H])[H]

$$$$
79:0:2
     RDKit          3D

 13 13  0  0  1  0  0  0  0  0999 V2000
    4.5360   -1.2935   -2.5616 C   0  0  0  0  0  0  0  0  0  0  0  0
    3.5580   -2.1557   -2.2397 C   0  0  0  0  0  0  0  0  0  0  0  0
    2.5873   -2.6792   -3.0837 C   0  0  0  0  0  0  0  0  0  0  0  0
    1.8199   -3.4593   -2.3561 N   0  0  0  0  0  0  0  0  0  0  0  0
    2.2110   -3.5150   -1.1237 N   0  0  0  0  0  0  0  0  0  0  0  0
    3.2875   -2.7049   -1.0075 C   0  0  0  0  0  0  0  0  0  0  0  0
    3.9890   -2.5063    0.1636 C   0  0  0  0  0  0  0  0  0  0  0  0
    5.2541   -0.9077   -1.8545 H   0  0  0  0  0  0  0  0  0  0  0  0
    4.6048   -0.9334   -3.5852 H   0  0  0  0  0  0  0  0  0  0  0  0
    2.4075   -2.5174   -4.1404 H   0  0  0  0  0  0  0  0  0  0  0  0
    4.8500   -1.8512    0.2580 H   0  0  0  0  0  0  0  0  0  0  0  0
    3.6559   -3.0129    1.0557 H   0  0  0  0  0  0  0  0  0  0  0  0
    1.0560   -3.9910   -2.7937 H   0  0  0  0  0  0  0  0  0  0  0  0
  1  2  2  0
  1  8  1  0
  1  9  1  0
  2  6  1  0
  2  3  1  0
  3  4  2  0
  3 10  1  0
  4  5  1  0
  4 13  1  0
  5  6  1  0
  6  7  2  0
  7 11  1  0
  7 12  1  0
M  CHG  2   4   1   5  -1
M  END
>  <i_m_ct_stereo_status>  (291) 
1

>  <s_m_source_file>  (291) 
/var/tmp/pbs.5076255.sched01/tmp548j1hfo/88g9dmtei7.sdf

>  <i_m_source_file_index>  (291) 
37

>  <i_lp_mmshare_version>  (291) 
48012

>  <i_f3d_flags>  (291) 
0

>  <s_epik_input>  (291) 
W0NIMl09YzFbY0hdbltuSF1jMT1bQ0gyXQ==

>  <s_epik_cmdline>  (291) 
J2VwaWtfcHl0aG9uJywgJy1waHQnLCAnMi4wJywgJy1waCcsICc3LjAnLCAnLXRuJywgJzgnLCAnLW1hJywgJzIwMCcsICctaW1hZScsICc8aW5maWxlLm1hZT4nLCAnLW9tYWUnLCAnPG91dGZpbGUubWFlPic=

>  <r_epik_Ionization_Penalty>  (291) 
0.000665264

>  <r_epik_Ionization_Penalty_Charging>  (291) 
0

>  <r_epik_Ionization_Penalty_Neutral>  (291) 
0.000665264

>  <r_epik_State_Penalty>  (291) 
0.143208

>  <r_epik_Charging_Adjusted_Penalty>  (291) 
0.143208

>  <i_epik_Tot_Q>  (291) 
0

>  <i_epik_Tot_abs_Q>  (291) 
2

>  <s_epik_Chemistry_Notes>  (291) 
This compound has an imine and may undergo hydrolysis.

>  <s_lp_Force_Field>  (291) 
OPLS3e

>  <r_lp_Energy>  (291) 
1.7759

>  <b_lp_Chiralities_Consistent>  (291) 
1

>  <s_lp_Variant>  (291) 
79:0-1

>  <s_i_glide_gridfile>  (291) 
pfpi4k_grid

>  <i_i_glide_lignum>  (291) 
37

>  <i_i_glide_rotatable_bonds>  (291) 
0

>  <r_i_docking_score>  (291) 
-4.04291

>  <r_i_glide_ligand_efficiency>  (291) 
-0.577559

>  <r_i_glide_ligand_efficiency_sa>  (291) 
-1.10483

>  <r_i_glide_ligand_efficiency_ln>  (291) 
-1.37238

>  <r_i_glide_gscore>  (291) 
-4.04291

>  <r_i_glide_lipo>  (291) 
-0.0721306

>  <r_i_glide_hbond>  (291) 
-0.32

>  <r_i_glide_metal>  (291) 
-0

>  <r_i_glide_rewards>  (291) 
-2.25

>  <r_i_glide_evdw>  (291) 
-11.3629

>  <r_i_glide_ecoul>  (291) 
-5.55092

>  <r_i_glide_erotb>  (291) 
0

>  <r_i_glide_esite>  (291) 
0

>  <r_i_glide_emodel>  (291) 
-22.7656

>  <r_i_glide_energy>  (291) 
-16.9138

>  <r_i_glide_einternal>  (291) 
0

>  <r_i_glide_intrahb_reward>  (291) 
-0

>  <i_i_glide_confnum>  (291) 
1

>  <i_i_glide_posenum>  (291) 
25

>  <r_i_glide_eff_state_penalty>  (291) 
0

>  <ligand_id>  (291) 
79

>  <original_smiles>  (291) 
C=c1cn[nH]c1=C

>  <smiles>  (291) 
[H]C([H])=c1[n-][n+]([H])c([H])c1=C([H])[H]

$$$$
79:1:0
     RDKit          3D

 13 13  0  0  1  0  0  0  0  0999 V2000
    5.3675   -1.5520   -1.5544 C   0  0  0  0  0  0  0  0  0  0  0  0
    4.5994   -1.9647   -2.5766 C   0  0  0  0  0  0  0  0  0  0  0  0
    4.3545   -3.3330   -2.8994 C   0  0  0  0  0  0  0  0  0  0  0  0
    3.5575   -3.4591   -3.9199 N   0  0  0  0  0  0  0  0  0  0  0  0
    3.2121   -2.1933   -4.3186 N   0  0  0  0  0  0  0  0  0  0  0  0
    3.8376   -1.2432   -3.5531 C   0  0  0  0  0  0  0  0  0  0  0  0
    3.7323    0.0719   -3.7307 C   0  0  0  0  0  0  0  0  0  0  0  0
    2.5940   -2.0329   -5.1207 H   0  0  0  0  0  0  0  0  0  0  0  0
    5.5059   -0.5004   -1.3313 H   0  0  0  0  0  0  0  0  0  0  0  0
    5.8571   -2.2700   -0.9159 H   0  0  0  0  0  0  0  0  0  0  0  0
    4.8098   -4.1290   -2.3149 H   0  0  0  0  0  0  0  0  0  0  0  0
    4.2276    0.7905   -3.0910 H   0  0  0  0  0  0  0  0  0  0  0  0
    3.1062    0.4793   -4.5085 H   0  0  0  0  0  0  0  0  0  0  0  0
  1  2  2  0
  1  9  1  0
  1 10  1  0
  2  6  1  0
  2  3  1  0
  3  4  2  0
  3 11  1  0
  4  5  1  0
  5  8  1  0
  5  6  1  0
  6  7  2  0
  7 12  1  0
  7 13  1  0
M  END
>  <i_m_ct_stereo_status>  (292) 
1

>  <s_m_source_file>  (292) 
/var/tmp/pbs.5076255.sched01/tmp548j1hfo/88g9dmtei7.sdf

>  <i_m_source_file_index>  (292) 
38

>  <i_lp_mmshare_version>  (292) 
48012

>  <i_f3d_flags>  (292) 
0

>  <s_epik_input>  (292) 
W0NIMl09YzFbY0hdbltuSF1jMT1bQ0gyXQ==

>  <s_epik_cmdline>  (292) 
J2VwaWtfcHl0aG9uJywgJy1waHQnLCAnMi4wJywgJy1waCcsICc3LjAnLCAnLXRuJywgJzgnLCAnLW1hJywgJzIwMCcsICctaW1hZScsICc8aW5maWxlLm1hZT4nLCAnLW9tYWUnLCAnPG91dGZpbGUubWFlPic=

>  <r_epik_Ionization_Penalty>  (292) 
0.00224519

>  <r_epik_Ionization_Penalty_Charging>  (292) 
5.97581e-08

>  <r_epik_Ionization_Penalty_Neutral>  (292) 
0.00224513

>  <r_epik_State_Penalty>  (292) 
0.913055

>  <r_epik_Charging_Adjusted_Penalty>  (292) 
0.913055

>  <i_epik_Tot_Q>  (292) 
0

>  <i_epik_Tot_abs_Q>  (292) 
0

>  <s_epik_Chemistry_Notes>  (292) 
This compound has an imine and may undergo hydrolysis.

>  <s_lp_Force_Field>  (292) 
OPLS3e

>  <r_lp_Energy>  (292) 
2.92693

>  <b_lp_Chiralities_Consistent>  (292) 
1

>  <s_lp_Variant>  (292) 
79:0-2

>  <s_i_glide_gridfile>  (292) 
pfpi4k_grid

>  <i_i_glide_lignum>  (292) 
38

>  <i_i_glide_rotatable_bonds>  (292) 
0

>  <r_i_docking_score>  (292) 
-4.30133

>  <r_i_glide_ligand_efficiency>  (292) 
-0.614475

>  <r_i_glide_ligand_efficiency_sa>  (292) 
-1.17545

>  <r_i_glide_ligand_efficiency_ln>  (292) 
-1.4601

>  <r_i_glide_gscore>  (292) 
-4.30133

>  <r_i_glide_lipo>  (292) 
-0.340035

>  <r_i_glide_hbond>  (292) 
-0.32

>  <r_i_glide_metal>  (292) 
-0

>  <r_i_glide_rewards>  (292) 
-2.25

>  <r_i_glide_evdw>  (292) 
-14.5617

>  <r_i_glide_ecoul>  (292) 
-4.21322

>  <r_i_glide_erotb>  (292) 
0

>  <r_i_glide_esite>  (292) 
-0.0312244

>  <r_i_glide_emodel>  (292) 
-23.5045

>  <r_i_glide_energy>  (292) 
-18.7749

>  <r_i_glide_einternal>  (292) 
0

>  <r_i_glide_intrahb_reward>  (292) 
-0

>  <i_i_glide_confnum>  (292) 
2

>  <i_i_glide_posenum>  (292) 
27

>  <r_i_glide_eff_state_penalty>  (292) 
0

>  <ligand_id>  (292) 
79

>  <original_smiles>  (292) 
C=c1cn[nH]c1=C

>  <smiles>  (292) 
[H]C([H])=c1c([H])nn([H])c1=C([H])[H]

$$$$
79:1:1
     RDKit          3D

 13 13  0  0  1  0  0  0  0  0999 V2000
    3.7423   -0.2619   -3.5408 C   0  0  0  0  0  0  0  0  0  0  0  0
    4.0570   -1.4013   -2.8966 C   0  0  0  0  0  0  0  0  0  0  0  0
    5.0101   -1.5052   -1.8413 C   0  0  0  0  0  0  0  0  0  0  0  0
    5.1446   -2.7138   -1.4015 N   0  0  0  0  0  0  0  0  0  0  0  0
    4.2806   -3.4899   -2.1192 N   0  0  0  0  0  0  0  0  0  0  0  0
    3.5856   -2.7372   -3.0470 C   0  0  0  0  0  0  0  0  0  0  0  0
    2.6524   -3.2008   -3.8919 C   0  0  0  0  0  0  0  0  0  0  0  0
    4.1508   -4.4863   -1.9622 H   0  0  0  0  0  0  0  0  0  0  0  0
    3.0009   -0.2307   -4.3224 H   0  0  0  0  0  0  0  0  0  0  0  0
    4.2106    0.6690   -3.2653 H   0  0  0  0  0  0  0  0  0  0  0  0
    5.5382   -0.6196   -1.5004 H   0  0  0  0  0  0  0  0  0  0  0  0
    2.1342   -2.5522   -4.5815 H   0  0  0  0  0  0  0  0  0  0  0  0
    2.3788   -4.2474   -3.8985 H   0  0  0  0  0  0  0  0  0  0  0  0
  1  2  2  0
  1  9  1  0
  1 10  1  0
  2  6  1  0
  2  3  1  0
  3  4  2  0
  3 11  1  0
  4  5  1  0
  5  8  1  0
  5  6  1  0
  6  7  2  0
  7 12  1  0
  7 13  1  0
M  END
>  <i_m_ct_stereo_status>  (293) 
1

>  <s_m_source_file>  (293) 
/var/tmp/pbs.5076255.sched01/tmp548j1hfo/88g9dmtei7.sdf

>  <i_m_source_file_index>  (293) 
38

>  <i_lp_mmshare_version>  (293) 
48012

>  <i_f3d_flags>  (293) 
0

>  <s_epik_input>  (293) 
W0NIMl09YzFbY0hdbltuSF1jMT1bQ0gyXQ==

>  <s_epik_cmdline>  (293) 
J2VwaWtfcHl0aG9uJywgJy1waHQnLCAnMi4wJywgJy1waCcsICc3LjAnLCAnLXRuJywgJzgnLCAnLW1hJywgJzIwMCcsICctaW1hZScsICc8aW5maWxlLm1hZT4nLCAnLW9tYWUnLCAnPG91dGZpbGUubWFlPic=

>  <r_epik_Ionization_Penalty>  (293) 
0.00224519

>  <r_epik_Ionization_Penalty_Charging>  (293) 
5.97581e-08

>  <r_epik_Ionization_Penalty_Neutral>  (293) 
0.00224513

>  <r_epik_State_Penalty>  (293) 
0.913055

>  <r_epik_Charging_Adjusted_Penalty>  (293) 
0.913055

>  <i_epik_Tot_Q>  (293) 
0

>  <i_epik_Tot_abs_Q>  (293) 
0

>  <s_epik_Chemistry_Notes>  (293) 
This compound has an imine and may undergo hydrolysis.

>  <s_lp_Force_Field>  (293) 
OPLS3e

>  <r_lp_Energy>  (293) 
2.92693

>  <b_lp_Chiralities_Consistent>  (293) 
1

>  <s_lp_Variant>  (293) 
79:0-2

>  <s_i_glide_gridfile>  (293) 
pfpi4k_grid

>  <i_i_glide_lignum>  (293) 
38

>  <i_i_glide_rotatable_bonds>  (293) 
0

>  <r_i_docking_score>  (293) 
-4.07756

>  <r_i_glide_ligand_efficiency>  (293) 
-0.582508

>  <r_i_glide_ligand_efficiency_sa>  (293) 
-1.1143

>  <r_i_glide_ligand_efficiency_ln>  (293) 
-1.38414

>  <r_i_glide_gscore>  (293) 
-4.07756

>  <r_i_glide_lipo>  (293) 
-0.391937

>  <r_i_glide_hbond>  (293) 
-0.212372

>  <r_i_glide_metal>  (293) 
-0

>  <r_i_glide_rewards>  (293) 
-2.25

>  <r_i_glide_evdw>  (293) 
-14.8587

>  <r_i_glide_ecoul>  (293) 
-3.04209

>  <r_i_glide_erotb>  (293) 
0

>  <r_i_glide_esite>  (293) 
-0.0239991

>  <r_i_glide_emodel>  (293) 
-22.4028

>  <r_i_glide_energy>  (293) 
-17.9008

>  <r_i_glide_einternal>  (293) 
0

>  <r_i_glide_intrahb_reward>  (293) 
-0

>  <i_i_glide_confnum>  (293) 
2

>  <i_i_glide_posenum>  (293) 
39

>  <r_i_glide_eff_state_penalty>  (293) 
0

>  <ligand_id>  (293) 
79

>  <original_smiles>  (293) 
C=c1cn[nH]c1=C

>  <smiles>  (293) 
[H]C([H])=c1c([H])nn([H])c1=C([H])[H]

$$$$
79:1:2
     RDKit          3D

 13 13  0  0  1  0  0  0  0  0999 V2000
    4.7514   -1.0827   -0.7114 C   0  0  0  0  0  0  0  0  0  0  0  0
    4.5017   -1.8197   -1.8034 C   0  0  0  0  0  0  0  0  0  0  0  0
    4.0201   -1.3055   -3.0468 C   0  0  0  0  0  0  0  0  0  0  0  0
    3.8646   -2.2256   -3.9338 N   0  0  0  0  0  0  0  0  0  0  0  0
    4.2325   -3.4051   -3.3565 N   0  0  0  0  0  0  0  0  0  0  0  0
    4.6142   -3.2271   -2.0411 C   0  0  0  0  0  0  0  0  0  0  0  0
    4.9988   -4.1956   -1.1957 C   0  0  0  0  0  0  0  0  0  0  0  0
    4.1139   -4.2951   -3.8316 H   0  0  0  0  0  0  0  0  0  0  0  0
    5.1008   -1.5210    0.2113 H   0  0  0  0  0  0  0  0  0  0  0  0
    4.6040   -0.0125   -0.7160 H   0  0  0  0  0  0  0  0  0  0  0  0
    3.8322   -0.2395   -3.1622 H   0  0  0  0  0  0  0  0  0  0  0  0
    5.2826   -3.9849   -0.1799 H   0  0  0  0  0  0  0  0  0  0  0  0
    5.0165   -5.2250   -1.5272 H   0  0  0  0  0  0  0  0  0  0  0  0
  1  2  2  0
  1  9  1  0
  1 10  1  0
  2  6  1  0
  2  3  1  0
  3  4  2  0
  3 11  1  0
  4  5  1  0
  5  8  1  0
  5  6  1  0
  6  7  2  0
  7 12  1  0
  7 13  1  0
M  END
>  <i_m_ct_stereo_status>  (294) 
1

>  <s_m_source_file>  (294) 
/var/tmp/pbs.5076255.sched01/tmp548j1hfo/88g9dmtei7.sdf

>  <i_m_source_file_index>  (294) 
38

>  <i_lp_mmshare_version>  (294) 
48012

>  <i_f3d_flags>  (294) 
0

>  <s_epik_input>  (294) 
W0NIMl09YzFbY0hdbltuSF1jMT1bQ0gyXQ==

>  <s_epik_cmdline>  (294) 
J2VwaWtfcHl0aG9uJywgJy1waHQnLCAnMi4wJywgJy1waCcsICc3LjAnLCAnLXRuJywgJzgnLCAnLW1hJywgJzIwMCcsICctaW1hZScsICc8aW5maWxlLm1hZT4nLCAnLW9tYWUnLCAnPG91dGZpbGUubWFlPic=

>  <r_epik_Ionization_Penalty>  (294) 
0.00224519

>  <r_epik_Ionization_Penalty_Charging>  (294) 
5.97581e-08

>  <r_epik_Ionization_Penalty_Neutral>  (294) 
0.00224513

>  <r_epik_State_Penalty>  (294) 
0.913055

>  <r_epik_Charging_Adjusted_Penalty>  (294) 
0.913055

>  <i_epik_Tot_Q>  (294) 
0

>  <i_epik_Tot_abs_Q>  (294) 
0

>  <s_epik_Chemistry_Notes>  (294) 
This compound has an imine and may undergo hydrolysis.

>  <s_lp_Force_Field>  (294) 
OPLS3e

>  <r_lp_Energy>  (294) 
2.92693

>  <b_lp_Chiralities_Consistent>  (294) 
1

>  <s_lp_Variant>  (294) 
79:0-2

>  <s_i_glide_gridfile>  (294) 
pfpi4k_grid

>  <i_i_glide_lignum>  (294) 
38

>  <i_i_glide_rotatable_bonds>  (294) 
0

>  <r_i_docking_score>  (294) 
-3.55643

>  <r_i_glide_ligand_efficiency>  (294) 
-0.508061

>  <r_i_glide_ligand_efficiency_sa>  (294) 
-0.971886

>  <r_i_glide_ligand_efficiency_ln>  (294) 
-1.20724

>  <r_i_glide_gscore>  (294) 
-3.55643

>  <r_i_glide_lipo>  (294) 
-0.0481658

>  <r_i_glide_hbond>  (294) 
-0.155461

>  <r_i_glide_metal>  (294) 
-0

>  <r_i_glide_rewards>  (294) 
-2.25

>  <r_i_glide_evdw>  (294) 
-15.0702

>  <r_i_glide_ecoul>  (294) 
-2.32862

>  <r_i_glide_erotb>  (294) 
0

>  <r_i_glide_esite>  (294) 
0

>  <r_i_glide_emodel>  (294) 
-21.3195

>  <r_i_glide_energy>  (294) 
-17.3988

>  <r_i_glide_einternal>  (294) 
0

>  <r_i_glide_intrahb_reward>  (294) 
-0

>  <i_i_glide_confnum>  (294) 
1

>  <i_i_glide_posenum>  (294) 
9

>  <r_i_glide_eff_state_penalty>  (294) 
0

>  <ligand_id>  (294) 
79

>  <original_smiles>  (294) 
C=c1cn[nH]c1=C

>  <smiles>  (294) 
[H]C([H])=c1c([H])nn([H])c1=C([H])[H]

$$$$
80:0:0
     RDKit          3D

 36 39  0  0  1  0  0  0  0  0999 V2000
    4.5969   -6.0042    0.1137 O   0  0  0  0  0  0  0  0  0  0  0  0
    4.4081   -4.7907    0.1365 C   0  0  0  0  0  0  0  0  0  0  0  0
    3.5266   -4.1304    1.1570 C   0  0  0  0  0  0  0  0  0  0  0  0
    3.2631   -2.8266    1.2111 N   0  0  0  0  0  0  0  0  0  0  0  0
    2.4442   -2.6839    2.3094 N   0  0  0  0  0  0  0  0  0  0  0  0
    2.2369   -3.8270    2.8861 N   0  0  0  0  0  0  0  0  0  0  0  0
    2.8946   -4.7701    2.1606 N   0  0  0  0  0  0  0  0  0  0  0  0
    2.8272   -6.1621    2.6058 C   0  0  0  0  0  0  0  0  0  0  0  0
    1.3750   -6.6359    2.8082 C   0  0  2  0  0  0  0  0  0  0  0  0
    1.2475   -8.0525    3.3705 C   0  0  0  0  0  0  0  0  0  0  0  0
    0.0160   -8.6109    2.6770 C   0  0  0  0  0  0  0  0  0  0  0  0
   -0.4722   -7.4720    1.7847 C   0  0  0  0  0  0  0  0  0  0  0  0
    0.6734   -6.6661    1.5714 O   0  0  0  0  0  0  0  0  0  0  0  0
    5.0669   -3.9368   -0.8379 C   0  0  0  0  0  0  0  0  0  0  0  0
    4.7063   -3.5405   -2.0933 C   0  0  0  0  0  0  0  0  0  0  0  0
    5.7314   -2.7592   -2.6142 N   0  0  0  0  0  0  0  0  0  0  0  0
    6.6813   -2.6524   -1.7357 N   0  0  0  0  0  0  0  0  0  0  0  0
    6.3177   -3.3777   -0.6485 N   0  0  0  0  0  0  0  0  0  0  0  0
    7.1856   -3.4092    0.5194 C   0  0  0  0  0  0  0  0  0  0  0  0
    8.6721   -3.5224    0.2310 C   0  0  0  0  0  0  0  0  0  0  0  0
    7.9090   -4.7187    0.7603 C   0  0  0  0  0  0  0  0  0  0  0  0
    3.3020   -6.8334    1.8931 H   0  0  0  0  0  0  0  0  0  0  0  0
    3.3947   -6.2388    3.5363 H   0  0  0  0  0  0  0  0  0  0  0  0
    0.8379   -5.9622    3.4754 H   0  0  0  0  0  0  0  0  0  0  0  0
    2.1215   -8.6619    3.1373 H   0  0  0  0  0  0  0  0  0  0  0  0
    1.1457   -8.0262    4.4566 H   0  0  0  0  0  0  0  0  0  0  0  0
    0.2937   -9.4788    2.0805 H   0  0  0  0  0  0  0  0  0  0  0  0
   -0.7500   -8.9265    3.3848 H   0  0  0  0  0  0  0  0  0  0  0  0
   -0.9046   -7.8326    0.8538 H   0  0  0  0  0  0  0  0  0  0  0  0
   -1.2225   -6.8794    2.3059 H   0  0  0  0  0  0  0  0  0  0  0  0
    3.8215   -3.7809   -2.6581 H   0  0  0  0  0  0  0  0  0  0  0  0
    6.8115   -2.8105    1.3452 H   0  0  0  0  0  0  0  0  0  0  0  0
    9.0114   -3.5622   -0.8035 H   0  0  0  0  0  0  0  0  0  0  0  0
    9.3561   -3.0151    0.9120 H   0  0  0  0  0  0  0  0  0  0  0  0
    8.0926   -5.0076    1.7974 H   0  0  0  0  0  0  0  0  0  0  0  0
    7.7286   -5.5455    0.0792 H   0  0  0  0  0  0  0  0  0  0  0  0
  1  2  2  0
  2  3  1  0
  2 14  1  0
  3  7  1  0
  3  4  2  0
  4  5  1  0
  5  6  2  0
  6  7  1  0
  7  8  1  0
  8  9  1  0
  8 22  1  0
  8 23  1  0
  9 13  1  0
  9 10  1  0
  9 24  1  1
 10 11  1  0
 10 25  1  0
 10 26  1  0
 11 12  1  0
 11 27  1  0
 11 28  1  0
 12 13  1  0
 12 29  1  0
 12 30  1  0
 14 18  1  0
 14 15  2  0
 15 16  1  0
 15 31  1  0
 16 17  2  0
 17 18  1  0
 18 19  1  0
 19 21  1  0
 19 20  1  0
 19 32  1  0
 20 21  1  0
 20 33  1  0
 20 34  1  0
 21 35  1  0
 21 36  1  0
M  END
>  <i_m_ct_stereo_status>  (295) 
1

>  <s_m_source_file>  (295) 
/var/tmp/pbs.5076255.sched01/tmp548j1hfo/88g9dmtei7.sdf

>  <i_m_source_file_index>  (295) 
39

>  <i_lp_mmshare_version>  (295) 
48012

>  <i_f3d_flags>  (295) 
0

>  <s_epik_input>  (295) 
W0NIMl0xW0NIMl1bQ0hdMW4ybm5bY0hdYzJDKD1PKWMzbm5ubjNbQ0gyXVtDQEBIXTRbQ0gyXVtDSDJdW0NIMl1PNA==

>  <s_epik_cmdline>  (295) 
J2VwaWtfcHl0aG9uJywgJy1waHQnLCAnMi4wJywgJy1waCcsICc3LjAnLCAnLXRuJywgJzgnLCAnLW1hJywgJzIwMCcsICctaW1hZScsICc8aW5maWxlLm1hZT4nLCAnLW9tYWUnLCAnPG91dGZpbGUubWFlPic=

>  <r_lp_tautomer_probability>  (295) 
1

>  <r_epik_Ionization_Penalty>  (295) 
2.20285e-11

>  <r_epik_Ionization_Penalty_Charging>  (295) 
0

>  <r_epik_Ionization_Penalty_Neutral>  (295) 
2.20285e-11

>  <r_epik_State_Penalty>  (295) 
-0

>  <r_epik_Charging_Adjusted_Penalty>  (295) 
0

>  <i_epik_Tot_Q>  (295) 
0

>  <i_epik_Tot_abs_Q>  (295) 
0

>  <s_lp_Force_Field>  (295) 
OPLS3e

>  <r_lp_Energy>  (295) 
7.70013

>  <b_lp_Chiralities_Consistent>  (295) 
1

>  <s_lp_Variant>  (295) 
80:0-1

>  <s_i_glide_gridfile>  (295) 
pfpi4k_grid

>  <i_i_glide_lignum>  (295) 
39

>  <i_i_glide_rotatable_bonds>  (295) 
5

>  <r_i_docking_score>  (295) 
-2.62283

>  <r_i_glide_ligand_efficiency>  (295) 
-0.124897

>  <r_i_glide_ligand_efficiency_sa>  (295) 
-0.34458

>  <r_i_glide_ligand_efficiency_ln>  (295) 
-0.648489

>  <r_i_glide_gscore>  (295) 
-2.62283

>  <r_i_glide_lipo>  (295) 
-0.465737

>  <r_i_glide_hbond>  (295) 
-0.0494016

>  <r_i_glide_metal>  (295) 
-0

>  <r_i_glide_rewards>  (295) 
-1.59823

>  <r_i_glide_evdw>  (295) 
-25.4492

>  <r_i_glide_ecoul>  (295) 
-1.74732

>  <r_i_glide_erotb>  (295) 
1.08773

>  <r_i_glide_esite>  (295) 
-0.0626286

>  <r_i_glide_emodel>  (295) 
-28.4248

>  <r_i_glide_energy>  (295) 
-27.1966

>  <r_i_glide_einternal>  (295) 
6.8442

>  <r_i_glide_intrahb_reward>  (295) 
-0

>  <i_i_glide_confnum>  (295) 
4

>  <i_i_glide_posenum>  (295) 
2

>  <r_i_glide_eff_state_penalty>  (295) 
0

>  <ligand_id>  (295) 
80

>  <original_smiles>  (295) 
O=C(c1nnnn1CC1CCCO1)c1cnnn1C1CC1

>  <smiles>  (295) 
[H]c1nnn(C2([H])C([H])([H])C2([H])[H])c1C(=O)c1nnnn1C([H])([H])C1([H])OC([H])([H])C([H])([H])C1([H])[H]

$$$$
80:0:1
     RDKit          3D

 36 39  0  0  1  0  0  0  0  0999 V2000
   -0.9661    3.9758    4.1155 O   0  0  0  0  0  0  0  0  0  0  0  0
   -0.6878    2.7816    4.1109 C   0  0  0  0  0  0  0  0  0  0  0  0
   -1.3457    1.8439    5.0729 C   0  0  0  0  0  0  0  0  0  0  0  0
   -1.4305    0.5216    4.9549 N   0  0  0  0  0  0  0  0  0  0  0  0
   -2.1596    0.1299    6.0474 N   0  0  0  0  0  0  0  0  0  0  0  0
   -2.4757    1.1454    6.7842 N   0  0  0  0  0  0  0  0  0  0  0  0
   -1.9594    2.2528    6.1984 N   0  0  0  0  0  0  0  0  0  0  0  0
   -2.1655    3.5572    6.8469 C   0  0  0  0  0  0  0  0  0  0  0  0
   -1.6118    3.6250    8.2821 C   0  0  2  0  0  0  0  0  0  0  0  0
   -2.3000    2.6925    9.2796 C   0  0  0  0  0  0  0  0  0  0  0  0
   -2.3231    3.4573   10.5806 C   0  0  0  0  0  0  0  0  0  0  0  0
   -1.6190    4.7649   10.2533 C   0  0  0  0  0  0  0  0  0  0  0  0
   -1.8025    4.9122    8.8528 O   0  0  0  0  0  0  0  0  0  0  0  0
    0.3255    2.2191    3.2143 C   0  0  0  0  0  0  0  0  0  0  0  0
    0.3336    1.1229    2.4020 C   0  0  0  0  0  0  0  0  0  0  0  0
    1.5749    1.0270    1.7887 N   0  0  0  0  0  0  0  0  0  0  0  0
    2.3124    2.0196    2.1745 N   0  0  0  0  0  0  0  0  0  0  0  0
    1.5757    2.7774    3.0285 N   0  0  0  0  0  0  0  0  0  0  0  0
    2.2136    3.9060    3.6861 C   0  0  0  0  0  0  0  0  0  0  0  0
    1.5793    5.2558    3.4630 C   0  0  0  0  0  0  0  0  0  0  0  0
    2.8673    4.9117    2.7543 C   0  0  0  0  0  0  0  0  0  0  0  0
   -1.6854    4.3697    6.3075 H   0  0  0  0  0  0  0  0  0  0  0  0
   -3.2347    3.7653    6.8330 H   0  0  0  0  0  0  0  0  0  0  0  0
   -0.5377    3.4341    8.2612 H   0  0  0  0  0  0  0  0  0  0  0  0
   -3.3275    2.4973    8.9731 H   0  0  0  0  0  0  0  0  0  0  0  0
   -1.7707    1.7418    9.3514 H   0  0  0  0  0  0  0  0  0  0  0  0
   -3.3575    3.6243   10.8762 H   0  0  0  0  0  0  0  0  0  0  0  0
   -1.8264    2.9069   11.3750 H   0  0  0  0  0  0  0  0  0  0  0  0
   -2.0230    5.6059   10.8118 H   0  0  0  0  0  0  0  0  0  0  0  0
   -0.5568    4.6789   10.4773 H   0  0  0  0  0  0  0  0  0  0  0  0
   -0.4397    0.3966    2.2153 H   0  0  0  0  0  0  0  0  0  0  0  0
    2.6932    3.6343    4.6240 H   0  0  0  0  0  0  0  0  0  0  0  0
    0.6990    5.3309    2.8289 H   0  0  0  0  0  0  0  0  0  0  0  0
    1.6131    5.9663    4.2929 H   0  0  0  0  0  0  0  0  0  0  0  0
    3.7647    5.4472    3.0792 H   0  0  0  0  0  0  0  0  0  0  0  0
    2.7870    4.7412    1.6835 H   0  0  0  0  0  0  0  0  0  0  0  0
  1  2  2  0
  2  3  1  0
  2 14  1  0
  3  7  1  0
  3  4  2  0
  4  5  1  0
  5  6  2  0
  6  7  1  0
  7  8  1  0
  8  9  1  0
  8 22  1  0
  8 23  1  0
  9 13  1  0
  9 10  1  0
  9 24  1  6
 10 11  1  0
 10 25  1  0
 10 26  1  0
 11 12  1  0
 11 27  1  0
 11 28  1  0
 12 13  1  0
 12 29  1  0
 12 30  1  0
 14 18  1  0
 14 15  2  0
 15 16  1  0
 15 31  1  0
 16 17  2  0
 17 18  1  0
 18 19  1  0
 19 21  1  0
 19 20  1  0
 19 32  1  0
 20 21  1  0
 20 33  1  0
 20 34  1  0
 21 35  1  0
 21 36  1  0
M  END
>  <i_m_ct_stereo_status>  (296) 
1

>  <s_m_source_file>  (296) 
/var/tmp/pbs.5076255.sched01/tmp548j1hfo/88g9dmtei7.sdf

>  <i_m_source_file_index>  (296) 
39

>  <i_lp_mmshare_version>  (296) 
48012

>  <i_f3d_flags>  (296) 
0

>  <s_epik_input>  (296) 
W0NIMl0xW0NIMl1bQ0hdMW4ybm5bY0hdYzJDKD1PKWMzbm5ubjNbQ0gyXVtDQEBIXTRbQ0gyXVtDSDJdW0NIMl1PNA==

>  <s_epik_cmdline>  (296) 
J2VwaWtfcHl0aG9uJywgJy1waHQnLCAnMi4wJywgJy1waCcsICc3LjAnLCAnLXRuJywgJzgnLCAnLW1hJywgJzIwMCcsICctaW1hZScsICc8aW5maWxlLm1hZT4nLCAnLW9tYWUnLCAnPG91dGZpbGUubWFlPic=

>  <r_lp_tautomer_probability>  (296) 
1

>  <r_epik_Ionization_Penalty>  (296) 
2.20285e-11

>  <r_epik_Ionization_Penalty_Charging>  (296) 
0

>  <r_epik_Ionization_Penalty_Neutral>  (296) 
2.20285e-11

>  <r_epik_State_Penalty>  (296) 
-0

>  <r_epik_Charging_Adjusted_Penalty>  (296) 
0

>  <i_epik_Tot_Q>  (296) 
0

>  <i_epik_Tot_abs_Q>  (296) 
0

>  <s_lp_Force_Field>  (296) 
OPLS3e

>  <r_lp_Energy>  (296) 
7.70013

>  <b_lp_Chiralities_Consistent>  (296) 
1

>  <s_lp_Variant>  (296) 
80:0-1

>  <s_i_glide_gridfile>  (296) 
pfpi4k_grid

>  <i_i_glide_lignum>  (296) 
39

>  <i_i_glide_rotatable_bonds>  (296) 
5

>  <r_i_docking_score>  (296) 
-2.40559

>  <r_i_glide_ligand_efficiency>  (296) 
-0.114552

>  <r_i_glide_ligand_efficiency_sa>  (296) 
-0.31604

>  <r_i_glide_ligand_efficiency_ln>  (296) 
-0.594777

>  <r_i_glide_gscore>  (296) 
-2.40559

>  <r_i_glide_lipo>  (296) 
-0.124131

>  <r_i_glide_hbond>  (296) 
0

>  <r_i_glide_metal>  (296) 
-0

>  <r_i_glide_rewards>  (296) 
-1.45729

>  <r_i_glide_evdw>  (296) 
-22.0929

>  <r_i_glide_ecoul>  (296) 
-2.94173

>  <r_i_glide_erotb>  (296) 
1.08773

>  <r_i_glide_esite>  (296) 
-0.365992

>  <r_i_glide_emodel>  (296) 
-26.4878

>  <r_i_glide_energy>  (296) 
-25.0346

>  <r_i_glide_einternal>  (296) 
4.96762

>  <r_i_glide_intrahb_reward>  (296) 
-0

>  <i_i_glide_confnum>  (296) 
3

>  <i_i_glide_posenum>  (296) 
6

>  <r_i_glide_eff_state_penalty>  (296) 
0

>  <ligand_id>  (296) 
80

>  <original_smiles>  (296) 
O=C(c1nnnn1CC1CCCO1)c1cnnn1C1CC1

>  <smiles>  (296) 
[H]c1nnn(C2([H])C([H])([H])C2([H])[H])c1C(=O)c1nnnn1C([H])([H])C1([H])OC([H])([H])C([H])([H])C1([H])[H]

$$$$
80:0:2
     RDKit          3D

 36 39  0  0  1  0  0  0  0  0999 V2000
   -2.2775    0.9456    6.9102 O   0  0  0  0  0  0  0  0  0  0  0  0
   -2.1321    2.1220    6.5810 C   0  0  0  0  0  0  0  0  0  0  0  0
   -1.9644    2.5210    5.1399 C   0  0  0  0  0  0  0  0  0  0  0  0
   -2.1782    3.7401    4.6455 N   0  0  0  0  0  0  0  0  0  0  0  0
   -1.9424    3.6106    3.2924 N   0  0  0  0  0  0  0  0  0  0  0  0
   -1.6264    2.3881    2.9969 N   0  0  0  0  0  0  0  0  0  0  0  0
   -1.6150    1.6780    4.1516 N   0  0  0  0  0  0  0  0  0  0  0  0
   -1.2466    0.2620    4.1058 C   0  0  0  0  0  0  0  0  0  0  0  0
    0.2671    0.0654    3.9159 C   0  0  2  0  0  0  0  0  0  0  0  0
    0.7920    0.4883    2.5379 C   0  0  0  0  0  0  0  0  0  0  0  0
    1.8668   -0.5358    2.2175 C   0  0  0  0  0  0  0  0  0  0  0  0
    1.9073   -1.4364    3.4472 C   0  0  0  0  0  0  0  0  0  0  0  0
    0.6118   -1.3094    4.0077 O   0  0  0  0  0  0  0  0  0  0  0  0
   -2.1964    3.1715    7.5862 C   0  0  0  0  0  0  0  0  0  0  0  0
   -3.0997    3.4459    8.5735 C   0  0  0  0  0  0  0  0  0  0  0  0
   -2.6780    4.5768    9.2600 N   0  0  0  0  0  0  0  0  0  0  0  0
   -1.5706    5.0015    8.7446 N   0  0  0  0  0  0  0  0  0  0  0  0
   -1.2392    4.1581    7.7368 N   0  0  0  0  0  0  0  0  0  0  0  0
   -0.0440    4.4244    6.9540 C   0  0  0  0  0  0  0  0  0  0  0  0
    1.0148    3.3446    7.0220 C   0  0  0  0  0  0  0  0  0  0  0  0
    1.2223    4.6513    7.7529 C   0  0  0  0  0  0  0  0  0  0  0  0
   -1.5662   -0.2625    5.0020 H   0  0  0  0  0  0  0  0  0  0  0  0
   -1.7823   -0.2042    3.2849 H   0  0  0  0  0  0  0  0  0  0  0  0
    0.8126    0.5934    4.7016 H   0  0  0  0  0  0  0  0  0  0  0  0
    0.0069    0.4262    1.7832 H   0  0  0  0  0  0  0  0  0  0  0  0
    1.1525    1.5179    2.5461 H   0  0  0  0  0  0  0  0  0  0  0  0
    1.5800   -1.1042    1.3336 H   0  0  0  0  0  0  0  0  0  0  0  0
    2.8277   -0.0685    2.0155 H   0  0  0  0  0  0  0  0  0  0  0  0
    2.1414   -2.4705    3.2031 H   0  0  0  0  0  0  0  0  0  0  0  0
    2.6516   -1.0745    4.1558 H   0  0  0  0  0  0  0  0  0  0  0  0
   -4.0203    2.9454    8.8323 H   0  0  0  0  0  0  0  0  0  0  0  0
   -0.2391    4.9752    6.0393 H   0  0  0  0  0  0  0  0  0  0  0  0
    0.8286    2.4613    7.6299 H   0  0  0  0  0  0  0  0  0  0  0  0
    1.6121    3.1695    6.1271 H   0  0  0  0  0  0  0  0  0  0  0  0
    1.9469    5.3534    7.3406 H   0  0  0  0  0  0  0  0  0  0  0  0
    1.1708    4.6280    8.8404 H   0  0  0  0  0  0  0  0  0  0  0  0
  1  2  2  0
  2  3  1  0
  2 14  1  0
  3  7  1  0
  3  4  2  0
  4  5  1  0
  5  6  2  0
  6  7  1  0
  7  8  1  0
  8  9  1  0
  8 22  1  0
  8 23  1  0
  9 13  1  0
  9 10  1  0
  9 24  1  1
 10 11  1  0
 10 25  1  0
 10 26  1  0
 11 12  1  0
 11 27  1  0
 11 28  1  0
 12 13  1  0
 12 29  1  0
 12 30  1  0
 14 18  1  0
 14 15  2  0
 15 16  1  0
 15 31  1  0
 16 17  2  0
 17 18  1  0
 18 19  1  0
 19 21  1  0
 19 20  1  0
 19 32  1  0
 20 21  1  0
 20 33  1  0
 20 34  1  0
 21 35  1  0
 21 36  1  0
M  END
>  <i_m_ct_stereo_status>  (297) 
1

>  <s_m_source_file>  (297) 
/var/tmp/pbs.5076255.sched01/tmp548j1hfo/88g9dmtei7.sdf

>  <i_m_source_file_index>  (297) 
39

>  <i_lp_mmshare_version>  (297) 
48012

>  <i_f3d_flags>  (297) 
0

>  <s_epik_input>  (297) 
W0NIMl0xW0NIMl1bQ0hdMW4ybm5bY0hdYzJDKD1PKWMzbm5ubjNbQ0gyXVtDQEBIXTRbQ0gyXVtDSDJdW0NIMl1PNA==

>  <s_epik_cmdline>  (297) 
J2VwaWtfcHl0aG9uJywgJy1waHQnLCAnMi4wJywgJy1waCcsICc3LjAnLCAnLXRuJywgJzgnLCAnLW1hJywgJzIwMCcsICctaW1hZScsICc8aW5maWxlLm1hZT4nLCAnLW9tYWUnLCAnPG91dGZpbGUubWFlPic=

>  <r_lp_tautomer_probability>  (297) 
1

>  <r_epik_Ionization_Penalty>  (297) 
2.20285e-11

>  <r_epik_Ionization_Penalty_Charging>  (297) 
0

>  <r_epik_Ionization_Penalty_Neutral>  (297) 
2.20285e-11

>  <r_epik_State_Penalty>  (297) 
-0

>  <r_epik_Charging_Adjusted_Penalty>  (297) 
0

>  <i_epik_Tot_Q>  (297) 
0

>  <i_epik_Tot_abs_Q>  (297) 
0

>  <s_lp_Force_Field>  (297) 
OPLS3e

>  <r_lp_Energy>  (297) 
7.70013

>  <b_lp_Chiralities_Consistent>  (297) 
1

>  <s_lp_Variant>  (297) 
80:0-1

>  <s_i_glide_gridfile>  (297) 
pfpi4k_grid

>  <i_i_glide_lignum>  (297) 
39

>  <i_i_glide_rotatable_bonds>  (297) 
5

>  <r_i_docking_score>  (297) 
-2.35387

>  <r_i_glide_ligand_efficiency>  (297) 
-0.112089

>  <r_i_glide_ligand_efficiency_sa>  (297) 
-0.309245

>  <r_i_glide_ligand_efficiency_ln>  (297) 
-0.581989

>  <r_i_glide_gscore>  (297) 
-2.35387

>  <r_i_glide_lipo>  (297) 
-0.129803

>  <r_i_glide_hbond>  (297) 
-0.16

>  <r_i_glide_metal>  (297) 
-0

>  <r_i_glide_rewards>  (297) 
-1.45294

>  <r_i_glide_evdw>  (297) 
-22.8382

>  <r_i_glide_ecoul>  (297) 
-2.46924

>  <r_i_glide_erotb>  (297) 
1.08773

>  <r_i_glide_esite>  (297) 
-0.186554

>  <r_i_glide_emodel>  (297) 
-26.4802

>  <r_i_glide_energy>  (297) 
-25.3075

>  <r_i_glide_einternal>  (297) 
6.01553

>  <r_i_glide_intrahb_reward>  (297) 
-0

>  <i_i_glide_confnum>  (297) 
3

>  <i_i_glide_posenum>  (297) 
5

>  <r_i_glide_eff_state_penalty>  (297) 
0

>  <ligand_id>  (297) 
80

>  <original_smiles>  (297) 
O=C(c1nnnn1CC1CCCO1)c1cnnn1C1CC1

>  <smiles>  (297) 
[H]c1nnn(C2([H])C([H])([H])C2([H])[H])c1C(=O)c1nnnn1C([H])([H])C1([H])OC([H])([H])C([H])([H])C1([H])[H]

$$$$
81:0:0
     RDKit          3D

 56 63  0  0  1  0  0  0  0  0999 V2000
    2.7323   -1.4866   -4.0997 C   0  0  0  0  0  0  0  0  0  0  0  0
    2.6802   -1.3065   -2.5924 C   0  0  0  0  0  0  0  0  0  0  0  0
    3.1949   -2.1411   -1.6685 C   0  0  0  0  0  0  0  0  0  0  0  0
    3.9797   -3.4054   -1.9640 C   0  0  0  0  0  0  0  0  0  0  0  0
    4.6055   -3.8693   -0.6690 N   0  0  1  0  0  0  0  0  0  0  0  0
    6.0827   -3.9505   -1.0702 C   0  0  1  0  0  0  0  0  0  0  0  0
    7.4369   -3.4152   -0.5568 C   0  0  0  0  0  0  0  0  0  0  0  0
    6.5478   -2.4929   -1.3388 C   0  0  2  0  0  0  0  0  0  0  0  0
    5.8251   -1.2457   -0.7907 C   0  0  1  0  0  0  0  0  0  0  0  0
    5.3555   -0.4823   -1.8810 O   0  0  0  0  0  0  0  0  0  0  0  0
    4.7801   -1.4657    0.3473 C   0  0  2  0  0  0  0  0  0  0  0  0
    4.5725   -0.1675    0.8749 O   0  0  0  0  0  0  0  0  0  0  0  0
    5.8025   -2.1915    1.4585 C   0  0  0  0  0  0  0  0  0  0  0  0
    5.8208   -3.8080    1.8945 C   0  0  2  0  0  0  0  0  0  0  0  0
    5.0789   -5.3669    1.4225 C   0  0  1  0  0  0  0  0  0  0  0  0
    3.4602   -5.9481    0.9806 C   0  0  0  0  0  0  0  0  0  0  0  0
    2.1145   -4.7462    1.0480 C   0  0  1  0  0  0  0  0  0  0  0  0
    1.9571   -3.7185    2.2875 C   0  0  1  0  0  0  0  0  0  0  0  0
    1.6172   -4.3970    3.4907 O   0  0  0  0  0  0  0  0  0  0  0  0
    1.4099   -3.5428    4.6030 C   0  0  0  0  0  0  0  0  0  0  0  0
    3.3750   -3.0043    2.1800 C   0  0  1  0  0  0  0  0  0  0  0  0
    4.6955   -3.5704    2.7759 C   0  0  1  0  0  0  0  0  0  0  0  0
    4.1918   -4.6367    2.0405 C   0  0  1  0  0  0  0  0  0  0  0  0
    3.6887   -3.7005    0.7306 C   0  0  2  0  0  0  0  0  0  0  0  0
    2.4078   -3.4947    0.1136 C   0  0  2  0  0  0  0  0  0  0  0  0
    3.1719   -1.9788   -0.1468 C   0  0  2  0  0  0  0  0  0  0  0  0
    1.7338   -1.5390   -4.5161 H   0  0  0  0  0  0  0  0  0  0  0  0
    3.2495   -2.3930   -4.4149 H   0  0  0  0  0  0  0  0  0  0  0  0
    3.1989   -0.6041   -4.5373 H   0  0  0  0  0  0  0  0  0  0  0  0
    2.2592   -0.3765   -2.2539 H   0  0  0  0  0  0  0  0  0  0  0  0
    3.3166   -4.1664   -2.3714 H   0  0  0  0  0  0  0  0  0  0  0  0
    4.6614   -3.2003   -2.8089 H   0  0  0  0  0  0  0  0  0  0  0  0
    6.0451   -4.5502   -1.9629 H   0  0  0  0  0  0  0  0  0  0  0  0
    7.7169   -3.3535    0.4783 H   0  0  0  0  0  0  0  0  0  0  0  0
    8.2835   -3.7904   -1.1322 H   0  0  0  0  0  0  0  0  0  0  0  0
    6.9653   -2.3011   -2.3227 H   0  0  0  0  0  0  0  0  0  0  0  0
    6.5896   -0.5942   -0.3885 H   0  0  0  0  0  0  0  0  0  0  0  0
    5.1068    0.3654   -1.5594 H   0  0  0  0  0  0  0  0  0  0  0  0
    3.8073    0.1811    0.4522 H   0  0  0  0  0  0  0  0  0  0  0  0
    6.8178   -1.8041    1.3462 H   0  0  0  0  0  0  0  0  0  0  0  0
    5.6460   -1.5860    2.3592 H   0  0  0  0  0  0  0  0  0  0  0  0
    6.7107   -4.0735    2.4652 H   0  0  0  0  0  0  0  0  0  0  0  0
    5.5552   -6.0970    2.0563 H   0  0  0  0  0  0  0  0  0  0  0  0
    3.4812   -6.3928   -0.0253 H   0  0  0  0  0  0  0  0  0  0  0  0
    3.1683   -6.8156    1.6216 H   0  0  0  0  0  0  0  0  0  0  0  0
    1.1794   -5.2563    0.7863 H   0  0  0  0  0  0  0  0  0  0  0  0
    1.1836   -2.9638    2.1161 H   0  0  0  0  0  0  0  0  0  0  0  0
    1.1481   -4.1396    5.4790 H   0  0  0  0  0  0  0  0  0  0  0  0
    0.5967   -2.8361    4.4244 H   0  0  0  0  0  0  0  0  0  0  0  0
    2.3203   -2.9880    4.8300 H   0  0  0  0  0  0  0  0  0  0  0  0
    3.2808   -1.9171    2.2956 H   0  0  0  0  0  0  0  0  0  0  0  0
    4.7814   -3.7128    3.8548 H   0  0  0  0  0  0  0  0  0  0  0  0
    3.7167   -5.1559    2.9154 H   0  0  0  0  0  0  0  0  0  0  0  0
    2.0931   -4.0177   -0.7769 H   0  0  0  0  0  0  0  0  0  0  0  0
    2.5443   -1.1418    0.1558 H   0  0  0  0  0  0  0  0  0  0  0  0
    4.4825   -4.8860   -0.7436 H   0  0  0  0  0  0  0  0  0  0  0  0
  1  2  1  0
  1 27  1  0
  1 28  1  0
  1 29  1  0
  2  3  2  3
  2 30  1  0
  3 26  1  0
  3  4  1  0
  4  5  1  0
  4 31  1  0
  4 32  1  0
 24  5  1  6
  5  6  1  0
  5 56  1  6
  6  8  1  0
  6  7  1  0
  6 33  1  6
  7  8  1  0
  7 34  1  0
  7 35  1  0
  8  9  1  0
  8 36  1  6
  9 10  1  0
  9 11  1  0
  9 37  1  1
 10 38  1  0
 11 26  1  0
 11 12  1  1
 11 13  1  0
 12 39  1  0
 13 14  1  0
 13 40  1  0
 13 41  1  0
 14 22  1  0
 14 15  1  0
 14 42  1  1
 15 23  1  0
 15 16  1  0
 15 43  1  1
 16 17  1  0
 16 44  1  0
 16 45  1  0
 17 25  1  0
 17 18  1  0
 17 46  1  6
 18 19  1  0
 18 21  1  0
 18 47  1  6
 19 20  1  0
 20 48  1  0
 20 49  1  0
 20 50  1  0
 21 24  1  0
 21 22  1  0
 21 51  1  6
 22 23  1  0
 22 52  1  1
 23 24  1  0
 23 53  1  1
 24 25  1  0
 25 26  1  0
 25 54  1  6
 26 55  1  6
M  CHG  1   5   1
M  END
>  <i_m_ct_stereo_status>  (298) 
1

>  <s_m_source_file>  (298) 
/var/tmp/pbs.5076255.sched01/tmp548j1hfo/88g9dmtei7.sdf

>  <i_m_source_file_index>  (298) 
40

>  <i_lp_mmshare_version>  (298) 
48012

>  <i_f3d_flags>  (298) 
0

>  <s_epik_input>  (298) 
W0NAQF0xMjNONFtDQEhdNVtDQEhdKFtDSDJdNSlbQ0BASF0oW09IXSlbQ0BAXTYoW09IXSlbQ0BASF0oQygvW0NIMl00KT1bQ0hdXFtDSDNdKVtDQEhdM1tDQEhdN1tDSDJdW0NASF04W0NAQEhdKFtDSDJdNilbQ0BIXShbQ0BASF0yOClbQ0BASF0xW0NAQEhdN09bQ0gzXQ==

>  <s_epik_cmdline>  (298) 
J2VwaWtfcHl0aG9uJywgJy1waHQnLCAnMi4wJywgJy1waCcsICc3LjAnLCAnLXRuJywgJzgnLCAnLW1hJywgJzIwMCcsICctaW1hZScsICc8aW5maWxlLm1hZT4nLCAnLW9tYWUnLCAnPG91dGZpbGUubWFlPic=

>  <r_epik_Ionization_Penalty>  (298) 
0.170371

>  <r_epik_Ionization_Penalty_Charging>  (298) 
0.170371

>  <r_epik_Ionization_Penalty_Neutral>  (298) 
1.60983e-07

>  <r_epik_State_Penalty>  (298) 
0.159753

>  <r_epik_Charging_Adjusted_Penalty>  (298) 
0.330124

>  <i_epik_Tot_Q>  (298) 
1

>  <i_epik_Tot_abs_Q>  (298) 
1

>  <s_lp_Force_Field>  (298) 
OPLS3e

>  <r_lp_Energy>  (298) 
724.842

>  <b_lp_Chiralities_Consistent>  (298) 
1

>  <s_lp_Variant>  (298) 
81:0-1

>  <s_i_glide_gridfile>  (298) 
pfpi4k_grid

>  <i_i_glide_lignum>  (298) 
40

>  <i_i_glide_rotatable_bonds>  (298) 
3

>  <r_i_docking_score>  (298) 
-2.65463

>  <r_i_glide_ligand_efficiency>  (298) 
-0.102101

>  <r_i_glide_ligand_efficiency_sa>  (298) 
-0.302474

>  <r_i_glide_ligand_efficiency_ln>  (298) 
-0.623431

>  <r_i_glide_gscore>  (298) 
-2.65463

>  <r_i_glide_lipo>  (298) 
-0.518419

>  <r_i_glide_hbond>  (298) 
0

>  <r_i_glide_metal>  (298) 
-0

>  <r_i_glide_rewards>  (298) 
-0.978556

>  <r_i_glide_evdw>  (298) 
-1.06076

>  <r_i_glide_ecoul>  (298) 
-7.36411

>  <r_i_glide_erotb>  (298) 
0

>  <r_i_glide_esite>  (298) 
0

>  <r_i_glide_emodel>  (298) 
-7.81493

>  <r_i_glide_energy>  (298) 
-8.42487

>  <r_i_glide_einternal>  (298) 
1.1305

>  <r_i_glide_intrahb_reward>  (298) 
-0

>  <i_i_glide_confnum>  (298) 
1

>  <i_i_glide_posenum>  (298) 
20

>  <r_i_glide_eff_state_penalty>  (298) 
0

>  <ligand_id>  (298) 
81

>  <original_smiles>  (298) 
CC=C1CN2C3CC3C(O)C3(O)CC4C5CC6C(OC)C7C4C5C72C6C13

>  <smiles>  (298) 
[H]OC1([H])C2([H])C([H])([H])C2([H])[N+]2([H])C([H])([H])C(=C([H])C([H])([H])[H])C3([H])C4([H])C5([H])C([H])([H])C6([H])C([H])(C([H])([H])C13O[H])C1([H])C([H])(C5([H])OC([H])([H])[H])C42C61[H]

$$$$
82:0:0
     RDKit          3D

 47 52  0  0  1  0  0  0  0  0999 V2000
    2.5475   -9.1160    1.7015 C   0  0  0  0  0  0  0  0  0  0  0  0
    2.9713   -7.6959    1.3617 C   0  0  0  0  0  0  0  0  0  0  0  0
    4.1764   -7.1375    1.5704 C   0  0  0  0  0  0  0  0  0  0  0  0
    4.4594   -5.7659    1.1776 C   0  0  0  0  0  0  0  0  0  0  0  0
    4.1009   -5.2837   -0.0116 C   0  0  0  0  0  0  0  0  0  0  0  0
    4.4481   -3.9052   -0.5921 C   0  0  2  0  0  0  0  0  0  0  0  0
    3.1930   -3.0936   -0.8063 C   0  0  0  0  0  0  0  0  0  0  0  0
    3.0327   -2.7865   -2.0833 C   0  0  0  0  0  0  0  0  0  0  0  0
    4.1293   -3.4053   -2.8761 C   0  0  0  0  0  0  0  0  0  0  0  0
    5.0090   -4.0019   -1.9125 O   0  0  0  0  0  0  0  0  0  0  0  0
    5.5374   -3.2148    0.2737 C   0  0  2  0  0  0  0  0  0  0  0  0
    5.3404   -3.4339    1.8072 C   0  0  1  0  0  0  0  0  0  0  0  0
    4.1624   -2.5921    2.3806 C   0  0  0  0  0  0  0  0  0  0  0  0
    4.3290   -1.0729    2.1764 C   0  0  0  0  0  0  0  0  0  0  0  0
    5.0320   -0.6983    0.8840 C   0  0  1  0  0  0  0  0  0  0  0  0
    6.4481   -0.9830    0.8663 O   0  0  0  0  0  0  0  0  0  0  0  0
    5.6322   -1.7316   -0.0275 C   0  0  1  0  0  0  0  0  0  0  0  0
    5.2488   -4.9382    2.1819 C   0  0  2  0  0  0  0  0  0  0  0  0
    6.6285   -5.6096    2.4179 C   0  0  0  0  0  0  0  0  0  0  0  0
    6.5436   -7.1240    2.5888 C   0  0  1  0  0  0  0  0  0  0  0  0
    7.8997   -7.7955    2.6382 C   0  0  0  0  0  0  0  0  0  0  0  0
    5.5852   -7.5978    3.5448 O   0  0  0  0  0  0  0  0  0  0  0  0
    5.3236   -7.8786    2.1594 C   0  0  1  0  0  0  0  0  0  0  0  0
    1.6616   -9.0858    2.3319 H   0  0  0  0  0  0  0  0  0  0  0  0
    3.3113   -9.6821    2.2309 H   0  0  0  0  0  0  0  0  0  0  0  0
    2.2864   -9.6664    0.7991 H   0  0  0  0  0  0  0  0  0  0  0  0
    2.1992   -7.0994    0.8985 H   0  0  0  0  0  0  0  0  0  0  0  0
    3.5512   -5.9556   -0.6171 H   0  0  0  0  0  0  0  0  0  0  0  0
    2.5540   -2.7065   -0.0240 H   0  0  0  0  0  0  0  0  0  0  0  0
    2.2483   -2.1528   -2.4915 H   0  0  0  0  0  0  0  0  0  0  0  0
    3.7130   -4.1411   -3.5552 H   0  0  0  0  0  0  0  0  0  0  0  0
    4.6622   -2.6542   -3.4470 H   0  0  0  0  0  0  0  0  0  0  0  0
    6.5172   -3.6371    0.0162 H   0  0  0  0  0  0  0  0  0  0  0  0
    6.2267   -3.0483    2.3252 H   0  0  0  0  0  0  0  0  0  0  0  0
    3.2200   -2.9220    1.9502 H   0  0  0  0  0  0  0  0  0  0  0  0
    4.0451   -2.7855    3.4485 H   0  0  0  0  0  0  0  0  0  0  0  0
    3.3560   -0.5769    2.1980 H   0  0  0  0  0  0  0  0  0  0  0  0
    4.9076   -0.6487    2.9968 H   0  0  0  0  0  0  0  0  0  0  0  0
    4.7979    0.2835    0.4857 H   0  0  0  0  0  0  0  0  0  0  0  0
    5.7598   -1.4545   -1.0700 H   0  0  0  0  0  0  0  0  0  0  0  0
    4.6973   -5.0215    3.1217 H   0  0  0  0  0  0  0  0  0  0  0  0
    7.2818   -5.4094    1.5661 H   0  0  0  0  0  0  0  0  0  0  0  0
    7.1005   -5.1869    3.3141 H   0  0  0  0  0  0  0  0  0  0  0  0
    8.4099   -7.6761    1.6825 H   0  0  0  0  0  0  0  0  0  0  0  0
    7.7850   -8.8616    2.8290 H   0  0  0  0  0  0  0  0  0  0  0  0
    8.5254   -7.3681    3.4249 H   0  0  0  0  0  0  0  0  0  0  0  0
    5.4135   -8.9147    1.8553 H   0  0  0  0  0  0  0  0  0  0  0  0
  1  2  1  0
  1 24  1  0
  1 25  1  0
  1 26  1  0
  2  3  2  3
  2 27  1  0
  3 23  1  0
  3  4  1  0
  4 18  1  0
  4  5  2  0
  5  6  1  0
  5 28  1  0
  6 10  1  6
  6  7  1  0
  6 11  1  0
  7  8  2  0
  7 29  1  0
  8  9  1  0
  8 30  1  0
  9 10  1  0
  9 31  1  0
  9 32  1  0
 11 17  1  0
 11 12  1  0
 11 33  1  6
 12 13  1  0
 12 18  1  0
 12 34  1  1
 13 14  1  0
 13 35  1  0
 13 36  1  0
 14 15  1  0
 14 37  1  0
 14 38  1  0
 15 17  1  0
 15 16  1  0
 15 39  1  6
 16 17  1  0
 17 40  1  6
 18 19  1  0
 18 41  1  1
 19 20  1  0
 19 42  1  0
 19 43  1  0
 20 23  1  0
 20 21  1  1
 20 22  1  0
 21 44  1  0
 21 45  1  0
 21 46  1  0
 22 23  1  0
 23 47  1  1
M  END
>  <i_m_ct_stereo_status>  (299) 
1

>  <s_m_source_file>  (299) 
/var/tmp/pbs.5076255.sched01/tmp548j1hfo/88g9dmtei7.sdf

>  <i_m_source_file_index>  (299) 
42

>  <i_lp_mmshare_version>  (299) 
48012

>  <i_f3d_flags>  (299) 
0

>  <s_epik_input>  (299) 
W0NIMl0xW0NAXShPMikoW0NIM10pW0NAQEhdMkMoPVtDSF1cW0NIM10pL0MoPVtDSF0zKVtDQEBIXTFbQ0BIXShbQ0gyXVtDSDJdW0NAQEhdNFtDQEhdNU80KVtDQEhdNVtDQF0zNltDSF09W0NIXVtDSDJdTzY=

>  <s_epik_cmdline>  (299) 
J2VwaWtfcHl0aG9uJywgJy1waHQnLCAnMi4wJywgJy1waCcsICc3LjAnLCAnLXRuJywgJzgnLCAnLW1hJywgJzIwMCcsICctaW1hZScsICc8aW5maWxlLm1hZT4nLCAnLW9tYWUnLCAnPG91dGZpbGUubWFlPic=

>  <r_lp_tautomer_probability>  (299) 
1

>  <r_epik_Ionization_Penalty>  (299) 
2.09616e-11

>  <r_epik_Ionization_Penalty_Charging>  (299) 
0

>  <r_epik_Ionization_Penalty_Neutral>  (299) 
2.09616e-11

>  <r_epik_State_Penalty>  (299) 
-0

>  <r_epik_Charging_Adjusted_Penalty>  (299) 
0

>  <i_epik_Tot_Q>  (299) 
0

>  <i_epik_Tot_abs_Q>  (299) 
0

>  <s_lp_Force_Field>  (299) 
OPLS3e

>  <r_lp_Energy>  (299) 
25.7592

>  <b_lp_Chiralities_Consistent>  (299) 
1

>  <s_lp_Variant>  (299) 
82:0-1

>  <s_i_glide_gridfile>  (299) 
pfpi4k_grid

>  <i_i_glide_lignum>  (299) 
42

>  <i_i_glide_rotatable_bonds>  (299) 
0

>  <r_i_docking_score>  (299) 
-2.94045

>  <r_i_glide_ligand_efficiency>  (299) 
-0.127846

>  <r_i_glide_ligand_efficiency_sa>  (299) 
-0.363576

>  <r_i_glide_ligand_efficiency_ln>  (299) 
-0.711028

>  <r_i_glide_gscore>  (299) 
-2.94045

>  <r_i_glide_lipo>  (299) 
-0.506302

>  <r_i_glide_hbond>  (299) 
0

>  <r_i_glide_metal>  (299) 
-0

>  <r_i_glide_rewards>  (299) 
-1.27907

>  <r_i_glide_evdw>  (299) 
-22.6686

>  <r_i_glide_ecoul>  (299) 
-0.14432

>  <r_i_glide_erotb>  (299) 
0

>  <r_i_glide_esite>  (299) 
0

>  <r_i_glide_emodel>  (299) 
-26.7007

>  <r_i_glide_energy>  (299) 
-22.8129

>  <r_i_glide_einternal>  (299) 
0

>  <r_i_glide_intrahb_reward>  (299) 
-0

>  <i_i_glide_confnum>  (299) 
1

>  <i_i_glide_posenum>  (299) 
13

>  <r_i_glide_eff_state_penalty>  (299) 
0

>  <ligand_id>  (299) 
82

>  <original_smiles>  (299) 
CC=C1C2=CC3(C=CCO3)C3C(CCC4OC43)C2CC2(C)OC12

>  <smiles>  (299) 
[H]C(=C1C2=C([H])C3(OC([H])([H])C([H])=C3[H])C3([H])C4([H])OC4([H])C([H])([H])C([H])([H])C3([H])C2([H])C([H])([H])C2(C([H])([H])[H])OC12[H])C([H])([H])[H]

$$$$
82:0:1
     RDKit          3D

 47 52  0  0  1  0  0  0  0  0999 V2000
   -3.2998    4.1871    9.2503 C   0  0  0  0  0  0  0  0  0  0  0  0
   -2.5801    3.3572    8.2026 C   0  0  0  0  0  0  0  0  0  0  0  0
   -1.3833    3.6168    7.6477 C   0  0  0  0  0  0  0  0  0  0  0  0
   -0.7941    2.7196    6.6634 C   0  0  0  0  0  0  0  0  0  0  0  0
   -0.7686    1.3819    6.8452 C   0  0  0  0  0  0  0  0  0  0  0  0
   -0.0750    0.3792    5.9221 C   0  0  2  0  0  0  0  0  0  0  0  0
   -1.0998   -0.5430    5.2792 C   0  0  0  0  0  0  0  0  0  0  0  0
   -0.9002   -1.7955    5.6576 C   0  0  0  0  0  0  0  0  0  0  0  0
    0.2399   -1.8513    6.6268 C   0  0  0  0  0  0  0  0  0  0  0  0
    0.7336   -0.5082    6.7131 O   0  0  0  0  0  0  0  0  0  0  0  0
    0.8585    1.0966    4.8964 C   0  0  2  0  0  0  0  0  0  0  0  0
    0.2574    2.4177    4.3309 C   0  0  1  0  0  0  0  0  0  0  0  0
   -0.8685    2.1563    3.2957 C   0  0  0  0  0  0  0  0  0  0  0  0
   -0.4052    1.3243    2.0838 C   0  0  0  0  0  0  0  0  0  0  0  0
    0.6453    0.2783    2.4016 C   0  0  1  0  0  0  0  0  0  0  0  0
    1.9598    0.8094    2.6786 O   0  0  0  0  0  0  0  0  0  0  0  0
    1.2801    0.1789    3.7629 C   0  0  1  0  0  0  0  0  0  0  0  0
   -0.1620    3.3993    5.4562 C   0  0  2  0  0  0  0  0  0  0  0  0
    0.9950    4.3207    5.9343 C   0  0  0  0  0  0  0  0  0  0  0  0
    0.6363    5.1603    7.1579 C   0  0  1  0  0  0  0  0  0  0  0  0
    1.8167    5.9065    7.7509 C   0  0  0  0  0  0  0  0  0  0  0  0
   -0.5830    5.9013    7.0808 O   0  0  0  0  0  0  0  0  0  0  0  0
   -0.5521    4.7992    8.0118 C   0  0  1  0  0  0  0  0  0  0  0  0
   -4.2920    4.4422    8.8804 H   0  0  0  0  0  0  0  0  0  0  0  0
   -2.7894    5.1190    9.4921 H   0  0  0  0  0  0  0  0  0  0  0  0
   -3.4183    3.6150   10.1709 H   0  0  0  0  0  0  0  0  0  0  0  0
   -3.1143    2.4692    7.8974 H   0  0  0  0  0  0  0  0  0  0  0  0
   -1.1947    0.9610    7.7430 H   0  0  0  0  0  0  0  0  0  0  0  0
   -1.8381   -0.2345    4.5432 H   0  0  0  0  0  0  0  0  0  0  0  0
   -1.4338   -2.6682    5.2950 H   0  0  0  0  0  0  0  0  0  0  0  0
   -0.1293   -2.2139    7.5875 H   0  0  0  0  0  0  0  0  0  0  0  0
    1.0120   -2.5251    6.2518 H   0  0  0  0  0  0  0  0  0  0  0  0
    1.7781    1.3663    5.4197 H   0  0  0  0  0  0  0  0  0  0  0  0
    1.0395    2.9262    3.7628 H   0  0  0  0  0  0  0  0  0  0  0  0
   -1.7236    1.6815    3.7734 H   0  0  0  0  0  0  0  0  0  0  0  0
   -1.2598    3.1028    2.9215 H   0  0  0  0  0  0  0  0  0  0  0  0
   -1.2655    0.8340    1.6287 H   0  0  0  0  0  0  0  0  0  0  0  0
    0.0093    1.9790    1.3165 H   0  0  0  0  0  0  0  0  0  0  0  0
    0.6737   -0.5808    1.7365 H   0  0  0  0  0  0  0  0  0  0  0  0
    1.7002   -0.7849    4.0490 H   0  0  0  0  0  0  0  0  0  0  0  0
   -0.9286    4.0615    5.0474 H   0  0  0  0  0  0  0  0  0  0  0  0
    1.8582    3.7083    6.1960 H   0  0  0  0  0  0  0  0  0  0  0  0
    1.3106    4.9893    5.1296 H   0  0  0  0  0  0  0  0  0  0  0  0
    2.5579    5.2024    8.1347 H   0  0  0  0  0  0  0  0  0  0  0  0
    1.4943    6.5349    8.5829 H   0  0  0  0  0  0  0  0  0  0  0  0
    2.2947    6.5467    7.0073 H   0  0  0  0  0  0  0  0  0  0  0  0
   -0.5497    5.0736    9.0638 H   0  0  0  0  0  0  0  0  0  0  0  0
  1  2  1  0
  1 24  1  0
  1 25  1  0
  1 26  1  0
  2  3  2  3
  2 27  1  0
  3 23  1  0
  3  4  1  0
  4 18  1  0
  4  5  2  0
  5  6  1  0
  5 28  1  0
  6 10  1  1
  6  7  1  0
  6 11  1  0
  7  8  2  0
  7 29  1  0
  8  9  1  0
  8 30  1  0
  9 10  1  0
  9 31  1  0
  9 32  1  0
 11 17  1  0
 11 12  1  0
 11 33  1  1
 12 13  1  0
 12 18  1  0
 12 34  1  6
 13 14  1  0
 13 35  1  0
 13 36  1  0
 14 15  1  0
 14 37  1  0
 14 38  1  0
 15 17  1  0
 15 16  1  0
 15 39  1  6
 16 17  1  0
 17 40  1  1
 18 19  1  0
 18 41  1  6
 19 20  1  0
 19 42  1  0
 19 43  1  0
 20 23  1  0
 20 21  1  1
 20 22  1  0
 21 44  1  0
 21 45  1  0
 21 46  1  0
 22 23  1  0
 23 47  1  1
M  END
>  <i_m_ct_stereo_status>  (300) 
1

>  <s_m_source_file>  (300) 
/var/tmp/pbs.5076255.sched01/tmp548j1hfo/88g9dmtei7.sdf

>  <i_m_source_file_index>  (300) 
42

>  <i_lp_mmshare_version>  (300) 
48012

>  <i_f3d_flags>  (300) 
0

>  <s_epik_input>  (300) 
W0NIMl0xW0NAXShPMikoW0NIM10pW0NAQEhdMkMoPVtDSF1cW0NIM10pL0MoPVtDSF0zKVtDQEBIXTFbQ0BIXShbQ0gyXVtDSDJdW0NAQEhdNFtDQEhdNU80KVtDQEhdNVtDQF0zNltDSF09W0NIXVtDSDJdTzY=

>  <s_epik_cmdline>  (300) 
J2VwaWtfcHl0aG9uJywgJy1waHQnLCAnMi4wJywgJy1waCcsICc3LjAnLCAnLXRuJywgJzgnLCAnLW1hJywgJzIwMCcsICctaW1hZScsICc8aW5maWxlLm1hZT4nLCAnLW9tYWUnLCAnPG91dGZpbGUubWFlPic=

>  <r_lp_tautomer_probability>  (300) 
1

>  <r_epik_Ionization_Penalty>  (300) 
2.09616e-11

>  <r_epik_Ionization_Penalty_Charging>  (300) 
0

>  <r_epik_Ionization_Penalty_Neutral>  (300) 
2.09616e-11

>  <r_epik_State_Penalty>  (300) 
-0

>  <r_epik_Charging_Adjusted_Penalty>  (300) 
0

>  <i_epik_Tot_Q>  (300) 
0

>  <i_epik_Tot_abs_Q>  (300) 
0

>  <s_lp_Force_Field>  (300) 
OPLS3e

>  <r_lp_Energy>  (300) 
25.7592

>  <b_lp_Chiralities_Consistent>  (300) 
1

>  <s_lp_Variant>  (300) 
82:0-1

>  <s_i_glide_gridfile>  (300) 
pfpi4k_grid

>  <i_i_glide_lignum>  (300) 
42

>  <i_i_glide_rotatable_bonds>  (300) 
0

>  <r_i_docking_score>  (300) 
-2.58864

>  <r_i_glide_ligand_efficiency>  (300) 
-0.11255

>  <r_i_glide_ligand_efficiency_sa>  (300) 
-0.320076

>  <r_i_glide_ligand_efficiency_ln>  (300) 
-0.625957

>  <r_i_glide_gscore>  (300) 
-2.58864

>  <r_i_glide_lipo>  (300) 
-0.165431

>  <r_i_glide_hbond>  (300) 
0

>  <r_i_glide_metal>  (300) 
-0

>  <r_i_glide_rewards>  (300) 
-1.27907

>  <r_i_glide_evdw>  (300) 
-19.4307

>  <r_i_glide_ecoul>  (300) 
-1.15072

>  <r_i_glide_erotb>  (300) 
0

>  <r_i_glide_esite>  (300) 
0

>  <r_i_glide_emodel>  (300) 
-24.0625

>  <r_i_glide_energy>  (300) 
-20.5814

>  <r_i_glide_einternal>  (300) 
0

>  <r_i_glide_intrahb_reward>  (300) 
-0

>  <i_i_glide_confnum>  (300) 
1

>  <i_i_glide_posenum>  (300) 
3

>  <r_i_glide_eff_state_penalty>  (300) 
0

>  <ligand_id>  (300) 
82

>  <original_smiles>  (300) 
CC=C1C2=CC3(C=CCO3)C3C(CCC4OC43)C2CC2(C)OC12

>  <smiles>  (300) 
[H]C(=C1C2=C([H])C3(OC([H])([H])C([H])=C3[H])C3([H])C4([H])OC4([H])C([H])([H])C([H])([H])C3([H])C2([H])C([H])([H])C2(C([H])([H])[H])OC12[H])C([H])([H])[H]

$$$$
82:0:2
     RDKit          3D

 47 52  0  0  1  0  0  0  0  0999 V2000
   -3.1615    3.3457    2.8820 C   0  0  0  0  0  0  0  0  0  0  0  0
   -1.9722    2.4111    3.0263 C   0  0  0  0  0  0  0  0  0  0  0  0
   -0.8161    2.6608    3.6703 C   0  0  0  0  0  0  0  0  0  0  0  0
    0.2369    1.6593    3.7504 C   0  0  0  0  0  0  0  0  0  0  0  0
   -0.0230    0.3739    4.0757 C   0  0  0  0  0  0  0  0  0  0  0  0
    1.0344   -0.7129    4.3007 C   0  0  2  0  0  0  0  0  0  0  0  0
    0.9089   -1.8017    3.2509 C   0  0  0  0  0  0  0  0  0  0  0  0
    0.6068   -2.9607    3.8111 C   0  0  0  0  0  0  0  0  0  0  0  0
    0.4280   -2.7678    5.2837 C   0  0  0  0  0  0  0  0  0  0  0  0
    0.7611   -1.3965    5.5366 O   0  0  0  0  0  0  0  0  0  0  0  0
    2.4712   -0.1039    4.3921 C   0  0  2  0  0  0  0  0  0  0  0  0
    2.7146    1.0523    3.3822 C   0  0  1  0  0  0  0  0  0  0  0  0
    2.8979    0.5269    1.9356 C   0  0  0  0  0  0  0  0  0  0  0  0
    4.0818   -0.4477    1.7665 C   0  0  0  0  0  0  0  0  0  0  0  0
    4.3184   -1.3431    2.9652 C   0  0  1  0  0  0  0  0  0  0  0  0
    4.8874   -0.6730    4.1110 O   0  0  0  0  0  0  0  0  0  0  0  0
    3.5535   -1.1626    4.2527 C   0  0  1  0  0  0  0  0  0  0  0  0
    1.6475    2.1751    3.4994 C   0  0  2  0  0  0  0  0  0  0  0  0
    1.9957    3.2500    4.5698 C   0  0  0  0  0  0  0  0  0  0  0  0
    0.8669    4.2494    4.8278 C   0  0  1  0  0  0  0  0  0  0  0  0
    1.1240    5.1663    6.0086 C   0  0  0  0  0  0  0  0  0  0  0  0
    0.2906    4.8818    3.6779 O   0  0  0  0  0  0  0  0  0  0  0  0
   -0.5413    3.9414    4.3802 C   0  0  1  0  0  0  0  0  0  0  0  0
   -3.4107    3.4440    1.8245 H   0  0  0  0  0  0  0  0  0  0  0  0
   -2.9723    4.3384    3.2723 H   0  0  0  0  0  0  0  0  0  0  0  0
   -4.0332    2.9293    3.3844 H   0  0  0  0  0  0  0  0  0  0  0  0
   -2.1021    1.4471    2.5536 H   0  0  0  0  0  0  0  0  0  0  0  0
   -1.0389    0.0680    4.2714 H   0  0  0  0  0  0  0  0  0  0  0  0
    1.1077   -1.6714    2.1930 H   0  0  0  0  0  0  0  0  0  0  0  0
    0.5207   -3.9154    3.3013 H   0  0  0  0  0  0  0  0  0  0  0  0
   -0.6054   -2.9933    5.5544 H   0  0  0  0  0  0  0  0  0  0  0  0
    1.1006   -3.4362    5.8242 H   0  0  0  0  0  0  0  0  0  0  0  0
    2.5875    0.3173    5.3927 H   0  0  0  0  0  0  0  0  0  0  0  0
    3.6688    1.5196    3.6324 H   0  0  0  0  0  0  0  0  0  0  0  0
    1.9798    0.0826    1.5620 H   0  0  0  0  0  0  0  0  0  0  0  0
    3.0690    1.3583    1.2620 H   0  0  0  0  0  0  0  0  0  0  0  0
    3.9269   -1.0705    0.8840 H   0  0  0  0  0  0  0  0  0  0  0  0
    5.0016    0.1097    1.5836 H   0  0  0  0  0  0  0  0  0  0  0  0
    4.7950   -2.2976    2.7606 H   0  0  0  0  0  0  0  0  0  0  0  0
    3.4666   -2.0313    4.9032 H   0  0  0  0  0  0  0  0  0  0  0  0
    1.6083    2.7023    2.5423 H   0  0  0  0  0  0  0  0  0  0  0  0
    2.2149    2.7519    5.5143 H   0  0  0  0  0  0  0  0  0  0  0  0
    2.8962    3.7980    4.2806 H   0  0  0  0  0  0  0  0  0  0  0  0
    1.1627    4.5899    6.9356 H   0  0  0  0  0  0  0  0  0  0  0  0
    0.3198    5.8978    6.1001 H   0  0  0  0  0  0  0  0  0  0  0  0
    2.0635    5.7086    5.8867 H   0  0  0  0  0  0  0  0  0  0  0  0
   -1.3786    4.3726    4.9200 H   0  0  0  0  0  0  0  0  0  0  0  0
  1  2  1  0
  1 24  1  0
  1 25  1  0
  1 26  1  0
  2  3  2  3
  2 27  1  0
  3 23  1  0
  3  4  1  0
  4 18  1  0
  4  5  2  0
  5  6  1  0
  5 28  1  0
  6 10  1  1
  6  7  1  0
  6 11  1  0
  7  8  2  0
  7 29  1  0
  8  9  1  0
  8 30  1  0
  9 10  1  0
  9 31  1  0
  9 32  1  0
 11 17  1  0
 11 12  1  0
 11 33  1  1
 12 13  1  0
 12 18  1  0
 12 34  1  1
 13 14  1  0
 13 35  1  0
 13 36  1  0
 14 15  1  0
 14 37  1  0
 14 38  1  0
 15 17  1  0
 15 16  1  0
 15 39  1  6
 16 17  1  0
 17 40  1  1
 18 19  1  0
 18 41  1  6
 19 20  1  0
 19 42  1  0
 19 43  1  0
 20 23  1  0
 20 21  1  1
 20 22  1  0
 21 44  1  0
 21 45  1  0
 21 46  1  0
 22 23  1  0
 23 47  1  1
M  END
>  <i_m_ct_stereo_status>  (301) 
1

>  <s_m_source_file>  (301) 
/var/tmp/pbs.5076255.sched01/tmp548j1hfo/88g9dmtei7.sdf

>  <i_m_source_file_index>  (301) 
42

>  <i_lp_mmshare_version>  (301) 
48012

>  <i_f3d_flags>  (301) 
0

>  <s_epik_input>  (301) 
W0NIMl0xW0NAXShPMikoW0NIM10pW0NAQEhdMkMoPVtDSF1cW0NIM10pL0MoPVtDSF0zKVtDQEBIXTFbQ0BIXShbQ0gyXVtDSDJdW0NAQEhdNFtDQEhdNU80KVtDQEhdNVtDQF0zNltDSF09W0NIXVtDSDJdTzY=

>  <s_epik_cmdline>  (301) 
J2VwaWtfcHl0aG9uJywgJy1waHQnLCAnMi4wJywgJy1waCcsICc3LjAnLCAnLXRuJywgJzgnLCAnLW1hJywgJzIwMCcsICctaW1hZScsICc8aW5maWxlLm1hZT4nLCAnLW9tYWUnLCAnPG91dGZpbGUubWFlPic=

>  <r_lp_tautomer_probability>  (301) 
1

>  <r_epik_Ionization_Penalty>  (301) 
2.09616e-11

>  <r_epik_Ionization_Penalty_Charging>  (301) 
0

>  <r_epik_Ionization_Penalty_Neutral>  (301) 
2.09616e-11

>  <r_epik_State_Penalty>  (301) 
-0

>  <r_epik_Charging_Adjusted_Penalty>  (301) 
0

>  <i_epik_Tot_Q>  (301) 
0

>  <i_epik_Tot_abs_Q>  (301) 
0

>  <s_lp_Force_Field>  (301) 
OPLS3e

>  <r_lp_Energy>  (301) 
25.7592

>  <b_lp_Chiralities_Consistent>  (301) 
1

>  <s_lp_Variant>  (301) 
82:0-1

>  <s_i_glide_gridfile>  (301) 
pfpi4k_grid

>  <i_i_glide_lignum>  (301) 
42

>  <i_i_glide_rotatable_bonds>  (301) 
0

>  <r_i_docking_score>  (301) 
-2.52927

>  <r_i_glide_ligand_efficiency>  (301) 
-0.109968

>  <r_i_glide_ligand_efficiency_sa>  (301) 
-0.312735

>  <r_i_glide_ligand_efficiency_ln>  (301) 
-0.611599

>  <r_i_glide_gscore>  (301) 
-2.52927

>  <r_i_glide_lipo>  (301) 
-0.199229

>  <r_i_glide_hbond>  (301) 
0

>  <r_i_glide_metal>  (301) 
-0

>  <r_i_glide_rewards>  (301) 
-1.27907

>  <r_i_glide_evdw>  (301) 
-21.3265

>  <r_i_glide_ecoul>  (301) 
0.102414

>  <r_i_glide_erotb>  (301) 
0

>  <r_i_glide_esite>  (301) 
0

>  <r_i_glide_emodel>  (301) 
-24.6068

>  <r_i_glide_energy>  (301) 
-21.2241

>  <r_i_glide_einternal>  (301) 
0

>  <r_i_glide_intrahb_reward>  (301) 
-0

>  <i_i_glide_confnum>  (301) 
1

>  <i_i_glide_posenum>  (301) 
4

>  <r_i_glide_eff_state_penalty>  (301) 
0

>  <ligand_id>  (301) 
82

>  <original_smiles>  (301) 
CC=C1C2=CC3(C=CCO3)C3C(CCC4OC43)C2CC2(C)OC12

>  <smiles>  (301) 
[H]C(=C1C2=C([H])C3(OC([H])([H])C([H])=C3[H])C3([H])C4([H])OC4([H])C([H])([H])C([H])([H])C3([H])C2([H])C([H])([H])C2(C([H])([H])[H])OC12[H])C([H])([H])[H]

$$$$
82:1:0
     RDKit          3D

 47 52  0  0  1  0  0  0  0  0999 V2000
    2.8953    5.0980    3.7662 C   0  0  0  0  0  0  0  0  0  0  0  0
    1.3992    5.1896    3.5311 C   0  0  0  0  0  0  0  0  0  0  0  0
    0.5132    4.1745    3.5181 C   0  0  0  0  0  0  0  0  0  0  0  0
    0.8616    2.7669    3.6708 C   0  0  0  0  0  0  0  0  0  0  0  0
    1.8281    2.1749    2.9377 C   0  0  0  0  0  0  0  0  0  0  0  0
    2.1769    0.6868    2.9723 C   0  0  2  0  0  0  0  0  0  0  0  0
    3.5830    0.4812    3.5140 C   0  0  0  0  0  0  0  0  0  0  0  0
    4.3669   -0.0579    2.5977 C   0  0  0  0  0  0  0  0  0  0  0  0
    3.6010   -0.2284    1.3198 C   0  0  0  0  0  0  0  0  0  0  0  0
    2.2546    0.1804    1.6239 O   0  0  0  0  0  0  0  0  0  0  0  0
    1.0906   -0.1437    3.7248 C   0  0  2  0  0  0  0  0  0  0  0  0
    0.5170    0.5773    4.9777 C   0  0  1  0  0  0  0  0  0  0  0  0
    1.5165    0.5740    6.1645 C   0  0  0  0  0  0  0  0  0  0  0  0
    1.9249   -0.8444    6.6228 C   0  0  0  0  0  0  0  0  0  0  0  0
    2.0093   -1.8625    5.4996 C   0  0  1  0  0  0  0  0  0  0  0  0
    0.7334   -2.2771    4.9735 O   0  0  0  0  0  0  0  0  0  0  0  0
    1.5769   -1.5342    4.0933 C   0  0  1  0  0  0  0  0  0  0  0  0
   -0.0159    1.9952    4.6425 C   0  0  2  0  0  0  0  0  0  0  0  0
   -1.4845    2.0047    4.1172 C   0  0  0  0  0  0  0  0  0  0  0  0
   -1.9395    3.3674    3.5915 C   0  0  1  0  0  0  0  0  0  0  0  0
   -3.2669    3.3293    2.8609 C   0  0  0  0  0  0  0  0  0  0  0  0
   -1.7527    4.4827    4.4727 O   0  0  0  0  0  0  0  0  0  0  0  0
   -0.9319    4.4439    3.2929 C   0  0  1  0  0  0  0  0  0  0  0  0
    3.1934    5.8420    4.5046 H   0  0  0  0  0  0  0  0  0  0  0  0
    3.4342    5.2904    2.8373 H   0  0  0  0  0  0  0  0  0  0  0  0
    3.1940    4.1220    4.1476 H   0  0  0  0  0  0  0  0  0  0  0  0
    1.0336    6.1903    3.3397 H   0  0  0  0  0  0  0  0  0  0  0  0
    2.3826    2.7614    2.2185 H   0  0  0  0  0  0  0  0  0  0  0  0
    3.8836    0.6916    4.5342 H   0  0  0  0  0  0  0  0  0  0  0  0
    5.4031   -0.3559    2.7332 H   0  0  0  0  0  0  0  0  0  0  0  0
    4.0472    0.3955    0.5455 H   0  0  0  0  0  0  0  0  0  0  0  0
    3.6180   -1.2720    1.0116 H   0  0  0  0  0  0  0  0  0  0  0  0
    0.2544   -0.2939    3.0347 H   0  0  0  0  0  0  0  0  0  0  0  0
   -0.3452    0.0069    5.3316 H   0  0  0  0  0  0  0  0  0  0  0  0
    2.4019    1.1525    5.9122 H   0  0  0  0  0  0  0  0  0  0  0  0
    1.0889    1.0977    7.0208 H   0  0  0  0  0  0  0  0  0  0  0  0
    2.8863   -0.8062    7.1370 H   0  0  0  0  0  0  0  0  0  0  0  0
    1.2077   -1.2207    7.3522 H   0  0  0  0  0  0  0  0  0  0  0  0
    2.6886   -2.6937    5.6636 H   0  0  0  0  0  0  0  0  0  0  0  0
    2.0133   -2.1227    3.2900 H   0  0  0  0  0  0  0  0  0  0  0  0
   -0.0221    2.5767    5.5685 H   0  0  0  0  0  0  0  0  0  0  0  0
   -1.5783    1.2880    3.2994 H   0  0  0  0  0  0  0  0  0  0  0  0
   -2.1741    1.6792    4.9024 H   0  0  0  0  0  0  0  0  0  0  0  0
   -3.1794    2.7078    1.9669 H   0  0  0  0  0  0  0  0  0  0  0  0
   -3.5668    4.3267    2.5419 H   0  0  0  0  0  0  0  0  0  0  0  0
   -4.0527    2.9122    3.4925 H   0  0  0  0  0  0  0  0  0  0  0  0
   -1.1566    5.1952    2.5434 H   0  0  0  0  0  0  0  0  0  0  0  0
  1  2  1  0
  1 24  1  0
  1 25  1  0
  1 26  1  0
  2  3  2  3
  2 27  1  0
  3 23  1  0
  3  4  1  0
  4 18  1  0
  4  5  2  0
  5  6  1  0
  5 28  1  0
  6 10  1  6
  6  7  1  0
  6 11  1  0
  7  8  2  0
  7 29  1  0
  8  9  1  0
  8 30  1  0
  9 10  1  0
  9 31  1  0
  9 32  1  0
 11 17  1  0
 11 12  1  0
 11 33  1  6
 12 13  1  0
 12 18  1  0
 12 34  1  1
 13 14  1  0
 13 35  1  0
 13 36  1  0
 14 15  1  0
 14 37  1  0
 14 38  1  0
 15 17  1  0
 15 16  1  0
 15 39  1  6
 16 17  1  0
 17 40  1  6
 18 19  1  0
 18 41  1  1
 19 20  1  0
 19 42  1  0
 19 43  1  0
 20 23  1  0
 20 21  1  6
 20 22  1  0
 21 44  1  0
 21 45  1  0
 21 46  1  0
 22 23  1  0
 23 47  1  6
M  END
>  <i_m_ct_stereo_status>  (302) 
1

>  <s_m_source_file>  (302) 
/var/tmp/pbs.5076255.sched01/tmp548j1hfo/88g9dmtei7.sdf

>  <i_m_source_file_index>  (302) 
43

>  <i_lp_mmshare_version>  (302) 
48012

>  <i_f3d_flags>  (302) 
0

>  <s_epik_input>  (302) 
W0NIMl0xW0NAXShPMikoW0NIM10pW0NAQEhdMkMoPVtDSF1cW0NIM10pL0MoPVtDSF0zKVtDQEBIXTFbQ0BIXShbQ0gyXVtDSDJdW0NAQEhdNFtDQEhdNU80KVtDQEhdNVtDQF0zNltDSF09W0NIXVtDSDJdTzY=

>  <s_epik_cmdline>  (302) 
J2VwaWtfcHl0aG9uJywgJy1waHQnLCAnMi4wJywgJy1waCcsICc3LjAnLCAnLXRuJywgJzgnLCAnLW1hJywgJzIwMCcsICctaW1hZScsICc8aW5maWxlLm1hZT4nLCAnLW9tYWUnLCAnPG91dGZpbGUubWFlPic=

>  <r_lp_tautomer_probability>  (302) 
1

>  <r_epik_Ionization_Penalty>  (302) 
2.09616e-11

>  <r_epik_Ionization_Penalty_Charging>  (302) 
0

>  <r_epik_Ionization_Penalty_Neutral>  (302) 
2.09616e-11

>  <r_epik_State_Penalty>  (302) 
-0

>  <r_epik_Charging_Adjusted_Penalty>  (302) 
0

>  <i_epik_Tot_Q>  (302) 
0

>  <i_epik_Tot_abs_Q>  (302) 
0

>  <s_lp_Force_Field>  (302) 
OPLS3e

>  <r_lp_Energy>  (302) 
26.5342

>  <b_lp_Chiralities_Consistent>  (302) 
1

>  <s_lp_Variant>  (302) 
82:0-2

>  <s_i_glide_gridfile>  (302) 
pfpi4k_grid

>  <i_i_glide_lignum>  (302) 
43

>  <i_i_glide_rotatable_bonds>  (302) 
0

>  <r_i_docking_score>  (302) 
-2.77574

>  <r_i_glide_ligand_efficiency>  (302) 
-0.120684

>  <r_i_glide_ligand_efficiency_sa>  (302) 
-0.34321

>  <r_i_glide_ligand_efficiency_ln>  (302) 
-0.671198

>  <r_i_glide_gscore>  (302) 
-2.77574

>  <r_i_glide_lipo>  (302) 
-0.0750578

>  <r_i_glide_hbond>  (302) 
-0.0968131

>  <r_i_glide_metal>  (302) 
-0

>  <r_i_glide_rewards>  (302) 
-1.27907

>  <r_i_glide_evdw>  (302) 
-21.049

>  <r_i_glide_ecoul>  (302) 
-1.81561

>  <r_i_glide_erotb>  (302) 
0

>  <r_i_glide_esite>  (302) 
0

>  <r_i_glide_emodel>  (302) 
-26.8721

>  <r_i_glide_energy>  (302) 
-22.8646

>  <r_i_glide_einternal>  (302) 
0

>  <r_i_glide_intrahb_reward>  (302) 
-0

>  <i_i_glide_confnum>  (302) 
2

>  <i_i_glide_posenum>  (302) 
15

>  <r_i_glide_eff_state_penalty>  (302) 
0

>  <ligand_id>  (302) 
82

>  <original_smiles>  (302) 
CC=C1C2=CC3(C=CCO3)C3C(CCC4OC43)C2CC2(C)OC12

>  <smiles>  (302) 
[H]C(=C1C2=C([H])C3(OC([H])([H])C([H])=C3[H])C3([H])C4([H])OC4([H])C([H])([H])C([H])([H])C3([H])C2([H])C([H])([H])C2(C([H])([H])[H])OC12[H])C([H])([H])[H]

$$$$
82:1:1
     RDKit          3D

 47 52  0  0  1  0  0  0  0  0999 V2000
    1.6421   -0.8056    2.3601 C   0  0  0  0  0  0  0  0  0  0  0  0
    1.4909   -2.2647    2.7073 C   0  0  0  0  0  0  0  0  0  0  0  0
    2.2503   -3.2940    2.2630 C   0  0  0  0  0  0  0  0  0  0  0  0
    3.3361   -3.1685    1.3022 C   0  0  0  0  0  0  0  0  0  0  0  0
    3.1922   -2.5533    0.1181 C   0  0  0  0  0  0  0  0  0  0  0  0
    4.2557   -2.4573   -0.9839 C   0  0  2  0  0  0  0  0  0  0  0  0
    4.6761   -1.0201   -1.1732 C   0  0  0  0  0  0  0  0  0  0  0  0
    4.3608   -0.5846   -2.3964 C   0  0  0  0  0  0  0  0  0  0  0  0
    3.6502   -1.6693   -3.1188 C   0  0  0  0  0  0  0  0  0  0  0  0
    3.6875   -2.8163   -2.2532 O   0  0  0  0  0  0  0  0  0  0  0  0
    5.4204   -3.4574   -0.7315 C   0  0  2  0  0  0  0  0  0  0  0  0
    5.8088   -3.5500    0.7647 C   0  0  1  0  0  0  0  0  0  0  0  0
    6.5717   -2.2817    1.2288 C   0  0  0  0  0  0  0  0  0  0  0  0
    7.8985   -2.0058    0.4715 C   0  0  0  0  0  0  0  0  0  0  0  0
    7.8329   -2.3588   -0.9619 C   0  0  1  0  0  0  0  0  0  0  0  0
    7.8649   -3.7832   -1.1176 O   0  0  0  0  0  0  0  0  0  0  0  0
    6.6573   -3.1151   -1.5426 C   0  0  1  0  0  0  0  0  0  0  0  0
    4.6196   -3.9041    1.6826 C   0  0  2  0  0  0  0  0  0  0  0  0
    4.3272   -5.4225    1.7841 C   0  0  0  0  0  0  0  0  0  0  0  0
    3.0183   -5.7484    2.4920 C   0  0  1  0  0  0  0  0  0  0  0  0
    2.6101   -7.2040    2.3785 C   0  0  0  0  0  0  0  0  0  0  0  0
    2.8344   -5.1430    3.7844 O   0  0  0  0  0  0  0  0  0  0  0  0
    1.9842   -4.6767    2.7208 C   0  0  1  0  0  0  0  0  0  0  0  0
    1.6163   -0.2001    3.2641 H   0  0  0  0  0  0  0  0  0  0  0  0
    0.8265   -0.4847    1.7091 H   0  0  0  0  0  0  0  0  0  0  0  0
    2.5851   -0.5927    1.8509 H   0  0  0  0  0  0  0  0  0  0  0  0
    0.6717   -2.4902    3.3821 H   0  0  0  0  0  0  0  0  0  0  0  0
    2.2325   -2.1416   -0.1090 H   0  0  0  0  0  0  0  0  0  0  0  0
    5.2147   -0.4148   -0.4601 H   0  0  0  0  0  0  0  0  0  0  0  0
    4.5950    0.3907   -2.8169 H   0  0  0  0  0  0  0  0  0  0  0  0
    2.6323   -1.3560   -3.3232 H   0  0  0  0  0  0  0  0  0  0  0  0
    4.1655   -1.9215   -4.0381 H   0  0  0  0  0  0  0  0  0  0  0  0
    5.1042   -4.4629   -1.0538 H   0  0  0  0  0  0  0  0  0  0  0  0
    6.5228   -4.3693    0.8863 H   0  0  0  0  0  0  0  0  0  0  0  0
    5.9400   -1.4023    1.1934 H   0  0  0  0  0  0  0  0  0  0  0  0
    6.7224   -2.3995    2.2897 H   0  0  0  0  0  0  0  0  0  0  0  0
    8.2073   -0.9577    0.5747 H   0  0  0  0  0  0  0  0  0  0  0  0
    8.7248   -2.6152    0.8558 H   0  0  0  0  0  0  0  0  0  0  0  0
    8.5520   -1.8973   -1.6207 H   0  0  0  0  0  0  0  0  0  0  0  0
    6.5358   -3.0342   -2.6124 H   0  0  0  0  0  0  0  0  0  0  0  0
    4.8497   -3.5672    2.6936 H   0  0  0  0  0  0  0  0  0  0  0  0
    4.2650   -5.8426    0.7794 H   0  0  0  0  0  0  0  0  0  0  0  0
    5.1471   -5.9415    2.3035 H   0  0  0  0  0  0  0  0  0  0  0  0
    2.3991   -7.4565    1.3374 H   0  0  0  0  0  0  0  0  0  0  0  0
    1.7109   -7.3957    2.9568 H   0  0  0  0  0  0  0  0  0  0  0  0
    3.4015   -7.8645    2.7485 H   0  0  0  0  0  0  0  0  0  0  0  0
    0.9377   -4.9304    2.8243 H   0  0  0  0  0  0  0  0  0  0  0  0
  1  2  1  0
  1 24  1  0
  1 25  1  0
  1 26  1  0
  2  3  2  3
  2 27  1  0
  3 23  1  0
  3  4  1  0
  4 18  1  0
  4  5  2  0
  5  6  1  0
  5 28  1  0
  6 10  1  6
  6  7  1  0
  6 11  1  0
  7  8  2  0
  7 29  1  0
  8  9  1  0
  8 30  1  0
  9 10  1  0
  9 31  1  0
  9 32  1  0
 11 17  1  0
 11 12  1  0
 11 33  1  6
 12 13  1  0
 12 18  1  0
 12 34  1  6
 13 14  1  0
 13 35  1  0
 13 36  1  0
 14 15  1  0
 14 37  1  0
 14 38  1  0
 15 17  1  0
 15 16  1  0
 15 39  1  6
 16 17  1  0
 17 40  1  6
 18 19  1  0
 18 41  1  1
 19 20  1  0
 19 42  1  0
 19 43  1  0
 20 23  1  0
 20 21  1  1
 20 22  1  0
 21 44  1  0
 21 45  1  0
 21 46  1  0
 22 23  1  0
 23 47  1  1
M  END
>  <i_m_ct_stereo_status>  (303) 
1

>  <s_m_source_file>  (303) 
/var/tmp/pbs.5076255.sched01/tmp548j1hfo/88g9dmtei7.sdf

>  <i_m_source_file_index>  (303) 
43

>  <i_lp_mmshare_version>  (303) 
48012

>  <i_f3d_flags>  (303) 
0

>  <s_epik_input>  (303) 
W0NIMl0xW0NAXShPMikoW0NIM10pW0NAQEhdMkMoPVtDSF1cW0NIM10pL0MoPVtDSF0zKVtDQEBIXTFbQ0BIXShbQ0gyXVtDSDJdW0NAQEhdNFtDQEhdNU80KVtDQEhdNVtDQF0zNltDSF09W0NIXVtDSDJdTzY=

>  <s_epik_cmdline>  (303) 
J2VwaWtfcHl0aG9uJywgJy1waHQnLCAnMi4wJywgJy1waCcsICc3LjAnLCAnLXRuJywgJzgnLCAnLW1hJywgJzIwMCcsICctaW1hZScsICc8aW5maWxlLm1hZT4nLCAnLW9tYWUnLCAnPG91dGZpbGUubWFlPic=

>  <r_lp_tautomer_probability>  (303) 
1

>  <r_epik_Ionization_Penalty>  (303) 
2.09616e-11

>  <r_epik_Ionization_Penalty_Charging>  (303) 
0

>  <r_epik_Ionization_Penalty_Neutral>  (303) 
2.09616e-11

>  <r_epik_State_Penalty>  (303) 
-0

>  <r_epik_Charging_Adjusted_Penalty>  (303) 
0

>  <i_epik_Tot_Q>  (303) 
0

>  <i_epik_Tot_abs_Q>  (303) 
0

>  <s_lp_Force_Field>  (303) 
OPLS3e

>  <r_lp_Energy>  (303) 
26.5342

>  <b_lp_Chiralities_Consistent>  (303) 
1

>  <s_lp_Variant>  (303) 
82:0-2

>  <s_i_glide_gridfile>  (303) 
pfpi4k_grid

>  <i_i_glide_lignum>  (303) 
43

>  <i_i_glide_rotatable_bonds>  (303) 
0

>  <r_i_docking_score>  (303) 
-2.6621

>  <r_i_glide_ligand_efficiency>  (303) 
-0.115743

>  <r_i_glide_ligand_efficiency_sa>  (303) 
-0.329159

>  <r_i_glide_ligand_efficiency_ln>  (303) 
-0.643719

>  <r_i_glide_gscore>  (303) 
-2.6621

>  <r_i_glide_lipo>  (303) 
-0.465679

>  <r_i_glide_hbond>  (303) 
0

>  <r_i_glide_metal>  (303) 
-0

>  <r_i_glide_rewards>  (303) 
-1.27907

>  <r_i_glide_evdw>  (303) 
-19.084

>  <r_i_glide_ecoul>  (303) 
0.2457

>  <r_i_glide_erotb>  (303) 
0

>  <r_i_glide_esite>  (303) 
0

>  <r_i_glide_emodel>  (303) 
-22.4284

>  <r_i_glide_energy>  (303) 
-18.8383

>  <r_i_glide_einternal>  (303) 
0

>  <r_i_glide_intrahb_reward>  (303) 
-0

>  <i_i_glide_confnum>  (303) 
2

>  <i_i_glide_posenum>  (303) 
2

>  <r_i_glide_eff_state_penalty>  (303) 
0

>  <ligand_id>  (303) 
82

>  <original_smiles>  (303) 
CC=C1C2=CC3(C=CCO3)C3C(CCC4OC43)C2CC2(C)OC12

>  <smiles>  (303) 
[H]C(=C1C2=C([H])C3(OC([H])([H])C([H])=C3[H])C3([H])C4([H])OC4([H])C([H])([H])C([H])([H])C3([H])C2([H])C([H])([H])C2(C([H])([H])[H])OC12[H])C([H])([H])[H]

$$$$
82:1:2
     RDKit          3D

 47 52  0  0  1  0  0  0  0  0999 V2000
    3.1419    3.9330    4.4871 C   0  0  0  0  0  0  0  0  0  0  0  0
    1.7187    4.2939    4.1126 C   0  0  0  0  0  0  0  0  0  0  0  0
    0.6637    3.4622    4.0295 C   0  0  0  0  0  0  0  0  0  0  0  0
    0.7204    2.0234    4.2457 C   0  0  0  0  0  0  0  0  0  0  0  0
    1.6098    1.2324    3.6102 C   0  0  0  0  0  0  0  0  0  0  0  0
    1.6610   -0.2906    3.7073 C   0  0  2  0  0  0  0  0  0  0  0  0
    2.9543   -0.7346    4.3703 C   0  0  0  0  0  0  0  0  0  0  0  0
    3.6949   -1.4382    3.5292 C   0  0  0  0  0  0  0  0  0  0  0  0
    3.0108   -1.5055    2.1965 C   0  0  0  0  0  0  0  0  0  0  0  0
    1.7398   -0.8569    2.3825 O   0  0  0  0  0  0  0  0  0  0  0  0
    0.3806   -0.8728    4.3841 C   0  0  2  0  0  0  0  0  0  0  0  0
   -0.1423   -0.0120    5.5670 C   0  0  1  0  0  0  0  0  0  0  0  0
    0.7380   -0.1659    6.8356 C   0  0  0  0  0  0  0  0  0  0  0  0
    0.8338   -1.6191    7.3512 C   0  0  0  0  0  0  0  0  0  0  0  0
    0.8112   -2.6715    6.2588 C   0  0  1  0  0  0  0  0  0  0  0  0
   -0.4783   -2.8507    5.6392 O   0  0  0  0  0  0  0  0  0  0  0  0
    0.5600   -2.3150    4.8158 C   0  0  1  0  0  0  0  0  0  0  0  0
   -0.3625    1.4685    5.1567 C   0  0  2  0  0  0  0  0  0  0  0  0
   -1.7520    1.7371    4.5060 C   0  0  0  0  0  0  0  0  0  0  0  0
   -1.8931    3.1355    3.9097 C   0  0  1  0  0  0  0  0  0  0  0  0
   -3.1409    3.3156    3.0674 C   0  0  0  0  0  0  0  0  0  0  0  0
   -1.5677    4.2271    4.7807 O   0  0  0  0  0  0  0  0  0  0  0  0
   -0.6766    3.9957    3.6815 C   0  0  1  0  0  0  0  0  0  0  0  0
    3.5130    4.6333    5.2343 H   0  0  0  0  0  0  0  0  0  0  0  0
    3.7820    3.9895    3.6068 H   0  0  0  0  0  0  0  0  0  0  0  0
    3.2159    2.9315    4.9098 H   0  0  0  0  0  0  0  0  0  0  0  0
    1.5634    5.3402    3.8792 H   0  0  0  0  0  0  0  0  0  0  0  0
    2.3259    1.6775    2.9343 H   0  0  0  0  0  0  0  0  0  0  0  0
    3.2079   -0.5528    5.4089 H   0  0  0  0  0  0  0  0  0  0  0  0
    4.6405   -1.9203    3.7582 H   0  0  0  0  0  0  0  0  0  0  0  0
    3.6226   -0.9988    1.4501 H   0  0  0  0  0  0  0  0  0  0  0  0
    2.8614   -2.5459    1.9119 H   0  0  0  0  0  0  0  0  0  0  0  0
   -0.4118   -0.8841    3.6314 H   0  0  0  0  0  0  0  0  0  0  0  0
   -1.1254   -0.3967    5.8518 H   0  0  0  0  0  0  0  0  0  0  0  0
    1.7349    0.2261    6.6476 H   0  0  0  0  0  0  0  0  0  0  0  0
    0.3511    0.4589    7.6421 H   0  0  0  0  0  0  0  0  0  0  0  0
    1.7416   -1.7460    7.9434 H   0  0  0  0  0  0  0  0  0  0  0  0
    0.0039   -1.8320    8.0238 H   0  0  0  0  0  0  0  0  0  0  0  0
    1.3030   -3.6103    6.4910 H   0  0  0  0  0  0  0  0  0  0  0  0
    0.9367   -3.0037    4.0641 H   0  0  0  0  0  0  0  0  0  0  0  0
   -0.3329    2.0736    6.0683 H   0  0  0  0  0  0  0  0  0  0  0  0
   -1.9146    1.0179    3.7035 H   0  0  0  0  0  0  0  0  0  0  0  0
   -2.5464    1.5895    5.2403 H   0  0  0  0  0  0  0  0  0  0  0  0
   -3.0981    2.6717    2.1894 H   0  0  0  0  0  0  0  0  0  0  0  0
   -3.2284    4.3475    2.7220 H   0  0  0  0  0  0  0  0  0  0  0  0
   -4.0357    3.0637    3.6364 H   0  0  0  0  0  0  0  0  0  0  0  0
   -0.6924    4.7502    2.8997 H   0  0  0  0  0  0  0  0  0  0  0  0
  1  2  1  0
  1 24  1  0
  1 25  1  0
  1 26  1  0
  2  3  2  3
  2 27  1  0
  3 23  1  0
  3  4  1  0
  4 18  1  0
  4  5  2  0
  5  6  1  0
  5 28  1  0
  6 10  1  6
  6  7  1  0
  6 11  1  0
  7  8  2  0
  7 29  1  0
  8  9  1  0
  8 30  1  0
  9 10  1  0
  9 31  1  0
  9 32  1  0
 11 17  1  0
 11 12  1  0
 11 33  1  6
 12 13  1  0
 12 18  1  0
 12 34  1  1
 13 14  1  0
 13 35  1  0
 13 36  1  0
 14 15  1  0
 14 37  1  0
 14 38  1  0
 15 17  1  0
 15 16  1  0
 15 39  1  6
 16 17  1  0
 17 40  1  6
 18 19  1  0
 18 41  1  1
 19 20  1  0
 19 42  1  0
 19 43  1  0
 20 23  1  0
 20 21  1  6
 20 22  1  0
 21 44  1  0
 21 45  1  0
 21 46  1  0
 22 23  1  0
 23 47  1  6
M  END
>  <i_m_ct_stereo_status>  (304) 
1

>  <s_m_source_file>  (304) 
/var/tmp/pbs.5076255.sched01/tmp548j1hfo/88g9dmtei7.sdf

>  <i_m_source_file_index>  (304) 
43

>  <i_lp_mmshare_version>  (304) 
48012

>  <i_f3d_flags>  (304) 
0

>  <s_epik_input>  (304) 
W0NIMl0xW0NAXShPMikoW0NIM10pW0NAQEhdMkMoPVtDSF1cW0NIM10pL0MoPVtDSF0zKVtDQEBIXTFbQ0BIXShbQ0gyXVtDSDJdW0NAQEhdNFtDQEhdNU80KVtDQEhdNVtDQF0zNltDSF09W0NIXVtDSDJdTzY=

>  <s_epik_cmdline>  (304) 
J2VwaWtfcHl0aG9uJywgJy1waHQnLCAnMi4wJywgJy1waCcsICc3LjAnLCAnLXRuJywgJzgnLCAnLW1hJywgJzIwMCcsICctaW1hZScsICc8aW5maWxlLm1hZT4nLCAnLW9tYWUnLCAnPG91dGZpbGUubWFlPic=

>  <r_lp_tautomer_probability>  (304) 
1

>  <r_epik_Ionization_Penalty>  (304) 
2.09616e-11

>  <r_epik_Ionization_Penalty_Charging>  (304) 
0

>  <r_epik_Ionization_Penalty_Neutral>  (304) 
2.09616e-11

>  <r_epik_State_Penalty>  (304) 
-0

>  <r_epik_Charging_Adjusted_Penalty>  (304) 
0

>  <i_epik_Tot_Q>  (304) 
0

>  <i_epik_Tot_abs_Q>  (304) 
0

>  <s_lp_Force_Field>  (304) 
OPLS3e

>  <r_lp_Energy>  (304) 
26.5342

>  <b_lp_Chiralities_Consistent>  (304) 
1

>  <s_lp_Variant>  (304) 
82:0-2

>  <s_i_glide_gridfile>  (304) 
pfpi4k_grid

>  <i_i_glide_lignum>  (304) 
43

>  <i_i_glide_rotatable_bonds>  (304) 
0

>  <r_i_docking_score>  (304) 
-2.48206

>  <r_i_glide_ligand_efficiency>  (304) 
-0.107916

>  <r_i_glide_ligand_efficiency_sa>  (304) 
-0.306898

>  <r_i_glide_ligand_efficiency_ln>  (304) 
-0.600185

>  <r_i_glide_gscore>  (304) 
-2.48206

>  <r_i_glide_lipo>  (304) 
-0.0185624

>  <r_i_glide_hbond>  (304) 
0

>  <r_i_glide_metal>  (304) 
-0

>  <r_i_glide_rewards>  (304) 
-1.27907

>  <r_i_glide_evdw>  (304) 
-18.8427

>  <r_i_glide_ecoul>  (304) 
-1.61527

>  <r_i_glide_erotb>  (304) 
0

>  <r_i_glide_esite>  (304) 
0

>  <r_i_glide_emodel>  (304) 
-24.0255

>  <r_i_glide_energy>  (304) 
-20.458

>  <r_i_glide_einternal>  (304) 
0

>  <r_i_glide_intrahb_reward>  (304) 
-0

>  <i_i_glide_confnum>  (304) 
2

>  <i_i_glide_posenum>  (304) 
40

>  <r_i_glide_eff_state_penalty>  (304) 
0

>  <ligand_id>  (304) 
82

>  <original_smiles>  (304) 
CC=C1C2=CC3(C=CCO3)C3C(CCC4OC43)C2CC2(C)OC12

>  <smiles>  (304) 
[H]C(=C1C2=C([H])C3(OC([H])([H])C([H])=C3[H])C3([H])C4([H])OC4([H])C([H])([H])C([H])([H])C3([H])C2([H])C([H])([H])C2(C([H])([H])[H])OC12[H])C([H])([H])[H]

$$$$
83:0:0
     RDKit          3D

 23 23  0  0  1  0  0  0  0  0999 V2000
    3.2617   -3.2595   -0.4961 C   0  0  0  0  0  0  0  0  0  0  0  0
    3.0326   -2.3600   -1.6564 N   0  0  0  0  0  0  0  0  0  0  0  0
    3.1443   -3.0795   -2.9457 C   0  0  0  0  0  0  0  0  0  0  0  0
    2.8822   -2.1460   -4.1321 C   0  0  0  0  0  0  0  0  0  0  0  0
    3.8172   -1.0211   -4.1187 N   0  0  0  0  0  0  0  0  0  0  0  0
    3.5009   -0.1233   -5.2219 C   0  0  0  0  0  0  0  0  0  0  0  0
    3.6328   -0.2787   -2.8672 C   0  0  0  0  0  0  0  0  0  0  0  0
    3.9313   -1.1852   -1.6547 C   0  0  0  0  0  0  0  0  0  0  0  0
    4.2789   -3.6594   -0.5162 H   0  0  0  0  0  0  0  0  0  0  0  0
    2.5694   -4.1045   -0.5143 H   0  0  0  0  0  0  0  0  0  0  0  0
    3.1222   -2.7230    0.4458 H   0  0  0  0  0  0  0  0  0  0  0  0
    4.1353   -3.5282   -3.0415 H   0  0  0  0  0  0  0  0  0  0  0  0
    2.4076   -3.8767   -2.9776 H   0  0  0  0  0  0  0  0  0  0  0  0
    3.0178   -2.7188   -5.0473 H   0  0  0  0  0  0  0  0  0  0  0  0
    1.8402   -1.8229   -4.1242 H   0  0  0  0  0  0  0  0  0  0  0  0
    2.4982    0.2977   -5.1338 H   0  0  0  0  0  0  0  0  0  0  0  0
    3.5572   -0.6469   -6.1762 H   0  0  0  0  0  0  0  0  0  0  0  0
    4.2160    0.6975   -5.2558 H   0  0  0  0  0  0  0  0  0  0  0  0
    4.3057    0.5770   -2.8545 H   0  0  0  0  0  0  0  0  0  0  0  0
    2.6149    0.1138   -2.8134 H   0  0  0  0  0  0  0  0  0  0  0  0
    3.7841   -0.6361   -0.7233 H   0  0  0  0  0  0  0  0  0  0  0  0
    4.9727   -1.5095   -1.6760 H   0  0  0  0  0  0  0  0  0  0  0  0
    2.0871   -1.9811   -1.5748 H   0  0  0  0  0  0  0  0  0  0  0  0
  1  2  1  0
  1  9  1  0
  1 10  1  0
  1 11  1  0
  2  8  1  0
  2  3  1  0
  2 23  1  0
  3  4  1  0
  3 12  1  0
  3 13  1  0
  4  5  1  0
  4 14  1  0
  4 15  1  0
  5  6  1  0
  5  7  1  0
  6 16  1  0
  6 17  1  0
  6 18  1  0
  7  8  1  0
  7 19  1  0
  7 20  1  0
  8 21  1  0
  8 22  1  0
M  CHG  1   2   1
M  END
>  <i_m_ct_stereo_status>  (305) 
1

>  <s_m_source_file>  (305) 
/var/tmp/pbs.5076255.sched01/tmp548j1hfo/88g9dmtei7.sdf

>  <i_m_source_file_index>  (305) 
44

>  <i_lp_mmshare_version>  (305) 
48012

>  <i_f3d_flags>  (305) 
0

>  <s_epik_input>  (305) 
W0NIM11OMVtDSDJdW0NIMl1OKFtDSDNdKVtDSDJdW0NIMl0x

>  <s_epik_cmdline>  (305) 
J2VwaWtfcHl0aG9uJywgJy1waHQnLCAnMi4wJywgJy1waCcsICc3LjAnLCAnLXRuJywgJzgnLCAnLW1hJywgJzIwMCcsICctaW1hZScsICc8aW5maWxlLm1hZT4nLCAnLW9tYWUnLCAnPG91dGZpbGUubWFlPic=

>  <r_epik_Ionization_Penalty>  (305) 
0.0268061

>  <r_epik_Ionization_Penalty_Charging>  (305) 
0.0258913

>  <r_epik_Ionization_Penalty_Neutral>  (305) 
0.000914771

>  <r_epik_State_Penalty>  (305) 
0.0211039

>  <r_epik_Charging_Adjusted_Penalty>  (305) 
0.0469952

>  <i_epik_Tot_Q>  (305) 
1

>  <i_epik_Tot_abs_Q>  (305) 
1

>  <s_lp_Force_Field>  (305) 
OPLS3e

>  <r_lp_Energy>  (305) 
27.9789

>  <b_lp_Chiralities_Consistent>  (305) 
1

>  <s_lp_Variant>  (305) 
83:0-1

>  <s_i_glide_gridfile>  (305) 
pfpi4k_grid

>  <i_i_glide_lignum>  (305) 
44

>  <i_i_glide_rotatable_bonds>  (305) 
0

>  <r_i_docking_score>  (305) 
-4.40532

>  <r_i_glide_ligand_efficiency>  (305) 
-0.550666

>  <r_i_glide_ligand_efficiency_sa>  (305) 
-1.10133

>  <r_i_glide_ligand_efficiency_ln>  (305) 
-1.43056

>  <r_i_glide_gscore>  (305) 
-4.40532

>  <r_i_glide_lipo>  (305) 
-0.235447

>  <r_i_glide_hbond>  (305) 
-0.2

>  <r_i_glide_metal>  (305) 
-0

>  <r_i_glide_rewards>  (305) 
-2.25

>  <r_i_glide_evdw>  (305) 
-12.3831

>  <r_i_glide_ecoul>  (305) 
-6.87205

>  <r_i_glide_erotb>  (305) 
0

>  <r_i_glide_esite>  (305) 
-0.0699138

>  <r_i_glide_emodel>  (305) 
-25.8276

>  <r_i_glide_energy>  (305) 
-19.2552

>  <r_i_glide_einternal>  (305) 
0

>  <r_i_glide_intrahb_reward>  (305) 
-0

>  <i_i_glide_confnum>  (305) 
2

>  <i_i_glide_posenum>  (305) 
39

>  <r_i_glide_eff_state_penalty>  (305) 
0

>  <ligand_id>  (305) 
83

>  <original_smiles>  (305) 
CN1CCN(C)CC1

>  <smiles>  (305) 
[H]C([H])([H])N1C([H])([H])C([H])([H])[N+]([H])(C([H])([H])[H])C([H])([H])C1([H])[H]

$$$$
83:0:1
     RDKit          3D

 23 23  0  0  1  0  0  0  0  0999 V2000
    2.6758    0.1615   -4.9338 C   0  0  0  0  0  0  0  0  0  0  0  0
    2.9874   -0.6412   -3.7266 N   0  0  0  0  0  0  0  0  0  0  0  0
    4.3827   -0.4937   -3.2801 C   0  0  0  0  0  0  0  0  0  0  0  0
    4.6382   -1.2946   -1.9897 C   0  0  0  0  0  0  0  0  0  0  0  0
    4.3343   -2.7039   -2.2201 N   0  0  0  0  0  0  0  0  0  0  0  0
    4.5893   -3.4570   -1.0040 C   0  0  0  0  0  0  0  0  0  0  0  0
    2.9220   -2.8312   -2.5757 C   0  0  0  0  0  0  0  0  0  0  0  0
    2.6431   -2.0751   -3.8854 C   0  0  0  0  0  0  0  0  0  0  0  0
    3.2532   -0.1751   -5.7949 H   0  0  0  0  0  0  0  0  0  0  0  0
    2.8911    1.2194   -4.7781 H   0  0  0  0  0  0  0  0  0  0  0  0
    1.6193    0.0783   -5.1877 H   0  0  0  0  0  0  0  0  0  0  0  0
    5.0049   -0.8590   -4.0823 H   0  0  0  0  0  0  0  0  0  0  0  0
    4.6075    0.5574   -3.1097 H   0  0  0  0  0  0  0  0  0  0  0  0
    5.6910   -1.2082   -1.7085 H   0  0  0  0  0  0  0  0  0  0  0  0
    4.0522   -0.8993   -1.1516 H   0  0  0  0  0  0  0  0  0  0  0  0
    3.9333   -3.1384   -0.1968 H   0  0  0  0  0  0  0  0  0  0  0  0
    5.6205   -3.3203   -0.6842 H   0  0  0  0  0  0  0  0  0  0  0  0
    4.4290   -4.5174   -1.1846 H   0  0  0  0  0  0  0  0  0  0  0  0
    2.6772   -3.8769   -2.7343 H   0  0  0  0  0  0  0  0  0  0  0  0
    2.2750   -2.4797   -1.7654 H   0  0  0  0  0  0  0  0  0  0  0  0
    1.5938   -2.2236   -4.1534 H   0  0  0  0  0  0  0  0  0  0  0  0
    3.2221   -2.5162   -4.6958 H   0  0  0  0  0  0  0  0  0  0  0  0
    2.4206   -0.2952   -2.9611 H   0  0  0  0  0  0  0  0  0  0  0  0
  1  2  1  0
  1  9  1  0
  1 10  1  0
  1 11  1  0
  2  8  1  0
  2  3  1  0
  2 23  1  0
  3  4  1  0
  3 12  1  0
  3 13  1  0
  4  5  1  0
  4 14  1  0
  4 15  1  0
  5  6  1  0
  5  7  1  0
  6 16  1  0
  6 17  1  0
  6 18  1  0
  7  8  1  0
  7 19  1  0
  7 20  1  0
  8 21  1  0
  8 22  1  0
M  CHG  1   2   1
M  END
>  <i_m_ct_stereo_status>  (306) 
1

>  <s_m_source_file>  (306) 
/var/tmp/pbs.5076255.sched01/tmp548j1hfo/88g9dmtei7.sdf

>  <i_m_source_file_index>  (306) 
44

>  <i_lp_mmshare_version>  (306) 
48012

>  <i_f3d_flags>  (306) 
0

>  <s_epik_input>  (306) 
W0NIM11OMVtDSDJdW0NIMl1OKFtDSDNdKVtDSDJdW0NIMl0x

>  <s_epik_cmdline>  (306) 
J2VwaWtfcHl0aG9uJywgJy1waHQnLCAnMi4wJywgJy1waCcsICc3LjAnLCAnLXRuJywgJzgnLCAnLW1hJywgJzIwMCcsICctaW1hZScsICc8aW5maWxlLm1hZT4nLCAnLW9tYWUnLCAnPG91dGZpbGUubWFlPic=

>  <r_epik_Ionization_Penalty>  (306) 
0.0268061

>  <r_epik_Ionization_Penalty_Charging>  (306) 
0.0258913

>  <r_epik_Ionization_Penalty_Neutral>  (306) 
0.000914771

>  <r_epik_State_Penalty>  (306) 
0.0211039

>  <r_epik_Charging_Adjusted_Penalty>  (306) 
0.0469952

>  <i_epik_Tot_Q>  (306) 
1

>  <i_epik_Tot_abs_Q>  (306) 
1

>  <s_lp_Force_Field>  (306) 
OPLS3e

>  <r_lp_Energy>  (306) 
27.9789

>  <b_lp_Chiralities_Consistent>  (306) 
1

>  <s_lp_Variant>  (306) 
83:0-1

>  <s_i_glide_gridfile>  (306) 
pfpi4k_grid

>  <i_i_glide_lignum>  (306) 
44

>  <i_i_glide_rotatable_bonds>  (306) 
0

>  <r_i_docking_score>  (306) 
-3.6381

>  <r_i_glide_ligand_efficiency>  (306) 
-0.454763

>  <r_i_glide_ligand_efficiency_sa>  (306) 
-0.909525

>  <r_i_glide_ligand_efficiency_ln>  (306) 
-1.18142

>  <r_i_glide_gscore>  (306) 
-3.6381

>  <r_i_glide_lipo>  (306) 
-0.335183

>  <r_i_glide_hbond>  (306) 
0

>  <r_i_glide_metal>  (306) 
-0

>  <r_i_glide_rewards>  (306) 
-2.25

>  <r_i_glide_evdw>  (306) 
-12.8359

>  <r_i_glide_ecoul>  (306) 
-2.74081

>  <r_i_glide_erotb>  (306) 
0

>  <r_i_glide_esite>  (306) 
0

>  <r_i_glide_emodel>  (306) 
-21.0391

>  <r_i_glide_energy>  (306) 
-15.5767

>  <r_i_glide_einternal>  (306) 
0

>  <r_i_glide_intrahb_reward>  (306) 
-0

>  <i_i_glide_confnum>  (306) 
2

>  <i_i_glide_posenum>  (306) 
3

>  <r_i_glide_eff_state_penalty>  (306) 
0

>  <ligand_id>  (306) 
83

>  <original_smiles>  (306) 
CN1CCN(C)CC1

>  <smiles>  (306) 
[H]C([H])([H])N1C([H])([H])C([H])([H])[N+]([H])(C([H])([H])[H])C([H])([H])C1([H])[H]

$$$$
83:0:2
     RDKit          3D

 23 23  0  0  1  0  0  0  0  0999 V2000
    2.4518    0.3015    1.5376 C   0  0  0  0  0  0  0  0  0  0  0  0
    1.1754    0.5044    2.2587 N   0  0  0  0  0  0  0  0  0  0  0  0
    0.4013    1.6493    1.7323 C   0  0  0  0  0  0  0  0  0  0  0  0
   -0.9344    1.8003    2.4871 C   0  0  0  0  0  0  0  0  0  0  0  0
   -0.6874    1.9772    3.9185 N   0  0  0  0  0  0  0  0  0  0  0  0
   -1.9583    2.1287    4.6135 C   0  0  0  0  0  0  0  0  0  0  0  0
    0.0282    0.8159    4.4448 C   0  0  0  0  0  0  0  0  0  0  0  0
    1.3762    0.6547    3.7195 C   0  0  0  0  0  0  0  0  0  0  0  0
    3.1031    1.1712    1.6332 H   0  0  0  0  0  0  0  0  0  0  0  0
    2.2610    0.1380    0.4822 H   0  0  0  0  0  0  0  0  0  0  0  0
    2.9863   -0.5732    1.9124 H   0  0  0  0  0  0  0  0  0  0  0  0
    1.0025    2.5502    1.8313 H   0  0  0  0  0  0  0  0  0  0  0  0
    0.2127    1.5062    0.6700 H   0  0  0  0  0  0  0  0  0  0  0  0
   -1.4632    2.6759    2.1106 H   0  0  0  0  0  0  0  0  0  0  0  0
   -1.5857    0.9414    2.3095 H   0  0  0  0  0  0  0  0  0  0  0  0
   -2.5619    1.2220    4.5340 H   0  0  0  0  0  0  0  0  0  0  0  0
   -2.5308    2.9567    4.1910 H   0  0  0  0  0  0  0  0  0  0  0  0
   -1.7870    2.3443    5.6702 H   0  0  0  0  0  0  0  0  0  0  0  0
    0.2047    0.9587    5.5117 H   0  0  0  0  0  0  0  0  0  0  0  0
   -0.5776   -0.0882    4.3435 H   0  0  0  0  0  0  0  0  0  0  0  0
    1.8984   -0.2214    4.1085 H   0  0  0  0  0  0  0  0  0  0  0  0
    2.0133    1.5179    3.9178 H   0  0  0  0  0  0  0  0  0  0  0  0
    0.6041   -0.3149    2.1112 H   0  0  0  0  0  0  0  0  0  0  0  0
  1  2  1  0
  1  9  1  0
  1 10  1  0
  1 11  1  0
  2  8  1  0
  2  3  1  0
  2 23  1  0
  3  4  1  0
  3 12  1  0
  3 13  1  0
  4  5  1  0
  4 14  1  0
  4 15  1  0
  5  6  1  0
  5  7  1  0
  6 16  1  0
  6 17  1  0
  6 18  1  0
  7  8  1  0
  7 19  1  0
  7 20  1  0
  8 21  1  0
  8 22  1  0
M  CHG  1   2   1
M  END
>  <i_m_ct_stereo_status>  (307) 
1

>  <s_m_source_file>  (307) 
/var/tmp/pbs.5076255.sched01/tmp548j1hfo/88g9dmtei7.sdf

>  <i_m_source_file_index>  (307) 
44

>  <i_lp_mmshare_version>  (307) 
48012

>  <i_f3d_flags>  (307) 
0

>  <s_epik_input>  (307) 
W0NIM11OMVtDSDJdW0NIMl1OKFtDSDNdKVtDSDJdW0NIMl0x

>  <s_epik_cmdline>  (307) 
J2VwaWtfcHl0aG9uJywgJy1waHQnLCAnMi4wJywgJy1waCcsICc3LjAnLCAnLXRuJywgJzgnLCAnLW1hJywgJzIwMCcsICctaW1hZScsICc8aW5maWxlLm1hZT4nLCAnLW9tYWUnLCAnPG91dGZpbGUubWFlPic=

>  <r_epik_Ionization_Penalty>  (307) 
0.0268061

>  <r_epik_Ionization_Penalty_Charging>  (307) 
0.0258913

>  <r_epik_Ionization_Penalty_Neutral>  (307) 
0.000914771

>  <r_epik_State_Penalty>  (307) 
0.0211039

>  <r_epik_Charging_Adjusted_Penalty>  (307) 
0.0469952

>  <i_epik_Tot_Q>  (307) 
1

>  <i_epik_Tot_abs_Q>  (307) 
1

>  <s_lp_Force_Field>  (307) 
OPLS3e

>  <r_lp_Energy>  (307) 
27.9789

>  <b_lp_Chiralities_Consistent>  (307) 
1

>  <s_lp_Variant>  (307) 
83:0-1

>  <s_i_glide_gridfile>  (307) 
pfpi4k_grid

>  <i_i_glide_lignum>  (307) 
44

>  <i_i_glide_rotatable_bonds>  (307) 
0

>  <r_i_docking_score>  (307) 
-3.2697

>  <r_i_glide_ligand_efficiency>  (307) 
-0.408712

>  <r_i_glide_ligand_efficiency_sa>  (307) 
-0.817425

>  <r_i_glide_ligand_efficiency_ln>  (307) 
-1.06178

>  <r_i_glide_gscore>  (307) 
-3.2697

>  <r_i_glide_lipo>  (307) 
0

>  <r_i_glide_hbond>  (307) 
0

>  <r_i_glide_metal>  (307) 
-0

>  <r_i_glide_rewards>  (307) 
-2.25

>  <r_i_glide_evdw>  (307) 
-8.12035

>  <r_i_glide_ecoul>  (307) 
-3.80201

>  <r_i_glide_erotb>  (307) 
0

>  <r_i_glide_esite>  (307) 
-0.0433795

>  <r_i_glide_emodel>  (307) 
-16.8275

>  <r_i_glide_energy>  (307) 
-11.9224

>  <r_i_glide_einternal>  (307) 
0

>  <r_i_glide_intrahb_reward>  (307) 
-0

>  <i_i_glide_confnum>  (307) 
2

>  <i_i_glide_posenum>  (307) 
7

>  <r_i_glide_eff_state_penalty>  (307) 
0

>  <ligand_id>  (307) 
83

>  <original_smiles>  (307) 
CN1CCN(C)CC1

>  <smiles>  (307) 
[H]C([H])([H])N1C([H])([H])C([H])([H])[N+]([H])(C([H])([H])[H])C([H])([H])C1([H])[H]

$$$$
83:1:0
     RDKit          3D

 22 22  0  0  1  0  0  0  0  0999 V2000
    3.3623   -0.0329   -4.4026 C   0  0  0  0  0  0  0  0  0  0  0  0
    3.8399   -1.2320   -3.7264 N   0  0  0  0  0  0  0  0  0  0  0  0
    2.7299   -2.1171   -3.3752 C   0  0  0  0  0  0  0  0  0  0  0  0
    3.2037   -3.3783   -2.6436 C   0  0  0  0  0  0  0  0  0  0  0  0
    3.9430   -3.0519   -1.4239 N   0  0  0  0  0  0  0  0  0  0  0  0
    4.3978   -4.2485   -0.7402 C   0  0  0  0  0  0  0  0  0  0  0  0
    5.0485   -2.1601   -1.7631 C   0  0  0  0  0  0  0  0  0  0  0  0
    4.5503   -0.8997   -2.4907 C   0  0  0  0  0  0  0  0  0  0  0  0
    2.6596    0.5247   -3.7790 H   0  0  0  0  0  0  0  0  0  0  0  0
    2.8521   -0.2917   -5.3283 H   0  0  0  0  0  0  0  0  0  0  0  0
    4.1914    0.6284   -4.6463 H   0  0  0  0  0  0  0  0  0  0  0  0
    2.0309   -1.5955   -2.7223 H   0  0  0  0  0  0  0  0  0  0  0  0
    2.1741   -2.3998   -4.2749 H   0  0  0  0  0  0  0  0  0  0  0  0
    2.3210   -3.9653   -2.3893 H   0  0  0  0  0  0  0  0  0  0  0  0
    3.8249   -3.9787   -3.3151 H   0  0  0  0  0  0  0  0  0  0  0  0
    5.0893   -4.8231   -1.3611 H   0  0  0  0  0  0  0  0  0  0  0  0
    3.5559   -4.8988   -0.4889 H   0  0  0  0  0  0  0  0  0  0  0  0
    4.9059   -3.9907    0.1889 H   0  0  0  0  0  0  0  0  0  0  0  0
    5.5703   -1.8727   -0.8508 H   0  0  0  0  0  0  0  0  0  0  0  0
    5.7682   -2.6865   -2.3896 H   0  0  0  0  0  0  0  0  0  0  0  0
    5.3974   -0.2555   -2.7163 H   0  0  0  0  0  0  0  0  0  0  0  0
    3.8976   -0.3289   -1.8243 H   0  0  0  0  0  0  0  0  0  0  0  0
  1  2  1  0
  1  9  1  0
  1 10  1  0
  1 11  1  0
  2  8  1  0
  2  3  1  0
  3  4  1  0
  3 12  1  0
  3 13  1  0
  4  5  1  0
  4 14  1  0
  4 15  1  0
  5  6  1  0
  5  7  1  0
  6 16  1  0
  6 17  1  0
  6 18  1  0
  7  8  1  0
  7 19  1  0
  7 20  1  0
  8 21  1  0
  8 22  1  0
M  END
>  <i_m_ct_stereo_status>  (308) 
1

>  <s_m_source_file>  (308) 
/var/tmp/pbs.5076255.sched01/tmpfn0mpy04/132vsilkqhl.sdf

>  <i_m_source_file_index>  (308) 
1

>  <i_lp_mmshare_version>  (308) 
48012

>  <i_f3d_flags>  (308) 
0

>  <s_epik_input>  (308) 
W0NIM11OMVtDSDJdW0NIMl1OKFtDSDNdKVtDSDJdW0NIMl0x

>  <s_epik_cmdline>  (308) 
J2VwaWtfcHl0aG9uJywgJy1waHQnLCAnMi4wJywgJy1waCcsICc3LjAnLCAnLXRuJywgJzgnLCAnLW1hJywgJzIwMCcsICctaW1hZScsICc8aW5maWxlLm1hZT4nLCAnLW9tYWUnLCAnPG91dGZpbGUubWFlPic=

>  <r_epik_Ionization_Penalty>  (308) 
1.86763

>  <r_epik_Ionization_Penalty_Charging>  (308) 
0

>  <r_epik_Ionization_Penalty_Neutral>  (308) 
1.86763

>  <r_epik_State_Penalty>  (308) 
1.98638

>  <r_epik_Charging_Adjusted_Penalty>  (308) 
1.98638

>  <i_epik_Tot_Q>  (308) 
0

>  <i_epik_Tot_abs_Q>  (308) 
0

>  <s_lp_Force_Field>  (308) 
OPLS3e

>  <r_lp_Energy>  (308) 
23.5113

>  <b_lp_Chiralities_Consistent>  (308) 
1

>  <s_lp_Variant>  (308) 
83:0-2

>  <s_i_glide_gridfile>  (308) 
pfpi4k_grid

>  <i_i_glide_lignum>  (308) 
1

>  <i_i_glide_rotatable_bonds>  (308) 
0

>  <r_i_docking_score>  (308) 
-3.53602

>  <r_i_glide_ligand_efficiency>  (308) 
-0.442002

>  <r_i_glide_ligand_efficiency_sa>  (308) 
-0.884004

>  <r_i_glide_ligand_efficiency_ln>  (308) 
-1.14827

>  <r_i_glide_gscore>  (308) 
-3.53602

>  <r_i_glide_lipo>  (308) 
-0.331669

>  <r_i_glide_hbond>  (308) 
0

>  <r_i_glide_metal>  (308) 
-0

>  <r_i_glide_rewards>  (308) 
-2.25

>  <r_i_glide_evdw>  (308) 
-12.7213

>  <r_i_glide_ecoul>  (308) 
-2.12188

>  <r_i_glide_erotb>  (308) 
0

>  <r_i_glide_esite>  (308) 
0

>  <r_i_glide_emodel>  (308) 
-17.9026

>  <r_i_glide_energy>  (308) 
-14.8432

>  <r_i_glide_einternal>  (308) 
0

>  <r_i_glide_intrahb_reward>  (308) 
-0

>  <i_i_glide_confnum>  (308) 
4

>  <i_i_glide_posenum>  (308) 
4

>  <r_i_glide_eff_state_penalty>  (308) 
0

>  <ligand_id>  (308) 
83

>  <original_smiles>  (308) 
CN1CCN(C)CC1

>  <smiles>  (308) 
[H]C([H])([H])N1C([H])([H])C([H])([H])N(C([H])([H])[H])C([H])([H])C1([H])[H]

$$$$
83:1:1
     RDKit          3D

 22 22  0  0  1  0  0  0  0  0999 V2000
    3.4129   -0.1245   -5.4155 C   0  0  0  0  0  0  0  0  0  0  0  0
    3.8545   -0.9670   -4.3141 N   0  0  0  0  0  0  0  0  0  0  0  0
    3.0291   -2.1688   -4.1835 C   0  0  0  0  0  0  0  0  0  0  0  0
    3.4765   -3.0367   -2.9967 C   0  0  0  0  0  0  0  0  0  0  0  0
    3.4396   -2.3035   -1.7382 N   0  0  0  0  0  0  0  0  0  0  0  0
    3.8481   -3.1375   -0.6174 C   0  0  0  0  0  0  0  0  0  0  0  0
    4.2495   -1.0969   -1.8585 C   0  0  0  0  0  0  0  0  0  0  0  0
    3.7907   -0.2315   -3.0520 C   0  0  0  0  0  0  0  0  0  0  0  0
    2.3770    0.1881   -5.2863 H   0  0  0  0  0  0  0  0  0  0  0  0
    3.4863   -0.6530   -6.3674 H   0  0  0  0  0  0  0  0  0  0  0  0
    4.0263    0.7740   -5.4836 H   0  0  0  0  0  0  0  0  0  0  0  0
    1.9805   -1.8963   -4.0550 H   0  0  0  0  0  0  0  0  0  0  0  0
    3.0923   -2.7752   -5.0862 H   0  0  0  0  0  0  0  0  0  0  0  0
    2.7932   -3.8780   -2.9354 H   0  0  0  0  0  0  0  0  0  0  0  0
    4.4780   -3.4283   -3.1793 H   0  0  0  0  0  0  0  0  0  0  0  0
    4.8831   -3.4625   -0.7238 H   0  0  0  0  0  0  0  0  0  0  0  0
    3.2191   -4.0265   -0.5535 H   0  0  0  0  0  0  0  0  0  0  0  0
    3.7494   -2.5849    0.3173 H   0  0  0  0  0  0  0  0  0  0  0  0
    4.1703   -0.5195   -0.9368 H   0  0  0  0  0  0  0  0  0  0  0  0
    5.2997   -1.3633   -1.9760 H   0  0  0  0  0  0  0  0  0  0  0  0
    4.4160    0.6596   -3.1145 H   0  0  0  0  0  0  0  0  0  0  0  0
    2.7668    0.1076   -2.8817 H   0  0  0  0  0  0  0  0  0  0  0  0
  1  2  1  0
  1  9  1  0
  1 10  1  0
  1 11  1  0
  2  8  1  0
  2  3  1  0
  3  4  1  0
  3 12  1  0
  3 13  1  0
  4  5  1  0
  4 14  1  0
  4 15  1  0
  5  6  1  0
  5  7  1  0
  6 16  1  0
  6 17  1  0
  6 18  1  0
  7  8  1  0
  7 19  1  0
  7 20  1  0
  8 21  1  0
  8 22  1  0
M  END
>  <i_m_ct_stereo_status>  (309) 
1

>  <s_m_source_file>  (309) 
/var/tmp/pbs.5076255.sched01/tmpfn0mpy04/132vsilkqhl.sdf

>  <i_m_source_file_index>  (309) 
1

>  <i_lp_mmshare_version>  (309) 
48012

>  <i_f3d_flags>  (309) 
0

>  <s_epik_input>  (309) 
W0NIM11OMVtDSDJdW0NIMl1OKFtDSDNdKVtDSDJdW0NIMl0x

>  <s_epik_cmdline>  (309) 
J2VwaWtfcHl0aG9uJywgJy1waHQnLCAnMi4wJywgJy1waCcsICc3LjAnLCAnLXRuJywgJzgnLCAnLW1hJywgJzIwMCcsICctaW1hZScsICc8aW5maWxlLm1hZT4nLCAnLW9tYWUnLCAnPG91dGZpbGUubWFlPic=

>  <r_epik_Ionization_Penalty>  (309) 
1.86763

>  <r_epik_Ionization_Penalty_Charging>  (309) 
0

>  <r_epik_Ionization_Penalty_Neutral>  (309) 
1.86763

>  <r_epik_State_Penalty>  (309) 
1.98638

>  <r_epik_Charging_Adjusted_Penalty>  (309) 
1.98638

>  <i_epik_Tot_Q>  (309) 
0

>  <i_epik_Tot_abs_Q>  (309) 
0

>  <s_lp_Force_Field>  (309) 
OPLS3e

>  <r_lp_Energy>  (309) 
23.5113

>  <b_lp_Chiralities_Consistent>  (309) 
1

>  <s_lp_Variant>  (309) 
83:0-2

>  <s_i_glide_gridfile>  (309) 
pfpi4k_grid

>  <i_i_glide_lignum>  (309) 
1

>  <i_i_glide_rotatable_bonds>  (309) 
0

>  <r_i_docking_score>  (309) 
-3.417

>  <r_i_glide_ligand_efficiency>  (309) 
-0.427125

>  <r_i_glide_ligand_efficiency_sa>  (309) 
-0.85425

>  <r_i_glide_ligand_efficiency_ln>  (309) 
-1.10962

>  <r_i_glide_gscore>  (309) 
-3.417

>  <r_i_glide_lipo>  (309) 
-0.209354

>  <r_i_glide_hbond>  (309) 
-0.0633237

>  <r_i_glide_metal>  (309) 
-0

>  <r_i_glide_rewards>  (309) 
-2.25

>  <r_i_glide_evdw>  (309) 
-14.0475

>  <r_i_glide_ecoul>  (309) 
-1.27966

>  <r_i_glide_erotb>  (309) 
0

>  <r_i_glide_esite>  (309) 
0

>  <r_i_glide_emodel>  (309) 
-18.2798

>  <r_i_glide_energy>  (309) 
-15.3272

>  <r_i_glide_einternal>  (309) 
0

>  <r_i_glide_intrahb_reward>  (309) 
-0

>  <i_i_glide_confnum>  (309) 
4

>  <i_i_glide_posenum>  (309) 
30

>  <r_i_glide_eff_state_penalty>  (309) 
0

>  <ligand_id>  (309) 
83

>  <original_smiles>  (309) 
CN1CCN(C)CC1

>  <smiles>  (309) 
[H]C([H])([H])N1C([H])([H])C([H])([H])N(C([H])([H])[H])C([H])([H])C1([H])[H]

$$$$
83:1:2
     RDKit          3D

 22 22  0  0  1  0  0  0  0  0999 V2000
    2.3752   -3.4558   -1.9385 C   0  0  0  0  0  0  0  0  0  0  0  0
    2.6596   -2.1773   -2.5536 N   0  0  0  0  0  0  0  0  0  0  0  0
    2.1747   -2.0950   -3.9209 C   0  0  0  0  0  0  0  0  0  0  0  0
    2.4191   -0.6754   -4.5031 C   0  0  0  0  0  0  0  0  0  0  0  0
    3.8074   -0.3842   -4.5139 N   0  0  0  0  0  0  0  0  0  0  0  0
    3.9684    0.9213   -5.0980 C   0  0  0  0  0  0  0  0  0  0  0  0
    4.2956   -0.4597   -3.1256 C   0  0  0  0  0  0  0  0  0  0  0  0
    4.0641   -1.8522   -2.5201 C   0  0  0  0  0  0  0  0  0  0  0  0
    2.8539   -4.2400   -2.5074 H   0  0  0  0  0  0  0  0  0  0  0  0
    1.3032   -3.6471   -1.9132 H   0  0  0  0  0  0  0  0  0  0  0  0
    2.7525   -3.4900   -0.9173 H   0  0  0  0  0  0  0  0  0  0  0  0
    2.6548   -2.8532   -4.5448 H   0  0  0  0  0  0  0  0  0  0  0  0
    1.1113   -2.3151   -3.9591 H   0  0  0  0  0  0  0  0  0  0  0  0
    2.0218   -0.5902   -5.5089 H   0  0  0  0  0  0  0  0  0  0  0  0
    1.9307    0.1363   -3.9517 H   0  0  0  0  0  0  0  0  0  0  0  0
    3.5065    1.7141   -4.4952 H   0  0  0  0  0  0  0  0  0  0  0  0
    3.5393    0.9263   -6.1055 H   0  0  0  0  0  0  0  0  0  0  0  0
    5.0156    1.0596   -5.1872 H   0  0  0  0  0  0  0  0  0  0  0  0
    5.3619   -0.2779   -3.0576 H   0  0  0  0  0  0  0  0  0  0  0  0
    3.8203    0.3009   -2.5184 H   0  0  0  0  0  0  0  0  0  0  0  0
    4.4250   -1.8648   -1.4955 H   0  0  0  0  0  0  0  0  0  0  0  0
    4.6372   -2.5987   -3.0757 H   0  0  0  0  0  0  0  0  0  0  0  0
  1  2  1  0
  1  9  1  0
  1 10  1  0
  1 11  1  0
  2  8  1  0
  2  3  1  0
  3  4  1  0
  3 12  1  0
  3 13  1  0
  4  5  1  0
  4 14  1  0
  4 15  1  0
  5  6  1  0
  5  7  1  0
  6 16  1  0
  6 17  1  0
  6 18  1  0
  7  8  1  0
  7 19  1  0
  7 20  1  0
  8 21  1  0
  8 22  1  0
M  END
>  <i_m_ct_stereo_status>  (310) 
1

>  <s_m_source_file>  (310) 
/var/tmp/pbs.5076255.sched01/tmpfn0mpy04/132vsilkqhl.sdf

>  <i_m_source_file_index>  (310) 
1

>  <i_lp_mmshare_version>  (310) 
48012

>  <i_f3d_flags>  (310) 
0

>  <s_epik_input>  (310) 
W0NIM11OMVtDSDJdW0NIMl1OKFtDSDNdKVtDSDJdW0NIMl0x

>  <s_epik_cmdline>  (310) 
J2VwaWtfcHl0aG9uJywgJy1waHQnLCAnMi4wJywgJy1waCcsICc3LjAnLCAnLXRuJywgJzgnLCAnLW1hJywgJzIwMCcsICctaW1hZScsICc8aW5maWxlLm1hZT4nLCAnLW9tYWUnLCAnPG91dGZpbGUubWFlPic=

>  <r_epik_Ionization_Penalty>  (310) 
1.86763

>  <r_epik_Ionization_Penalty_Charging>  (310) 
0

>  <r_epik_Ionization_Penalty_Neutral>  (310) 
1.86763

>  <r_epik_State_Penalty>  (310) 
1.98638

>  <r_epik_Charging_Adjusted_Penalty>  (310) 
1.98638

>  <i_epik_Tot_Q>  (310) 
0

>  <i_epik_Tot_abs_Q>  (310) 
0

>  <s_lp_Force_Field>  (310) 
OPLS3e

>  <r_lp_Energy>  (310) 
23.5113

>  <b_lp_Chiralities_Consistent>  (310) 
1

>  <s_lp_Variant>  (310) 
83:0-2

>  <s_i_glide_gridfile>  (310) 
pfpi4k_grid

>  <i_i_glide_lignum>  (310) 
1

>  <i_i_glide_rotatable_bonds>  (310) 
0

>  <r_i_docking_score>  (310) 
-2.99549

>  <r_i_glide_ligand_efficiency>  (310) 
-0.374436

>  <r_i_glide_ligand_efficiency_sa>  (310) 
-0.748872

>  <r_i_glide_ligand_efficiency_ln>  (310) 
-0.972737

>  <r_i_glide_gscore>  (310) 
-2.99549

>  <r_i_glide_lipo>  (310) 
-0.576211

>  <r_i_glide_hbond>  (310) 
0

>  <r_i_glide_metal>  (310) 
-0

>  <r_i_glide_rewards>  (310) 
-2.25

>  <r_i_glide_evdw>  (310) 
0.620656

>  <r_i_glide_ecoul>  (310) 
-1.33539

>  <r_i_glide_erotb>  (310) 
0

>  <r_i_glide_esite>  (310) 
0

>  <r_i_glide_emodel>  (310) 
-3.17878

>  <r_i_glide_energy>  (310) 
-0.714731

>  <r_i_glide_einternal>  (310) 
0

>  <r_i_glide_intrahb_reward>  (310) 
-0

>  <i_i_glide_confnum>  (310) 
2

>  <i_i_glide_posenum>  (310) 
13

>  <r_i_glide_eff_state_penalty>  (310) 
0

>  <ligand_id>  (310) 
83

>  <original_smiles>  (310) 
CN1CCN(C)CC1

>  <smiles>  (310) 
[H]C([H])([H])N1C([H])([H])C([H])([H])N(C([H])([H])[H])C([H])([H])C1([H])[H]

$$$$
84:0:0
     RDKit          3D

 31 33  0  0  1  0  0  0  0  0999 V2000
    2.2081   -3.0516   -3.6795 C   0  0  0  0  0  0  0  0  0  0  0  0
    3.5739   -2.4840   -3.3455 C   0  0  0  0  0  0  0  0  0  0  0  0
    4.2124   -1.9130   -4.2291 O   0  0  0  0  0  0  0  0  0  0  0  0
    4.1709   -2.6075   -1.9106 C   0  0  2  0  0  0  0  0  0  0  0  0
    4.5583   -1.1977   -1.3893 C   0  0  0  0  0  0  0  0  0  0  0  0
    5.1581   -1.2858    0.0258 C   0  0  1  0  0  0  0  0  0  0  0  0
    4.1400   -1.9169    0.9964 C   0  0  0  0  0  0  0  0  0  0  0  0
    3.7959   -3.3343    0.5001 C   0  0  2  0  0  0  0  0  0  0  0  0
    5.0667   -4.2101    0.4437 C   0  0  0  0  0  0  0  0  0  0  0  0
    6.0718   -3.5611   -0.5279 C   0  0  2  0  0  0  0  0  0  0  0  0
    6.4338   -2.1529   -0.0104 C   0  0  0  0  0  0  0  0  0  0  0  0
    5.4662   -3.4600   -1.9457 C   0  0  0  0  0  0  0  0  0  0  0  0
    3.1827   -3.2447   -0.8921 C   0  0  0  0  0  0  0  0  0  0  0  0
    1.6795   -3.4918   -2.8318 H   0  0  0  0  0  0  0  0  0  0  0  0
    2.2806   -3.7924   -4.4813 H   0  0  0  0  0  0  0  0  0  0  0  0
    1.5711   -2.2818   -4.1028 H   0  0  0  0  0  0  0  0  0  0  0  0
    5.2621   -0.6931   -2.0562 H   0  0  0  0  0  0  0  0  0  0  0  0
    3.6562   -0.5929   -1.3650 H   0  0  0  0  0  0  0  0  0  0  0  0
    5.4091   -0.2814    0.3819 H   0  0  0  0  0  0  0  0  0  0  0  0
    4.5240   -1.9537    2.0126 H   0  0  0  0  0  0  0  0  0  0  0  0
    3.2279   -1.3129    1.0211 H   0  0  0  0  0  0  0  0  0  0  0  0
    3.0836   -3.7868    1.1884 H   0  0  0  0  0  0  0  0  0  0  0  0
    5.4968   -4.3273    1.4362 H   0  0  0  0  0  0  0  0  0  0  0  0
    4.8048   -5.2118    0.0912 H   0  0  0  0  0  0  0  0  0  0  0  0
    6.9781   -4.1723   -0.5568 H   0  0  0  0  0  0  0  0  0  0  0  0
    7.1779   -1.7102   -0.6704 H   0  0  0  0  0  0  0  0  0  0  0  0
    6.8779   -2.2086    0.9822 H   0  0  0  0  0  0  0  0  0  0  0  0
    5.2407   -4.4609   -2.3276 H   0  0  0  0  0  0  0  0  0  0  0  0
    6.2028   -3.0382   -2.6337 H   0  0  0  0  0  0  0  0  0  0  0  0
    2.2492   -2.6663   -0.8408 H   0  0  0  0  0  0  0  0  0  0  0  0
    2.9020   -4.2507   -1.2148 H   0  0  0  0  0  0  0  0  0  0  0  0
  1  2  1  0
  1 14  1  0
  1 15  1  0
  1 16  1  0
  2  3  2  0
  4  2  1  6
  4 12  1  0
  4 13  1  0
  4  5  1  0
  5  6  1  0
  5 17  1  0
  5 18  1  0
  6 11  1  0
  6  7  1  0
  6 19  1  1
  7  8  1  0
  7 20  1  0
  7 21  1  0
  8  9  1  0
  8 13  1  0
  8 22  1  1
  9 10  1  0
  9 23  1  0
  9 24  1  0
 10 11  1  0
 10 12  1  0
 10 25  1  6
 11 26  1  0
 11 27  1  0
 12 28  1  0
 12 29  1  0
 13 30  1  0
 13 31  1  0
M  END
>  <i_m_ct_stereo_status>  (311) 
1

>  <s_m_source_file>  (311) 
/var/tmp/pbs.5076255.sched01/tmpfn0mpy04/132vsilkqhl.sdf

>  <i_m_source_file_index>  (311) 
2

>  <i_lp_mmshare_version>  (311) 
48012

>  <i_f3d_flags>  (311) 
0

>  <s_epik_input>  (311) 
W0NIM11DKD1PKUMxMltDSDJdW0NASF0zW0NIMl1bQ0BASF0oW0NIMl0yKVtDSDJdW0NASF0oW0NIMl0zKVtDSDJdMQ==

>  <s_epik_cmdline>  (311) 
J2VwaWtfcHl0aG9uJywgJy1waHQnLCAnMi4wJywgJy1waCcsICc3LjAnLCAnLXRuJywgJzgnLCAnLW1hJywgJzIwMCcsICctaW1hZScsICc8aW5maWxlLm1hZT4nLCAnLW9tYWUnLCAnPG91dGZpbGUubWFlPic=

>  <r_lp_tautomer_probability>  (311) 
1

>  <r_epik_Ionization_Penalty>  (311) 
5.38073e-14

>  <r_epik_Ionization_Penalty_Charging>  (311) 
0

>  <r_epik_Ionization_Penalty_Neutral>  (311) 
5.38073e-14

>  <r_epik_State_Penalty>  (311) 
-0

>  <r_epik_Charging_Adjusted_Penalty>  (311) 
0

>  <i_epik_Tot_Q>  (311) 
0

>  <i_epik_Tot_abs_Q>  (311) 
0

>  <s_lp_Force_Field>  (311) 
OPLS3e

>  <r_lp_Energy>  (311) 
3.67834

>  <b_lp_Chiralities_Consistent>  (311) 
1

>  <s_lp_Variant>  (311) 
84:0-1

>  <s_i_glide_gridfile>  (311) 
pfpi4k_grid

>  <i_i_glide_lignum>  (311) 
2

>  <i_i_glide_rotatable_bonds>  (311) 
1

>  <r_i_docking_score>  (311) 
-4.93694

>  <r_i_glide_ligand_efficiency>  (311) 
-0.379765

>  <r_i_glide_ligand_efficiency_sa>  (311) 
-0.892954

>  <r_i_glide_ligand_efficiency_ln>  (311) 
-1.38486

>  <r_i_glide_gscore>  (311) 
-4.93694

>  <r_i_glide_lipo>  (311) 
-0.554679

>  <r_i_glide_hbond>  (311) 
-0.32

>  <r_i_glide_metal>  (311) 
-0

>  <r_i_glide_rewards>  (311) 
-2.4125

>  <r_i_glide_evdw>  (311) 
-21.5726

>  <r_i_glide_ecoul>  (311) 
-3.80755

>  <r_i_glide_erotb>  (311) 
0

>  <r_i_glide_esite>  (311) 
0

>  <r_i_glide_emodel>  (311) 
-30.7716

>  <r_i_glide_energy>  (311) 
-25.3801

>  <r_i_glide_einternal>  (311) 
4.60131

>  <r_i_glide_intrahb_reward>  (311) 
-0

>  <i_i_glide_confnum>  (311) 
1

>  <i_i_glide_posenum>  (311) 
30

>  <r_i_glide_eff_state_penalty>  (311) 
0

>  <ligand_id>  (311) 
84

>  <original_smiles>  (311) 
CC(=O)C12CC3CC(CC(C3)C1)C2

>  <smiles>  (311) 
[H]C([H])([H])C(=O)C12C([H])([H])C3([H])C([H])([H])C([H])(C([H])([H])C([H])(C3([H])[H])C1([H])[H])C2([H])[H]

$$$$
84:0:1
     RDKit          3D

 31 33  0  0  1  0  0  0  0  0999 V2000
    3.6437   -3.0770   -3.9168 C   0  0  0  0  0  0  0  0  0  0  0  0
    4.0802   -2.0253   -2.9081 C   0  0  0  0  0  0  0  0  0  0  0  0
    4.2134   -0.8587   -3.2750 O   0  0  0  0  0  0  0  0  0  0  0  0
    4.3934   -2.4730   -1.4623 C   0  0  2  0  0  0  0  0  0  0  0  0
    5.6557   -3.3793   -1.4518 C   0  0  0  0  0  0  0  0  0  0  0  0
    5.9687   -3.8347   -0.0099 C   0  0  1  0  0  0  0  0  0  0  0  0
    6.2372   -2.5985    0.8728 C   0  0  0  0  0  0  0  0  0  0  0  0
    4.9813   -1.7056    0.8893 C   0  0  2  0  0  0  0  0  0  0  0  0
    3.7835   -2.4932    1.4570 C   0  0  0  0  0  0  0  0  0  0  0  0
    3.5190   -3.7241    0.5683 C   0  0  2  0  0  0  0  0  0  0  0  0
    4.7674   -4.6296    0.5406 C   0  0  0  0  0  0  0  0  0  0  0  0
    3.1939   -3.2668   -0.8664 C   0  0  0  0  0  0  0  0  0  0  0  0
    4.6625   -1.2433   -0.5480 C   0  0  0  0  0  0  0  0  0  0  0  0
    3.6163   -4.0707   -3.4769 H   0  0  0  0  0  0  0  0  0  0  0  0
    4.3626   -3.1036   -4.7226 H   0  0  0  0  0  0  0  0  0  0  0  0
    2.6538   -2.8412   -4.3134 H   0  0  0  0  0  0  0  0  0  0  0  0
    5.5072   -4.2542   -2.0858 H   0  0  0  0  0  0  0  0  0  0  0  0
    6.5154   -2.8513   -1.8675 H   0  0  0  0  0  0  0  0  0  0  0  0
    6.8523   -4.4731   -0.0135 H   0  0  0  0  0  0  0  0  0  0  0  0
    6.4962   -2.9029    1.8876 H   0  0  0  0  0  0  0  0  0  0  0  0
    7.0908   -2.0404    0.4857 H   0  0  0  0  0  0  0  0  0  0  0  0
    5.1683   -0.8340    1.5157 H   0  0  0  0  0  0  0  0  0  0  0  0
    3.9853   -2.8046    2.4836 H   0  0  0  0  0  0  0  0  0  0  0  0
    2.8958   -1.8587    1.4867 H   0  0  0  0  0  0  0  0  0  0  0  0
    2.6739   -4.2846    0.9671 H   0  0  0  0  0  0  0  0  0  0  0  0
    4.5807   -5.5070   -0.0804 H   0  0  0  0  0  0  0  0  0  0  0  0
    4.9871   -5.0055    1.5383 H   0  0  0  0  0  0  0  0  0  0  0  0
    2.2902   -2.6550   -0.8669 H   0  0  0  0  0  0  0  0  0  0  0  0
    2.9561   -4.1526   -1.4550 H   0  0  0  0  0  0  0  0  0  0  0  0
    5.4932   -0.6482   -0.9317 H   0  0  0  0  0  0  0  0  0  0  0  0
    3.7880   -0.5904   -0.5303 H   0  0  0  0  0  0  0  0  0  0  0  0
  1  2  1  0
  1 14  1  0
  1 15  1  0
  1 16  1  0
  2  3  2  0
  4  2  1  6
  4 12  1  0
  4 13  1  0
  4  5  1  0
  5  6  1  0
  5 17  1  0
  5 18  1  0
  6 11  1  0
  6  7  1  0
  6 19  1  6
  7  8  1  0
  7 20  1  0
  7 21  1  0
  8  9  1  0
  8 13  1  0
  8 22  1  1
  9 10  1  0
  9 23  1  0
  9 24  1  0
 10 11  1  0
 10 12  1  0
 10 25  1  1
 11 26  1  0
 11 27  1  0
 12 28  1  0
 12 29  1  0
 13 30  1  0
 13 31  1  0
M  END
>  <i_m_ct_stereo_status>  (312) 
1

>  <s_m_source_file>  (312) 
/var/tmp/pbs.5076255.sched01/tmpfn0mpy04/132vsilkqhl.sdf

>  <i_m_source_file_index>  (312) 
2

>  <i_lp_mmshare_version>  (312) 
48012

>  <i_f3d_flags>  (312) 
0

>  <s_epik_input>  (312) 
W0NIM11DKD1PKUMxMltDSDJdW0NASF0zW0NIMl1bQ0BASF0oW0NIMl0yKVtDSDJdW0NASF0oW0NIMl0zKVtDSDJdMQ==

>  <s_epik_cmdline>  (312) 
J2VwaWtfcHl0aG9uJywgJy1waHQnLCAnMi4wJywgJy1waCcsICc3LjAnLCAnLXRuJywgJzgnLCAnLW1hJywgJzIwMCcsICctaW1hZScsICc8aW5maWxlLm1hZT4nLCAnLW9tYWUnLCAnPG91dGZpbGUubWFlPic=

>  <r_lp_tautomer_probability>  (312) 
1

>  <r_epik_Ionization_Penalty>  (312) 
5.38073e-14

>  <r_epik_Ionization_Penalty_Charging>  (312) 
0

>  <r_epik_Ionization_Penalty_Neutral>  (312) 
5.38073e-14

>  <r_epik_State_Penalty>  (312) 
-0

>  <r_epik_Charging_Adjusted_Penalty>  (312) 
0

>  <i_epik_Tot_Q>  (312) 
0

>  <i_epik_Tot_abs_Q>  (312) 
0

>  <s_lp_Force_Field>  (312) 
OPLS3e

>  <r_lp_Energy>  (312) 
3.67834

>  <b_lp_Chiralities_Consistent>  (312) 
1

>  <s_lp_Variant>  (312) 
84:0-1

>  <s_i_glide_gridfile>  (312) 
pfpi4k_grid

>  <i_i_glide_lignum>  (312) 
2

>  <i_i_glide_rotatable_bonds>  (312) 
1

>  <r_i_docking_score>  (312) 
-3.99808

>  <r_i_glide_ligand_efficiency>  (312) 
-0.307545

>  <r_i_glide_ligand_efficiency_sa>  (312) 
-0.72314

>  <r_i_glide_ligand_efficiency_ln>  (312) 
-1.1215

>  <r_i_glide_gscore>  (312) 
-3.99808

>  <r_i_glide_lipo>  (312) 
-0.513225

>  <r_i_glide_hbond>  (312) 
0

>  <r_i_glide_metal>  (312) 
-0

>  <r_i_glide_rewards>  (312) 
-2.30462

>  <r_i_glide_evdw>  (312) 
-21.0022

>  <r_i_glide_ecoul>  (312) 
-0.867467

>  <r_i_glide_erotb>  (312) 
0

>  <r_i_glide_esite>  (312) 
0

>  <r_i_glide_emodel>  (312) 
-27.9851

>  <r_i_glide_energy>  (312) 
-21.8697

>  <r_i_glide_einternal>  (312) 
0.207507

>  <r_i_glide_intrahb_reward>  (312) 
-0

>  <i_i_glide_confnum>  (312) 
2

>  <i_i_glide_posenum>  (312) 
26

>  <r_i_glide_eff_state_penalty>  (312) 
0

>  <ligand_id>  (312) 
84

>  <original_smiles>  (312) 
CC(=O)C12CC3CC(CC(C3)C1)C2

>  <smiles>  (312) 
[H]C([H])([H])C(=O)C12C([H])([H])C3([H])C([H])([H])C([H])(C([H])([H])C([H])(C3([H])[H])C1([H])[H])C2([H])[H]

$$$$
84:0:2
     RDKit          3D

 31 33  0  0  1  0  0  0  0  0999 V2000
    3.2249    0.1680    1.4595 C   0  0  0  0  0  0  0  0  0  0  0  0
    4.5256   -0.6268    1.4326 C   0  0  0  0  0  0  0  0  0  0  0  0
    5.4059   -0.3812    2.2555 O   0  0  0  0  0  0  0  0  0  0  0  0
    4.7053   -1.7115    0.3516 C   0  0  2  0  0  0  0  0  0  0  0  0
    3.5213   -2.7194    0.3987 C   0  0  0  0  0  0  0  0  0  0  0  0
    3.6963   -3.7915   -0.6913 C   0  0  1  0  0  0  0  0  0  0  0  0
    3.7349   -3.1079   -2.0757 C   0  0  0  0  0  0  0  0  0  0  0  0
    4.9322   -2.1431   -2.1410 C   0  0  2  0  0  0  0  0  0  0  0  0
    6.2423   -2.9231   -1.9078 C   0  0  0  0  0  0  0  0  0  0  0  0
    6.1960   -3.5824   -0.5125 C   0  0  2  0  0  0  0  0  0  0  0  0
    5.0062   -4.5613   -0.4345 C   0  0  0  0  0  0  0  0  0  0  0  0
    6.0327   -2.4958    0.5723 C   0  0  0  0  0  0  0  0  0  0  0  0
    4.7618   -1.0604   -1.0568 C   0  0  0  0  0  0  0  0  0  0  0  0
    2.5527   -0.1319    0.6577 H   0  0  0  0  0  0  0  0  0  0  0  0
    3.4355    1.2309    1.3413 H   0  0  0  0  0  0  0  0  0  0  0  0
    2.7125    0.0278    2.4101 H   0  0  0  0  0  0  0  0  0  0  0  0
    3.4548   -3.1924    1.3795 H   0  0  0  0  0  0  0  0  0  0  0  0
    2.5651   -2.2250    0.2320 H   0  0  0  0  0  0  0  0  0  0  0  0
    2.8574   -4.4867   -0.6567 H   0  0  0  0  0  0  0  0  0  0  0  0
    3.8125   -3.8576   -2.8663 H   0  0  0  0  0  0  0  0  0  0  0  0
    2.8020   -2.5706   -2.2549 H   0  0  0  0  0  0  0  0  0  0  0  0
    4.9601   -1.6723   -3.1240 H   0  0  0  0  0  0  0  0  0  0  0  0
    6.3689   -3.6811   -2.6823 H   0  0  0  0  0  0  0  0  0  0  0  0
    7.1035   -2.2574   -1.9817 H   0  0  0  0  0  0  0  0  0  0  0  0
    7.1244   -4.1273   -0.3347 H   0  0  0  0  0  0  0  0  0  0  0  0
    4.9748   -5.0368    0.5472 H   0  0  0  0  0  0  0  0  0  0  0  0
    5.1131   -5.3665   -1.1610 H   0  0  0  0  0  0  0  0  0  0  0  0
    6.8918   -1.8225    0.5457 H   0  0  0  0  0  0  0  0  0  0  0  0
    6.0426   -2.9634    1.5592 H   0  0  0  0  0  0  0  0  0  0  0  0
    3.8479   -0.5060   -1.2624 H   0  0  0  0  0  0  0  0  0  0  0  0
    5.5776   -0.3397   -1.1123 H   0  0  0  0  0  0  0  0  0  0  0  0
  1  2  1  0
  1 14  1  0
  1 15  1  0
  1 16  1  0
  2  3  2  0
  4  2  1  1
  4 12  1  0
  4 13  1  0
  4  5  1  0
  5  6  1  0
  5 17  1  0
  5 18  1  0
  6 11  1  0
  6  7  1  0
  6 19  1  6
  7  8  1  0
  7 20  1  0
  7 21  1  0
  8  9  1  0
  8 13  1  0
  8 22  1  6
  9 10  1  0
  9 23  1  0
  9 24  1  0
 10 11  1  0
 10 12  1  0
 10 25  1  1
 11 26  1  0
 11 27  1  0
 12 28  1  0
 12 29  1  0
 13 30  1  0
 13 31  1  0
M  END
>  <i_m_ct_stereo_status>  (313) 
1

>  <s_m_source_file>  (313) 
/var/tmp/pbs.5076255.sched01/tmpfn0mpy04/132vsilkqhl.sdf

>  <i_m_source_file_index>  (313) 
2

>  <i_lp_mmshare_version>  (313) 
48012

>  <i_f3d_flags>  (313) 
0

>  <s_epik_input>  (313) 
W0NIM11DKD1PKUMxMltDSDJdW0NASF0zW0NIMl1bQ0BASF0oW0NIMl0yKVtDSDJdW0NASF0oW0NIMl0zKVtDSDJdMQ==

>  <s_epik_cmdline>  (313) 
J2VwaWtfcHl0aG9uJywgJy1waHQnLCAnMi4wJywgJy1waCcsICc3LjAnLCAnLXRuJywgJzgnLCAnLW1hJywgJzIwMCcsICctaW1hZScsICc8aW5maWxlLm1hZT4nLCAnLW9tYWUnLCAnPG91dGZpbGUubWFlPic=

>  <r_lp_tautomer_probability>  (313) 
1

>  <r_epik_Ionization_Penalty>  (313) 
5.38073e-14

>  <r_epik_Ionization_Penalty_Charging>  (313) 
0

>  <r_epik_Ionization_Penalty_Neutral>  (313) 
5.38073e-14

>  <r_epik_State_Penalty>  (313) 
-0

>  <r_epik_Charging_Adjusted_Penalty>  (313) 
0

>  <i_epik_Tot_Q>  (313) 
0

>  <i_epik_Tot_abs_Q>  (313) 
0

>  <s_lp_Force_Field>  (313) 
OPLS3e

>  <r_lp_Energy>  (313) 
3.67834

>  <b_lp_Chiralities_Consistent>  (313) 
1

>  <s_lp_Variant>  (313) 
84:0-1

>  <s_i_glide_gridfile>  (313) 
pfpi4k_grid

>  <i_i_glide_lignum>  (313) 
2

>  <i_i_glide_rotatable_bonds>  (313) 
1

>  <r_i_docking_score>  (313) 
-3.90349

>  <r_i_glide_ligand_efficiency>  (313) 
-0.300269

>  <r_i_glide_ligand_efficiency_sa>  (313) 
-0.706032

>  <r_i_glide_ligand_efficiency_ln>  (313) 
-1.09496

>  <r_i_glide_gscore>  (313) 
-3.90349

>  <r_i_glide_lipo>  (313) 
-0.280776

>  <r_i_glide_hbond>  (313) 
-0.113283

>  <r_i_glide_metal>  (313) 
-0

>  <r_i_glide_rewards>  (313) 
-2.34027

>  <r_i_glide_evdw>  (313) 
-19.5858

>  <r_i_glide_ecoul>  (313) 
-1.26582

>  <r_i_glide_erotb>  (313) 
0

>  <r_i_glide_esite>  (313) 
0

>  <r_i_glide_emodel>  (313) 
-26.8567

>  <r_i_glide_energy>  (313) 
-20.8516

>  <r_i_glide_einternal>  (313) 
0.153058

>  <r_i_glide_intrahb_reward>  (313) 
-0

>  <i_i_glide_confnum>  (313) 
1

>  <i_i_glide_posenum>  (313) 
3

>  <r_i_glide_eff_state_penalty>  (313) 
0

>  <ligand_id>  (313) 
84

>  <original_smiles>  (313) 
CC(=O)C12CC3CC(CC(C3)C1)C2

>  <smiles>  (313) 
[H]C([H])([H])C(=O)C12C([H])([H])C3([H])C([H])([H])C([H])(C([H])([H])C([H])(C3([H])[H])C1([H])[H])C2([H])[H]

$$$$
85:0:0
     RDKit          3D

 49 54  0  0  1  0  0  0  0  0999 V2000
    4.8597   -3.9812    2.9160 C   0  0  0  0  0  0  0  0  0  0  0  0
    4.3640   -2.5271    3.1453 C   0  0  2  0  0  0  0  0  0  0  0  0
    5.4198   -1.5453    2.6552 C   0  0  0  0  0  0  0  0  0  0  0  0
    5.8028   -0.4866    3.3946 C   0  0  0  0  0  0  0  0  0  0  0  0
    5.1819   -0.1398    4.6840 C   0  0  0  0  0  0  0  0  0  0  0  0
    5.4425    0.8963    5.2860 O   0  0  0  0  0  0  0  0  0  0  0  0
    4.2501   -1.0160    5.1253 O   0  0  0  0  0  0  0  0  0  0  0  0
    4.2362   -2.3719    4.6971 C   0  0  1  0  0  0  0  0  0  0  0  0
    3.0870   -3.1198    5.3460 C   0  0  0  0  0  0  0  0  0  0  0  0
    1.7802   -2.6402    5.6622 C   0  0  0  0  0  0  0  0  0  0  0  0
    1.1170   -3.6670    6.2735 C   0  0  0  0  0  0  0  0  0  0  0  0
    1.9116   -4.7627    6.3651 O   0  0  0  0  0  0  0  0  0  0  0  0
    3.0964   -4.4146    5.7950 C   0  0  0  0  0  0  0  0  0  0  0  0
    6.0989   -1.8120    1.3556 C   0  0  2  0  0  0  0  0  0  0  0  0
    5.7931   -0.8589    0.3269 O   0  0  0  0  0  0  0  0  0  0  0  0
    5.4524   -2.2217    0.0497 C   0  0  1  0  0  0  0  0  0  0  0  0
    6.3214   -2.8084   -1.0547 C   0  0  0  0  0  0  0  0  0  0  0  0
    5.8327   -2.6674   -2.3916 O   0  0  0  0  0  0  0  0  0  0  0  0
    4.5555   -2.3465   -2.7125 C   0  0  0  0  0  0  0  0  0  0  0  0
    4.1253   -2.3933   -3.8615 O   0  0  0  0  0  0  0  0  0  0  0  0
    3.6678   -1.8530   -1.5605 C   0  0  0  0  0  0  0  0  0  0  0  0
    3.9648   -2.5179   -0.1989 C   0  0  1  0  0  0  0  0  0  0  0  0
    3.6584   -4.0387   -0.3209 C   0  0  0  0  0  0  0  0  0  0  0  0
    2.9952   -1.9442    0.8701 C   0  0  2  0  0  0  0  0  0  0  0  0
    2.8771   -0.4428    1.1950 C   0  0  0  0  0  0  0  0  0  0  0  0
    2.3359   -0.8557    2.5601 C   0  0  0  0  0  0  0  0  0  0  0  0
    3.0362   -2.2291    2.3978 C   0  0  2  0  0  0  0  0  0  0  0  0
    4.0809   -4.7118    3.1350 H   0  0  0  0  0  0  0  0  0  0  0  0
    5.7072   -4.2086    3.5634 H   0  0  0  0  0  0  0  0  0  0  0  0
    5.2113   -4.1812    1.9080 H   0  0  0  0  0  0  0  0  0  0  0  0
    6.5898    0.1522    3.0438 H   0  0  0  0  0  0  0  0  0  0  0  0
    5.1361   -2.8019    5.1389 H   0  0  0  0  0  0  0  0  0  0  0  0
    1.3794   -1.6524    5.4851 H   0  0  0  0  0  0  0  0  0  0  0  0
    0.1304   -3.7843    6.6964 H   0  0  0  0  0  0  0  0  0  0  0  0
    3.8459   -5.1933    5.8118 H   0  0  0  0  0  0  0  0  0  0  0  0
    7.1580   -2.0076    1.4643 H   0  0  0  0  0  0  0  0  0  0  0  0
    7.2989   -2.3257   -1.0089 H   0  0  0  0  0  0  0  0  0  0  0  0
    6.5015   -3.8637   -0.8418 H   0  0  0  0  0  0  0  0  0  0  0  0
    3.8132   -0.7762   -1.4751 H   0  0  0  0  0  0  0  0  0  0  0  0
    2.6215   -1.9990   -1.8340 H   0  0  0  0  0  0  0  0  0  0  0  0
    2.7172   -4.1927   -0.8510 H   0  0  0  0  0  0  0  0  0  0  0  0
    3.5259   -4.5228    0.6422 H   0  0  0  0  0  0  0  0  0  0  0  0
    4.4113   -4.5999   -0.8704 H   0  0  0  0  0  0  0  0  0  0  0  0
    1.9941   -2.2580    0.5609 H   0  0  0  0  0  0  0  0  0  0  0  0
    3.8187    0.0968    1.2599 H   0  0  0  0  0  0  0  0  0  0  0  0
    2.1654    0.1099    0.5822 H   0  0  0  0  0  0  0  0  0  0  0  0
    2.6862   -0.2162    3.3633 H   0  0  0  0  0  0  0  0  0  0  0  0
    1.2459   -0.9237    2.5694 H   0  0  0  0  0  0  0  0  0  0  0  0
    2.2998   -3.0010    2.6196 H   0  0  0  0  0  0  0  0  0  0  0  0
  2  1  1  1
  1 28  1  0
  1 29  1  0
  1 30  1  0
  2  8  1  0
  2 27  1  0
  2  3  1  0
  3  4  2  0
  3 14  1  0
  4  5  1  0
  4 31  1  0
  5  6  2  0
  5  7  1  0
  7  8  1  0
  8  9  1  0
  8 32  1  1
  9 13  2  0
  9 10  1  0
 10 11  2  0
 10 33  1  0
 11 12  1  0
 11 34  1  0
 12 13  1  0
 13 35  1  0
 14 16  1  0
 14 15  1  0
 14 36  1  1
 16 15  1  6
 16 22  1  0
 16 17  1  0
 17 18  1  0
 17 37  1  0
 17 38  1  0
 18 19  1  0
 19 20  2  0
 19 21  1  0
 21 22  1  0
 21 39  1  0
 21 40  1  0
 22 23  1  6
 22 24  1  0
 23 41  1  0
 23 42  1  0
 23 43  1  0
 24 27  1  0
 24 25  1  0
 24 44  1  6
 25 26  1  0
 25 45  1  0
 25 46  1  0
 26 27  1  0
 26 47  1  0
 26 48  1  0
 27 49  1  6
M  END
>  <i_m_ct_stereo_status>  (314) 
1

>  <s_m_source_file>  (314) 
/var/tmp/pbs.5076255.sched01/tmpfn0mpy04/132vsilkqhl.sdf

>  <i_m_source_file_index>  (314) 
3

>  <i_lp_mmshare_version>  (314) 
48012

>  <i_f3d_flags>  (314) 
0

>  <s_epik_input>  (314) 
W2NIXTFvW2NIXVtjSF1jMVtDQEhdKE9DKD1PKVtDSF0yKVtDQF0oW0NIM10pKEM9MltDQEhdKE8zKVtDQEBdMzQ1KVtDQEBIXTZbQ0BASF0oW0NIMl1bQ0gyXTYpW0NAQF01KFtDSDNdKVtDSDJdQyg9TylPW0NIMl00

>  <s_epik_cmdline>  (314) 
J2VwaWtfcHl0aG9uJywgJy1waHQnLCAnMi4wJywgJy1waCcsICc3LjAnLCAnLXRuJywgJzgnLCAnLW1hJywgJzIwMCcsICctaW1hZScsICc8aW5maWxlLm1hZT4nLCAnLW9tYWUnLCAnPG91dGZpbGUubWFlPic=

>  <r_lp_tautomer_probability>  (314) 
1

>  <r_epik_Ionization_Penalty>  (314) 
2.52842e-10

>  <r_epik_Ionization_Penalty_Charging>  (314) 
0

>  <r_epik_Ionization_Penalty_Neutral>  (314) 
2.52842e-10

>  <r_epik_State_Penalty>  (314) 
-0

>  <r_epik_Charging_Adjusted_Penalty>  (314) 
0

>  <i_epik_Tot_Q>  (314) 
0

>  <i_epik_Tot_abs_Q>  (314) 
0

>  <s_epik_Chemistry_Notes>  (314) 
This compound has an ester and may undergo hydrolysis at high or low pH.

>  <s_lp_Force_Field>  (314) 
OPLS3e

>  <r_lp_Energy>  (314) 
59.9636

>  <b_lp_Chiralities_Consistent>  (314) 
1

>  <s_lp_Variant>  (314) 
85:0-1

>  <s_i_glide_gridfile>  (314) 
pfpi4k_grid

>  <i_i_glide_lignum>  (314) 
3

>  <i_i_glide_rotatable_bonds>  (314) 
1

>  <r_i_docking_score>  (314) 
-3.16547

>  <r_i_glide_ligand_efficiency>  (314) 
-0.11724

>  <r_i_glide_ligand_efficiency_sa>  (314) 
-0.351719

>  <r_i_glide_ligand_efficiency_ln>  (314) 
-0.736869

>  <r_i_glide_gscore>  (314) 
-3.16547

>  <r_i_glide_lipo>  (314) 
-0.460959

>  <r_i_glide_hbond>  (314) 
-0.124786

>  <r_i_glide_metal>  (314) 
-0

>  <r_i_glide_rewards>  (314) 
-1.17045

>  <r_i_glide_evdw>  (314) 
-25.8377

>  <r_i_glide_ecoul>  (314) 
-1.72002

>  <r_i_glide_erotb>  (314) 
0.140617

>  <r_i_glide_esite>  (314) 
0

>  <r_i_glide_emodel>  (314) 
-33.6404

>  <r_i_glide_energy>  (314) 
-27.5577

>  <r_i_glide_einternal>  (314) 
0.0130364

>  <r_i_glide_intrahb_reward>  (314) 
-0

>  <i_i_glide_confnum>  (314) 
1

>  <i_i_glide_posenum>  (314) 
5

>  <r_i_glide_eff_state_penalty>  (314) 
0

>  <ligand_id>  (314) 
85

>  <original_smiles>  (314) 
CC12C(=CC(=O)OC1c1ccoc1)C1OC13COC(=O)CC3(C)C1CCC12

>  <smiles>  (314) 
[H]C1=C2C3([H])OC34C([H])([H])OC(=O)C([H])([H])C4(C([H])([H])[H])C3([H])C([H])([H])C([H])([H])C3([H])C2(C([H])([H])[H])C([H])(c2c([H])oc([H])c2[H])OC1=O

$$$$
85:0:1
     RDKit          3D

 49 54  0  0  1  0  0  0  0  0999 V2000
    2.9061   -6.0935    0.7030 C   0  0  0  0  0  0  0  0  0  0  0  0
    3.4706   -5.1669    1.8106 C   0  0  2  0  0  0  0  0  0  0  0  0
    4.9599   -4.9505    1.5657 C   0  0  0  0  0  0  0  0  0  0  0  0
    5.8662   -5.0563    2.5571 C   0  0  0  0  0  0  0  0  0  0  0  0
    5.4845   -5.2939    3.9621 C   0  0  0  0  0  0  0  0  0  0  0  0
    6.2879   -5.2354    4.8857 O   0  0  0  0  0  0  0  0  0  0  0  0
    4.1648   -5.4981    4.1735 O   0  0  0  0  0  0  0  0  0  0  0  0
    3.3049   -5.9691    3.1438 C   0  0  1  0  0  0  0  0  0  0  0  0
    1.8837   -6.1164    3.6616 C   0  0  0  0  0  0  0  0  0  0  0  0
    1.3008   -5.5156    4.8164 C   0  0  0  0  0  0  0  0  0  0  0  0
    0.0208   -5.9852    4.9098 C   0  0  0  0  0  0  0  0  0  0  0  0
   -0.2548   -6.8287    3.8838 O   0  0  0  0  0  0  0  0  0  0  0  0
    0.8864   -6.9076    3.1482 C   0  0  0  0  0  0  0  0  0  0  0  0
    5.4152   -4.6750    0.1775 C   0  0  2  0  0  0  0  0  0  0  0  0
    5.9160   -3.3433   -0.0166 O   0  0  0  0  0  0  0  0  0  0  0  0
    4.7932   -3.7154   -0.8254 C   0  0  1  0  0  0  0  0  0  0  0  0
    5.1675   -3.8360   -2.2968 C   0  0  0  0  0  0  0  0  0  0  0  0
    5.0233   -2.6639   -3.1030 O   0  0  0  0  0  0  0  0  0  0  0  0
    4.3188   -1.5708   -2.7345 C   0  0  0  0  0  0  0  0  0  0  0  0
    4.0806   -0.6447   -3.5027 O   0  0  0  0  0  0  0  0  0  0  0  0
    3.8751   -1.5038   -1.2683 C   0  0  0  0  0  0  0  0  0  0  0  0
    3.5180   -2.8716   -0.6534 C   0  0  1  0  0  0  0  0  0  0  0  0
    2.3128   -3.4553   -1.4416 C   0  0  0  0  0  0  0  0  0  0  0  0
    3.0566   -2.6550    0.8143 C   0  0  2  0  0  0  0  0  0  0  0  0
    3.9183   -1.9606    1.8796 C   0  0  0  0  0  0  0  0  0  0  0  0
    3.1176   -2.7347    2.9259 C   0  0  0  0  0  0  0  0  0  0  0  0
    2.7620   -3.7831    1.8465 C   0  0  2  0  0  0  0  0  0  0  0  0
    1.8213   -6.1781    0.7476 H   0  0  0  0  0  0  0  0  0  0  0  0
    3.3176   -7.0999    0.8024 H   0  0  0  0  0  0  0  0  0  0  0  0
    3.1485   -5.7861   -0.3084 H   0  0  0  0  0  0  0  0  0  0  0  0
    6.9139   -4.9123    2.3523 H   0  0  0  0  0  0  0  0  0  0  0  0
    3.6438   -6.9884    2.9565 H   0  0  0  0  0  0  0  0  0  0  0  0
    1.7713   -4.8421    5.5201 H   0  0  0  0  0  0  0  0  0  0  0  0
   -0.7871   -5.8394    5.6117 H   0  0  0  0  0  0  0  0  0  0  0  0
    0.8289   -7.5864    2.3098 H   0  0  0  0  0  0  0  0  0  0  0  0
    6.0720   -5.4510   -0.2049 H   0  0  0  0  0  0  0  0  0  0  0  0
    6.2104   -4.1446   -2.3573 H   0  0  0  0  0  0  0  0  0  0  0  0
    4.6033   -4.6536   -2.7477 H   0  0  0  0  0  0  0  0  0  0  0  0
    4.6850   -1.0494   -0.6992 H   0  0  0  0  0  0  0  0  0  0  0  0
    3.0228   -0.8302   -1.1970 H   0  0  0  0  0  0  0  0  0  0  0  0
    1.5734   -2.6896   -1.6458 H   0  0  0  0  0  0  0  0  0  0  0  0
    1.7932   -4.2373   -0.8960 H   0  0  0  0  0  0  0  0  0  0  0  0
    2.5675   -3.8560   -2.4188 H   0  0  0  0  0  0  0  0  0  0  0  0
    2.1515   -2.0432    0.7748 H   0  0  0  0  0  0  0  0  0  0  0  0
    4.9677   -2.2445    1.8776 H   0  0  0  0  0  0  0  0  0  0  0  0
    3.7975   -0.8779    1.9316 H   0  0  0  0  0  0  0  0  0  0  0  0
    3.7192   -3.0837    3.7579 H   0  0  0  0  0  0  0  0  0  0  0  0
    2.2518   -2.1718    3.2826 H   0  0  0  0  0  0  0  0  0  0  0  0
    1.6883   -3.9303    1.8987 H   0  0  0  0  0  0  0  0  0  0  0  0
  2  1  1  6
  1 28  1  0
  1 29  1  0
  1 30  1  0
  2  8  1  0
  2 27  1  0
  2  3  1  0
  3  4  2  0
  3 14  1  0
  4  5  1  0
  4 31  1  0
  5  6  2  0
  5  7  1  0
  7  8  1  0
  8  9  1  0
  8 32  1  6
  9 13  2  0
  9 10  1  0
 10 11  2  0
 10 33  1  0
 11 12  1  0
 11 34  1  0
 12 13  1  0
 13 35  1  0
 14 16  1  0
 14 15  1  0
 14 36  1  6
 16 15  1  1
 16 22  1  0
 16 17  1  0
 17 18  1  0
 17 37  1  0
 17 38  1  0
 18 19  1  0
 19 20  2  0
 19 21  1  0
 21 22  1  0
 21 39  1  0
 21 40  1  0
 22 23  1  6
 22 24  1  0
 23 41  1  0
 23 42  1  0
 23 43  1  0
 24 27  1  0
 24 25  1  0
 24 44  1  6
 25 26  1  0
 25 45  1  0
 25 46  1  0
 26 27  1  0
 26 47  1  0
 26 48  1  0
 27 49  1  1
M  END
>  <i_m_ct_stereo_status>  (315) 
1

>  <s_m_source_file>  (315) 
/var/tmp/pbs.5076255.sched01/tmpfn0mpy04/132vsilkqhl.sdf

>  <i_m_source_file_index>  (315) 
3

>  <i_lp_mmshare_version>  (315) 
48012

>  <i_f3d_flags>  (315) 
0

>  <s_epik_input>  (315) 
W2NIXTFvW2NIXVtjSF1jMVtDQEhdKE9DKD1PKVtDSF0yKVtDQF0oW0NIM10pKEM9MltDQEhdKE8zKVtDQEBdMzQ1KVtDQEBIXTZbQ0BASF0oW0NIMl1bQ0gyXTYpW0NAQF01KFtDSDNdKVtDSDJdQyg9TylPW0NIMl00

>  <s_epik_cmdline>  (315) 
J2VwaWtfcHl0aG9uJywgJy1waHQnLCAnMi4wJywgJy1waCcsICc3LjAnLCAnLXRuJywgJzgnLCAnLW1hJywgJzIwMCcsICctaW1hZScsICc8aW5maWxlLm1hZT4nLCAnLW9tYWUnLCAnPG91dGZpbGUubWFlPic=

>  <r_lp_tautomer_probability>  (315) 
1

>  <r_epik_Ionization_Penalty>  (315) 
2.52842e-10

>  <r_epik_Ionization_Penalty_Charging>  (315) 
0

>  <r_epik_Ionization_Penalty_Neutral>  (315) 
2.52842e-10

>  <r_epik_State_Penalty>  (315) 
-0

>  <r_epik_Charging_Adjusted_Penalty>  (315) 
0

>  <i_epik_Tot_Q>  (315) 
0

>  <i_epik_Tot_abs_Q>  (315) 
0

>  <s_epik_Chemistry_Notes>  (315) 
This compound has an ester and may undergo hydrolysis at high or low pH.

>  <s_lp_Force_Field>  (315) 
OPLS3e

>  <r_lp_Energy>  (315) 
59.9636

>  <b_lp_Chiralities_Consistent>  (315) 
1

>  <s_lp_Variant>  (315) 
85:0-1

>  <s_i_glide_gridfile>  (315) 
pfpi4k_grid

>  <i_i_glide_lignum>  (315) 
3

>  <i_i_glide_rotatable_bonds>  (315) 
1

>  <r_i_docking_score>  (315) 
-2.77379

>  <r_i_glide_ligand_efficiency>  (315) 
-0.102733

>  <r_i_glide_ligand_efficiency_sa>  (315) 
-0.308198

>  <r_i_glide_ligand_efficiency_ln>  (315) 
-0.645691

>  <r_i_glide_gscore>  (315) 
-2.77379

>  <r_i_glide_lipo>  (315) 
-0.252187

>  <r_i_glide_hbond>  (315) 
0

>  <r_i_glide_metal>  (315) 
-0

>  <r_i_glide_rewards>  (315) 
-0.885495

>  <r_i_glide_evdw>  (315) 
-26.2863

>  <r_i_glide_ecoul>  (315) 
-2.97934

>  <r_i_glide_erotb>  (315) 
0.140617

>  <r_i_glide_esite>  (315) 
-0.0155066

>  <r_i_glide_emodel>  (315) 
-34.511

>  <r_i_glide_energy>  (315) 
-29.2656

>  <r_i_glide_einternal>  (315) 
0.0452994

>  <r_i_glide_intrahb_reward>  (315) 
-0

>  <i_i_glide_confnum>  (315) 
3

>  <i_i_glide_posenum>  (315) 
17

>  <r_i_glide_eff_state_penalty>  (315) 
0

>  <ligand_id>  (315) 
85

>  <original_smiles>  (315) 
CC12C(=CC(=O)OC1c1ccoc1)C1OC13COC(=O)CC3(C)C1CCC12

>  <smiles>  (315) 
[H]C1=C2C3([H])OC34C([H])([H])OC(=O)C([H])([H])C4(C([H])([H])[H])C3([H])C([H])([H])C([H])([H])C3([H])C2(C([H])([H])[H])C([H])(c2c([H])oc([H])c2[H])OC1=O

$$$$
85:0:2
     RDKit          3D

 49 54  0  0  1  0  0  0  0  0999 V2000
    2.6853    0.2777    1.7021 C   0  0  0  0  0  0  0  0  0  0  0  0
    2.7294   -0.5948    2.9893 C   0  0  2  0  0  0  0  0  0  0  0  0
    3.2098    0.2790    4.1473 C   0  0  0  0  0  0  0  0  0  0  0  0
    4.1533   -0.1286    5.0144 C   0  0  0  0  0  0  0  0  0  0  0  0
    4.7320   -1.4828    4.9793 C   0  0  0  0  0  0  0  0  0  0  0  0
    5.4675   -1.9099    5.8596 O   0  0  0  0  0  0  0  0  0  0  0  0
    4.3285   -2.2553    3.9395 O   0  0  0  0  0  0  0  0  0  0  0  0
    3.8138   -1.6989    2.7302 C   0  0  1  0  0  0  0  0  0  0  0  0
    3.4326   -2.8059    1.7517 C   0  0  0  0  0  0  0  0  0  0  0  0
    3.4857   -4.2175    1.9709 C   0  0  0  0  0  0  0  0  0  0  0  0
    3.1051   -4.8224    0.8051 C   0  0  0  0  0  0  0  0  0  0  0  0
    2.8109   -3.8975   -0.1379 O   0  0  0  0  0  0  0  0  0  0  0  0
    3.0282   -2.6896    0.4438 C   0  0  0  0  0  0  0  0  0  0  0  0
    2.6506    1.6489    4.2675 C   0  0  2  0  0  0  0  0  0  0  0  0
    1.8029    1.8284    5.4096 O   0  0  0  0  0  0  0  0  0  0  0  0
    1.1936    2.0610    4.1361 C   0  0  1  0  0  0  0  0  0  0  0  0
    0.8639    3.5341    3.9265 C   0  0  0  0  0  0  0  0  0  0  0  0
   -0.4261    3.9644    4.3584 O   0  0  0  0  0  0  0  0  0  0  0  0
   -1.4454    3.1281    4.6316 C   0  0  0  0  0  0  0  0  0  0  0  0
   -2.5828    3.5254    4.8382 O   0  0  0  0  0  0  0  0  0  0  0  0
   -1.1238    1.6345    4.7446 C   0  0  0  0  0  0  0  0  0  0  0  0
   -0.0141    1.1624    3.7899 C   0  0  1  0  0  0  0  0  0  0  0  0
   -0.5121    1.3547    2.3296 C   0  0  0  0  0  0  0  0  0  0  0  0
    0.2000   -0.3587    4.0005 C   0  0  2  0  0  0  0  0  0  0  0  0
    0.5509   -0.9864    5.3577 C   0  0  0  0  0  0  0  0  0  0  0  0
    1.1765   -2.1393    4.5743 C   0  0  0  0  0  0  0  0  0  0  0  0
    1.3387   -1.1994    3.3550 C   0  0  2  0  0  0  0  0  0  0  0  0
    2.1839   -0.2311    0.8860 H   0  0  0  0  0  0  0  0  0  0  0  0
    3.6949    0.5338    1.3740 H   0  0  0  0  0  0  0  0  0  0  0  0
    2.1636    1.2238    1.8122 H   0  0  0  0  0  0  0  0  0  0  0  0
    4.4841    0.5194    5.8099 H   0  0  0  0  0  0  0  0  0  0  0  0
    4.6779   -1.2093    2.2792 H   0  0  0  0  0  0  0  0  0  0  0  0
    3.7963   -4.7384    2.8663 H   0  0  0  0  0  0  0  0  0  0  0  0
    3.0107   -5.8454    0.4706 H   0  0  0  0  0  0  0  0  0  0  0  0
    2.8617   -1.8661   -0.2366 H   0  0  0  0  0  0  0  0  0  0  0  0
    3.4066    2.4203    4.1450 H   0  0  0  0  0  0  0  0  0  0  0  0
    1.6019    4.1302    4.4665 H   0  0  0  0  0  0  0  0  0  0  0  0
    0.9938    3.7830    2.8723 H   0  0  0  0  0  0  0  0  0  0  0  0
   -0.8278    1.4552    5.7767 H   0  0  0  0  0  0  0  0  0  0  0  0
   -2.0410    1.0696    4.5765 H   0  0  0  0  0  0  0  0  0  0  0  0
   -1.5441    1.0157    2.2259 H   0  0  0  0  0  0  0  0  0  0  0  0
    0.0559    0.7755    1.6078 H   0  0  0  0  0  0  0  0  0  0  0  0
   -0.4978    2.3899    1.9986 H   0  0  0  0  0  0  0  0  0  0  0  0
   -0.7343   -0.8495    3.7112 H   0  0  0  0  0  0  0  0  0  0  0  0
    1.2925   -0.4421    5.9381 H   0  0  0  0  0  0  0  0  0  0  0  0
   -0.3050   -1.2723    5.9686 H   0  0  0  0  0  0  0  0  0  0  0  0
    2.0912   -2.5143    5.0206 H   0  0  0  0  0  0  0  0  0  0  0  0
    0.4701   -2.9535    4.3987 H   0  0  0  0  0  0  0  0  0  0  0  0
    0.9243   -1.7123    2.4893 H   0  0  0  0  0  0  0  0  0  0  0  0
  2  1  1  6
  1 28  1  0
  1 29  1  0
  1 30  1  0
  2  8  1  0
  2 27  1  0
  2  3  1  0
  3  4  2  0
  3 14  1  0
  4  5  1  0
  4 31  1  0
  5  6  2  0
  5  7  1  0
  7  8  1  0
  8  9  1  0
  8 32  1  6
  9 13  2  0
  9 10  1  0
 10 11  2  0
 10 33  1  0
 11 12  1  0
 11 34  1  0
 12 13  1  0
 13 35  1  0
 14 16  1  0
 14 15  1  0
 14 36  1  1
 16 15  1  1
 16 22  1  0
 16 17  1  0
 17 18  1  0
 17 37  1  0
 17 38  1  0
 18 19  1  0
 19 20  2  0
 19 21  1  0
 21 22  1  0
 21 39  1  0
 21 40  1  0
 22 23  1  6
 22 24  1  0
 23 41  1  0
 23 42  1  0
 23 43  1  0
 24 27  1  0
 24 25  1  0
 24 44  1  6
 25 26  1  0
 25 45  1  0
 25 46  1  0
 26 27  1  0
 26 47  1  0
 26 48  1  0
 27 49  1  6
M  END
>  <i_m_ct_stereo_status>  (316) 
1

>  <s_m_source_file>  (316) 
/var/tmp/pbs.5076255.sched01/tmpfn0mpy04/132vsilkqhl.sdf

>  <i_m_source_file_index>  (316) 
3

>  <i_lp_mmshare_version>  (316) 
48012

>  <i_f3d_flags>  (316) 
0

>  <s_epik_input>  (316) 
W2NIXTFvW2NIXVtjSF1jMVtDQEhdKE9DKD1PKVtDSF0yKVtDQF0oW0NIM10pKEM9MltDQEhdKE8zKVtDQEBdMzQ1KVtDQEBIXTZbQ0BASF0oW0NIMl1bQ0gyXTYpW0NAQF01KFtDSDNdKVtDSDJdQyg9TylPW0NIMl00

>  <s_epik_cmdline>  (316) 
J2VwaWtfcHl0aG9uJywgJy1waHQnLCAnMi4wJywgJy1waCcsICc3LjAnLCAnLXRuJywgJzgnLCAnLW1hJywgJzIwMCcsICctaW1hZScsICc8aW5maWxlLm1hZT4nLCAnLW9tYWUnLCAnPG91dGZpbGUubWFlPic=

>  <r_lp_tautomer_probability>  (316) 
1

>  <r_epik_Ionization_Penalty>  (316) 
2.52842e-10

>  <r_epik_Ionization_Penalty_Charging>  (316) 
0

>  <r_epik_Ionization_Penalty_Neutral>  (316) 
2.52842e-10

>  <r_epik_State_Penalty>  (316) 
-0

>  <r_epik_Charging_Adjusted_Penalty>  (316) 
0

>  <i_epik_Tot_Q>  (316) 
0

>  <i_epik_Tot_abs_Q>  (316) 
0

>  <s_epik_Chemistry_Notes>  (316) 
This compound has an ester and may undergo hydrolysis at high or low pH.

>  <s_lp_Force_Field>  (316) 
OPLS3e

>  <r_lp_Energy>  (316) 
59.9636

>  <b_lp_Chiralities_Consistent>  (316) 
1

>  <s_lp_Variant>  (316) 
85:0-1

>  <s_i_glide_gridfile>  (316) 
pfpi4k_grid

>  <i_i_glide_lignum>  (316) 
3

>  <i_i_glide_rotatable_bonds>  (316) 
1

>  <r_i_docking_score>  (316) 
-2.62393

>  <r_i_glide_ligand_efficiency>  (316) 
-0.0971827

>  <r_i_glide_ligand_efficiency_sa>  (316) 
-0.291548

>  <r_i_glide_ligand_efficiency_ln>  (316) 
-0.610809

>  <r_i_glide_gscore>  (316) 
-2.62393

>  <r_i_glide_lipo>  (316) 
-0.00563889

>  <r_i_glide_hbond>  (316) 
0

>  <r_i_glide_metal>  (316) 
-0

>  <r_i_glide_rewards>  (316) 
-0.917386

>  <r_i_glide_evdw>  (316) 
-25.3069

>  <r_i_glide_ecoul>  (316) 
-3.67286

>  <r_i_glide_erotb>  (316) 
0.140617

>  <r_i_glide_esite>  (316) 
-0.0252533

>  <r_i_glide_emodel>  (316) 
-33.7381

>  <r_i_glide_energy>  (316) 
-28.9797

>  <r_i_glide_einternal>  (316) 
0.264592

>  <r_i_glide_intrahb_reward>  (316) 
-0

>  <i_i_glide_confnum>  (316) 
3

>  <i_i_glide_posenum>  (316) 
7

>  <r_i_glide_eff_state_penalty>  (316) 
0

>  <ligand_id>  (316) 
85

>  <original_smiles>  (316) 
CC12C(=CC(=O)OC1c1ccoc1)C1OC13COC(=O)CC3(C)C1CCC12

>  <smiles>  (316) 
[H]C1=C2C3([H])OC34C([H])([H])OC(=O)C([H])([H])C4(C([H])([H])[H])C3([H])C([H])([H])C([H])([H])C3([H])C2(C([H])([H])[H])C([H])(c2c([H])oc([H])c2[H])OC1=O

$$$$
86:0:0
     RDKit          3D

 95100  0  0  1  0  0  0  0  0999 V2000
    1.4291   -6.1406    0.7539 C   0  0  0  0  0  0  0  0  0  0  0  0
    2.6983   -6.5909    1.5187 C   0  0  0  0  0  0  0  0  0  0  0  0
    3.8679   -6.1560    0.6066 C   0  0  0  0  0  0  0  0  0  0  0  0
    2.6944   -5.7844    2.8667 C   0  0  0  0  0  0  0  0  0  0  0  0
    3.9447   -5.6695    3.8401 C   0  0  1  0  0  0  0  0  0  0  0  0
    3.8986   -4.1976    4.3021 C   0  0  0  0  0  0  0  0  0  0  0  0
    4.5249   -3.2197    3.6318 C   0  0  0  0  0  0  0  0  0  0  0  0
    4.3637   -1.7360    3.9167 C   0  0  0  0  0  0  0  0  0  0  0  0
    3.3199   -1.3694    5.0210 C   0  0  1  0  0  0  0  0  0  0  0  0
    2.6610    0.0272    4.8045 C   0  0  0  0  0  0  0  0  0  0  0  0
    1.3559    0.0831    3.9369 C   0  0  1  0  0  0  0  0  0  0  0  0
    1.4214    0.6420    2.4754 C   0  0  0  0  0  0  0  0  0  0  0  0
    0.0315    1.0117    1.9121 C   0  0  0  0  0  0  0  0  0  0  0  0
    2.3043    1.8887    2.3461 C   0  0  0  0  0  0  0  0  0  0  0  0
    1.9433   -0.3752    1.6826 O   0  0  0  0  0  0  0  0  0  0  0  0
    0.4738   -1.1821    4.1192 C   0  0  0  0  0  0  0  0  0  0  0  0
    1.2499   -2.5010    4.1975 C   0  0  0  0  0  0  0  0  0  0  0  0
    2.2855   -2.4892    5.3390 C   0  0  2  0  0  0  0  0  0  0  0  0
    1.5742   -2.1595    6.6826 C   0  0  0  0  0  0  0  0  0  0  0  0
    3.0343   -3.8482    5.5072 C   0  0  1  0  0  0  0  0  0  0  0  0
    2.1852   -5.0498    5.9710 C   0  0  0  0  0  0  0  0  0  0  0  0
    2.9299   -6.4107    6.0485 C   0  0  0  0  0  0  0  0  0  0  0  0
    4.1629   -6.6613    5.1092 C   0  0  2  0  0  0  0  0  0  0  0  0
    5.3944   -6.0401    5.8819 C   0  0  0  0  0  0  0  0  0  0  0  0
    4.4964   -8.3038    4.9425 C   0  0  1  0  0  0  0  0  0  0  0  0
    5.9261   -8.6669    5.4964 C   0  0  0  0  0  0  0  0  0  0  0  0
    3.5747   -9.2637    5.8229 C   0  0  0  0  0  0  0  0  0  0  0  0
    2.2198   -9.7418    5.2109 C   0  0  0  0  0  0  0  0  0  0  0  0
    2.2080   -9.9026    3.6662 C   0  0  2  0  0  0  0  0  0  0  0  0
    0.7569  -10.1431    3.2002 C   0  0  0  0  0  0  0  0  0  0  0  0
    3.1149  -11.0485    3.2552 C   0  0  0  0  0  0  0  0  0  0  0  0
    4.5164  -10.4791    3.3922 C   0  0  0  0  0  0  0  0  0  0  0  0
    4.4103   -8.9027    3.4781 C   0  0  2  0  0  0  0  0  0  0  0  0
    5.5869   -8.4039    2.5681 C   0  0  0  0  0  0  0  0  0  0  0  0
    5.5334   -8.8105    1.2168 O   0  0  0  0  0  0  0  0  0  0  0  0
    2.9209   -8.6570    3.1005 C   0  0  1  0  0  0  0  0  0  0  0  0
    2.5881   -8.1413    1.6867 C   0  0  0  0  0  0  0  0  0  0  0  0
    1.4601   -5.0773    0.5290 H   0  0  0  0  0  0  0  0  0  0  0  0
    0.5184   -6.3436    1.3179 H   0  0  0  0  0  0  0  0  0  0  0  0
    1.3283   -6.6521   -0.2055 H   0  0  0  0  0  0  0  0  0  0  0  0
    4.8420   -6.2568    1.0648 H   0  0  0  0  0  0  0  0  0  0  0  0
    3.7794   -5.1082    0.3199 H   0  0  0  0  0  0  0  0  0  0  0  0
    3.8933   -6.7307   -0.3186 H   0  0  0  0  0  0  0  0  0  0  0  0
    2.4981   -4.7694    2.5304 H   0  0  0  0  0  0  0  0  0  0  0  0
    1.7833   -6.0184    3.4122 H   0  0  0  0  0  0  0  0  0  0  0  0
    4.8413   -5.6802    3.2421 H   0  0  0  0  0  0  0  0  0  0  0  0
    5.1473   -3.4504    2.7775 H   0  0  0  0  0  0  0  0  0  0  0  0
    5.3381   -1.3290    4.1943 H   0  0  0  0  0  0  0  0  0  0  0  0
    4.0927   -1.2639    2.9778 H   0  0  0  0  0  0  0  0  0  0  0  0
    3.9317   -1.2559    5.9125 H   0  0  0  0  0  0  0  0  0  0  0  0
    2.4507    0.4754    5.7846 H   0  0  0  0  0  0  0  0  0  0  0  0
    3.4177    0.6706    4.3726 H   0  0  0  0  0  0  0  0  0  0  0  0
    0.7831    0.8559    4.4207 H   0  0  0  0  0  0  0  0  0  0  0  0
   -0.4886    1.7397    2.5267 H   0  0  0  0  0  0  0  0  0  0  0  0
   -0.6226    0.1590    1.7844 H   0  0  0  0  0  0  0  0  0  0  0  0
    0.1209    1.4569    0.9214 H   0  0  0  0  0  0  0  0  0  0  0  0
    2.0390    2.6627    3.0606 H   0  0  0  0  0  0  0  0  0  0  0  0
    2.1868    2.3303    1.3611 H   0  0  0  0  0  0  0  0  0  0  0  0
    3.3613    1.6654    2.4582 H   0  0  0  0  0  0  0  0  0  0  0  0
    1.5712   -0.3156    0.7963 H   0  0  0  0  0  0  0  0  0  0  0  0
   -0.1735   -1.0769    4.9961 H   0  0  0  0  0  0  0  0  0  0  0  0
   -0.1939   -1.2832    3.2792 H   0  0  0  0  0  0  0  0  0  0  0  0
    0.5525   -3.3398    4.2933 H   0  0  0  0  0  0  0  0  0  0  0  0
    1.7550   -2.6452    3.2371 H   0  0  0  0  0  0  0  0  0  0  0  0
    0.7027   -2.7990    6.8302 H   0  0  0  0  0  0  0  0  0  0  0  0
    1.2108   -1.1330    6.7341 H   0  0  0  0  0  0  0  0  0  0  0  0
    2.2410   -2.2899    7.5315 H   0  0  0  0  0  0  0  0  0  0  0  0
    3.7291   -3.6648    6.3167 H   0  0  0  0  0  0  0  0  0  0  0  0
    1.7381   -4.8496    6.9482 H   0  0  0  0  0  0  0  0  0  0  0  0
    1.3388   -5.1695    5.3074 H   0  0  0  0  0  0  0  0  0  0  0  0
    3.2513   -6.5397    7.0825 H   0  0  0  0  0  0  0  0  0  0  0  0
    2.1496   -7.1521    5.8906 H   0  0  0  0  0  0  0  0  0  0  0  0
    5.6045   -6.5328    6.8315 H   0  0  0  0  0  0  0  0  0  0  0  0
    5.2901   -5.0144    6.1950 H   0  0  0  0  0  0  0  0  0  0  0  0
    6.3021   -6.0368    5.2769 H   0  0  0  0  0  0  0  0  0  0  0  0
    6.2072   -9.7039    5.3378 H   0  0  0  0  0  0  0  0  0  0  0  0
    5.9870   -8.5620    6.5784 H   0  0  0  0  0  0  0  0  0  0  0  0
    6.7437   -8.0963    5.0493 H   0  0  0  0  0  0  0  0  0  0  0  0
    4.1250  -10.1759    6.0658 H   0  0  0  0  0  0  0  0  0  0  0  0
    3.4016   -8.8404    6.8008 H   0  0  0  0  0  0  0  0  0  0  0  0
    1.9492  -10.6848    5.6842 H   0  0  0  0  0  0  0  0  0  0  0  0
    1.4130   -9.0678    5.5064 H   0  0  0  0  0  0  0  0  0  0  0  0
    0.6981  -10.3825    2.1375 H   0  0  0  0  0  0  0  0  0  0  0  0
    0.1282   -9.2697    3.3828 H   0  0  0  0  0  0  0  0  0  0  0  0
    0.3071  -10.9816    3.7367 H   0  0  0  0  0  0  0  0  0  0  0  0
    2.9634  -11.9569    3.8419 H   0  0  0  0  0  0  0  0  0  0  0  0
    2.9374  -11.3013    2.2105 H   0  0  0  0  0  0  0  0  0  0  0  0
    5.0058  -10.9495    4.2375 H   0  0  0  0  0  0  0  0  0  0  0  0
    5.0833  -10.8412    2.5377 H   0  0  0  0  0  0  0  0  0  0  0  0
    5.7673   -7.3435    2.6196 H   0  0  0  0  0  0  0  0  0  0  0  0
    6.5185   -8.8310    2.9363 H   0  0  0  0  0  0  0  0  0  0  0  0
    5.3307   -9.7425    1.1928 H   0  0  0  0  0  0  0  0  0  0  0  0
    2.4626   -7.9376    3.7569 H   0  0  0  0  0  0  0  0  0  0  0  0
    1.5542   -8.4100    1.4819 H   0  0  0  0  0  0  0  0  0  0  0  0
    3.1260   -8.6822    0.9100 H   0  0  0  0  0  0  0  0  0  0  0  0
  1  2  1  0
  1 38  1  0
  1 39  1  0
  1 40  1  0
  2 37  1  0
  2  3  1  0
  2  4  1  0
  3 41  1  0
  3 42  1  0
  3 43  1  0
  4  5  1  0
  4 44  1  0
  4 45  1  0
  5 23  1  0
  5  6  1  0
  5 46  1  6
  6 20  1  0
  6  7  2  0
  7  8  1  0
  7 47  1  0
  8  9  1  0
  8 48  1  0
  8 49  1  0
  9 18  1  0
  9 10  1  0
  9 50  1  1
 10 11  1  0
 10 51  1  0
 10 52  1  0
 11 12  1  0
 11 16  1  0
 11 53  1  1
 12 13  1  0
 12 14  1  0
 12 15  1  0
 13 54  1  0
 13 55  1  0
 13 56  1  0
 14 57  1  0
 14 58  1  0
 14 59  1  0
 15 60  1  0
 16 17  1  0
 16 61  1  0
 16 62  1  0
 17 18  1  0
 17 63  1  0
 17 64  1  0
 18 19  1  1
 18 20  1  0
 19 65  1  0
 19 66  1  0
 19 67  1  0
 20 21  1  0
 20 68  1  1
 21 22  1  0
 21 69  1  0
 21 70  1  0
 22 23  1  0
 22 71  1  0
 22 72  1  0
 23 24  1  1
 23 25  1  0
 24 73  1  0
 24 74  1  0
 24 75  1  0
 25 33  1  0
 25 26  1  1
 25 27  1  0
 26 76  1  0
 26 77  1  0
 26 78  1  0
 27 28  1  0
 27 79  1  0
 27 80  1  0
 28 29  1  0
 28 81  1  0
 28 82  1  0
 29 36  1  0
 29 30  1  6
 29 31  1  0
 30 83  1  0
 30 84  1  0
 30 85  1  0
 31 32  1  0
 31 86  1  0
 31 87  1  0
 32 33  1  0
 32 88  1  0
 32 89  1  0
 33 34  1  6
 33 36  1  0
 34 35  1  0
 34 90  1  0
 34 91  1  0
 35 92  1  0
 36 37  1  0
 36 93  1  1
 37 94  1  0
 37 95  1  0
M  END
>  <i_m_ct_stereo_status>  (317) 
1

>  <s_m_source_file>  (317) 
/var/tmp/pbs.5076255.sched01/tmpfn0mpy04/132vsilkqhl.sdf

>  <i_m_source_file_index>  (317) 
4

>  <i_lp_mmshare_version>  (317) 
48012

>  <i_f3d_flags>  (317) 
0

>  <s_epik_input>  (317) 
W0NIM11DKFtDSDNdKShbQ0gyXTEpW0NIMl1bQ0BASF0oW0NAXShbQ0gzXSkoW0NIMl1bQ0gyXTIpW0NIMl1bQ0gyXTMpW0NAQF0zKFtDSDJdW09IXSlbQ0BAXTIoW0NIM10pW0NAXShbQ0gzXSkoW0NIMl1bQ0gyXVtDQEBIXTQ1KVtDQEBIXTFDND1bQ0hdW0NIMl1bQ0BIXShbQ0BdNTZbQ0gzXSlbQ0gyXVtDQEBIXShDKFtDSDNdKShbQ0gzXSlbT0hdKVtDSDJdW0NIMl02

>  <s_epik_cmdline>  (317) 
J2VwaWtfcHl0aG9uJywgJy1waHQnLCAnMi4wJywgJy1waCcsICc3LjAnLCAnLXRuJywgJzgnLCAnLW1hJywgJzIwMCcsICctaW1hZScsICc8aW5maWxlLm1hZT4nLCAnLW9tYWUnLCAnPG91dGZpbGUubWFlPic=

>  <r_lp_tautomer_probability>  (317) 
1

>  <r_epik_Ionization_Penalty>  (317) 
2.24292e-06

>  <r_epik_Ionization_Penalty_Charging>  (317) 
0

>  <r_epik_Ionization_Penalty_Neutral>  (317) 
2.24292e-06

>  <r_epik_State_Penalty>  (317) 
-0

>  <r_epik_Charging_Adjusted_Penalty>  (317) 
0

>  <i_epik_Tot_Q>  (317) 
0

>  <i_epik_Tot_abs_Q>  (317) 
0

>  <s_lp_Force_Field>  (317) 
OPLS3e

>  <r_lp_Energy>  (317) 
163.538

>  <b_lp_Chiralities_Consistent>  (317) 
1

>  <s_lp_Variant>  (317) 
86:0-1

>  <s_i_glide_gridfile>  (317) 
pfpi4k_grid

>  <i_i_glide_lignum>  (317) 
4

>  <i_i_glide_rotatable_bonds>  (317) 
4

>  <r_i_docking_score>  (317) 
-1.83256

>  <r_i_glide_ligand_efficiency>  (317) 
-0.0495287

>  <r_i_glide_ligand_efficiency_sa>  (317) 
-0.16504

>  <r_i_glide_ligand_efficiency_ln>  (317) 
-0.397439

>  <r_i_glide_gscore>  (317) 
-1.83256

>  <r_i_glide_lipo>  (317) 
-0.188127

>  <r_i_glide_hbond>  (317) 
-0.16

>  <r_i_glide_metal>  (317) 
-0

>  <r_i_glide_rewards>  (317) 
0

>  <r_i_glide_evdw>  (317) 
-22.5839

>  <r_i_glide_ecoul>  (317) 
-3.41515

>  <r_i_glide_erotb>  (317) 
0.157034

>  <r_i_glide_esite>  (317) 
0

>  <r_i_glide_emodel>  (317) 
-27.9426

>  <r_i_glide_energy>  (317) 
-25.999

>  <r_i_glide_einternal>  (317) 
1.16884

>  <r_i_glide_intrahb_reward>  (317) 
-0

>  <i_i_glide_confnum>  (317) 
2

>  <i_i_glide_posenum>  (317) 
12

>  <r_i_glide_eff_state_penalty>  (317) 
0

>  <ligand_id>  (317) 
86

>  <original_smiles>  (317) 
CC1(C)CC2C3=CCC4CC(C(C)(C)O)CCC4(C)C3CCC2(C)C2(C)CCC3(C)CCC2(CO)C3C1

>  <smiles>  (317) 
[H]OC([H])([H])C12C([H])([H])C([H])([H])C3(C([H])([H])[H])C([H])([H])C([H])([H])C1(C([H])([H])[H])C1(C([H])([H])[H])C([H])([H])C([H])([H])C4([H])C(=C([H])C([H])([H])C5([H])C([H])([H])C([H])(C(O[H])(C([H])([H])[H])C([H])([H])[H])C([H])([H])C([H])([H])C45C([H])([H])[H])C1([H])C([H])([H])C(C([H])([H])[H])(C([H])([H])[H])C([H])([H])C32[H]

$$$$
86:0:1
     RDKit          3D

 95100  0  0  1  0  0  0  0  0999 V2000
    1.3758   -6.1688    0.7798 C   0  0  0  0  0  0  0  0  0  0  0  0
    2.6155   -6.6796    1.5594 C   0  0  0  0  0  0  0  0  0  0  0  0
    3.8172   -6.2822    0.6698 C   0  0  0  0  0  0  0  0  0  0  0  0
    2.6210   -5.8999    2.9184 C   0  0  0  0  0  0  0  0  0  0  0  0
    3.8565   -5.8672    3.9154 C   0  0  1  0  0  0  0  0  0  0  0  0
    3.8710   -4.4105    4.4084 C   0  0  0  0  0  0  0  0  0  0  0  0
    4.5906   -3.4448    3.7986 C   0  0  0  0  0  0  0  0  0  0  0  0
    4.5227   -1.9689    4.1454 C   0  0  0  0  0  0  0  0  0  0  0  0
    3.4111   -1.5637    5.1870 C   0  0  1  0  0  0  0  0  0  0  0  0
    2.8197   -0.1377    4.9209 C   0  0  0  0  0  0  0  0  0  0  0  0
    1.5104   -0.0179    4.0611 C   0  0  1  0  0  0  0  0  0  0  0  0
    1.6070    0.5550    2.5977 C   0  0  0  0  0  0  0  0  0  0  0  0
    2.2599   -0.4228    1.5960 C   0  0  0  0  0  0  0  0  0  0  0  0
    0.2802    1.0589    2.0064 C   0  0  0  0  0  0  0  0  0  0  0  0
    2.4236    1.7051    2.6369 O   0  0  0  0  0  0  0  0  0  0  0  0
    0.5809   -1.2451    4.2151 C   0  0  0  0  0  0  0  0  0  0  0  0
    1.3064   -2.5956    4.3035 C   0  0  0  0  0  0  0  0  0  0  0  0
    2.3215   -2.6326    5.4594 C   0  0  2  0  0  0  0  0  0  0  0  0
    1.6035   -2.2953    6.7857 C   0  0  0  0  0  0  0  0  0  0  0  0
    3.0037   -4.0309    5.6092 C   0  0  1  0  0  0  0  0  0  0  0  0
    2.0915   -5.2049    6.0304 C   0  0  0  0  0  0  0  0  0  0  0  0
    2.7719   -6.5925    6.0971 C   0  0  0  0  0  0  0  0  0  0  0  0
    4.0122   -6.8862    5.1702 C   0  0  2  0  0  0  0  0  0  0  0  0
    5.2545   -6.3306    5.9692 C   0  0  0  0  0  0  0  0  0  0  0  0
    4.2844   -8.5353    4.9723 C   0  0  1  0  0  0  0  0  0  0  0  0
    5.6828   -8.9682    5.5470 C   0  0  0  0  0  0  0  0  0  0  0  0
    3.2998   -9.4603    5.8226 C   0  0  0  0  0  0  0  0  0  0  0  0
    1.9322   -9.8717    5.1897 C   0  0  0  0  0  0  0  0  0  0  0  0
    1.9420  -10.0038    3.6426 C   0  0  2  0  0  0  0  0  0  0  0  0
    0.4898  -10.1691    3.1494 C   0  0  0  0  0  0  0  0  0  0  0  0
    2.8017  -11.1793    3.2277 C   0  0  0  0  0  0  0  0  0  0  0  0
    4.2256  -10.6821    3.3959 C   0  0  0  0  0  0  0  0  0  0  0  0
    4.1908   -9.1056    3.4943 C   0  0  2  0  0  0  0  0  0  0  0  0
    5.3977   -8.6437    2.6162 C   0  0  0  0  0  0  0  0  0  0  0  0
    5.3497   -9.0392    1.2562 O   0  0  0  0  0  0  0  0  0  0  0  0
    2.7177   -8.7839    3.1058 C   0  0  1  0  0  0  0  0  0  0  0  0
    2.4361   -8.2298    1.6939 C   0  0  0  0  0  0  0  0  0  0  0  0
    1.4595   -5.1026    0.5715 H   0  0  0  0  0  0  0  0  0  0  0  0
    0.4493   -6.3415    1.3324 H   0  0  0  0  0  0  0  0  0  0  0  0
    1.2681   -6.6493   -0.1901 H   0  0  0  0  0  0  0  0  0  0  0  0
    4.7788   -6.4335    1.1414 H   0  0  0  0  0  0  0  0  0  0  0  0
    3.7758   -5.2258    0.4013 H   0  0  0  0  0  0  0  0  0  0  0  0
    3.8330   -6.8425   -0.2636 H   0  0  0  0  0  0  0  0  0  0  0  0
    2.4795   -4.8718    2.5945 H   0  0  0  0  0  0  0  0  0  0  0  0
    1.6869   -6.1032    3.4426 H   0  0  0  0  0  0  0  0  0  0  0  0
    4.7614   -5.9034    3.3283 H   0  0  0  0  0  0  0  0  0  0  0  0
    5.1992   -3.6910    2.9412 H   0  0  0  0  0  0  0  0  0  0  0  0
    5.5135   -1.6441    4.5064 H   0  0  0  0  0  0  0  0  0  0  0  0
    4.3634   -1.4732    3.1787 H   0  0  0  0  0  0  0  0  0  0  0  0
    3.9830   -1.4685    6.1002 H   0  0  0  0  0  0  0  0  0  0  0  0
    2.6167    0.3268    5.9160 H   0  0  0  0  0  0  0  0  0  0  0  0
    3.5915    0.4850    4.4896 H   0  0  0  0  0  0  0  0  0  0  0  0
    0.9778    0.7922    4.5201 H   0  0  0  0  0  0  0  0  0  0  0  0
    1.7196   -1.3821    1.5914 H   0  0  0  0  0  0  0  0  0  0  0  0
    3.3190   -0.5900    1.8361 H   0  0  0  0  0  0  0  0  0  0  0  0
    2.2162   -0.0418    0.5603 H   0  0  0  0  0  0  0  0  0  0  0  0
   -0.5271    0.3385    2.0446 H   0  0  0  0  0  0  0  0  0  0  0  0
    0.3977    1.2867    0.9524 H   0  0  0  0  0  0  0  0  0  0  0  0
   -0.0655    1.9640    2.4925 H   0  0  0  0  0  0  0  0  0  0  0  0
    2.3569    2.1583    1.8084 H   0  0  0  0  0  0  0  0  0  0  0  0
   -0.0683   -1.0985    5.0933 H   0  0  0  0  0  0  0  0  0  0  0  0
   -0.0934   -1.3085    3.3740 H   0  0  0  0  0  0  0  0  0  0  0  0
    0.5613   -3.3949    4.3798 H   0  0  0  0  0  0  0  0  0  0  0  0
    1.8255   -2.7669    3.3687 H   0  0  0  0  0  0  0  0  0  0  0  0
    0.7030   -2.8949    6.9082 H   0  0  0  0  0  0  0  0  0  0  0  0
    1.2886   -1.2563    6.8446 H   0  0  0  0  0  0  0  0  0  0  0  0
    2.2500   -2.4682    7.6447 H   0  0  0  0  0  0  0  0  0  0  0  0
    3.7024   -3.8943    6.4315 H   0  0  0  0  0  0  0  0  0  0  0  0
    1.6435   -4.9954    7.0056 H   0  0  0  0  0  0  0  0  0  0  0  0
    1.2535   -5.2631    5.3491 H   0  0  0  0  0  0  0  0  0  0  0  0
    3.0796   -6.7489    7.1222 H   0  0  0  0  0  0  0  0  0  0  0  0
    1.9602   -7.2980    5.9105 H   0  0  0  0  0  0  0  0  0  0  0  0
    5.4263   -6.8475    6.9107 H   0  0  0  0  0  0  0  0  0  0  0  0
    5.1938   -5.3086    6.2995 H   0  0  0  0  0  0  0  0  0  0  0  0
    6.1706   -6.3580    5.3779 H   0  0  0  0  0  0  0  0  0  0  0  0
    5.9157  -10.0094    5.3739 H   0  0  0  0  0  0  0  0  0  0  0  0
    5.7236   -8.8823    6.6330 H   0  0  0  0  0  0  0  0  0  0  0  0
    6.5250   -8.4240    5.1244 H   0  0  0  0  0  0  0  0  0  0  0  0
    3.8054  -10.4101    6.0642 H   0  0  0  0  0  0  0  0  0  0  0  0
    3.1241   -9.0501    6.8109 H   0  0  0  0  0  0  0  0  0  0  0  0
    1.6130  -10.8057    5.6358 H   0  0  0  0  0  0  0  0  0  0  0  0
    1.1559   -9.1644    5.4779 H   0  0  0  0  0  0  0  0  0  0  0  0
    0.4393  -10.3946    2.0833 H   0  0  0  0  0  0  0  0  0  0  0  0
   -0.1019   -9.2726    3.3354 H   0  0  0  0  0  0  0  0  0  0  0  0
    0.0020  -10.9933    3.6707 H   0  0  0  0  0  0  0  0  0  0  0  0
    2.6021  -12.0905    3.7939 H   0  0  0  0  0  0  0  0  0  0  0  0
    2.6236  -11.3987    2.1775 H   0  0  0  0  0  0  0  0  0  0  0  0
    4.6812  -11.1853    4.2408 H   0  0  0  0  0  0  0  0  0  0  0  0
    4.7893  -11.0571    2.5434 H   0  0  0  0  0  0  0  0  0  0  0  0
    5.6193   -7.5902    2.6823 H   0  0  0  0  0  0  0  0  0  0  0  0
    6.3081   -9.1112    2.9940 H   0  0  0  0  0  0  0  0  0  0  0  0
    5.1320   -9.9674    1.2184 H   0  0  0  0  0  0  0  0  0  0  0  0
    2.2820   -8.0537    3.7659 H   0  0  0  0  0  0  0  0  0  0  0  0
    1.3969   -8.4507    1.4706 H   0  0  0  0  0  0  0  0  0  0  0  0
    2.9635   -8.7804    0.9185 H   0  0  0  0  0  0  0  0  0  0  0  0
  1  2  1  0
  1 38  1  0
  1 39  1  0
  1 40  1  0
  2 37  1  0
  2  3  1  0
  2  4  1  0
  3 41  1  0
  3 42  1  0
  3 43  1  0
  4  5  1  0
  4 44  1  0
  4 45  1  0
  5 23  1  0
  5  6  1  0
  5 46  1  6
  6 20  1  0
  6  7  2  0
  7  8  1  0
  7 47  1  0
  8  9  1  0
  8 48  1  0
  8 49  1  0
  9 18  1  0
  9 10  1  0
  9 50  1  1
 10 11  1  0
 10 51  1  0
 10 52  1  0
 11 12  1  0
 11 16  1  0
 11 53  1  1
 12 13  1  0
 12 14  1  0
 12 15  1  0
 13 54  1  0
 13 55  1  0
 13 56  1  0
 14 57  1  0
 14 58  1  0
 14 59  1  0
 15 60  1  0
 16 17  1  0
 16 61  1  0
 16 62  1  0
 17 18  1  0
 17 63  1  0
 17 64  1  0
 18 19  1  1
 18 20  1  0
 19 65  1  0
 19 66  1  0
 19 67  1  0
 20 21  1  0
 20 68  1  1
 21 22  1  0
 21 69  1  0
 21 70  1  0
 22 23  1  0
 22 71  1  0
 22 72  1  0
 23 24  1  1
 23 25  1  0
 24 73  1  0
 24 74  1  0
 24 75  1  0
 25 33  1  0
 25 26  1  1
 25 27  1  0
 26 76  1  0
 26 77  1  0
 26 78  1  0
 27 28  1  0
 27 79  1  0
 27 80  1  0
 28 29  1  0
 28 81  1  0
 28 82  1  0
 29 36  1  0
 29 30  1  6
 29 31  1  0
 30 83  1  0
 30 84  1  0
 30 85  1  0
 31 32  1  0
 31 86  1  0
 31 87  1  0
 32 33  1  0
 32 88  1  0
 32 89  1  0
 33 34  1  6
 33 36  1  0
 34 35  1  0
 34 90  1  0
 34 91  1  0
 35 92  1  0
 36 37  1  0
 36 93  1  1
 37 94  1  0
 37 95  1  0
M  END
>  <i_m_ct_stereo_status>  (318) 
1

>  <s_m_source_file>  (318) 
/var/tmp/pbs.5076255.sched01/tmpfn0mpy04/132vsilkqhl.sdf

>  <i_m_source_file_index>  (318) 
4

>  <i_lp_mmshare_version>  (318) 
48012

>  <i_f3d_flags>  (318) 
0

>  <s_epik_input>  (318) 
W0NIM11DKFtDSDNdKShbQ0gyXTEpW0NIMl1bQ0BASF0oW0NAXShbQ0gzXSkoW0NIMl1bQ0gyXTIpW0NIMl1bQ0gyXTMpW0NAQF0zKFtDSDJdW09IXSlbQ0BAXTIoW0NIM10pW0NAXShbQ0gzXSkoW0NIMl1bQ0gyXVtDQEBIXTQ1KVtDQEBIXTFDND1bQ0hdW0NIMl1bQ0BIXShbQ0BdNTZbQ0gzXSlbQ0gyXVtDQEBIXShDKFtDSDNdKShbQ0gzXSlbT0hdKVtDSDJdW0NIMl02

>  <s_epik_cmdline>  (318) 
J2VwaWtfcHl0aG9uJywgJy1waHQnLCAnMi4wJywgJy1waCcsICc3LjAnLCAnLXRuJywgJzgnLCAnLW1hJywgJzIwMCcsICctaW1hZScsICc8aW5maWxlLm1hZT4nLCAnLW9tYWUnLCAnPG91dGZpbGUubWFlPic=

>  <r_lp_tautomer_probability>  (318) 
1

>  <r_epik_Ionization_Penalty>  (318) 
2.24292e-06

>  <r_epik_Ionization_Penalty_Charging>  (318) 
0

>  <r_epik_Ionization_Penalty_Neutral>  (318) 
2.24292e-06

>  <r_epik_State_Penalty>  (318) 
-0

>  <r_epik_Charging_Adjusted_Penalty>  (318) 
0

>  <i_epik_Tot_Q>  (318) 
0

>  <i_epik_Tot_abs_Q>  (318) 
0

>  <s_lp_Force_Field>  (318) 
OPLS3e

>  <r_lp_Energy>  (318) 
163.538

>  <b_lp_Chiralities_Consistent>  (318) 
1

>  <s_lp_Variant>  (318) 
86:0-1

>  <s_i_glide_gridfile>  (318) 
pfpi4k_grid

>  <i_i_glide_lignum>  (318) 
4

>  <i_i_glide_rotatable_bonds>  (318) 
4

>  <r_i_docking_score>  (318) 
-1.37584

>  <r_i_glide_ligand_efficiency>  (318) 
-0.037185

>  <r_i_glide_ligand_efficiency_sa>  (318) 
-0.123909

>  <r_i_glide_ligand_efficiency_ln>  (318) 
-0.298388

>  <r_i_glide_gscore>  (318) 
-1.37584

>  <r_i_glide_lipo>  (318) 
-0.141121

>  <r_i_glide_hbond>  (318) 
0

>  <r_i_glide_metal>  (318) 
-0

>  <r_i_glide_rewards>  (318) 
0

>  <r_i_glide_evdw>  (318) 
-23.2545

>  <r_i_glide_ecoul>  (318) 
-1.52689

>  <r_i_glide_erotb>  (318) 
0.157034

>  <r_i_glide_esite>  (318) 
0

>  <r_i_glide_emodel>  (318) 
-26.316

>  <r_i_glide_energy>  (318) 
-24.7814

>  <r_i_glide_einternal>  (318) 
0.634104

>  <r_i_glide_intrahb_reward>  (318) 
-0

>  <i_i_glide_confnum>  (318) 
2

>  <i_i_glide_posenum>  (318) 
1

>  <r_i_glide_eff_state_penalty>  (318) 
0

>  <ligand_id>  (318) 
86

>  <original_smiles>  (318) 
CC1(C)CC2C3=CCC4CC(C(C)(C)O)CCC4(C)C3CCC2(C)C2(C)CCC3(C)CCC2(CO)C3C1

>  <smiles>  (318) 
[H]OC([H])([H])C12C([H])([H])C([H])([H])C3(C([H])([H])[H])C([H])([H])C([H])([H])C1(C([H])([H])[H])C1(C([H])([H])[H])C([H])([H])C([H])([H])C4([H])C(=C([H])C([H])([H])C5([H])C([H])([H])C([H])(C(O[H])(C([H])([H])[H])C([H])([H])[H])C([H])([H])C([H])([H])C45C([H])([H])[H])C1([H])C([H])([H])C(C([H])([H])[H])(C([H])([H])[H])C([H])([H])C32[H]

$$$$
86:0:2
     RDKit          3D

 95100  0  0  1  0  0  0  0  0999 V2000
    1.6496   -5.8816    1.0126 C   0  0  0  0  0  0  0  0  0  0  0  0
    2.6123   -6.4932    2.0625 C   0  0  0  0  0  0  0  0  0  0  0  0
    4.0237   -6.1765    1.5198 C   0  0  0  0  0  0  0  0  0  0  0  0
    2.3258   -5.7382    3.4072 C   0  0  0  0  0  0  0  0  0  0  0  0
    3.2696   -5.8078    4.6861 C   0  0  1  0  0  0  0  0  0  0  0  0
    3.2548   -4.3623    5.2115 C   0  0  0  0  0  0  0  0  0  0  0  0
    4.1562   -3.4340    4.8272 C   0  0  0  0  0  0  0  0  0  0  0  0
    4.0989   -1.9703    5.1936 C   0  0  0  0  0  0  0  0  0  0  0  0
    2.8006   -1.5045    5.9380 C   0  0  1  0  0  0  0  0  0  0  0  0
    2.3850   -0.0422    5.5812 C   0  0  0  0  0  0  0  0  0  0  0  0
    1.3388    0.1948    4.4311 C   0  0  1  0  0  0  0  0  0  0  0  0
    1.8594    0.7665    3.0602 C   0  0  0  0  0  0  0  0  0  0  0  0
    2.6363   -0.2506    2.2162 C   0  0  0  0  0  0  0  0  0  0  0  0
    0.7472    1.3817    2.1828 C   0  0  0  0  0  0  0  0  0  0  0  0
    2.7373    1.8358    3.3375 O   0  0  0  0  0  0  0  0  0  0  0  0
    0.3279   -0.9707    4.2912 C   0  0  0  0  0  0  0  0  0  0  0  0
    0.9222   -2.3706    4.5199 C   0  0  0  0  0  0  0  0  0  0  0  0
    1.6058   -2.5018    5.8952 C   0  0  2  0  0  0  0  0  0  0  0  0
    0.5925   -2.1332    7.0111 C   0  0  0  0  0  0  0  0  0  0  0  0
    2.1319   -3.9439    6.1683 C   0  0  1  0  0  0  0  0  0  0  0  0
    1.0698   -5.0591    6.3038 C   0  0  0  0  0  0  0  0  0  0  0  0
    1.6262   -6.4921    6.5036 C   0  0  0  0  0  0  0  0  0  0  0  0
    3.0379   -6.8579    5.9056 C   0  0  2  0  0  0  0  0  0  0  0  0
    4.0687   -6.4015    7.0101 C   0  0  0  0  0  0  0  0  0  0  0  0
    3.2415   -8.5197    5.7255 C   0  0  1  0  0  0  0  0  0  0  0  0
    4.4183   -9.0636    6.6193 C   0  0  0  0  0  0  0  0  0  0  0  0
    2.0140   -9.3812    6.2725 C   0  0  0  0  0  0  0  0  0  0  0  0
    0.8324   -9.6925    5.2987 C   0  0  0  0  0  0  0  0  0  0  0  0
    1.2263   -9.7977    3.7988 C   0  0  2  0  0  0  0  0  0  0  0  0
   -0.0545   -9.8448    2.9510 C   0  0  0  0  0  0  0  0  0  0  0  0
    2.0849  -11.0253    3.5594 C   0  0  0  0  0  0  0  0  0  0  0  0
    3.4474  -10.6308    4.1041 C   0  0  0  0  0  0  0  0  0  0  0  0
    3.4893   -9.0580    4.2507 C   0  0  2  0  0  0  0  0  0  0  0  0
    4.9105   -8.6662    3.7238 C   0  0  0  0  0  0  0  0  0  0  0  0
    5.1928   -9.0053    2.3810 O   0  0  0  0  0  0  0  0  0  0  0  0
    2.1866   -8.6261    3.5141 C   0  0  1  0  0  0  0  0  0  0  0  0
    2.3015   -8.0284    2.0978 C   0  0  0  0  0  0  0  0  0  0  0  0
    1.8272   -4.8143    0.8718 H   0  0  0  0  0  0  0  0  0  0  0  0
    0.6087   -6.0145    1.3098 H   0  0  0  0  0  0  0  0  0  0  0  0
    1.7742   -6.3433    0.0342 H   0  0  0  0  0  0  0  0  0  0  0  0
    4.8199   -6.4041    2.2165 H   0  0  0  0  0  0  0  0  0  0  0  0
    4.1248   -5.1165    1.2852 H   0  0  0  0  0  0  0  0  0  0  0  0
    4.2290   -6.7302    0.6024 H   0  0  0  0  0  0  0  0  0  0  0  0
    2.3330   -4.6968    3.0893 H   0  0  0  0  0  0  0  0  0  0  0  0
    1.2805   -5.8850    3.6734 H   0  0  0  0  0  0  0  0  0  0  0  0
    4.2889   -5.9071    4.3385 H   0  0  0  0  0  0  0  0  0  0  0  0
    4.9481   -3.7248    4.1475 H   0  0  0  0  0  0  0  0  0  0  0  0
    4.9861   -1.7217    5.7907 H   0  0  0  0  0  0  0  0  0  0  0  0
    4.2148   -1.4431    4.2389 H   0  0  0  0  0  0  0  0  0  0  0  0
    3.1221   -1.4700    6.9803 H   0  0  0  0  0  0  0  0  0  0  0  0
    1.9750    0.4123    6.4929 H   0  0  0  0  0  0  0  0  0  0  0  0
    3.2825    0.5429    5.3979 H   0  0  0  0  0  0  0  0  0  0  0  0
    0.7511    1.0346    4.7851 H   0  0  0  0  0  0  0  0  0  0  0  0
    2.0464   -1.1520    2.0466 H   0  0  0  0  0  0  0  0  0  0  0  0
    3.5841   -0.5309    2.7028 H   0  0  0  0  0  0  0  0  0  0  0  0
    2.8765    0.1366    1.2165 H   0  0  0  0  0  0  0  0  0  0  0  0
   -0.0960    0.7269    2.0021 H   0  0  0  0  0  0  0  0  0  0  0  0
    1.1399    1.6136    1.1995 H   0  0  0  0  0  0  0  0  0  0  0  0
    0.3641    2.3128    2.5874 H   0  0  0  0  0  0  0  0  0  0  0  0
    3.1339    2.1445    2.5206 H   0  0  0  0  0  0  0  0  0  0  0  0
   -0.5079   -0.8013    4.9784 H   0  0  0  0  0  0  0  0  0  0  0  0
   -0.1250   -0.9669    3.3070 H   0  0  0  0  0  0  0  0  0  0  0  0
    0.1327   -3.1147    4.3830 H   0  0  0  0  0  0  0  0  0  0  0  0
    1.6506   -2.5670    3.7363 H   0  0  0  0  0  0  0  0  0  0  0  0
   -0.3456   -2.6716    6.8810 H   0  0  0  0  0  0  0  0  0  0  0  0
    0.3418   -1.0753    7.0221 H   0  0  0  0  0  0  0  0  0  0  0  0
    0.9894   -2.3659    7.9975 H   0  0  0  0  0  0  0  0  0  0  0  0
    2.6042   -3.8728    7.1457 H   0  0  0  0  0  0  0  0  0  0  0  0
    0.4037   -4.8357    7.1400 H   0  0  0  0  0  0  0  0  0  0  0  0
    0.4247   -5.0493    5.4305 H   0  0  0  0  0  0  0  0  0  0  0  0
    1.6412   -6.6961    7.5726 H   0  0  0  0  0  0  0  0  0  0  0  0
    0.8486   -7.1276    6.0921 H   0  0  0  0  0  0  0  0  0  0  0  0
    3.9626   -6.9458    7.9458 H   0  0  0  0  0  0  0  0  0  0  0  0
    3.9911   -5.3808    7.3474 H   0  0  0  0  0  0  0  0  0  0  0  0
    5.0992   -6.4865    6.6668 H   0  0  0  0  0  0  0  0  0  0  0  0
    4.6190  -10.1190    6.4759 H   0  0  0  0  0  0  0  0  0  0  0  0
    4.1896   -8.9947    7.6828 H   0  0  0  0  0  0  0  0  0  0  0  0
    5.3731   -8.5739    6.4375 H   0  0  0  0  0  0  0  0  0  0  0  0
    2.3760  -10.3637    6.5905 H   0  0  0  0  0  0  0  0  0  0  0  0
    1.6259   -8.9815    7.2062 H   0  0  0  0  0  0  0  0  0  0  0  0
    0.3480  -10.6127    5.6210 H   0  0  0  0  0  0  0  0  0  0  0  0
    0.0540   -8.9402    5.4068 H   0  0  0  0  0  0  0  0  0  0  0  0
    0.1603  -10.0573    1.9062 H   0  0  0  0  0  0  0  0  0  0  0  0
   -0.6214   -8.9140    3.0097 H   0  0  0  0  0  0  0  0  0  0  0  0
   -0.6958  -10.6496    3.3011 H   0  0  0  0  0  0  0  0  0  0  0  0
    1.6895  -11.9234    4.0360 H   0  0  0  0  0  0  0  0  0  0  0  0
    2.1684  -11.2257    2.4867 H   0  0  0  0  0  0  0  0  0  0  0  0
    3.6350  -11.1801    5.0217 H   0  0  0  0  0  0  0  0  0  0  0  0
    4.1905  -11.0231    3.4136 H   0  0  0  0  0  0  0  0  0  0  0  0
    5.1769   -7.6352    3.8985 H   0  0  0  0  0  0  0  0  0  0  0  0
    5.6567   -9.2161    4.2985 H   0  0  0  0  0  0  0  0  0  0  0  0
    4.9884   -9.9314    2.2514 H   0  0  0  0  0  0  0  0  0  0  0  0
    1.6466   -7.8781    4.0657 H   0  0  0  0  0  0  0  0  0  0  0  0
    1.3401   -8.1740    1.6119 H   0  0  0  0  0  0  0  0  0  0  0  0
    2.9694   -8.6025    1.4594 H   0  0  0  0  0  0  0  0  0  0  0  0
  1  2  1  0
  1 38  1  0
  1 39  1  0
  1 40  1  0
  2 37  1  0
  2  3  1  0
  2  4  1  0
  3 41  1  0
  3 42  1  0
  3 43  1  0
  4  5  1  0
  4 44  1  0
  4 45  1  0
  5 23  1  0
  5  6  1  0
  5 46  1  6
  6 20  1  0
  6  7  2  0
  7  8  1  0
  7 47  1  0
  8  9  1  0
  8 48  1  0
  8 49  1  0
  9 18  1  0
  9 10  1  0
  9 50  1  1
 10 11  1  0
 10 51  1  0
 10 52  1  0
 11 12  1  0
 11 16  1  0
 11 53  1  1
 12 13  1  0
 12 14  1  0
 12 15  1  0
 13 54  1  0
 13 55  1  0
 13 56  1  0
 14 57  1  0
 14 58  1  0
 14 59  1  0
 15 60  1  0
 16 17  1  0
 16 61  1  0
 16 62  1  0
 17 18  1  0
 17 63  1  0
 17 64  1  0
 18 19  1  1
 18 20  1  0
 19 65  1  0
 19 66  1  0
 19 67  1  0
 20 21  1  0
 20 68  1  1
 21 22  1  0
 21 69  1  0
 21 70  1  0
 22 23  1  0
 22 71  1  0
 22 72  1  0
 23 24  1  1
 23 25  1  0
 24 73  1  0
 24 74  1  0
 24 75  1  0
 25 33  1  0
 25 26  1  1
 25 27  1  0
 26 76  1  0
 26 77  1  0
 26 78  1  0
 27 28  1  0
 27 79  1  0
 27 80  1  0
 28 29  1  0
 28 81  1  0
 28 82  1  0
 29 36  1  0
 29 30  1  6
 29 31  1  0
 30 83  1  0
 30 84  1  0
 30 85  1  0
 31 32  1  0
 31 86  1  0
 31 87  1  0
 32 33  1  0
 32 88  1  0
 32 89  1  0
 33 34  1  6
 33 36  1  0
 34 35  1  0
 34 90  1  0
 34 91  1  0
 35 92  1  0
 36 37  1  0
 36 93  1  1
 37 94  1  0
 37 95  1  0
M  END
>  <i_m_ct_stereo_status>  (319) 
1

>  <s_m_source_file>  (319) 
/var/tmp/pbs.5076255.sched01/tmpfn0mpy04/132vsilkqhl.sdf

>  <i_m_source_file_index>  (319) 
4

>  <i_lp_mmshare_version>  (319) 
48012

>  <i_f3d_flags>  (319) 
0

>  <s_epik_input>  (319) 
W0NIM11DKFtDSDNdKShbQ0gyXTEpW0NIMl1bQ0BASF0oW0NAXShbQ0gzXSkoW0NIMl1bQ0gyXTIpW0NIMl1bQ0gyXTMpW0NAQF0zKFtDSDJdW09IXSlbQ0BAXTIoW0NIM10pW0NAXShbQ0gzXSkoW0NIMl1bQ0gyXVtDQEBIXTQ1KVtDQEBIXTFDND1bQ0hdW0NIMl1bQ0BIXShbQ0BdNTZbQ0gzXSlbQ0gyXVtDQEBIXShDKFtDSDNdKShbQ0gzXSlbT0hdKVtDSDJdW0NIMl02

>  <s_epik_cmdline>  (319) 
J2VwaWtfcHl0aG9uJywgJy1waHQnLCAnMi4wJywgJy1waCcsICc3LjAnLCAnLXRuJywgJzgnLCAnLW1hJywgJzIwMCcsICctaW1hZScsICc8aW5maWxlLm1hZT4nLCAnLW9tYWUnLCAnPG91dGZpbGUubWFlPic=

>  <r_lp_tautomer_probability>  (319) 
1

>  <r_epik_Ionization_Penalty>  (319) 
2.24292e-06

>  <r_epik_Ionization_Penalty_Charging>  (319) 
0

>  <r_epik_Ionization_Penalty_Neutral>  (319) 
2.24292e-06

>  <r_epik_State_Penalty>  (319) 
-0

>  <r_epik_Charging_Adjusted_Penalty>  (319) 
0

>  <i_epik_Tot_Q>  (319) 
0

>  <i_epik_Tot_abs_Q>  (319) 
0

>  <s_lp_Force_Field>  (319) 
OPLS3e

>  <r_lp_Energy>  (319) 
163.538

>  <b_lp_Chiralities_Consistent>  (319) 
1

>  <s_lp_Variant>  (319) 
86:0-1

>  <s_i_glide_gridfile>  (319) 
pfpi4k_grid

>  <i_i_glide_lignum>  (319) 
4

>  <i_i_glide_rotatable_bonds>  (319) 
4

>  <r_i_docking_score>  (319) 
-1.36084

>  <r_i_glide_ligand_efficiency>  (319) 
-0.0367795

>  <r_i_glide_ligand_efficiency_sa>  (319) 
-0.122557

>  <r_i_glide_ligand_efficiency_ln>  (319) 
-0.295134

>  <r_i_glide_gscore>  (319) 
-1.36084

>  <r_i_glide_lipo>  (319) 
-0.131297

>  <r_i_glide_hbond>  (319) 
0

>  <r_i_glide_metal>  (319) 
-0

>  <r_i_glide_rewards>  (319) 
0

>  <r_i_glide_evdw>  (319) 
-20.8998

>  <r_i_glide_ecoul>  (319) 
-2.27724

>  <r_i_glide_erotb>  (319) 
0.157034

>  <r_i_glide_esite>  (319) 
0

>  <r_i_glide_emodel>  (319) 
-24.952

>  <r_i_glide_energy>  (319) 
-23.1771

>  <r_i_glide_einternal>  (319) 
0.314325

>  <r_i_glide_intrahb_reward>  (319) 
-0

>  <i_i_glide_confnum>  (319) 
2

>  <i_i_glide_posenum>  (319) 
35

>  <r_i_glide_eff_state_penalty>  (319) 
0

>  <ligand_id>  (319) 
86

>  <original_smiles>  (319) 
CC1(C)CC2C3=CCC4CC(C(C)(C)O)CCC4(C)C3CCC2(C)C2(C)CCC3(C)CCC2(CO)C3C1

>  <smiles>  (319) 
[H]OC([H])([H])C12C([H])([H])C([H])([H])C3(C([H])([H])[H])C([H])([H])C([H])([H])C1(C([H])([H])[H])C1(C([H])([H])[H])C([H])([H])C([H])([H])C4([H])C(=C([H])C([H])([H])C5([H])C([H])([H])C([H])(C(O[H])(C([H])([H])[H])C([H])([H])[H])C([H])([H])C([H])([H])C45C([H])([H])[H])C1([H])C([H])([H])C(C([H])([H])[H])(C([H])([H])[H])C([H])([H])C32[H]

$$$$
87:1:0
     RDKit          3D

 56 61  0  0  1  0  0  0  0  0999 V2000
    6.2200   -7.3787    6.8881 C   0  0  0  0  0  0  0  0  0  0  0  0
    5.1035   -8.1829    6.2469 C   0  0  0  0  0  0  0  0  0  0  0  0
    3.9416   -7.7243    5.7139 C   0  0  0  0  0  0  0  0  0  0  0  0
    3.6094   -6.2954    5.5890 C   0  0  0  0  0  0  0  0  0  0  0  0
    4.4236   -5.3866    4.8648 C   0  0  0  0  0  0  0  0  0  0  0  0
    5.7712   -5.5027    4.6927 O   0  0  0  0  0  0  0  0  0  0  0  0
    3.6999   -4.3848    4.1504 C   0  0  0  0  0  0  0  0  0  0  0  0
    4.4495   -3.2723    3.4311 C   0  0  0  0  0  0  0  0  0  0  0  0
    2.3037   -4.5566    3.9479 C   0  0  0  0  0  0  0  0  0  0  0  0
    1.6396   -3.7657    3.0515 O   0  0  0  0  0  0  0  0  0  0  0  0
    1.6337   -5.6668    4.5191 C   0  0  0  0  0  0  0  0  0  0  0  0
    2.2326   -6.0708    5.6939 C   0  0  0  0  0  0  0  0  0  0  0  0
    1.5038   -7.0117    6.6668 C   0  0  0  0  0  0  0  0  0  0  0  0
    1.7523   -8.5087    6.3845 C   0  0  1  0  0  0  0  0  0  0  0  0
    0.4659   -9.3569    6.2630 C   0  0  0  0  0  0  0  0  0  0  0  0
   -0.1729   -9.3440    4.9234 N   0  0  1  0  0  0  0  0  0  0  0  0
   -1.2759   -8.4025    4.6702 C   0  0  0  0  0  0  0  0  0  0  0  0
   -1.5272   -8.5051    3.1604 C   0  0  0  0  0  0  0  0  0  0  0  0
   -0.2839   -9.2124    2.5788 C   0  0  0  0  0  0  0  0  0  0  0  0
    0.7229   -9.3350    3.7442 C   0  0  1  0  0  0  0  0  0  0  0  0
    1.9336   -8.2853    3.8497 C   0  0  2  0  0  0  0  0  0  0  0  0
    2.9456   -8.5455    2.6892 C   0  0  0  0  0  0  0  0  0  0  0  0
    3.4966   -9.9881    2.6029 C   0  0  0  0  0  0  0  0  0  0  0  0
    3.6457  -10.6595    3.9545 C   0  0  0  0  0  0  0  0  0  0  0  0
    3.2950  -10.0766    5.1141 C   0  0  0  0  0  0  0  0  0  0  0  0
    2.7565   -8.6434    5.2157 C   0  0  1  0  0  0  0  0  0  0  0  0
    1.3522   -6.8074    3.5936 C   0  0  0  0  0  0  0  0  0  0  0  0
    0.7401   -6.5723    2.5509 O   0  0  0  0  0  0  0  0  0  0  0  0
    6.5126   -7.8454    7.8275 H   0  0  0  0  0  0  0  0  0  0  0  0
    5.9144   -6.3583    7.1162 H   0  0  0  0  0  0  0  0  0  0  0  0
    7.0965   -7.3499    6.2394 H   0  0  0  0  0  0  0  0  0  0  0  0
    5.2996   -9.2418    6.2830 H   0  0  0  0  0  0  0  0  0  0  0  0
    6.1257   -4.8554    4.1044 H   0  0  0  0  0  0  0  0  0  0  0  0
    3.8304   -2.3817    3.3210 H   0  0  0  0  0  0  0  0  0  0  0  0
    4.7552   -3.5925    2.4337 H   0  0  0  0  0  0  0  0  0  0  0  0
    5.3420   -2.9679    3.9799 H   0  0  0  0  0  0  0  0  0  0  0  0
    2.1844   -3.1182    2.6349 H   0  0  0  0  0  0  0  0  0  0  0  0
    1.7928   -6.7673    7.6933 H   0  0  0  0  0  0  0  0  0  0  0  0
    0.4372   -6.7883    6.6171 H   0  0  0  0  0  0  0  0  0  0  0  0
    2.2492   -8.8838    7.2832 H   0  0  0  0  0  0  0  0  0  0  0  0
    0.7320  -10.3929    6.4571 H   0  0  0  0  0  0  0  0  0  0  0  0
   -0.2600   -9.0942    7.0337 H   0  0  0  0  0  0  0  0  0  0  0  0
   -2.1596   -8.6667    5.2460 H   0  0  0  0  0  0  0  0  0  0  0  0
   -0.9863   -7.3904    4.9441 H   0  0  0  0  0  0  0  0  0  0  0  0
   -2.4236   -9.0890    2.9485 H   0  0  0  0  0  0  0  0  0  0  0  0
   -1.6761   -7.5188    2.7242 H   0  0  0  0  0  0  0  0  0  0  0  0
   -0.5841  -10.2104    2.2565 H   0  0  0  0  0  0  0  0  0  0  0  0
    0.1169   -8.7255    1.6915 H   0  0  0  0  0  0  0  0  0  0  0  0
    1.1141  -10.3467    3.6791 H   0  0  0  0  0  0  0  0  0  0  0  0
    2.5220   -8.2833    1.7179 H   0  0  0  0  0  0  0  0  0  0  0  0
    3.7987   -7.8756    2.8134 H   0  0  0  0  0  0  0  0  0  0  0  0
    2.8247  -10.6019    2.0010 H   0  0  0  0  0  0  0  0  0  0  0  0
    4.4565  -10.0039    2.0838 H   0  0  0  0  0  0  0  0  0  0  0  0
    4.0112  -11.6766    3.9421 H   0  0  0  0  0  0  0  0  0  0  0  0
    3.3881  -10.6436    6.0320 H   0  0  0  0  0  0  0  0  0  0  0  0
   -0.6924  -10.2269    4.8796 H   0  0  0  0  0  0  0  0  0  0  0  0
  1  2  1  0
  1 29  1  0
  1 30  1  0
  1 31  1  0
  2  3  2  3
  2 32  1  0
  3 26  1  0
  3  4  1  0
  4 12  2  0
  4  5  1  0
  5  6  1  0
  5  7  2  0
  6 33  1  0
  7  8  1  0
  7  9  1  0
  8 34  1  0
  8 35  1  0
  8 36  1  0
  9 10  1  0
  9 11  2  0
 10 37  1  0
 11 27  1  0
 11 12  1  0
 12 13  1  0
 13 14  1  0
 13 38  1  0
 13 39  1  0
 14 26  1  0
 14 15  1  0
 14 40  1  1
 15 16  1  0
 15 41  1  0
 15 42  1  0
 16 20  1  0
 16 17  1  0
 16 56  1  6
 17 18  1  0
 17 43  1  0
 17 44  1  0
 18 19  1  0
 18 45  1  0
 18 46  1  0
 19 20  1  0
 19 47  1  0
 19 48  1  0
 20 21  1  0
 20 49  1  6
 21 26  1  0
 21 22  1  6
 21 27  1  0
 22 23  1  0
 22 50  1  0
 22 51  1  0
 23 24  1  0
 23 52  1  0
 23 53  1  0
 24 25  2  0
 24 54  1  0
 26 25  1  6
 25 55  1  0
 27 28  2  0
M  CHG  1  16   1
M  END
>  <i_m_ct_stereo_status>  (320) 
1

>  <s_m_source_file>  (320) 
/var/tmp/pbs.5076255.sched01/tmpfn0mpy04/132vsilkqhl.sdf

>  <i_m_source_file_index>  (320) 
6

>  <i_lp_mmshare_version>  (320) 
48012

>  <i_f3d_flags>  (320) 
0

>  <s_epik_input>  (320) 
Tz1DMWMyYyhbT0hdKWMoW0NIM10pYyhbT0hdKWMoXEMzPVtDSF1cW0NIM10pYzJbQ0gyXVtDQEhdKFtDQF0zKFtDQF0xNDUpW0NIXT1bQ0hdW0NIMl1bQ0gyXTUpW0NIMl1ONltDQEhdNFtDSDJdW0NIMl1bQ0gyXTY=

>  <s_epik_cmdline>  (320) 
J2VwaWtfcHl0aG9uJywgJy1waHQnLCAnMi4wJywgJy1waCcsICc3LjAnLCAnLXRuJywgJzgnLCAnLW1hJywgJzIwMCcsICctaW1hZScsICc8aW5maWxlLm1hZT4nLCAnLW9tYWUnLCAnPG91dGZpbGUubWFlPic=

>  <r_epik_Ionization_Penalty>  (320) 
0.128819

>  <r_epik_Ionization_Penalty_Charging>  (320) 
0.020271

>  <r_epik_Ionization_Penalty_Neutral>  (320) 
0.108548

>  <r_epik_State_Penalty>  (320) 
0.106447

>  <r_epik_Charging_Adjusted_Penalty>  (320) 
0.126718

>  <i_epik_Tot_Q>  (320) 
1

>  <i_epik_Tot_abs_Q>  (320) 
1

>  <s_lp_Force_Field>  (320) 
OPLS3e

>  <r_lp_Energy>  (320) 
151.098

>  <b_lp_Chiralities_Consistent>  (320) 
1

>  <s_lp_Variant>  (320) 
87:0-2

>  <s_i_glide_gridfile>  (320) 
pfpi4k_grid

>  <i_i_glide_lignum>  (320) 
6

>  <i_i_glide_rotatable_bonds>  (320) 
2

>  <r_i_docking_score>  (320) 
-2.72779

>  <r_i_glide_ligand_efficiency>  (320) 
-0.0974211

>  <r_i_glide_ligand_efficiency_sa>  (320) 
-0.295828

>  <r_i_glide_ligand_efficiency_ln>  (320) 
-0.629654

>  <r_i_glide_gscore>  (320) 
-2.72779

>  <r_i_glide_lipo>  (320) 
-0.0165449

>  <r_i_glide_hbond>  (320) 
-0.1924

>  <r_i_glide_metal>  (320) 
-0

>  <r_i_glide_rewards>  (320) 
-0.828518

>  <r_i_glide_evdw>  (320) 
-16.3542

>  <r_i_glide_ecoul>  (320) 
-5.09794

>  <r_i_glide_erotb>  (320) 
0

>  <r_i_glide_esite>  (320) 
-0.107926

>  <r_i_glide_emodel>  (320) 
-27.2255

>  <r_i_glide_energy>  (320) 
-21.4522

>  <r_i_glide_einternal>  (320) 
0.010793

>  <r_i_glide_intrahb_reward>  (320) 
-0

>  <i_i_glide_confnum>  (320) 
1

>  <i_i_glide_posenum>  (320) 
1

>  <r_i_glide_eff_state_penalty>  (320) 
0

>  <ligand_id>  (320) 
87

>  <original_smiles>  (320) 
CC=C1c2c(O)c(C)c(O)c3c2CC2CN4CCCC4C4(CCC=CC124)C3=O

>  <smiles>  (320) 
[H]Oc1c2c3c(c(O[H])c1C([H])([H])[H])C(=C([H])C([H])([H])[H])C14C([H])=C([H])C([H])([H])C([H])([H])C1(C2=O)C1([H])C([H])([H])C([H])([H])C([H])([H])[N+]1([H])C([H])([H])C4([H])C3([H])[H]

$$$$
87:4:0
     RDKit          3D

 55 60  0  0  1  0  0  0  0  0999 V2000
    8.7323   -4.3512    0.9887 C   0  0  0  0  0  0  0  0  0  0  0  0
    7.5023   -3.7770    0.3110 C   0  0  0  0  0  0  0  0  0  0  0  0
    6.1912   -3.7822    0.6626 C   0  0  0  0  0  0  0  0  0  0  0  0
    5.2114   -3.0863   -0.2014 C   0  0  0  0  0  0  0  0  0  0  0  0
    5.0731   -3.2729   -1.6023 C   0  0  0  0  0  0  0  0  0  0  0  0
    6.1265   -3.4510   -2.4708 O   0  0  0  0  0  0  0  0  0  0  0  0
    3.7241   -3.2935   -2.0465 C   0  0  0  0  0  0  0  0  0  0  0  0
    3.4030   -3.4123   -3.5490 C   0  0  0  0  0  0  0  0  0  0  0  0
    2.6655   -3.3787   -1.0980 C   0  0  0  0  0  0  0  0  0  0  0  0
    1.4115   -3.7432   -1.5228 O   0  0  0  0  0  0  0  0  0  0  0  0
    2.9345   -3.3375    0.3026 C   0  0  0  0  0  0  0  0  0  0  0  0
    4.1082   -2.6529    0.5450 C   0  0  0  0  0  0  0  0  0  0  0  0
    4.5655   -2.1523    1.9304 C   0  0  0  0  0  0  0  0  0  0  0  0
    5.1031   -3.2812    2.8365 C   0  0  1  0  0  0  0  0  0  0  0  0
    4.0656   -3.5762    3.9516 C   0  0  0  0  0  0  0  0  0  0  0  0
    3.9827   -5.0031    4.2941 N   0  0  1  0  0  0  0  0  0  0  0  0
    3.0017   -5.3261    5.3568 C   0  0  0  0  0  0  0  0  0  0  0  0
    2.3049   -6.6163    4.9354 C   0  0  0  0  0  0  0  0  0  0  0  0
    2.3067   -6.4907    3.4294 C   0  0  0  0  0  0  0  0  0  0  0  0
    3.6925   -5.8849    3.1341 C   0  0  1  0  0  0  0  0  0  0  0  0
    4.1327   -5.3106    1.7100 C   0  0  2  0  0  0  0  0  0  0  0  0
    4.5145   -6.5111    0.7945 C   0  0  0  0  0  0  0  0  0  0  0  0
    5.6392   -7.4314    1.3421 C   0  0  0  0  0  0  0  0  0  0  0  0
    6.6061   -6.7320    2.2681 C   0  0  0  0  0  0  0  0  0  0  0  0
    6.5209   -5.4284    2.5666 C   0  0  0  0  0  0  0  0  0  0  0  0
    5.5042   -4.4699    1.9231 C   0  0  1  0  0  0  0  0  0  0  0  0
    2.8500   -4.6544    1.0278 C   0  0  0  0  0  0  0  0  0  0  0  0
    1.8299   -5.3478    0.9649 O   0  0  0  0  0  0  0  0  0  0  0  0
    9.6080   -3.8698    0.5611 H   0  0  0  0  0  0  0  0  0  0  0  0
    8.8211   -5.4318    0.8533 H   0  0  0  0  0  0  0  0  0  0  0  0
    8.7704   -4.1335    2.0521 H   0  0  0  0  0  0  0  0  0  0  0  0
    7.7427   -3.3003   -0.6245 H   0  0  0  0  0  0  0  0  0  0  0  0
    2.4064   -3.0413   -3.7770 H   0  0  0  0  0  0  0  0  0  0  0  0
    3.4511   -4.4233   -3.9353 H   0  0  0  0  0  0  0  0  0  0  0  0
    4.1293   -2.8586   -4.1324 H   0  0  0  0  0  0  0  0  0  0  0  0
    1.3505   -3.8823   -2.4631 H   0  0  0  0  0  0  0  0  0  0  0  0
    5.3506   -1.4069    1.7895 H   0  0  0  0  0  0  0  0  0  0  0  0
    3.7549   -1.6017    2.3892 H   0  0  0  0  0  0  0  0  0  0  0  0
    5.9868   -2.8908    3.3362 H   0  0  0  0  0  0  0  0  0  0  0  0
    4.3098   -3.0074    4.8468 H   0  0  0  0  0  0  0  0  0  0  0  0
    3.0712   -3.2406    3.6621 H   0  0  0  0  0  0  0  0  0  0  0  0
    3.4762   -5.4276    6.3257 H   0  0  0  0  0  0  0  0  0  0  0  0
    2.2584   -4.5381    5.4723 H   0  0  0  0  0  0  0  0  0  0  0  0
    2.8807   -7.4899    5.2408 H   0  0  0  0  0  0  0  0  0  0  0  0
    1.3048   -6.7131    5.3577 H   0  0  0  0  0  0  0  0  0  0  0  0
    2.1440   -7.4449    2.9205 H   0  0  0  0  0  0  0  0  0  0  0  0
    1.4808   -5.8112    3.2210 H   0  0  0  0  0  0  0  0  0  0  0  0
    4.3182   -6.7366    3.3600 H   0  0  0  0  0  0  0  0  0  0  0  0
    3.6432   -7.1183    0.5578 H   0  0  0  0  0  0  0  0  0  0  0  0
    4.8219   -6.1219   -0.1742 H   0  0  0  0  0  0  0  0  0  0  0  0
    5.2113   -8.2696    1.8896 H   0  0  0  0  0  0  0  0  0  0  0  0
    6.2157   -7.8916    0.5565 H   0  0  0  0  0  0  0  0  0  0  0  0
    7.3402   -7.3586    2.7509 H   0  0  0  0  0  0  0  0  0  0  0  0
    7.1858   -5.0910    3.3452 H   0  0  0  0  0  0  0  0  0  0  0  0
    4.8919   -5.2735    4.6352 H   0  0  0  0  0  0  0  0  0  0  0  0
  1  2  1  0
  1 29  1  0
  1 30  1  0
  1 31  1  0
  2  3  2  3
  2 32  1  0
  3 26  1  0
  3  4  1  0
  4 12  2  0
  4  5  1  0
  5  6  1  0
  5  7  2  0
  7  8  1  0
  7  9  1  0
  8 33  1  0
  8 34  1  0
  8 35  1  0
  9 10  1  0
  9 11  2  0
 10 36  1  0
 11 27  1  0
 11 12  1  0
 12 13  1  0
 13 14  1  0
 13 37  1  0
 13 38  1  0
 14 26  1  0
 14 15  1  0
 14 39  1  1
 15 16  1  0
 15 40  1  0
 15 41  1  0
 16 20  1  0
 16 17  1  0
 16 55  1  1
 17 18  1  0
 17 42  1  0
 17 43  1  0
 18 19  1  0
 18 44  1  0
 18 45  1  0
 19 20  1  0
 19 46  1  0
 19 47  1  0
 20 21  1  0
 20 48  1  1
 21 26  1  0
 21 22  1  6
 21 27  1  0
 22 23  1  0
 22 49  1  0
 22 50  1  0
 23 24  1  0
 23 51  1  0
 23 52  1  0
 24 25  2  0
 24 53  1  0
 26 25  1  1
 25 54  1  0
 27 28  2  0
M  CHG  2   6  -1  16   1
M  END
>  <i_m_ct_stereo_status>  (321) 
1

>  <s_m_source_file>  (321) 
/var/tmp/pbs.5076255.sched01/tmpfn0mpy04/132vsilkqhl.sdf

>  <i_m_source_file_index>  (321) 
9

>  <i_lp_mmshare_version>  (321) 
48012

>  <i_f3d_flags>  (321) 
0

>  <s_epik_input>  (321) 
Tz1DMWMyYyhbT0hdKWMoW0NIM10pYyhbT0hdKWMoXEMzPVtDSF1cW0NIM10pYzJbQ0gyXVtDQEhdKFtDQF0zKFtDQF0xNDUpW0NIXT1bQ0hdW0NIMl1bQ0gyXTUpW0NIMl1ONltDQEhdNFtDSDJdW0NIMl1bQ0gyXTY=

>  <s_epik_cmdline>  (321) 
J2VwaWtfcHl0aG9uJywgJy1waHQnLCAnMi4wJywgJy1waCcsICc3LjAnLCAnLXRuJywgJzgnLCAnLW1hJywgJzIwMCcsICctaW1hZScsICc8aW5maWxlLm1hZT4nLCAnLW9tYWUnLCAnPG91dGZpbGUubWFlPic=

>  <r_epik_Ionization_Penalty>  (321) 
1.95011

>  <r_epik_Ionization_Penalty_Charging>  (321) 
1.94918

>  <r_epik_Ionization_Penalty_Neutral>  (321) 
0.000931545

>  <r_epik_State_Penalty>  (321) 
2.15332

>  <r_epik_Charging_Adjusted_Penalty>  (321) 
4.1025

>  <i_epik_Tot_Q>  (321) 
0

>  <i_epik_Tot_abs_Q>  (321) 
2

>  <s_lp_Force_Field>  (321) 
OPLS3e

>  <r_lp_Energy>  (321) 
153.693

>  <b_lp_Chiralities_Consistent>  (321) 
1

>  <s_lp_Variant>  (321) 
87:0-5

>  <s_i_glide_gridfile>  (321) 
pfpi4k_grid

>  <i_i_glide_lignum>  (321) 
9

>  <i_i_glide_rotatable_bonds>  (321) 
1

>  <r_i_docking_score>  (321) 
-3.26514

>  <r_i_glide_ligand_efficiency>  (321) 
-0.116612

>  <r_i_glide_ligand_efficiency_sa>  (321) 
-0.354103

>  <r_i_glide_ligand_efficiency_ln>  (321) 
-0.75369

>  <r_i_glide_gscore>  (321) 
-3.26514

>  <r_i_glide_lipo>  (321) 
-0.986938

>  <r_i_glide_hbond>  (321) 
-0.0957879

>  <r_i_glide_metal>  (321) 
-0

>  <r_i_glide_rewards>  (321) 
-0.83539

>  <r_i_glide_evdw>  (321) 
-16.7215

>  <r_i_glide_ecoul>  (321) 
-3.29771

>  <r_i_glide_erotb>  (321) 
0

>  <r_i_glide_esite>  (321) 
-0.0162916

>  <r_i_glide_emodel>  (321) 
-22.1912

>  <r_i_glide_energy>  (321) 
-20.0192

>  <r_i_glide_einternal>  (321) 
0.137056

>  <r_i_glide_intrahb_reward>  (321) 
-0

>  <i_i_glide_confnum>  (321) 
2

>  <i_i_glide_posenum>  (321) 
17

>  <r_i_glide_eff_state_penalty>  (321) 
0

>  <ligand_id>  (321) 
87

>  <original_smiles>  (321) 
CC=C1c2c(O)c(C)c(O)c3c2CC2CN4CCCC4C4(CCC=CC124)C3=O

>  <smiles>  (321) 
[H]Oc1c2c3c(c([O-])c1C([H])([H])[H])C(=C([H])C([H])([H])[H])C14C([H])=C([H])C([H])([H])C([H])([H])C1(C2=O)C1([H])C([H])([H])C([H])([H])C([H])([H])[N+]1([H])C([H])([H])C4([H])C3([H])[H]

$$$$
87:4:1
     RDKit          3D

 55 60  0  0  1  0  0  0  0  0999 V2000
    8.5368   -2.4538   -0.5292 C   0  0  0  0  0  0  0  0  0  0  0  0
    7.1333   -2.3161   -1.0776 C   0  0  0  0  0  0  0  0  0  0  0  0
    5.9321   -2.5822   -0.5073 C   0  0  0  0  0  0  0  0  0  0  0  0
    4.7149   -2.2664   -1.2665 C   0  0  0  0  0  0  0  0  0  0  0  0
    4.4725   -2.7703   -2.5747 C   0  0  0  0  0  0  0  0  0  0  0  0
    5.4089   -3.1218   -3.5070 O   0  0  0  0  0  0  0  0  0  0  0  0
    3.0941   -3.0715   -2.7684 C   0  0  0  0  0  0  0  0  0  0  0  0
    2.6179   -3.5406   -4.1265 C   0  0  0  0  0  0  0  0  0  0  0  0
    2.2418   -3.2595   -1.6335 C   0  0  0  0  0  0  0  0  0  0  0  0
    1.0242   -3.8566   -1.7458 O   0  0  0  0  0  0  0  0  0  0  0  0
    2.7068   -3.0015   -0.3306 C   0  0  0  0  0  0  0  0  0  0  0  0
    3.6521   -1.9919   -0.3959 C   0  0  0  0  0  0  0  0  0  0  0  0
    4.1375   -1.1959    0.8252 C   0  0  0  0  0  0  0  0  0  0  0  0
    5.0642   -2.0215    1.7542 C   0  0  1  0  0  0  0  0  0  0  0  0
    4.3054   -2.3833    3.0563 C   0  0  0  0  0  0  0  0  0  0  0  0
    4.6507   -3.7180    3.5631 N   0  0  1  0  0  0  0  0  0  0  0  0
    3.9496   -4.0973    4.8115 C   0  0  0  0  0  0  0  0  0  0  0  0
    3.5700   -5.5709    4.6702 C   0  0  0  0  0  0  0  0  0  0  0  0
    3.3315   -5.6875    3.1751 C   0  0  0  0  0  0  0  0  0  0  0  0
    4.4509   -4.8114    2.5821 C   0  0  1  0  0  0  0  0  0  0  0  0
    4.5087   -4.3863    1.0446 C   0  0  2  0  0  0  0  0  0  0  0  0
    5.0913   -5.5755    0.2218 C   0  0  0  0  0  0  0  0  0  0  0  0
    6.5002   -6.0601    0.6928 C   0  0  0  0  0  0  0  0  0  0  0  0
    7.3109   -5.0069    1.3597 C   0  0  0  0  0  0  0  0  0  0  0  0
    6.8812   -3.7465    1.4468 C   0  0  0  0  0  0  0  0  0  0  0  0
    5.5884   -3.2079    0.9018 C   0  0  1  0  0  0  0  0  0  0  0  0
    3.0371   -4.1721    0.5233 C   0  0  0  0  0  0  0  0  0  0  0  0
    2.2105   -5.0655    0.7186 O   0  0  0  0  0  0  0  0  0  0  0  0
    9.1721   -1.8719   -1.1725 H   0  0  0  0  0  0  0  0  0  0  0  0
    8.9010   -3.4801   -0.5605 H   0  0  0  0  0  0  0  0  0  0  0  0
    8.6588   -2.0207    0.4609 H   0  0  0  0  0  0  0  0  0  0  0  0
    7.1144   -1.9664   -2.0979 H   0  0  0  0  0  0  0  0  0  0  0  0
    1.5506   -3.3959   -4.2777 H   0  0  0  0  0  0  0  0  0  0  0  0
    2.8441   -4.6026   -4.2183 H   0  0  0  0  0  0  0  0  0  0  0  0
    3.1238   -3.0149   -4.9288 H   0  0  0  0  0  0  0  0  0  0  0  0
    0.8124   -4.1724   -2.6248 H   0  0  0  0  0  0  0  0  0  0  0  0
    4.6582   -0.3008    0.4694 H   0  0  0  0  0  0  0  0  0  0  0  0
    3.2699   -0.8085    1.3415 H   0  0  0  0  0  0  0  0  0  0  0  0
    5.8975   -1.3627    2.0302 H   0  0  0  0  0  0  0  0  0  0  0  0
    4.5094   -1.6401    3.8176 H   0  0  0  0  0  0  0  0  0  0  0  0
    3.2337   -2.3491    2.9010 H   0  0  0  0  0  0  0  0  0  0  0  0
    4.5572   -3.9360    5.6895 H   0  0  0  0  0  0  0  0  0  0  0  0
    3.0454   -3.5179    4.9611 H   0  0  0  0  0  0  0  0  0  0  0  0
    4.3928   -6.2261    4.9700 H   0  0  0  0  0  0  0  0  0  0  0  0
    2.6923   -5.8542    5.2643 H   0  0  0  0  0  0  0  0  0  0  0  0
    3.3514   -6.7210    2.8137 H   0  0  0  0  0  0  0  0  0  0  0  0
    2.3335   -5.2716    3.0322 H   0  0  0  0  0  0  0  0  0  0  0  0
    5.3049   -5.4398    2.8009 H   0  0  0  0  0  0  0  0  0  0  0  0
    4.3971   -6.4193    0.2053 H   0  0  0  0  0  0  0  0  0  0  0  0
    5.1495   -5.2794   -0.8277 H   0  0  0  0  0  0  0  0  0  0  0  0
    6.4036   -6.9308    1.3417 H   0  0  0  0  0  0  0  0  0  0  0  0
    7.1845   -6.2659   -0.1153 H   0  0  0  0  0  0  0  0  0  0  0  0
    8.2653   -5.3332    1.7560 H   0  0  0  0  0  0  0  0  0  0  0  0
    7.4101   -3.0193    1.9745 H   0  0  0  0  0  0  0  0  0  0  0  0
    5.6303   -3.7012    3.7748 H   0  0  0  0  0  0  0  0  0  0  0  0
  1  2  1  0
  1 29  1  0
  1 30  1  0
  1 31  1  0
  2  3  2  3
  2 32  1  0
  3 26  1  0
  3  4  1  0
  4 12  2  0
  4  5  1  0
  5  6  1  0
  5  7  2  0
  7  8  1  0
  7  9  1  0
  8 33  1  0
  8 34  1  0
  8 35  1  0
  9 10  1  0
  9 11  2  0
 10 36  1  0
 11 27  1  0
 11 12  1  0
 12 13  1  0
 13 14  1  0
 13 37  1  0
 13 38  1  0
 14 26  1  0
 14 15  1  0
 14 39  1  1
 15 16  1  0
 15 40  1  0
 15 41  1  0
 16 20  1  0
 16 17  1  0
 16 55  1  1
 17 18  1  0
 17 42  1  0
 17 43  1  0
 18 19  1  0
 18 44  1  0
 18 45  1  0
 19 20  1  0
 19 46  1  0
 19 47  1  0
 20 21  1  0
 20 48  1  6
 21 26  1  0
 21 22  1  6
 21 27  1  0
 22 23  1  0
 22 49  1  0
 22 50  1  0
 23 24  1  0
 23 51  1  0
 23 52  1  0
 24 25  2  0
 24 53  1  0
 26 25  1  1
 25 54  1  0
 27 28  2  0
M  CHG  2   6  -1  16   1
M  END
>  <i_m_ct_stereo_status>  (322) 
1

>  <s_m_source_file>  (322) 
/var/tmp/pbs.5076255.sched01/tmpfn0mpy04/132vsilkqhl.sdf

>  <i_m_source_file_index>  (322) 
9

>  <i_lp_mmshare_version>  (322) 
48012

>  <i_f3d_flags>  (322) 
0

>  <s_epik_input>  (322) 
Tz1DMWMyYyhbT0hdKWMoW0NIM10pYyhbT0hdKWMoXEMzPVtDSF1cW0NIM10pYzJbQ0gyXVtDQEhdKFtDQF0zKFtDQF0xNDUpW0NIXT1bQ0hdW0NIMl1bQ0gyXTUpW0NIMl1ONltDQEhdNFtDSDJdW0NIMl1bQ0gyXTY=

>  <s_epik_cmdline>  (322) 
J2VwaWtfcHl0aG9uJywgJy1waHQnLCAnMi4wJywgJy1waCcsICc3LjAnLCAnLXRuJywgJzgnLCAnLW1hJywgJzIwMCcsICctaW1hZScsICc8aW5maWxlLm1hZT4nLCAnLW9tYWUnLCAnPG91dGZpbGUubWFlPic=

>  <r_epik_Ionization_Penalty>  (322) 
1.95011

>  <r_epik_Ionization_Penalty_Charging>  (322) 
1.94918

>  <r_epik_Ionization_Penalty_Neutral>  (322) 
0.000931545

>  <r_epik_State_Penalty>  (322) 
2.15332

>  <r_epik_Charging_Adjusted_Penalty>  (322) 
4.1025

>  <i_epik_Tot_Q>  (322) 
0

>  <i_epik_Tot_abs_Q>  (322) 
2

>  <s_lp_Force_Field>  (322) 
OPLS3e

>  <r_lp_Energy>  (322) 
153.693

>  <b_lp_Chiralities_Consistent>  (322) 
1

>  <s_lp_Variant>  (322) 
87:0-5

>  <s_i_glide_gridfile>  (322) 
pfpi4k_grid

>  <i_i_glide_lignum>  (322) 
9

>  <i_i_glide_rotatable_bonds>  (322) 
1

>  <r_i_docking_score>  (322) 
-3.25478

>  <r_i_glide_ligand_efficiency>  (322) 
-0.116242

>  <r_i_glide_ligand_efficiency_sa>  (322) 
-0.35298

>  <r_i_glide_ligand_efficiency_ln>  (322) 
-0.7513

>  <r_i_glide_gscore>  (322) 
-3.25478

>  <r_i_glide_lipo>  (322) 
-0.688059

>  <r_i_glide_hbond>  (322) 
-0.0214863

>  <r_i_glide_metal>  (322) 
-0

>  <r_i_glide_rewards>  (322) 
-0.83539

>  <r_i_glide_evdw>  (322) 
-13.0286

>  <r_i_glide_ecoul>  (322) 
-6.9631

>  <r_i_glide_erotb>  (322) 
0

>  <r_i_glide_esite>  (322) 
-0.0139553

>  <r_i_glide_emodel>  (322) 
-22.5604

>  <r_i_glide_energy>  (322) 
-19.9917

>  <r_i_glide_einternal>  (322) 
0.00139434

>  <r_i_glide_intrahb_reward>  (322) 
-0

>  <i_i_glide_confnum>  (322) 
2

>  <i_i_glide_posenum>  (322) 
24

>  <r_i_glide_eff_state_penalty>  (322) 
0

>  <ligand_id>  (322) 
87

>  <original_smiles>  (322) 
CC=C1c2c(O)c(C)c(O)c3c2CC2CN4CCCC4C4(CCC=CC124)C3=O

>  <smiles>  (322) 
[H]Oc1c2c3c(c([O-])c1C([H])([H])[H])C(=C([H])C([H])([H])[H])C14C([H])=C([H])C([H])([H])C([H])([H])C1(C2=O)C1([H])C([H])([H])C([H])([H])C([H])([H])[N+]1([H])C([H])([H])C4([H])C3([H])[H]

$$$$
87:4:2
     RDKit          3D

 55 60  0  0  1  0  0  0  0  0999 V2000
    8.8799   -2.6321    0.0640 C   0  0  0  0  0  0  0  0  0  0  0  0
    7.4693   -2.4203   -0.4438 C   0  0  0  0  0  0  0  0  0  0  0  0
    6.2805   -2.8397    0.0527 C   0  0  0  0  0  0  0  0  0  0  0  0
    5.0453   -2.4314   -0.6227 C   0  0  0  0  0  0  0  0  0  0  0  0
    4.7875   -2.6639   -1.9951 C   0  0  0  0  0  0  0  0  0  0  0  0
    5.7549   -2.7130   -2.9470 O   0  0  0  0  0  0  0  0  0  0  0  0
    3.4411   -3.0032   -2.3056 C   0  0  0  0  0  0  0  0  0  0  0  0
    2.9836   -3.1539   -3.7484 C   0  0  0  0  0  0  0  0  0  0  0  0
    2.5815   -3.3989   -1.2431 C   0  0  0  0  0  0  0  0  0  0  0  0
    1.3944   -4.0054   -1.5168 O   0  0  0  0  0  0  0  0  0  0  0  0
    3.0407   -3.3369    0.1016 C   0  0  0  0  0  0  0  0  0  0  0  0
    3.9814   -2.3394    0.2751 C   0  0  0  0  0  0  0  0  0  0  0  0
    4.4314   -1.8180    1.6530 C   0  0  0  0  0  0  0  0  0  0  0  0
    5.4021   -2.7897    2.3756 C   0  0  1  0  0  0  0  0  0  0  0  0
    4.6644   -3.4689    3.5756 C   0  0  0  0  0  0  0  0  0  0  0  0
    5.0571   -4.8816    3.7834 N   0  0  1  0  0  0  0  0  0  0  0  0
    4.3755   -5.5649    4.9194 C   0  0  0  0  0  0  0  0  0  0  0  0
    4.0510   -6.9865    4.4435 C   0  0  0  0  0  0  0  0  0  0  0  0
    3.8048   -6.7710    2.9573 C   0  0  0  0  0  0  0  0  0  0  0  0
    4.8914   -5.7401    2.5834 C   0  0  1  0  0  0  0  0  0  0  0  0
    4.9257   -4.9754    1.1664 C   0  0  2  0  0  0  0  0  0  0  0  0
    5.5629   -5.9405    0.1108 C   0  0  0  0  0  0  0  0  0  0  0  0
    6.9663   -6.5228    0.4977 C   0  0  0  0  0  0  0  0  0  0  0  0
    7.7632   -5.6156    1.3571 C   0  0  0  0  0  0  0  0  0  0  0  0
    7.3427   -4.4018    1.6788 C   0  0  0  0  0  0  0  0  0  0  0  0
    5.9958   -3.7622    1.2999 C   0  0  1  0  0  0  0  0  0  0  0  0
    3.4232   -4.6536    0.7048 C   0  0  0  0  0  0  0  0  0  0  0  0
    2.5949   -5.5634    0.7084 O   0  0  0  0  0  0  0  0  0  0  0  0
    9.5135   -1.9502   -0.4269 H   0  0  0  0  0  0  0  0  0  0  0  0
    9.2885   -3.6044   -0.1927 H   0  0  0  0  0  0  0  0  0  0  0  0
    9.0074   -2.4089    1.1126 H   0  0  0  0  0  0  0  0  0  0  0  0
    7.4470   -1.8726   -1.3666 H   0  0  0  0  0  0  0  0  0  0  0  0
    1.9013   -3.0649   -3.8450 H   0  0  0  0  0  0  0  0  0  0  0  0
    3.2802   -4.1232   -4.1434 H   0  0  0  0  0  0  0  0  0  0  0  0
    3.4209   -2.3804   -4.3737 H   0  0  0  0  0  0  0  0  0  0  0  0
    1.2575   -4.1818   -2.4478 H   0  0  0  0  0  0  0  0  0  0  0  0
    4.9106   -0.8463    1.5185 H   0  0  0  0  0  0  0  0  0  0  0  0
    3.5386   -1.5921    2.2487 H   0  0  0  0  0  0  0  0  0  0  0  0
    6.2074   -2.1833    2.7924 H   0  0  0  0  0  0  0  0  0  0  0  0
    4.8501   -2.9033    4.4945 H   0  0  0  0  0  0  0  0  0  0  0  0
    3.5815   -3.4550    3.4313 H   0  0  0  0  0  0  0  0  0  0  0  0
    4.9976   -5.5742    5.8200 H   0  0  0  0  0  0  0  0  0  0  0  0
    3.4429   -5.0570    5.1747 H   0  0  0  0  0  0  0  0  0  0  0  0
    4.9016   -7.6509    4.5993 H   0  0  0  0  0  0  0  0  0  0  0  0
    3.1925   -7.4219    4.9525 H   0  0  0  0  0  0  0  0  0  0  0  0
    3.8563   -7.6890    2.3727 H   0  0  0  0  0  0  0  0  0  0  0  0
    2.7997   -6.3645    2.8838 H   0  0  0  0  0  0  0  0  0  0  0  0
    5.7787   -6.3617    2.6649 H   0  0  0  0  0  0  0  0  0  0  0  0
    4.9112   -6.7876   -0.0733 H   0  0  0  0  0  0  0  0  0  0  0  0
    5.6150   -5.4052   -0.8426 H   0  0  0  0  0  0  0  0  0  0  0  0
    6.8883   -7.4952    0.9895 H   0  0  0  0  0  0  0  0  0  0  0  0
    7.6945   -6.6299   -0.3080 H   0  0  0  0  0  0  0  0  0  0  0  0
    8.7543   -5.9277    1.6555 H   0  0  0  0  0  0  0  0  0  0  0  0
    8.1506   -3.8584    2.0611 H   0  0  0  0  0  0  0  0  0  0  0  0
    6.0457   -4.8779    3.9921 H   0  0  0  0  0  0  0  0  0  0  0  0
  1  2  1  0
  1 29  1  0
  1 30  1  0
  1 31  1  0
  2  3  2  3
  2 32  1  0
  3 26  1  0
  3  4  1  0
  4 12  2  0
  4  5  1  0
  5  6  1  0
  5  7  2  0
  7  8  1  0
  7  9  1  0
  8 33  1  0
  8 34  1  0
  8 35  1  0
  9 10  1  0
  9 11  2  0
 10 36  1  0
 11 27  1  0
 11 12  1  0
 12 13  1  0
 13 14  1  0
 13 37  1  0
 13 38  1  0
 14 26  1  0
 14 15  1  0
 14 39  1  1
 15 16  1  0
 15 40  1  0
 15 41  1  0
 16 20  1  0
 16 17  1  0
 16 55  1  1
 17 18  1  0
 17 42  1  0
 17 43  1  0
 18 19  1  0
 18 44  1  0
 18 45  1  0
 19 20  1  0
 19 46  1  0
 19 47  1  0
 20 21  1  0
 20 48  1  6
 21 26  1  0
 21 22  1  6
 21 27  1  0
 22 23  1  0
 22 49  1  0
 22 50  1  0
 23 24  1  0
 23 51  1  0
 23 52  1  0
 24 25  2  0
 24 53  1  0
 26 25  1  1
 25 54  1  0
 27 28  2  0
M  CHG  2   6  -1  16   1
M  END
>  <i_m_ct_stereo_status>  (323) 
1

>  <s_m_source_file>  (323) 
/var/tmp/pbs.5076255.sched01/tmpfn0mpy04/132vsilkqhl.sdf

>  <i_m_source_file_index>  (323) 
9

>  <i_lp_mmshare_version>  (323) 
48012

>  <i_f3d_flags>  (323) 
0

>  <s_epik_input>  (323) 
Tz1DMWMyYyhbT0hdKWMoW0NIM10pYyhbT0hdKWMoXEMzPVtDSF1cW0NIM10pYzJbQ0gyXVtDQEhdKFtDQF0zKFtDQF0xNDUpW0NIXT1bQ0hdW0NIMl1bQ0gyXTUpW0NIMl1ONltDQEhdNFtDSDJdW0NIMl1bQ0gyXTY=

>  <s_epik_cmdline>  (323) 
J2VwaWtfcHl0aG9uJywgJy1waHQnLCAnMi4wJywgJy1waCcsICc3LjAnLCAnLXRuJywgJzgnLCAnLW1hJywgJzIwMCcsICctaW1hZScsICc8aW5maWxlLm1hZT4nLCAnLW9tYWUnLCAnPG91dGZpbGUubWFlPic=

>  <r_epik_Ionization_Penalty>  (323) 
1.95011

>  <r_epik_Ionization_Penalty_Charging>  (323) 
1.94918

>  <r_epik_Ionization_Penalty_Neutral>  (323) 
0.000931545

>  <r_epik_State_Penalty>  (323) 
2.15332

>  <r_epik_Charging_Adjusted_Penalty>  (323) 
4.1025

>  <i_epik_Tot_Q>  (323) 
0

>  <i_epik_Tot_abs_Q>  (323) 
2

>  <s_lp_Force_Field>  (323) 
OPLS3e

>  <r_lp_Energy>  (323) 
153.693

>  <b_lp_Chiralities_Consistent>  (323) 
1

>  <s_lp_Variant>  (323) 
87:0-5

>  <s_i_glide_gridfile>  (323) 
pfpi4k_grid

>  <i_i_glide_lignum>  (323) 
9

>  <i_i_glide_rotatable_bonds>  (323) 
1

>  <r_i_docking_score>  (323) 
-2.79547

>  <r_i_glide_ligand_efficiency>  (323) 
-0.0998382

>  <r_i_glide_ligand_efficiency_sa>  (323) 
-0.303168

>  <r_i_glide_ligand_efficiency_ln>  (323) 
-0.645277

>  <r_i_glide_gscore>  (323) 
-2.79547

>  <r_i_glide_lipo>  (323) 
-0.758776

>  <r_i_glide_hbond>  (323) 
0

>  <r_i_glide_metal>  (323) 
-0

>  <r_i_glide_rewards>  (323) 
-0.83539

>  <r_i_glide_evdw>  (323) 
-15.4797

>  <r_i_glide_ecoul>  (323) 
-2.81344

>  <r_i_glide_erotb>  (323) 
0

>  <r_i_glide_esite>  (323) 
-0.00529988

>  <r_i_glide_emodel>  (323) 
-18.4859

>  <r_i_glide_energy>  (323) 
-18.2932

>  <r_i_glide_einternal>  (323) 
0.041467

>  <r_i_glide_intrahb_reward>  (323) 
-0

>  <i_i_glide_confnum>  (323) 
1

>  <i_i_glide_posenum>  (323) 
37

>  <r_i_glide_eff_state_penalty>  (323) 
0

>  <ligand_id>  (323) 
87

>  <original_smiles>  (323) 
CC=C1c2c(O)c(C)c(O)c3c2CC2CN4CCCC4C4(CCC=CC124)C3=O

>  <smiles>  (323) 
[H]Oc1c2c3c(c([O-])c1C([H])([H])[H])C(=C([H])C([H])([H])[H])C14C([H])=C([H])C([H])([H])C([H])([H])C1(C2=O)C1([H])C([H])([H])C([H])([H])C([H])([H])[N+]1([H])C([H])([H])C4([H])C3([H])[H]

$$$$
87:5:0
     RDKit          3D

 55 60  0  0  1  0  0  0  0  0999 V2000
    4.5106   -4.5674    6.1344 C   0  0  0  0  0  0  0  0  0  0  0  0
    4.6947   -3.9648    4.7560 C   0  0  0  0  0  0  0  0  0  0  0  0
    4.2253   -4.4353    3.5726 C   0  0  0  0  0  0  0  0  0  0  0  0
    3.3506   -5.6155    3.4672 C   0  0  0  0  0  0  0  0  0  0  0  0
    2.0622   -5.6874    4.0540 C   0  0  0  0  0  0  0  0  0  0  0  0
    1.6668   -5.0245    5.2029 O   0  0  0  0  0  0  0  0  0  0  0  0
    1.1230   -6.4080    3.2675 C   0  0  0  0  0  0  0  0  0  0  0  0
   -0.2691   -6.7202    3.8236 C   0  0  0  0  0  0  0  0  0  0  0  0
    1.4003   -6.6872    1.8913 C   0  0  0  0  0  0  0  0  0  0  0  0
    0.3892   -7.0964    1.0773 O   0  0  0  0  0  0  0  0  0  0  0  0
    2.6471   -6.2889    1.3281 C   0  0  0  0  0  0  0  0  0  0  0  0
    3.6392   -6.3296    2.2773 C   0  0  0  0  0  0  0  0  0  0  0  0
    5.1270   -6.2600    1.9024 C   0  0  0  0  0  0  0  0  0  0  0  0
    5.5956   -4.8204    1.5405 C   0  0  1  0  0  0  0  0  0  0  0  0
    5.8271   -4.7201    0.0051 C   0  0  0  0  0  0  0  0  0  0  0  0
    5.4571   -3.4098   -0.5509 N   0  0  1  0  0  0  0  0  0  0  0  0
    5.6650   -3.2769   -2.0152 C   0  0  0  0  0  0  0  0  0  0  0  0
    4.4908   -2.4526   -2.5451 C   0  0  0  0  0  0  0  0  0  0  0  0
    3.3660   -2.8991   -1.6252 C   0  0  0  0  0  0  0  0  0  0  0  0
    4.0635   -2.9974   -0.2498 C   0  0  1  0  0  0  0  0  0  0  0  0
    3.4108   -3.6900    1.0363 C   0  0  2  0  0  0  0  0  0  0  0  0
    2.3793   -2.6834    1.6472 C   0  0  0  0  0  0  0  0  0  0  0  0
    2.9457   -1.2981    2.0668 C   0  0  0  0  0  0  0  0  0  0  0  0
    4.4229   -1.3182    2.4102 C   0  0  0  0  0  0  0  0  0  0  0  0
    5.1591   -2.4446    2.4181 C   0  0  0  0  0  0  0  0  0  0  0  0
    4.5669   -3.8305    2.1558 C   0  0  1  0  0  0  0  0  0  0  0  0
    2.6065   -4.9948    0.5733 C   0  0  0  0  0  0  0  0  0  0  0  0
    1.8009   -4.8760   -0.3324 O   0  0  0  0  0  0  0  0  0  0  0  0
    5.4658   -4.6027    6.6561 H   0  0  0  0  0  0  0  0  0  0  0  0
    4.1235   -5.5845    6.0875 H   0  0  0  0  0  0  0  0  0  0  0  0
    3.8230   -3.9651    6.7291 H   0  0  0  0  0  0  0  0  0  0  0  0
    5.3005   -3.0751    4.7828 H   0  0  0  0  0  0  0  0  0  0  0  0
   -0.7292   -7.5740    3.3300 H   0  0  0  0  0  0  0  0  0  0  0  0
   -0.9248   -5.8659    3.7044 H   0  0  0  0  0  0  0  0  0  0  0  0
   -0.2230   -6.9361    4.8904 H   0  0  0  0  0  0  0  0  0  0  0  0
    0.5813   -7.9054    0.6197 H   0  0  0  0  0  0  0  0  0  0  0  0
    5.7127   -6.6366    2.7446 H   0  0  0  0  0  0  0  0  0  0  0  0
    5.3211   -6.9693    1.1020 H   0  0  0  0  0  0  0  0  0  0  0  0
    6.5640   -4.6707    2.0271 H   0  0  0  0  0  0  0  0  0  0  0  0
    6.8734   -4.9171   -0.2064 H   0  0  0  0  0  0  0  0  0  0  0  0
    5.2669   -5.4844   -0.5296 H   0  0  0  0  0  0  0  0  0  0  0  0
    6.6174   -2.8161   -2.2555 H   0  0  0  0  0  0  0  0  0  0  0  0
    5.6559   -4.2462   -2.5093 H   0  0  0  0  0  0  0  0  0  0  0  0
    4.6743   -1.3805   -2.4314 H   0  0  0  0  0  0  0  0  0  0  0  0
    4.2772   -2.6390   -3.6038 H   0  0  0  0  0  0  0  0  0  0  0  0
    2.5152   -2.2157   -1.6354 H   0  0  0  0  0  0  0  0  0  0  0  0
    3.0389   -3.8558   -2.0233 H   0  0  0  0  0  0  0  0  0  0  0  0
    4.2029   -1.9416   -0.0397 H   0  0  0  0  0  0  0  0  0  0  0  0
    1.5549   -2.4951    0.9622 H   0  0  0  0  0  0  0  0  0  0  0  0
    1.9142   -3.1346    2.5232 H   0  0  0  0  0  0  0  0  0  0  0  0
    2.8010   -0.5924    1.2472 H   0  0  0  0  0  0  0  0  0  0  0  0
    2.3823   -0.8916    2.9070 H   0  0  0  0  0  0  0  0  0  0  0  0
    4.8720   -0.3576    2.6133 H   0  0  0  0  0  0  0  0  0  0  0  0
    6.2137   -2.3835    2.6248 H   0  0  0  0  0  0  0  0  0  0  0  0
    6.0432   -2.7368   -0.1033 H   0  0  0  0  0  0  0  0  0  0  0  0
  1  2  1  0
  1 29  1  0
  1 30  1  0
  1 31  1  0
  2  3  2  3
  2 32  1  0
  3 26  1  0
  3  4  1  0
  4 12  2  0
  4  5  1  0
  5  6  1  0
  5  7  2  0
  7  8  1  0
  7  9  1  0
  8 33  1  0
  8 34  1  0
  8 35  1  0
  9 10  1  0
  9 11  2  0
 10 36  1  0
 11 27  1  0
 11 12  1  0
 12 13  1  0
 13 14  1  0
 13 37  1  0
 13 38  1  0
 14 26  1  0
 14 15  1  0
 14 39  1  1
 15 16  1  0
 15 40  1  0
 15 41  1  0
 16 20  1  0
 16 17  1  0
 16 55  1  1
 17 18  1  0
 17 42  1  0
 17 43  1  0
 18 19  1  0
 18 44  1  0
 18 45  1  0
 19 20  1  0
 19 46  1  0
 19 47  1  0
 20 21  1  0
 20 48  1  1
 21 26  1  0
 21 22  1  1
 21 27  1  0
 22 23  1  0
 22 49  1  0
 22 50  1  0
 23 24  1  0
 23 51  1  0
 23 52  1  0
 24 25  2  0
 24 53  1  0
 26 25  1  1
 25 54  1  0
 27 28  2  0
M  CHG  2   6  -1  16   1
M  END
>  <i_m_ct_stereo_status>  (324) 
1

>  <s_m_source_file>  (324) 
/var/tmp/pbs.5076255.sched01/tmpfn0mpy04/132vsilkqhl.sdf

>  <i_m_source_file_index>  (324) 
10

>  <i_lp_mmshare_version>  (324) 
48012

>  <i_f3d_flags>  (324) 
0

>  <s_epik_input>  (324) 
Tz1DMWMyYyhbT0hdKWMoW0NIM10pYyhbT0hdKWMoXEMzPVtDSF1cW0NIM10pYzJbQ0gyXVtDQEhdKFtDQF0zKFtDQF0xNDUpW0NIXT1bQ0hdW0NIMl1bQ0gyXTUpW0NIMl1ONltDQEhdNFtDSDJdW0NIMl1bQ0gyXTY=

>  <s_epik_cmdline>  (324) 
J2VwaWtfcHl0aG9uJywgJy1waHQnLCAnMi4wJywgJy1waCcsICc3LjAnLCAnLXRuJywgJzgnLCAnLW1hJywgJzIwMCcsICctaW1hZScsICc8aW5maWxlLm1hZT4nLCAnLW9tYWUnLCAnPG91dGZpbGUubWFlPic=

>  <r_epik_Ionization_Penalty>  (324) 
1.95011

>  <r_epik_Ionization_Penalty_Charging>  (324) 
1.94918

>  <r_epik_Ionization_Penalty_Neutral>  (324) 
0.000931545

>  <r_epik_State_Penalty>  (324) 
2.15332

>  <r_epik_Charging_Adjusted_Penalty>  (324) 
4.1025

>  <i_epik_Tot_Q>  (324) 
0

>  <i_epik_Tot_abs_Q>  (324) 
2

>  <s_lp_Force_Field>  (324) 
OPLS3e

>  <r_lp_Energy>  (324) 
151.352

>  <b_lp_Chiralities_Consistent>  (324) 
1

>  <s_lp_Variant>  (324) 
87:0-6

>  <s_i_glide_gridfile>  (324) 
pfpi4k_grid

>  <i_i_glide_lignum>  (324) 
10

>  <i_i_glide_rotatable_bonds>  (324) 
1

>  <r_i_docking_score>  (324) 
-3.01421

>  <r_i_glide_ligand_efficiency>  (324) 
-0.10765

>  <r_i_glide_ligand_efficiency_sa>  (324) 
-0.32689

>  <r_i_glide_ligand_efficiency_ln>  (324) 
-0.695768

>  <r_i_glide_gscore>  (324) 
-3.01421

>  <r_i_glide_lipo>  (324) 
-0.576774

>  <r_i_glide_hbond>  (324) 
-0.0364544

>  <r_i_glide_metal>  (324) 
-0

>  <r_i_glide_rewards>  (324) 
-0.83539

>  <r_i_glide_evdw>  (324) 
-19.4764

>  <r_i_glide_ecoul>  (324) 
-3.68447

>  <r_i_glide_erotb>  (324) 
0

>  <r_i_glide_esite>  (324) 
-0.0391007

>  <r_i_glide_emodel>  (324) 
-26.3242

>  <r_i_glide_energy>  (324) 
-23.1608

>  <r_i_glide_einternal>  (324) 
2.60381

>  <r_i_glide_intrahb_reward>  (324) 
-0

>  <i_i_glide_confnum>  (324) 
1

>  <i_i_glide_posenum>  (324) 
1

>  <r_i_glide_eff_state_penalty>  (324) 
0

>  <ligand_id>  (324) 
87

>  <original_smiles>  (324) 
CC=C1c2c(O)c(C)c(O)c3c2CC2CN4CCCC4C4(CCC=CC124)C3=O

>  <smiles>  (324) 
[H]Oc1c2c3c(c([O-])c1C([H])([H])[H])C(=C([H])C([H])([H])[H])C14C([H])=C([H])C([H])([H])C([H])([H])C1(C2=O)C1([H])C([H])([H])C([H])([H])C([H])([H])[N+]1([H])C([H])([H])C4([H])C3([H])[H]

$$$$
87:5:1
     RDKit          3D

 55 60  0  0  1  0  0  0  0  0999 V2000
    5.0826   -5.9897    5.1217 C   0  0  0  0  0  0  0  0  0  0  0  0
    5.0818   -5.5772    3.6622 C   0  0  0  0  0  0  0  0  0  0  0  0
    4.6251   -4.4171    3.1263 C   0  0  0  0  0  0  0  0  0  0  0  0
    4.0960   -3.2989    3.9317 C   0  0  0  0  0  0  0  0  0  0  0  0
    4.8623   -2.6023    4.9042 C   0  0  0  0  0  0  0  0  0  0  0  0
    5.8342   -3.1542    5.6912 O   0  0  0  0  0  0  0  0  0  0  0  0
    4.5880   -1.2023    4.9396 C   0  0  0  0  0  0  0  0  0  0  0  0
    5.2483   -0.3288    5.9997 C   0  0  0  0  0  0  0  0  0  0  0  0
    3.8507   -0.5940    3.8830 C   0  0  0  0  0  0  0  0  0  0  0  0
    3.7726    0.7712    3.7910 O   0  0  0  0  0  0  0  0  0  0  0  0
    3.3609   -1.3686    2.8042 C   0  0  0  0  0  0  0  0  0  0  0  0
    3.0713   -2.6546    3.2415 C   0  0  0  0  0  0  0  0  0  0  0  0
    2.2255   -3.6280    2.4120 C   0  0  0  0  0  0  0  0  0  0  0  0
    3.0110   -4.2651    1.2378 C   0  0  1  0  0  0  0  0  0  0  0  0
    2.5331   -3.6484   -0.1079 C   0  0  0  0  0  0  0  0  0  0  0  0
    3.6159   -3.4788   -1.0909 N   0  0  1  0  0  0  0  0  0  0  0  0
    3.1933   -2.8928   -2.3890 C   0  0  0  0  0  0  0  0  0  0  0  0
    4.3267   -1.9648   -2.8251 C   0  0  0  0  0  0  0  0  0  0  0  0
    4.8283   -1.4388   -1.4858 C   0  0  0  0  0  0  0  0  0  0  0  0
    4.7720   -2.6941   -0.5886 C   0  0  1  0  0  0  0  0  0  0  0  0
    4.9321   -2.6464    1.0014 C   0  0  2  0  0  0  0  0  0  0  0  0
    6.4478   -2.4962    1.3265 C   0  0  0  0  0  0  0  0  0  0  0  0
    7.3726   -3.6224    0.7732 C   0  0  0  0  0  0  0  0  0  0  0  0
    6.6726   -4.9539    0.5553 C   0  0  0  0  0  0  0  0  0  0  0  0
    5.3858   -5.1682    0.8776 C   0  0  0  0  0  0  0  0  0  0  0  0
    4.5234   -4.1095    1.5710 C   0  0  1  0  0  0  0  0  0  0  0  0
    4.1970   -1.3389    1.5609 C   0  0  0  0  0  0  0  0  0  0  0  0
    4.4559   -0.2513    1.0377 O   0  0  0  0  0  0  0  0  0  0  0  0
    4.6964   -7.0023    5.2251 H   0  0  0  0  0  0  0  0  0  0  0  0
    4.4573   -5.3369    5.7306 H   0  0  0  0  0  0  0  0  0  0  0  0
    6.0975   -5.9685    5.5203 H   0  0  0  0  0  0  0  0  0  0  0  0
    5.4780   -6.3504    3.0262 H   0  0  0  0  0  0  0  0  0  0  0  0
    4.6642    0.5694    6.2123 H   0  0  0  0  0  0  0  0  0  0  0  0
    6.2424   -0.0150    5.6749 H   0  0  0  0  0  0  0  0  0  0  0  0
    5.3597   -0.8693    6.9398 H   0  0  0  0  0  0  0  0  0  0  0  0
    4.2619    1.2170    4.4607 H   0  0  0  0  0  0  0  0  0  0  0  0
    1.8406   -4.4118    3.0727 H   0  0  0  0  0  0  0  0  0  0  0  0
    1.3590   -3.0709    2.0811 H   0  0  0  0  0  0  0  0  0  0  0  0
    2.7585   -5.3276    1.2151 H   0  0  0  0  0  0  0  0  0  0  0  0
    1.7673   -4.2759   -0.5544 H   0  0  0  0  0  0  0  0  0  0  0  0
    2.0839   -2.6708    0.0504 H   0  0  0  0  0  0  0  0  0  0  0  0
    2.9990   -3.6613   -3.1297 H   0  0  0  0  0  0  0  0  0  0  0  0
    2.2790   -2.3133   -2.2818 H   0  0  0  0  0  0  0  0  0  0  0  0
    5.1200   -2.5187   -3.3318 H   0  0  0  0  0  0  0  0  0  0  0  0
    3.9917   -1.1657   -3.4912 H   0  0  0  0  0  0  0  0  0  0  0  0
    5.8208   -0.9944   -1.5428 H   0  0  0  0  0  0  0  0  0  0  0  0
    4.1087   -0.6687   -1.2130 H   0  0  0  0  0  0  0  0  0  0  0  0
    5.5989   -3.2649   -0.9961 H   0  0  0  0  0  0  0  0  0  0  0  0
    6.8321   -1.5246    1.0064 H   0  0  0  0  0  0  0  0  0  0  0  0
    6.5574   -2.4809    2.4094 H   0  0  0  0  0  0  0  0  0  0  0  0
    7.7873   -3.3092   -0.1866 H   0  0  0  0  0  0  0  0  0  0  0  0
    8.2324   -3.7860    1.4263 H   0  0  0  0  0  0  0  0  0  0  0  0
    7.2590   -5.7286    0.0837 H   0  0  0  0  0  0  0  0  0  0  0  0
    4.9294   -6.1228    0.6600 H   0  0  0  0  0  0  0  0  0  0  0  0
    3.9551   -4.4098   -1.2966 H   0  0  0  0  0  0  0  0  0  0  0  0
  1  2  1  0
  1 29  1  0
  1 30  1  0
  1 31  1  0
  2  3  2  3
  2 32  1  0
  3 26  1  0
  3  4  1  0
  4 12  2  0
  4  5  1  0
  5  6  1  0
  5  7  2  0
  7  8  1  0
  7  9  1  0
  8 33  1  0
  8 34  1  0
  8 35  1  0
  9 10  1  0
  9 11  2  0
 10 36  1  0
 11 27  1  0
 11 12  1  0
 12 13  1  0
 13 14  1  0
 13 37  1  0
 13 38  1  0
 14 26  1  0
 14 15  1  0
 14 39  1  6
 15 16  1  0
 15 40  1  0
 15 41  1  0
 16 20  1  0
 16 17  1  0
 16 55  1  6
 17 18  1  0
 17 42  1  0
 17 43  1  0
 18 19  1  0
 18 44  1  0
 18 45  1  0
 19 20  1  0
 19 46  1  0
 19 47  1  0
 20 21  1  0
 20 48  1  6
 21 26  1  0
 21 22  1  6
 21 27  1  0
 22 23  1  0
 22 49  1  0
 22 50  1  0
 23 24  1  0
 23 51  1  0
 23 52  1  0
 24 25  2  0
 24 53  1  0
 26 25  1  6
 25 54  1  0
 27 28  2  0
M  CHG  2   6  -1  16   1
M  END
>  <i_m_ct_stereo_status>  (325) 
1

>  <s_m_source_file>  (325) 
/var/tmp/pbs.5076255.sched01/tmpfn0mpy04/132vsilkqhl.sdf

>  <i_m_source_file_index>  (325) 
10

>  <i_lp_mmshare_version>  (325) 
48012

>  <i_f3d_flags>  (325) 
0

>  <s_epik_input>  (325) 
Tz1DMWMyYyhbT0hdKWMoW0NIM10pYyhbT0hdKWMoXEMzPVtDSF1cW0NIM10pYzJbQ0gyXVtDQEhdKFtDQF0zKFtDQF0xNDUpW0NIXT1bQ0hdW0NIMl1bQ0gyXTUpW0NIMl1ONltDQEhdNFtDSDJdW0NIMl1bQ0gyXTY=

>  <s_epik_cmdline>  (325) 
J2VwaWtfcHl0aG9uJywgJy1waHQnLCAnMi4wJywgJy1waCcsICc3LjAnLCAnLXRuJywgJzgnLCAnLW1hJywgJzIwMCcsICctaW1hZScsICc8aW5maWxlLm1hZT4nLCAnLW9tYWUnLCAnPG91dGZpbGUubWFlPic=

>  <r_epik_Ionization_Penalty>  (325) 
1.95011

>  <r_epik_Ionization_Penalty_Charging>  (325) 
1.94918

>  <r_epik_Ionization_Penalty_Neutral>  (325) 
0.000931545

>  <r_epik_State_Penalty>  (325) 
2.15332

>  <r_epik_Charging_Adjusted_Penalty>  (325) 
4.1025

>  <i_epik_Tot_Q>  (325) 
0

>  <i_epik_Tot_abs_Q>  (325) 
2

>  <s_lp_Force_Field>  (325) 
OPLS3e

>  <r_lp_Energy>  (325) 
151.352

>  <b_lp_Chiralities_Consistent>  (325) 
1

>  <s_lp_Variant>  (325) 
87:0-6

>  <s_i_glide_gridfile>  (325) 
pfpi4k_grid

>  <i_i_glide_lignum>  (325) 
10

>  <i_i_glide_rotatable_bonds>  (325) 
1

>  <r_i_docking_score>  (325) 
-2.80852

>  <r_i_glide_ligand_efficiency>  (325) 
-0.100304

>  <r_i_glide_ligand_efficiency_sa>  (325) 
-0.304583

>  <r_i_glide_ligand_efficiency_ln>  (325) 
-0.64829

>  <r_i_glide_gscore>  (325) 
-2.80852

>  <r_i_glide_lipo>  (325) 
-0.57491

>  <r_i_glide_hbond>  (325) 
0

>  <r_i_glide_metal>  (325) 
-0

>  <r_i_glide_rewards>  (325) 
-0.83539

>  <r_i_glide_evdw>  (325) 
-20.0872

>  <r_i_glide_ecoul>  (325) 
-2.61214

>  <r_i_glide_erotb>  (325) 
0

>  <r_i_glide_esite>  (325) 
-0.00204235

>  <r_i_glide_emodel>  (325) 
-27.6037

>  <r_i_glide_energy>  (325) 
-22.6994

>  <r_i_glide_einternal>  (325) 
0.00117018

>  <r_i_glide_intrahb_reward>  (325) 
-0

>  <i_i_glide_confnum>  (325) 
1

>  <i_i_glide_posenum>  (325) 
9

>  <r_i_glide_eff_state_penalty>  (325) 
0

>  <ligand_id>  (325) 
87

>  <original_smiles>  (325) 
CC=C1c2c(O)c(C)c(O)c3c2CC2CN4CCCC4C4(CCC=CC124)C3=O

>  <smiles>  (325) 
[H]Oc1c2c3c(c([O-])c1C([H])([H])[H])C(=C([H])C([H])([H])[H])C14C([H])=C([H])C([H])([H])C([H])([H])C1(C2=O)C1([H])C([H])([H])C([H])([H])C([H])([H])[N+]1([H])C([H])([H])C4([H])C3([H])[H]

$$$$
87:5:2
     RDKit          3D

 55 60  0  0  1  0  0  0  0  0999 V2000
    6.1529   -7.0608    3.9001 C   0  0  0  0  0  0  0  0  0  0  0  0
    5.9183   -6.2374    2.6478 C   0  0  0  0  0  0  0  0  0  0  0  0
    5.0575   -5.2015    2.4805 C   0  0  0  0  0  0  0  0  0  0  0  0
    4.2313   -4.6530    3.5672 C   0  0  0  0  0  0  0  0  0  0  0  0
    4.7725   -4.0598    4.7368 C   0  0  0  0  0  0  0  0  0  0  0  0
    5.9739   -4.4033    5.3063 O   0  0  0  0  0  0  0  0  0  0  0  0
    4.0278   -2.9464    5.2196 C   0  0  0  0  0  0  0  0  0  0  0  0
    4.4137   -2.2798    6.5366 C   0  0  0  0  0  0  0  0  0  0  0  0
    3.0580   -2.3328    4.3763 C   0  0  0  0  0  0  0  0  0  0  0  0
    2.5214   -1.1221    4.7084 O   0  0  0  0  0  0  0  0  0  0  0  0
    2.8017   -2.8586    3.0829 C   0  0  0  0  0  0  0  0  0  0  0  0
    2.9902   -4.2298    3.0730 C   0  0  0  0  0  0  0  0  0  0  0  0
    2.4797   -5.1221    1.9308 C   0  0  0  0  0  0  0  0  0  0  0  0
    3.3646   -5.0326    0.6605 C   0  0  1  0  0  0  0  0  0  0  0  0
    2.6168   -4.2191   -0.4403 C   0  0  0  0  0  0  0  0  0  0  0  0
    3.5259   -3.4001   -1.2611 N   0  0  1  0  0  0  0  0  0  0  0  0
    2.8653   -2.6187   -2.3340 C   0  0  0  0  0  0  0  0  0  0  0  0
    3.5648   -1.2594   -2.3821 C   0  0  0  0  0  0  0  0  0  0  0  0
    3.9379   -1.0486   -0.9193 C   0  0  0  0  0  0  0  0  0  0  0  0
    4.3679   -2.4632   -0.4763 C   0  0  1  0  0  0  0  0  0  0  0  0
    4.6010   -2.8621    1.0581 C   0  0  2  0  0  0  0  0  0  0  0  0
    5.9942   -2.3061    1.5004 C   0  0  0  0  0  0  0  0  0  0  0  0
    7.2033   -2.8021    0.6608 C   0  0  0  0  0  0  0  0  0  0  0  0
    6.9956   -4.1445   -0.0017 C   0  0  0  0  0  0  0  0  0  0  0  0
    5.8844   -4.8885    0.1603 C   0  0  0  0  0  0  0  0  0  0  0  0
    4.7538   -4.4753    1.1076 C   0  0  1  0  0  0  0  0  0  0  0  0
    3.4951   -2.1450    1.9668 C   0  0  0  0  0  0  0  0  0  0  0  0
    3.3162   -0.9322    1.8397 O   0  0  0  0  0  0  0  0  0  0  0  0
    6.1458   -8.1214    3.6544 H   0  0  0  0  0  0  0  0  0  0  0  0
    5.3826   -6.8891    4.6518 H   0  0  0  0  0  0  0  0  0  0  0  0
    7.1234   -6.8184    4.3353 H   0  0  0  0  0  0  0  0  0  0  0  0
    6.5158   -6.5826    1.8215 H   0  0  0  0  0  0  0  0  0  0  0  0
    3.5696   -1.7499    6.9813 H   0  0  0  0  0  0  0  0  0  0  0  0
    5.2172   -1.5595    6.3784 H   0  0  0  0  0  0  0  0  0  0  0  0
    4.7600   -3.0168    7.2607 H   0  0  0  0  0  0  0  0  0  0  0  0
    2.0563   -0.7299    3.9863 H   0  0  0  0  0  0  0  0  0  0  0  0
    2.4545   -6.1547    2.2883 H   0  0  0  0  0  0  0  0  0  0  0  0
    1.4351   -4.8764    1.7279 H   0  0  0  0  0  0  0  0  0  0  0  0
    3.4967   -6.0495    0.2817 H   0  0  0  0  0  0  0  0  0  0  0  0
    2.0415   -4.8874   -1.0779 H   0  0  0  0  0  0  0  0  0  0  0  0
    1.8799   -3.5501   -0.0037 H   0  0  0  0  0  0  0  0  0  0  0  0
    2.8981   -3.1262   -3.2939 H   0  0  0  0  0  0  0  0  0  0  0  0
    1.8155   -2.4664   -2.1067 H   0  0  0  0  0  0  0  0  0  0  0  0
    4.4650   -1.3013   -2.9996 H   0  0  0  0  0  0  0  0  0  0  0  0
    2.9264   -0.4591   -2.7691 H   0  0  0  0  0  0  0  0  0  0  0  0
    4.7135   -0.2910   -0.7774 H   0  0  0  0  0  0  0  0  0  0  0  0
    3.0177   -0.7053   -0.4474 H   0  0  0  0  0  0  0  0  0  0  0  0
    5.3151   -2.5465   -0.9994 H   0  0  0  0  0  0  0  0  0  0  0  0
    5.9976   -1.2139    1.5181 H   0  0  0  0  0  0  0  0  0  0  0  0
    6.1755   -2.5997    2.5352 H   0  0  0  0  0  0  0  0  0  0  0  0
    7.4295   -2.0796   -0.1244 H   0  0  0  0  0  0  0  0  0  0  0  0
    8.1031   -2.8843    1.2675 H   0  0  0  0  0  0  0  0  0  0  0  0
    7.8040   -4.4489   -0.6456 H   0  0  0  0  0  0  0  0  0  0  0  0
    5.7719   -5.8256   -0.3630 H   0  0  0  0  0  0  0  0  0  0  0  0
    4.1494   -4.0457   -1.7169 H   0  0  0  0  0  0  0  0  0  0  0  0
  1  2  1  0
  1 29  1  0
  1 30  1  0
  1 31  1  0
  2  3  2  3
  2 32  1  0
  3 26  1  0
  3  4  1  0
  4 12  2  0
  4  5  1  0
  5  6  1  0
  5  7  2  0
  7  8  1  0
  7  9  1  0
  8 33  1  0
  8 34  1  0
  8 35  1  0
  9 10  1  0
  9 11  2  0
 10 36  1  0
 11 27  1  0
 11 12  1  0
 12 13  1  0
 13 14  1  0
 13 37  1  0
 13 38  1  0
 14 26  1  0
 14 15  1  0
 14 39  1  6
 15 16  1  0
 15 40  1  0
 15 41  1  0
 16 20  1  0
 16 17  1  0
 16 55  1  6
 17 18  1  0
 17 42  1  0
 17 43  1  0
 18 19  1  0
 18 44  1  0
 18 45  1  0
 19 20  1  0
 19 46  1  0
 19 47  1  0
 20 21  1  0
 20 48  1  6
 21 26  1  0
 21 22  1  1
 21 27  1  0
 22 23  1  0
 22 49  1  0
 22 50  1  0
 23 24  1  0
 23 51  1  0
 23 52  1  0
 24 25  2  0
 24 53  1  0
 26 25  1  6
 25 54  1  0
 27 28  2  0
M  CHG  2   6  -1  16   1
M  END
>  <i_m_ct_stereo_status>  (326) 
1

>  <s_m_source_file>  (326) 
/var/tmp/pbs.5076255.sched01/tmpfn0mpy04/132vsilkqhl.sdf

>  <i_m_source_file_index>  (326) 
10

>  <i_lp_mmshare_version>  (326) 
48012

>  <i_f3d_flags>  (326) 
0

>  <s_epik_input>  (326) 
Tz1DMWMyYyhbT0hdKWMoW0NIM10pYyhbT0hdKWMoXEMzPVtDSF1cW0NIM10pYzJbQ0gyXVtDQEhdKFtDQF0zKFtDQF0xNDUpW0NIXT1bQ0hdW0NIMl1bQ0gyXTUpW0NIMl1ONltDQEhdNFtDSDJdW0NIMl1bQ0gyXTY=

>  <s_epik_cmdline>  (326) 
J2VwaWtfcHl0aG9uJywgJy1waHQnLCAnMi4wJywgJy1waCcsICc3LjAnLCAnLXRuJywgJzgnLCAnLW1hJywgJzIwMCcsICctaW1hZScsICc8aW5maWxlLm1hZT4nLCAnLW9tYWUnLCAnPG91dGZpbGUubWFlPic=

>  <r_epik_Ionization_Penalty>  (326) 
1.95011

>  <r_epik_Ionization_Penalty_Charging>  (326) 
1.94918

>  <r_epik_Ionization_Penalty_Neutral>  (326) 
0.000931545

>  <r_epik_State_Penalty>  (326) 
2.15332

>  <r_epik_Charging_Adjusted_Penalty>  (326) 
4.1025

>  <i_epik_Tot_Q>  (326) 
0

>  <i_epik_Tot_abs_Q>  (326) 
2

>  <s_lp_Force_Field>  (326) 
OPLS3e

>  <r_lp_Energy>  (326) 
151.352

>  <b_lp_Chiralities_Consistent>  (326) 
1

>  <s_lp_Variant>  (326) 
87:0-6

>  <s_i_glide_gridfile>  (326) 
pfpi4k_grid

>  <i_i_glide_lignum>  (326) 
10

>  <i_i_glide_rotatable_bonds>  (326) 
1

>  <r_i_docking_score>  (326) 
-2.53672

>  <r_i_glide_ligand_efficiency>  (326) 
-0.090597

>  <r_i_glide_ligand_efficiency_sa>  (326) 
-0.275106

>  <r_i_glide_ligand_efficiency_ln>  (326) 
-0.585549

>  <r_i_glide_gscore>  (326) 
-2.53672

>  <r_i_glide_lipo>  (326) 
-0.469725

>  <r_i_glide_hbond>  (326) 
0

>  <r_i_glide_metal>  (326) 
-0

>  <r_i_glide_rewards>  (326) 
-0.83539

>  <r_i_glide_evdw>  (326) 
-16.6303

>  <r_i_glide_ecoul>  (326) 
-2.63094

>  <r_i_glide_erotb>  (326) 
0

>  <r_i_glide_esite>  (326) 
-0.00544543

>  <r_i_glide_emodel>  (326) 
-23.7164

>  <r_i_glide_energy>  (326) 
-19.2612

>  <r_i_glide_einternal>  (326) 
0.0275411

>  <r_i_glide_intrahb_reward>  (326) 
-0

>  <i_i_glide_confnum>  (326) 
2

>  <i_i_glide_posenum>  (326) 
29

>  <r_i_glide_eff_state_penalty>  (326) 
0

>  <ligand_id>  (326) 
87

>  <original_smiles>  (326) 
CC=C1c2c(O)c(C)c(O)c3c2CC2CN4CCCC4C4(CCC=CC124)C3=O

>  <smiles>  (326) 
[H]Oc1c2c3c(c([O-])c1C([H])([H])[H])C(=C([H])C([H])([H])[H])C14C([H])=C([H])C([H])([H])C([H])([H])C1(C2=O)C1([H])C([H])([H])C([H])([H])C([H])([H])[N+]1([H])C([H])([H])C4([H])C3([H])[H]

$$$$
88:0:0
     RDKit          3D

 76 79  0  0  1  0  0  0  0  0999 V2000
   -0.6101   -8.5278    4.5955 C   0  0  0  0  0  0  0  0  0  0  0  0
   -0.7455   -9.2093    3.2392 C   0  0  0  0  0  0  0  0  0  0  0  0
   -1.7405   -8.5151    2.3348 C   0  0  0  0  0  0  0  0  0  0  0  0
   -0.0809  -10.3160    2.8360 C   0  0  0  0  0  0  0  0  0  0  0  0
    0.8906  -11.1537    3.6565 C   0  0  0  0  0  0  0  0  0  0  0  0
    2.3659  -10.7628    3.3461 C   0  0  0  0  0  0  0  0  0  0  0  0
    3.3240  -10.4663    4.5488 C   0  0  2  0  0  0  0  0  0  0  0  0
    2.6056  -10.0125    5.8610 C   0  0  0  0  0  0  0  0  0  0  0  0
    4.5502   -9.5537    4.1311 C   0  0  2  0  0  0  0  0  0  0  0  0
    5.4593   -9.0966    5.3147 C   0  0  0  0  0  0  0  0  0  0  0  0
    5.9505   -7.6673    5.0162 C   0  0  0  0  0  0  0  0  0  0  0  0
    5.6941   -7.4637    3.5164 C   0  0  2  0  0  0  0  0  0  0  0  0
    6.9091   -8.1388    2.8020 C   0  0  0  0  0  0  0  0  0  0  0  0
    5.6496   -5.9921    2.9672 C   0  0  2  0  0  0  0  0  0  0  0  0
    5.1479   -4.8793    3.9220 C   0  0  0  0  0  0  0  0  0  0  0  0
    5.1247   -3.4945    3.2425 C   0  0  0  0  0  0  0  0  0  0  0  0
    4.3279   -3.4755    1.9098 C   0  0  2  0  0  0  0  0  0  0  0  0
    4.8810   -4.5677    0.9501 C   0  0  1  0  0  0  0  0  0  0  0  0
    6.2537   -4.1803    0.3613 C   0  0  0  0  0  0  0  0  0  0  0  0
    6.1831   -2.8387   -0.3885 C   0  0  0  0  0  0  0  0  0  0  0  0
    5.5895   -1.7556    0.4995 C   0  0  0  0  0  0  0  0  0  0  0  0
    6.1683   -0.6591    0.6097 O   0  0  0  0  0  0  0  0  0  0  0  0
    4.2566   -2.0660    1.2071 C   0  0  0  0  0  0  0  0  0  0  0  0
    3.1458   -2.0793    0.1281 C   0  0  0  0  0  0  0  0  0  0  0  0
    3.9031   -0.9570    2.2265 C   0  0  0  0  0  0  0  0  0  0  0  0
    4.9145   -5.9336    1.6214 C   0  0  0  0  0  0  0  0  0  0  0  0
    4.2829   -6.9962    1.0800 C   0  0  0  0  0  0  0  0  0  0  0  0
    4.1352   -8.3545    1.7546 C   0  0  0  0  0  0  0  0  0  0  0  0
    4.3369   -8.2300    3.2958 C   0  0  1  0  0  0  0  0  0  0  0  0
    3.1134   -7.4586    3.8734 C   0  0  0  0  0  0  0  0  0  0  0  0
   -1.5188   -8.6555    5.1794 H   0  0  0  0  0  0  0  0  0  0  0  0
   -0.4389   -7.4496    4.4897 H   0  0  0  0  0  0  0  0  0  0  0  0
    0.2044   -8.9225    5.1908 H   0  0  0  0  0  0  0  0  0  0  0  0
   -2.7112   -8.5300    2.8276 H   0  0  0  0  0  0  0  0  0  0  0  0
   -1.8261   -9.0432    1.3843 H   0  0  0  0  0  0  0  0  0  0  0  0
   -1.4617   -7.4716    2.1469 H   0  0  0  0  0  0  0  0  0  0  0  0
   -0.2381  -10.6409    1.8064 H   0  0  0  0  0  0  0  0  0  0  0  0
    0.5929  -11.0403    4.6860 H   0  0  0  0  0  0  0  0  0  0  0  0
    0.7161  -12.2148    3.4061 H   0  0  0  0  0  0  0  0  0  0  0  0
    2.8289  -11.5289    2.7037 H   0  0  0  0  0  0  0  0  0  0  0  0
    2.3245   -9.9079    2.6995 H   0  0  0  0  0  0  0  0  0  0  0  0
    3.7635  -11.4325    4.8231 H   0  0  0  0  0  0  0  0  0  0  0  0
    2.2530   -8.9841    5.7847 H   0  0  0  0  0  0  0  0  0  0  0  0
    3.2748  -10.0475    6.7273 H   0  0  0  0  0  0  0  0  0  0  0  0
    1.7760  -10.6613    6.1170 H   0  0  0  0  0  0  0  0  0  0  0  0
    5.1724  -10.1957    3.5026 H   0  0  0  0  0  0  0  0  0  0  0  0
    4.9615   -9.0203    6.2758 H   0  0  0  0  0  0  0  0  0  0  0  0
    6.2887   -9.7913    5.4708 H   0  0  0  0  0  0  0  0  0  0  0  0
    5.3649   -6.9716    5.6176 H   0  0  0  0  0  0  0  0  0  0  0  0
    6.9920   -7.5279    5.3102 H   0  0  0  0  0  0  0  0  0  0  0  0
    6.8383   -8.0840    1.7162 H   0  0  0  0  0  0  0  0  0  0  0  0
    7.0508   -9.1871    3.0633 H   0  0  0  0  0  0  0  0  0  0  0  0
    7.8424   -7.6389    3.0709 H   0  0  0  0  0  0  0  0  0  0  0  0
    6.6797   -5.7057    2.7490 H   0  0  0  0  0  0  0  0  0  0  0  0
    4.1527   -5.0836    4.3112 H   0  0  0  0  0  0  0  0  0  0  0  0
    5.8004   -4.8292    4.7961 H   0  0  0  0  0  0  0  0  0  0  0  0
    4.6940   -2.7957    3.9580 H   0  0  0  0  0  0  0  0  0  0  0  0
    6.1425   -3.1593    3.0538 H   0  0  0  0  0  0  0  0  0  0  0  0
    3.3041   -3.7599    2.1646 H   0  0  0  0  0  0  0  0  0  0  0  0
    4.1918   -4.6638    0.1110 H   0  0  0  0  0  0  0  0  0  0  0  0
    7.0098   -4.1088    1.1468 H   0  0  0  0  0  0  0  0  0  0  0  0
    6.5953   -4.9606   -0.3211 H   0  0  0  0  0  0  0  0  0  0  0  0
    7.1733   -2.5451   -0.7333 H   0  0  0  0  0  0  0  0  0  0  0  0
    5.5533   -2.9400   -1.2734 H   0  0  0  0  0  0  0  0  0  0  0  0
    2.1849   -2.3500    0.5609 H   0  0  0  0  0  0  0  0  0  0  0  0
    3.3465   -2.7816   -0.6817 H   0  0  0  0  0  0  0  0  0  0  0  0
    3.0129   -1.0973   -0.3294 H   0  0  0  0  0  0  0  0  0  0  0  0
    3.0162   -1.2165    2.8059 H   0  0  0  0  0  0  0  0  0  0  0  0
    3.7022   -0.0074    1.7279 H   0  0  0  0  0  0  0  0  0  0  0  0
    4.7190   -0.7740    2.9286 H   0  0  0  0  0  0  0  0  0  0  0  0
    3.7729   -6.8813    0.1363 H   0  0  0  0  0  0  0  0  0  0  0  0
    3.1386   -8.6865    1.4929 H   0  0  0  0  0  0  0  0  0  0  0  0
    4.8430   -9.0532    1.3013 H   0  0  0  0  0  0  0  0  0  0  0  0
    2.9021   -6.5220    3.3578 H   0  0  0  0  0  0  0  0  0  0  0  0
    3.2392   -7.2274    4.9298 H   0  0  0  0  0  0  0  0  0  0  0  0
    2.1990   -8.0424    3.7855 H   0  0  0  0  0  0  0  0  0  0  0  0
  1  2  1  0
  1 31  1  0
  1 32  1  0
  1 33  1  0
  2  3  1  0
  2  4  2  3
  3 34  1  0
  3 35  1  0
  3 36  1  0
  4  5  1  0
  4 37  1  0
  5  6  1  0
  5 38  1  0
  5 39  1  0
  6  7  1  0
  6 40  1  0
  6 41  1  0
  7  8  1  0
  7  9  1  0
  7 42  1  1
  8 43  1  0
  8 44  1  0
  8 45  1  0
  9 29  1  0
  9 10  1  0
  9 46  1  6
 10 11  1  0
 10 47  1  0
 10 48  1  0
 11 12  1  0
 11 49  1  0
 11 50  1  0
 12 29  1  0
 12 13  1  6
 12 14  1  0
 13 51  1  0
 13 52  1  0
 13 53  1  0
 14 26  1  0
 14 15  1  0
 14 54  1  6
 15 16  1  0
 15 55  1  0
 15 56  1  0
 16 17  1  0
 16 57  1  0
 16 58  1  0
 17 23  1  0
 17 18  1  0
 17 59  1  1
 18 19  1  0
 18 26  1  0
 18 60  1  6
 19 20  1  0
 19 61  1  0
 19 62  1  0
 20 21  1  0
 20 63  1  0
 20 64  1  0
 21 22  2  0
 21 23  1  0
 23 24  1  0
 23 25  1  0
 24 65  1  0
 24 66  1  0
 24 67  1  0
 25 68  1  0
 25 69  1  0
 25 70  1  0
 26 27  2  0
 27 28  1  0
 27 71  1  0
 28 29  1  0
 28 72  1  0
 28 73  1  0
 29 30  1  1
 30 74  1  0
 30 75  1  0
 30 76  1  0
M  END
>  <i_m_ct_stereo_status>  (327) 
1

>  <s_m_source_file>  (327) 
/var/tmp/pbs.5076255.sched01/tmpfn0mpy04/132vsilkqhl.sdf

>  <i_m_source_file_index>  (327) 
13

>  <i_lp_mmshare_version>  (327) 
48012

>  <i_f3d_flags>  (327) 
0

>  <s_epik_input>  (327) 
W0NIM11DKFtDSDNdKT1bQ0hdW0NIMl1bQ0gyXVtDQEhdKFtDSDNdKVtDQEhdKFtDSDJdW0NIMl0xKVtDQF0yKFtDSDNdKVtDSDJdW0NIXT1DKFtDQEBIXTNbQ0BAXTEyW0NIM10pW0NASF00W0NAQEhdKFtDSDJdW0NIMl0zKUMoW0NIM10pKFtDSDNdKUMoPU8pW0NIMl1bQ0gyXTQ=

>  <s_epik_cmdline>  (327) 
J2VwaWtfcHl0aG9uJywgJy1waHQnLCAnMi4wJywgJy1waCcsICc3LjAnLCAnLXRuJywgJzgnLCAnLW1hJywgJzIwMCcsICctaW1hZScsICc8aW5maWxlLm1hZT4nLCAnLW9tYWUnLCAnPG91dGZpbGUubWFlPic=

>  <r_lp_tautomer_probability>  (327) 
1

>  <r_epik_Ionization_Penalty>  (327) 
6.1043e-14

>  <r_epik_Ionization_Penalty_Charging>  (327) 
0

>  <r_epik_Ionization_Penalty_Neutral>  (327) 
6.1043e-14

>  <r_epik_State_Penalty>  (327) 
-0

>  <r_epik_Charging_Adjusted_Penalty>  (327) 
0

>  <i_epik_Tot_Q>  (327) 
0

>  <i_epik_Tot_abs_Q>  (327) 
0

>  <s_lp_Force_Field>  (327) 
OPLS3e

>  <r_lp_Energy>  (327) 
41.1132

>  <b_lp_Chiralities_Consistent>  (327) 
1

>  <s_lp_Variant>  (327) 
88:0-1

>  <s_i_glide_gridfile>  (327) 
pfpi4k_grid

>  <i_i_glide_lignum>  (327) 
13

>  <i_i_glide_rotatable_bonds>  (327) 
4

>  <r_i_docking_score>  (327) 
-2.32567

>  <r_i_glide_ligand_efficiency>  (327) 
-0.0775223

>  <r_i_glide_ligand_efficiency_sa>  (327) 
-0.24088

>  <r_i_glide_ligand_efficiency_ln>  (327) 
-0.528417

>  <r_i_glide_gscore>  (327) 
-2.32567

>  <r_i_glide_lipo>  (327) 
-0.835255

>  <r_i_glide_hbond>  (327) 
0

>  <r_i_glide_metal>  (327) 
-0

>  <r_i_glide_rewards>  (327) 
-0.70964

>  <r_i_glide_evdw>  (327) 
-23.8506

>  <r_i_glide_ecoul>  (327) 
-0.370201

>  <r_i_glide_erotb>  (327) 
0.467287

>  <r_i_glide_esite>  (327) 
0

>  <r_i_glide_emodel>  (327) 
-22.1366

>  <r_i_glide_energy>  (327) 
-24.2208

>  <r_i_glide_einternal>  (327) 
10.6981

>  <r_i_glide_intrahb_reward>  (327) 
-0

>  <i_i_glide_confnum>  (327) 
3

>  <i_i_glide_posenum>  (327) 
13

>  <r_i_glide_eff_state_penalty>  (327) 
0

>  <ligand_id>  (327) 
88

>  <original_smiles>  (327) 
CC(C)=CCCC(C)C1CCC2(C)C3CCC4C(CCC(=O)C4(C)C)C3=CCC12C

>  <smiles>  (327) 
[H]C(=C(C([H])([H])[H])C([H])([H])[H])C([H])([H])C([H])([H])C([H])(C([H])([H])[H])C1([H])C([H])([H])C([H])([H])C2(C([H])([H])[H])C3([H])C(=C([H])C([H])([H])C12C([H])([H])[H])C1([H])C([H])([H])C([H])([H])C(=O)C(C([H])([H])[H])(C([H])([H])[H])C1([H])C([H])([H])C3([H])[H]

$$$$
88:0:1
     RDKit          3D

 76 79  0  0  1  0  0  0  0  0999 V2000
    0.5145   -7.0935    6.0635 C   0  0  0  0  0  0  0  0  0  0  0  0
   -0.3747   -7.7849    5.0364 C   0  0  0  0  0  0  0  0  0  0  0  0
   -1.4339   -6.8609    4.4646 C   0  0  0  0  0  0  0  0  0  0  0  0
   -0.2719   -9.0738    4.6382 C   0  0  0  0  0  0  0  0  0  0  0  0
    0.7054  -10.1110    5.1634 C   0  0  0  0  0  0  0  0  0  0  0  0
    1.8014  -10.4732    4.1327 C   0  0  0  0  0  0  0  0  0  0  0  0
    3.2816  -10.5155    4.6388 C   0  0  2  0  0  0  0  0  0  0  0  0
    3.4719  -10.0441    6.1176 C   0  0  0  0  0  0  0  0  0  0  0  0
    4.3020   -9.9183    3.6043 C   0  0  2  0  0  0  0  0  0  0  0  0
    5.7779   -9.8337    4.1018 C   0  0  0  0  0  0  0  0  0  0  0  0
    6.4088   -8.5589    3.5100 C   0  0  0  0  0  0  0  0  0  0  0  0
    5.4787   -8.1473    2.3611 C   0  0  2  0  0  0  0  0  0  0  0  0
    5.9085   -9.0470    1.1624 C   0  0  0  0  0  0  0  0  0  0  0  0
    5.5563   -6.6748    1.8293 C   0  0  2  0  0  0  0  0  0  0  0  0
    5.9375   -5.5639    2.8458 C   0  0  0  0  0  0  0  0  0  0  0  0
    5.9390   -4.1632    2.1983 C   0  0  0  0  0  0  0  0  0  0  0  0
    4.6035   -3.8085    1.4879 C   0  0  2  0  0  0  0  0  0  0  0  0
    4.2589   -4.9111    0.4495 C   0  0  1  0  0  0  0  0  0  0  0  0
    5.1776   -4.8247   -0.7853 C   0  0  0  0  0  0  0  0  0  0  0  0
    5.0895   -3.4466   -1.4666 C   0  0  0  0  0  0  0  0  0  0  0  0
    5.3693   -2.3387   -0.4635 C   0  0  0  0  0  0  0  0  0  0  0  0
    6.2178   -1.4647   -0.7117 O   0  0  0  0  0  0  0  0  0  0  0  0
    4.5614   -2.3667    0.8547 C   0  0  0  0  0  0  0  0  0  0  0  0
    3.0951   -1.9895    0.5273 C   0  0  0  0  0  0  0  0  0  0  0  0
    5.0995   -1.3084    1.8472 C   0  0  0  0  0  0  0  0  0  0  0  0
    4.2782   -6.2918    1.0672 C   0  0  0  0  0  0  0  0  0  0  0  0
    3.1919   -7.0932    1.0128 C   0  0  0  0  0  0  0  0  0  0  0  0
    3.0601   -8.4205    1.7335 C   0  0  0  0  0  0  0  0  0  0  0  0
    4.0603   -8.5121    2.9260 C   0  0  1  0  0  0  0  0  0  0  0  0
    3.5628   -7.5257    4.0120 C   0  0  0  0  0  0  0  0  0  0  0  0
   -0.0494   -6.8694    6.9633 H   0  0  0  0  0  0  0  0  0  0  0  0
    0.8947   -6.1382    5.6797 H   0  0  0  0  0  0  0  0  0  0  0  0
    1.3973   -7.6526    6.3667 H   0  0  0  0  0  0  0  0  0  0  0  0
   -2.0762   -6.5056    5.2725 H   0  0  0  0  0  0  0  0  0  0  0  0
   -2.0569   -7.3767    3.7318 H   0  0  0  0  0  0  0  0  0  0  0  0
   -0.9738   -5.9842    3.9907 H   0  0  0  0  0  0  0  0  0  0  0  0
   -0.9437   -9.4066    3.8445 H   0  0  0  0  0  0  0  0  0  0  0  0
    1.1128   -9.7657    6.1018 H   0  0  0  0  0  0  0  0  0  0  0  0
    0.1369  -11.0034    5.4659 H   0  0  0  0  0  0  0  0  0  0  0  0
    1.5621  -11.4528    3.6879 H   0  0  0  0  0  0  0  0  0  0  0  0
    1.7039   -9.8164    3.3040 H   0  0  0  0  0  0  0  0  0  0  0  0
    3.5399  -11.5773    4.7025 H   0  0  0  0  0  0  0  0  0  0  0  0
    3.3579   -8.9644    6.2039 H   0  0  0  0  0  0  0  0  0  0  0  0
    4.4449  -10.3127    6.5165 H   0  0  0  0  0  0  0  0  0  0  0  0
    2.7321  -10.5249    6.7671 H   0  0  0  0  0  0  0  0  0  0  0  0
    4.2989  -10.6357    2.7789 H   0  0  0  0  0  0  0  0  0  0  0  0
    5.8880   -9.7304    5.1779 H   0  0  0  0  0  0  0  0  0  0  0  0
    6.3398  -10.7299    3.8253 H   0  0  0  0  0  0  0  0  0  0  0  0
    6.4314   -7.7995    4.2896 H   0  0  0  0  0  0  0  0  0  0  0  0
    7.4447   -8.7179    3.2059 H   0  0  0  0  0  0  0  0  0  0  0  0
    5.2956   -8.8649    0.2805 H   0  0  0  0  0  0  0  0  0  0  0  0
    5.8684  -10.1172    1.3645 H   0  0  0  0  0  0  0  0  0  0  0  0
    6.9440   -8.8349    0.8830 H   0  0  0  0  0  0  0  0  0  0  0  0
    6.3608   -6.6391    1.0900 H   0  0  0  0  0  0  0  0  0  0  0  0
    5.2740   -5.5399    3.7102 H   0  0  0  0  0  0  0  0  0  0  0  0
    6.9344   -5.7676    3.2502 H   0  0  0  0  0  0  0  0  0  0  0  0
    6.1259   -3.4402    2.9896 H   0  0  0  0  0  0  0  0  0  0  0  0
    6.7795   -4.0944    1.5060 H   0  0  0  0  0  0  0  0  0  0  0  0
    3.8317   -3.8450    2.2618 H   0  0  0  0  0  0  0  0  0  0  0  0
    3.2388   -4.7390    0.0990 H   0  0  0  0  0  0  0  0  0  0  0  0
    6.2130   -5.0158   -0.4929 H   0  0  0  0  0  0  0  0  0  0  0  0
    4.9153   -5.6040   -1.5072 H   0  0  0  0  0  0  0  0  0  0  0  0
    5.7942   -3.3918   -2.2960 H   0  0  0  0  0  0  0  0  0  0  0  0
    4.0905   -3.3031   -1.8854 H   0  0  0  0  0  0  0  0  0  0  0  0
    2.4575   -2.0402    1.4134 H   0  0  0  0  0  0  0  0  0  0  0  0
    2.6488   -2.6367   -0.2301 H   0  0  0  0  0  0  0  0  0  0  0  0
    3.0341   -0.9703    0.1408 H   0  0  0  0  0  0  0  0  0  0  0  0
    4.6078   -1.3884    2.8193 H   0  0  0  0  0  0  0  0  0  0  0  0
    4.9285   -0.2967    1.4747 H   0  0  0  0  0  0  0  0  0  0  0  0
    6.1761   -1.4088    2.0060 H   0  0  0  0  0  0  0  0  0  0  0  0
    2.3241   -6.7397    0.4749 H   0  0  0  0  0  0  0  0  0  0  0  0
    2.0319   -8.4311    2.0687 H   0  0  0  0  0  0  0  0  0  0  0  0
    3.1846   -9.2339    1.0113 H   0  0  0  0  0  0  0  0  0  0  0  0
    3.3787   -6.5196    3.6318 H   0  0  0  0  0  0  0  0  0  0  0  0
    4.2595   -7.4473    4.8441 H   0  0  0  0  0  0  0  0  0  0  0  0
    2.6231   -7.8843    4.4316 H   0  0  0  0  0  0  0  0  0  0  0  0
  1  2  1  0
  1 31  1  0
  1 32  1  0
  1 33  1  0
  2  3  1  0
  2  4  2  3
  3 34  1  0
  3 35  1  0
  3 36  1  0
  4  5  1  0
  4 37  1  0
  5  6  1  0
  5 38  1  0
  5 39  1  0
  6  7  1  0
  6 40  1  0
  6 41  1  0
  7  8  1  0
  7  9  1  0
  7 42  1  1
  8 43  1  0
  8 44  1  0
  8 45  1  0
  9 29  1  0
  9 10  1  0
  9 46  1  6
 10 11  1  0
 10 47  1  0
 10 48  1  0
 11 12  1  0
 11 49  1  0
 11 50  1  0
 12 29  1  0
 12 13  1  6
 12 14  1  0
 13 51  1  0
 13 52  1  0
 13 53  1  0
 14 26  1  0
 14 15  1  0
 14 54  1  6
 15 16  1  0
 15 55  1  0
 15 56  1  0
 16 17  1  0
 16 57  1  0
 16 58  1  0
 17 23  1  0
 17 18  1  0
 17 59  1  1
 18 19  1  0
 18 26  1  0
 18 60  1  6
 19 20  1  0
 19 61  1  0
 19 62  1  0
 20 21  1  0
 20 63  1  0
 20 64  1  0
 21 22  2  0
 21 23  1  0
 23 24  1  0
 23 25  1  0
 24 65  1  0
 24 66  1  0
 24 67  1  0
 25 68  1  0
 25 69  1  0
 25 70  1  0
 26 27  2  0
 27 28  1  0
 27 71  1  0
 28 29  1  0
 28 72  1  0
 28 73  1  0
 29 30  1  1
 30 74  1  0
 30 75  1  0
 30 76  1  0
M  END
>  <i_m_ct_stereo_status>  (328) 
1

>  <s_m_source_file>  (328) 
/var/tmp/pbs.5076255.sched01/tmpfn0mpy04/132vsilkqhl.sdf

>  <i_m_source_file_index>  (328) 
13

>  <i_lp_mmshare_version>  (328) 
48012

>  <i_f3d_flags>  (328) 
0

>  <s_epik_input>  (328) 
W0NIM11DKFtDSDNdKT1bQ0hdW0NIMl1bQ0gyXVtDQEhdKFtDSDNdKVtDQEhdKFtDSDJdW0NIMl0xKVtDQF0yKFtDSDNdKVtDSDJdW0NIXT1DKFtDQEBIXTNbQ0BAXTEyW0NIM10pW0NASF00W0NAQEhdKFtDSDJdW0NIMl0zKUMoW0NIM10pKFtDSDNdKUMoPU8pW0NIMl1bQ0gyXTQ=

>  <s_epik_cmdline>  (328) 
J2VwaWtfcHl0aG9uJywgJy1waHQnLCAnMi4wJywgJy1waCcsICc3LjAnLCAnLXRuJywgJzgnLCAnLW1hJywgJzIwMCcsICctaW1hZScsICc8aW5maWxlLm1hZT4nLCAnLW9tYWUnLCAnPG91dGZpbGUubWFlPic=

>  <r_lp_tautomer_probability>  (328) 
1

>  <r_epik_Ionization_Penalty>  (328) 
6.1043e-14

>  <r_epik_Ionization_Penalty_Charging>  (328) 
0

>  <r_epik_Ionization_Penalty_Neutral>  (328) 
6.1043e-14

>  <r_epik_State_Penalty>  (328) 
-0

>  <r_epik_Charging_Adjusted_Penalty>  (328) 
0

>  <i_epik_Tot_Q>  (328) 
0

>  <i_epik_Tot_abs_Q>  (328) 
0

>  <s_lp_Force_Field>  (328) 
OPLS3e

>  <r_lp_Energy>  (328) 
41.1132

>  <b_lp_Chiralities_Consistent>  (328) 
1

>  <s_lp_Variant>  (328) 
88:0-1

>  <s_i_glide_gridfile>  (328) 
pfpi4k_grid

>  <i_i_glide_lignum>  (328) 
13

>  <i_i_glide_rotatable_bonds>  (328) 
4

>  <r_i_docking_score>  (328) 
-2.27994

>  <r_i_glide_ligand_efficiency>  (328) 
-0.075998

>  <r_i_glide_ligand_efficiency_sa>  (328) 
-0.236144

>  <r_i_glide_ligand_efficiency_ln>  (328) 
-0.518028

>  <r_i_glide_gscore>  (328) 
-2.27994

>  <r_i_glide_lipo>  (328) 
-0.532749

>  <r_i_glide_hbond>  (328) 
-0.114219

>  <r_i_glide_metal>  (328) 
-0

>  <r_i_glide_rewards>  (328) 
-0.609034

>  <r_i_glide_evdw>  (328) 
-22.1782

>  <r_i_glide_ecoul>  (328) 
-2.47319

>  <r_i_glide_erotb>  (328) 
0.467287

>  <r_i_glide_esite>  (328) 
-0.0113394

>  <r_i_glide_emodel>  (328) 
-21.4759

>  <r_i_glide_energy>  (328) 
-24.6513

>  <r_i_glide_einternal>  (328) 
11.7521

>  <r_i_glide_intrahb_reward>  (328) 
-0

>  <i_i_glide_confnum>  (328) 
3

>  <i_i_glide_posenum>  (328) 
21

>  <r_i_glide_eff_state_penalty>  (328) 
0

>  <ligand_id>  (328) 
88

>  <original_smiles>  (328) 
CC(C)=CCCC(C)C1CCC2(C)C3CCC4C(CCC(=O)C4(C)C)C3=CCC12C

>  <smiles>  (328) 
[H]C(=C(C([H])([H])[H])C([H])([H])[H])C([H])([H])C([H])([H])C([H])(C([H])([H])[H])C1([H])C([H])([H])C([H])([H])C2(C([H])([H])[H])C3([H])C(=C([H])C([H])([H])C12C([H])([H])[H])C1([H])C([H])([H])C([H])([H])C(=O)C(C([H])([H])[H])(C([H])([H])[H])C1([H])C([H])([H])C3([H])[H]

$$$$
88:0:2
     RDKit          3D

 76 79  0  0  1  0  0  0  0  0999 V2000
   -0.4138   -6.9658    4.4798 C   0  0  0  0  0  0  0  0  0  0  0  0
   -0.9715   -8.1783    3.7366 C   0  0  0  0  0  0  0  0  0  0  0  0
   -2.1779   -7.8507    2.8844 C   0  0  0  0  0  0  0  0  0  0  0  0
   -0.4959   -9.4472    3.7869 C   0  0  0  0  0  0  0  0  0  0  0  0
    0.6588   -9.9538    4.6272 C   0  0  0  0  0  0  0  0  0  0  0  0
    1.8315  -10.5197    3.7725 C   0  0  0  0  0  0  0  0  0  0  0  0
    3.2305  -10.4798    4.4901 C   0  0  2  0  0  0  0  0  0  0  0  0
    3.1854  -10.0609    5.9991 C   0  0  0  0  0  0  0  0  0  0  0  0
    4.3389   -9.7752    3.6226 C   0  0  2  0  0  0  0  0  0  0  0  0
    5.7251   -9.6282    4.3284 C   0  0  0  0  0  0  0  0  0  0  0  0
    6.3468   -8.2997    3.8550 C   0  0  0  0  0  0  0  0  0  0  0  0
    5.5528   -7.9037    2.5994 C   0  0  2  0  0  0  0  0  0  0  0  0
    6.1812   -8.7262    1.4323 C   0  0  0  0  0  0  0  0  0  0  0  0
    5.5916   -6.3996    2.1342 C   0  0  2  0  0  0  0  0  0  0  0  0
    5.7632   -5.3145    3.2289 C   0  0  0  0  0  0  0  0  0  0  0  0
    5.7546   -3.8949    2.6374 C   0  0  0  0  0  0  0  0  0  0  0  0
    4.5016   -3.5975    1.7680 C   0  0  2  0  0  0  0  0  0  0  0  0
    4.3663   -4.6662    0.6457 C   0  0  1  0  0  0  0  0  0  0  0  0
    5.4174   -4.4915   -0.4608 C   0  0  0  0  0  0  0  0  0  0  0  0
    5.3296   -3.0969   -1.0944 C   0  0  0  0  0  0  0  0  0  0  0  0
    5.4012   -2.0059   -0.0230 C   0  0  0  0  0  0  0  0  0  0  0  0
    6.2160   -1.0643   -0.1414 O   0  0  0  0  0  0  0  0  0  0  0  0
    4.4360   -2.1357    1.1818 C   0  0  0  0  0  0  0  0  0  0  0  0
    3.0072   -1.8341    0.6736 C   0  0  0  0  0  0  0  0  0  0  0  0
    4.7755   -1.0829    2.2635 C   0  0  0  0  0  0  0  0  0  0  0  0
    4.3938   -6.0704    1.2344 C   0  0  0  0  0  0  0  0  0  0  0  0
    3.3723   -6.9473    1.0114 C   0  0  0  0  0  0  0  0  0  0  0  0
    3.2367   -8.3033    1.6831 C   0  0  0  0  0  0  0  0  0  0  0  0
    4.0943   -8.3676    2.9711 C   0  0  1  0  0  0  0  0  0  0  0  0
    3.4102   -7.4521    4.0187 C   0  0  0  0  0  0  0  0  0  0  0  0
   -1.1241   -6.6371    5.2401 H   0  0  0  0  0  0  0  0  0  0  0  0
   -0.2548   -6.1313    3.7902 H   0  0  0  0  0  0  0  0  0  0  0  0
    0.5380   -7.1274    4.9825 H   0  0  0  0  0  0  0  0  0  0  0  0
   -2.9668   -7.4609    3.5249 H   0  0  0  0  0  0  0  0  0  0  0  0
   -2.5583   -8.7365    2.3765 H   0  0  0  0  0  0  0  0  0  0  0  0
   -1.9096   -7.1031    2.1377 H   0  0  0  0  0  0  0  0  0  0  0  0
   -0.9780  -10.2025    3.1796 H   0  0  0  0  0  0  0  0  0  0  0  0
    0.9842   -9.1444    5.2658 H   0  0  0  0  0  0  0  0  0  0  0  0
    0.2545  -10.7102    5.3196 H   0  0  0  0  0  0  0  0  0  0  0  0
    1.5856  -11.5742    3.5484 H   0  0  0  0  0  0  0  0  0  0  0  0
    1.8605  -10.0274    2.8049 H   0  0  0  0  0  0  0  0  0  0  0  0
    3.5455  -11.5285    4.5410 H   0  0  0  0  0  0  0  0  0  0  0  0
    3.0586   -8.9748    6.1029 H   0  0  0  0  0  0  0  0  0  0  0  0
    4.0801  -10.3743    6.5492 H   0  0  0  0  0  0  0  0  0  0  0  0
    2.3685  -10.5693    6.5279 H   0  0  0  0  0  0  0  0  0  0  0  0
    4.4899  -10.4654    2.7894 H   0  0  0  0  0  0  0  0  0  0  0  0
    5.6646   -9.5747    5.4146 H   0  0  0  0  0  0  0  0  0  0  0  0
    6.3729  -10.4778    4.0942 H   0  0  0  0  0  0  0  0  0  0  0  0
    6.2168   -7.5684    4.6502 H   0  0  0  0  0  0  0  0  0  0  0  0
    7.4173   -8.3827    3.6806 H   0  0  0  0  0  0  0  0  0  0  0  0
    5.6642   -8.5631    0.4908 H   0  0  0  0  0  0  0  0  0  0  0  0
    6.1912   -9.7976    1.6105 H   0  0  0  0  0  0  0  0  0  0  0  0
    7.2195   -8.4328    1.2837 H   0  0  0  0  0  0  0  0  0  0  0  0
    6.4766   -6.2895    1.5035 H   0  0  0  0  0  0  0  0  0  0  0  0
    4.9955   -5.3650    3.9965 H   0  0  0  0  0  0  0  0  0  0  0  0
    6.7056   -5.4724    3.7474 H   0  0  0  0  0  0  0  0  0  0  0  0
    5.8037   -3.1996    3.4740 H   0  0  0  0  0  0  0  0  0  0  0  0
    6.6584   -3.7457    2.0504 H   0  0  0  0  0  0  0  0  0  0  0  0
    3.6357   -3.7062    2.4280 H   0  0  0  0  0  0  0  0  0  0  0  0
    3.3879   -4.5532    0.1850 H   0  0  0  0  0  0  0  0  0  0  0  0
    6.4219   -4.6430   -0.0702 H   0  0  0  0  0  0  0  0  0  0  0  0
    5.2588   -5.2464   -1.2257 H   0  0  0  0  0  0  0  0  0  0  0  0
    6.1274   -2.9536   -1.8229 H   0  0  0  0  0  0  0  0  0  0  0  0
    4.3840   -2.9846   -1.6303 H   0  0  0  0  0  0  0  0  0  0  0  0
    2.2737   -1.9615    1.4650 H   0  0  0  0  0  0  0  0  0  0  0  0
    2.7092   -2.4758   -0.1536 H   0  0  0  0  0  0  0  0  0  0  0  0
    2.9334   -0.8068    0.3190 H   0  0  0  0  0  0  0  0  0  0  0  0
    4.1709   -1.2327    3.1548 H   0  0  0  0  0  0  0  0  0  0  0  0
    4.5847   -0.0728    1.9004 H   0  0  0  0  0  0  0  0  0  0  0  0
    5.8274   -1.1227    2.5546 H   0  0  0  0  0  0  0  0  0  0  0  0
    2.5530   -6.6396    0.3862 H   0  0  0  0  0  0  0  0  0  0  0  0
    2.1877   -8.4169    1.9296 H   0  0  0  0  0  0  0  0  0  0  0  0
    3.4942   -9.0704    0.9538 H   0  0  0  0  0  0  0  0  0  0  0  0
    3.2058   -6.4498    3.6423 H   0  0  0  0  0  0  0  0  0  0  0  0
    3.9993   -7.3592    4.9309 H   0  0  0  0  0  0  0  0  0  0  0  0
    2.4599   -7.8967    4.2987 H   0  0  0  0  0  0  0  0  0  0  0  0
  1  2  1  0
  1 31  1  0
  1 32  1  0
  1 33  1  0
  2  3  1  0
  2  4  2  3
  3 34  1  0
  3 35  1  0
  3 36  1  0
  4  5  1  0
  4 37  1  0
  5  6  1  0
  5 38  1  0
  5 39  1  0
  6  7  1  0
  6 40  1  0
  6 41  1  0
  7  8  1  0
  7  9  1  0
  7 42  1  1
  8 43  1  0
  8 44  1  0
  8 45  1  0
  9 29  1  0
  9 10  1  0
  9 46  1  6
 10 11  1  0
 10 47  1  0
 10 48  1  0
 11 12  1  0
 11 49  1  0
 11 50  1  0
 12 29  1  0
 12 13  1  6
 12 14  1  0
 13 51  1  0
 13 52  1  0
 13 53  1  0
 14 26  1  0
 14 15  1  0
 14 54  1  6
 15 16  1  0
 15 55  1  0
 15 56  1  0
 16 17  1  0
 16 57  1  0
 16 58  1  0
 17 23  1  0
 17 18  1  0
 17 59  1  1
 18 19  1  0
 18 26  1  0
 18 60  1  6
 19 20  1  0
 19 61  1  0
 19 62  1  0
 20 21  1  0
 20 63  1  0
 20 64  1  0
 21 22  2  0
 21 23  1  0
 23 24  1  0
 23 25  1  0
 24 65  1  0
 24 66  1  0
 24 67  1  0
 25 68  1  0
 25 69  1  0
 25 70  1  0
 26 27  2  0
 27 28  1  0
 27 71  1  0
 28 29  1  0
 28 72  1  0
 28 73  1  0
 29 30  1  1
 30 74  1  0
 30 75  1  0
 30 76  1  0
M  END
>  <i_m_ct_stereo_status>  (329) 
1

>  <s_m_source_file>  (329) 
/var/tmp/pbs.5076255.sched01/tmpfn0mpy04/132vsilkqhl.sdf

>  <i_m_source_file_index>  (329) 
13

>  <i_lp_mmshare_version>  (329) 
48012

>  <i_f3d_flags>  (329) 
0

>  <s_epik_input>  (329) 
W0NIM11DKFtDSDNdKT1bQ0hdW0NIMl1bQ0gyXVtDQEhdKFtDSDNdKVtDQEhdKFtDSDJdW0NIMl0xKVtDQF0yKFtDSDNdKVtDSDJdW0NIXT1DKFtDQEBIXTNbQ0BAXTEyW0NIM10pW0NASF00W0NAQEhdKFtDSDJdW0NIMl0zKUMoW0NIM10pKFtDSDNdKUMoPU8pW0NIMl1bQ0gyXTQ=

>  <s_epik_cmdline>  (329) 
J2VwaWtfcHl0aG9uJywgJy1waHQnLCAnMi4wJywgJy1waCcsICc3LjAnLCAnLXRuJywgJzgnLCAnLW1hJywgJzIwMCcsICctaW1hZScsICc8aW5maWxlLm1hZT4nLCAnLW9tYWUnLCAnPG91dGZpbGUubWFlPic=

>  <r_lp_tautomer_probability>  (329) 
1

>  <r_epik_Ionization_Penalty>  (329) 
6.1043e-14

>  <r_epik_Ionization_Penalty_Charging>  (329) 
0

>  <r_epik_Ionization_Penalty_Neutral>  (329) 
6.1043e-14

>  <r_epik_State_Penalty>  (329) 
-0

>  <r_epik_Charging_Adjusted_Penalty>  (329) 
0

>  <i_epik_Tot_Q>  (329) 
0

>  <i_epik_Tot_abs_Q>  (329) 
0

>  <s_lp_Force_Field>  (329) 
OPLS3e

>  <r_lp_Energy>  (329) 
41.1132

>  <b_lp_Chiralities_Consistent>  (329) 
1

>  <s_lp_Variant>  (329) 
88:0-1

>  <s_i_glide_gridfile>  (329) 
pfpi4k_grid

>  <i_i_glide_lignum>  (329) 
13

>  <i_i_glide_rotatable_bonds>  (329) 
4

>  <r_i_docking_score>  (329) 
-2.12552

>  <r_i_glide_ligand_efficiency>  (329) 
-0.0708507

>  <r_i_glide_ligand_efficiency_sa>  (329) 
-0.22015

>  <r_i_glide_ligand_efficiency_ln>  (329) 
-0.482942

>  <r_i_glide_gscore>  (329) 
-2.12552

>  <r_i_glide_lipo>  (329) 
-0.566785

>  <r_i_glide_hbond>  (329) 
-0.039318

>  <r_i_glide_metal>  (329) 
-0

>  <r_i_glide_rewards>  (329) 
-0.609034

>  <r_i_glide_evdw>  (329) 
-24.0693

>  <r_i_glide_ecoul>  (329) 
-1.15276

>  <r_i_glide_erotb>  (329) 
0.467287

>  <r_i_glide_esite>  (329) 
-0.00128979

>  <r_i_glide_emodel>  (329) 
-22.581

>  <r_i_glide_energy>  (329) 
-25.2221

>  <r_i_glide_einternal>  (329) 
10.5397

>  <r_i_glide_intrahb_reward>  (329) 
-0

>  <i_i_glide_confnum>  (329) 
3

>  <i_i_glide_posenum>  (329) 
36

>  <r_i_glide_eff_state_penalty>  (329) 
0

>  <ligand_id>  (329) 
88

>  <original_smiles>  (329) 
CC(C)=CCCC(C)C1CCC2(C)C3CCC4C(CCC(=O)C4(C)C)C3=CCC12C

>  <smiles>  (329) 
[H]C(=C(C([H])([H])[H])C([H])([H])[H])C([H])([H])C([H])([H])C([H])(C([H])([H])[H])C1([H])C([H])([H])C([H])([H])C2(C([H])([H])[H])C3([H])C(=C([H])C([H])([H])C12C([H])([H])[H])C1([H])C([H])([H])C([H])([H])C(=O)C(C([H])([H])[H])(C([H])([H])[H])C1([H])C([H])([H])C3([H])[H]

$$$$
90:0:0
     RDKit          3D

 45 48  0  0  1  0  0  0  0  0999 V2000
    0.6475   -1.6670    6.9028 C   0  0  0  0  0  0  0  0  0  0  0  0
    0.9767   -2.9153    6.0880 C   0  0  0  0  0  0  0  0  0  0  0  0
    1.0378   -4.1498    6.9813 C   0  0  0  0  0  0  0  0  0  0  0  0
    1.2335   -2.9078    4.7488 C   0  0  0  0  0  0  0  0  0  0  0  0
    1.8655   -4.0264    4.0466 C   0  0  0  0  0  0  0  0  0  0  0  0
    2.0455   -5.1909    4.4248 O   0  0  0  0  0  0  0  0  0  0  0  0
    2.4123   -3.5470    2.7261 C   0  0  0  0  0  0  0  0  0  0  0  0
    2.0942   -2.0728    2.7908 C   0  0  0  0  0  0  0  0  0  0  0  0
    2.6283   -1.0853    2.0353 C   0  0  0  0  0  0  0  0  0  0  0  0
    3.6016   -1.2994    1.0573 N   0  0  0  0  0  0  0  0  0  0  0  0
    3.4493   -2.2701   -0.0293 C   0  0  0  0  0  0  0  0  0  0  0  0
    4.6039   -3.2967   -0.0367 C   0  0  0  0  0  0  0  0  0  0  0  0
    5.9604   -2.5838   -0.1112 C   0  0  0  0  0  0  0  0  0  0  0  0
    6.0777   -1.5404    1.0153 C   0  0  0  0  0  0  0  0  0  0  0  0
    4.8775   -0.5780    1.0163 C   0  0  0  0  0  0  0  0  0  0  0  0
    2.1139    0.3035    2.2289 C   0  0  0  0  0  0  0  0  0  0  0  0
    2.6252    1.2884    1.7039 O   0  0  0  0  0  0  0  0  0  0  0  0
    0.8976    0.4350    3.0937 C   0  0  0  0  0  0  0  0  0  0  0  0
    0.1412    1.6171    3.1104 C   0  0  0  0  0  0  0  0  0  0  0  0
   -1.0639    1.6452    3.8366 C   0  0  0  0  0  0  0  0  0  0  0  0
   -1.4703    0.4639    4.4957 C   0  0  0  0  0  0  0  0  0  0  0  0
   -0.7455   -0.6676    4.5010 N   0  0  0  0  0  0  0  0  0  0  0  0
    0.4438   -0.6763    3.8458 C   0  0  0  0  0  0  0  0  0  0  0  0
    1.2148   -1.8472    3.8406 N   0  0  0  0  0  0  0  0  0  0  0  0
    1.1533   -1.7016    7.8594 H   0  0  0  0  0  0  0  0  0  0  0  0
   -0.4246   -1.5879    7.0689 H   0  0  0  0  0  0  0  0  0  0  0  0
    1.0031   -0.7653    6.4164 H   0  0  0  0  0  0  0  0  0  0  0  0
    0.3917   -4.0326    7.8449 H   0  0  0  0  0  0  0  0  0  0  0  0
    2.0572   -4.2909    7.3304 H   0  0  0  0  0  0  0  0  0  0  0  0
    0.7153   -5.0511    6.4605 H   0  0  0  0  0  0  0  0  0  0  0  0
    3.4839   -3.7440    2.6641 H   0  0  0  0  0  0  0  0  0  0  0  0
    1.8793   -4.0303    1.9017 H   0  0  0  0  0  0  0  0  0  0  0  0
    2.4933   -2.7789    0.0716 H   0  0  0  0  0  0  0  0  0  0  0  0
    3.3951   -1.7372   -0.9884 H   0  0  0  0  0  0  0  0  0  0  0  0
    4.5929   -3.9119    0.8601 H   0  0  0  0  0  0  0  0  0  0  0  0
    4.4822   -3.9802   -0.8736 H   0  0  0  0  0  0  0  0  0  0  0  0
    6.7729   -3.3119   -0.0412 H   0  0  0  0  0  0  0  0  0  0  0  0
    6.0513   -2.0901   -1.0768 H   0  0  0  0  0  0  0  0  0  0  0  0
    6.1341   -2.0423    1.9820 H   0  0  0  0  0  0  0  0  0  0  0  0
    7.0082   -0.9862    0.9161 H   0  0  0  0  0  0  0  0  0  0  0  0
    4.8880    0.0623    0.1337 H   0  0  0  0  0  0  0  0  0  0  0  0
    4.9874    0.0843    1.8735 H   0  0  0  0  0  0  0  0  0  0  0  0
    0.4454    2.4916    2.5493 H   0  0  0  0  0  0  0  0  0  0  0  0
   -1.6807    2.5244    3.8872 H   0  0  0  0  0  0  0  0  0  0  0  0
   -2.3973    0.4051    5.0369 H   0  0  0  0  0  0  0  0  0  0  0  0
  1  2  1  0
  1 25  1  0
  1 26  1  0
  1 27  1  0
  2  3  1  0
  2  4  2  3
  3 28  1  0
  3 29  1  0
  3 30  1  0
  4 24  1  0
  4  5  1  0
  5  6  2  0
  5  7  1  0
  7  8  1  0
  7 31  1  0
  7 32  1  0
  8 24  1  0
  8  9  2  0
  9 10  1  0
  9 16  1  0
 10 15  1  0
 10 11  1  0
 11 12  1  0
 11 33  1  0
 11 34  1  0
 12 13  1  0
 12 35  1  0
 12 36  1  0
 13 14  1  0
 13 37  1  0
 13 38  1  0
 14 15  1  0
 14 39  1  0
 14 40  1  0
 15 41  1  0
 15 42  1  0
 16 17  2  0
 16 18  1  0
 18 23  2  0
 18 19  1  0
 19 20  2  0
 19 43  1  0
 20 21  1  0
 20 44  1  0
 21 22  2  0
 21 45  1  0
 22 23  1  0
 23 24  1  0
M  END
>  <i_m_ct_stereo_status>  (330) 
1

>  <s_m_source_file>  (330) 
/var/tmp/pbs.5076255.sched01/tmpfn0mpy04/132vsilkqhl.sdf

>  <i_m_source_file_index>  (330) 
15

>  <i_lp_mmshare_version>  (330) 
48012

>  <i_f3d_flags>  (330) 
0

>  <s_epik_input>  (330) 
W0NIM11DKFtDSDNdKT1DKEMoPU8pW0NIMl0xKW4oYzEyKWMzYyhbY0hdW2NIXVtjSF1uMyljKD1PKWMyTjRbQ0gyXVtDSDJdW0NIMl1bQ0gyXVtDSDJdNA==

>  <s_epik_cmdline>  (330) 
J2VwaWtfcHl0aG9uJywgJy1waHQnLCAnMi4wJywgJy1waCcsICc3LjAnLCAnLXRuJywgJzgnLCAnLW1hJywgJzIwMCcsICctaW1hZScsICc8aW5maWxlLm1hZT4nLCAnLW9tYWUnLCAnPG91dGZpbGUubWFlPic=

>  <r_lp_tautomer_probability>  (330) 
1

>  <r_epik_Ionization_Penalty>  (330) 
2.71982e-09

>  <r_epik_Ionization_Penalty_Charging>  (330) 
0

>  <r_epik_Ionization_Penalty_Neutral>  (330) 
2.71982e-09

>  <r_epik_State_Penalty>  (330) 
-0

>  <r_epik_Charging_Adjusted_Penalty>  (330) 
0

>  <i_epik_Tot_Q>  (330) 
0

>  <i_epik_Tot_abs_Q>  (330) 
0

>  <s_lp_Force_Field>  (330) 
OPLS3e

>  <r_lp_Energy>  (330) 
47.3901

>  <b_lp_Chiralities_Consistent>  (330) 
1

>  <s_lp_Variant>  (330) 
90:0-1

>  <s_i_glide_gridfile>  (330) 
pfpi4k_grid

>  <i_i_glide_lignum>  (330) 
15

>  <i_i_glide_rotatable_bonds>  (330) 
1

>  <r_i_docking_score>  (330) 
-2.86315

>  <r_i_glide_ligand_efficiency>  (330) 
-0.119298

>  <r_i_glide_ligand_efficiency_sa>  (330) 
-0.344115

>  <r_i_glide_ligand_efficiency_ln>  (330) 
-0.685284

>  <r_i_glide_gscore>  (330) 
-2.86315

>  <r_i_glide_lipo>  (330) 
-0.356162

>  <r_i_glide_hbond>  (330) 
0

>  <r_i_glide_metal>  (330) 
-0

>  <r_i_glide_rewards>  (330) 
-1.22038

>  <r_i_glide_evdw>  (330) 
-24.4973

>  <r_i_glide_ecoul>  (330) 
-1.30556

>  <r_i_glide_erotb>  (330) 
0.178938

>  <r_i_glide_esite>  (330) 
-0.0448475

>  <r_i_glide_emodel>  (330) 
-30.2102

>  <r_i_glide_energy>  (330) 
-25.8029

>  <r_i_glide_einternal>  (330) 
0.209302

>  <r_i_glide_intrahb_reward>  (330) 
-0

>  <i_i_glide_confnum>  (330) 
6

>  <i_i_glide_posenum>  (330) 
8

>  <r_i_glide_eff_state_penalty>  (330) 
0

>  <ligand_id>  (330) 
90

>  <original_smiles>  (330) 
CC(C)=C1C(=O)Cc2c(N3CCCCC3)c(=O)c3cccnc3n21

>  <smiles>  (330) 
[H]c1nc2c(c([H])c1[H])c(=O)c(N1C([H])([H])C([H])([H])C([H])([H])C([H])([H])C1([H])[H])c1n2C(=C(C([H])([H])[H])C([H])([H])[H])C(=O)C1([H])[H]

$$$$
90:0:1
     RDKit          3D

 45 48  0  0  1  0  0  0  0  0999 V2000
    4.5515   -3.3062    3.7517 C   0  0  0  0  0  0  0  0  0  0  0  0
    4.3451   -2.2642    2.6586 C   0  0  0  0  0  0  0  0  0  0  0  0
    5.5851   -2.1384    1.7821 C   0  0  0  0  0  0  0  0  0  0  0  0
    3.2276   -1.4927    2.5400 C   0  0  0  0  0  0  0  0  0  0  0  0
    3.1668   -0.2745    1.7194 C   0  0  0  0  0  0  0  0  0  0  0  0
    3.9654    0.1395    0.8773 O   0  0  0  0  0  0  0  0  0  0  0  0
    1.9630    0.5439    2.1286 C   0  0  0  0  0  0  0  0  0  0  0  0
    1.4368   -0.2697    3.2977 C   0  0  0  0  0  0  0  0  0  0  0  0
    0.5738    0.1331    4.2626 C   0  0  0  0  0  0  0  0  0  0  0  0
    0.0587    1.4308    4.3337 N   0  0  0  0  0  0  0  0  0  0  0  0
   -0.5149    2.1171    3.1771 C   0  0  0  0  0  0  0  0  0  0  0  0
   -1.9385    2.5965    3.4739 C   0  0  0  0  0  0  0  0  0  0  0  0
   -1.9610    3.4810    4.7220 C   0  0  0  0  0  0  0  0  0  0  0  0
   -1.3205    2.7526    5.9125 C   0  0  0  0  0  0  0  0  0  0  0  0
    0.0895    2.2622    5.5434 C   0  0  0  0  0  0  0  0  0  0  0  0
    0.1303   -0.8782    5.2742 C   0  0  0  0  0  0  0  0  0  0  0  0
   -0.5597   -0.5953    6.2555 O   0  0  0  0  0  0  0  0  0  0  0  0
    0.5142   -2.2919    4.9913 C   0  0  0  0  0  0  0  0  0  0  0  0
   -0.0819   -3.3562    5.6926 C   0  0  0  0  0  0  0  0  0  0  0  0
    0.2156   -4.6745    5.3027 C   0  0  0  0  0  0  0  0  0  0  0  0
    1.0666   -4.8658    4.1934 C   0  0  0  0  0  0  0  0  0  0  0  0
    1.6494   -3.8512    3.5260 N   0  0  0  0  0  0  0  0  0  0  0  0
    1.4238   -2.5859    3.9476 C   0  0  0  0  0  0  0  0  0  0  0  0
    2.0425   -1.5148    3.2828 N   0  0  0  0  0  0  0  0  0  0  0  0
    5.5711   -3.2652    4.1332 H   0  0  0  0  0  0  0  0  0  0  0  0
    4.3680   -4.3072    3.3587 H   0  0  0  0  0  0  0  0  0  0  0  0
    3.9072   -3.1343    4.6118 H   0  0  0  0  0  0  0  0  0  0  0  0
    6.1282   -3.0819    1.7535 H   0  0  0  0  0  0  0  0  0  0  0  0
    6.2555   -1.3728    2.1734 H   0  0  0  0  0  0  0  0  0  0  0  0
    5.3363   -1.8952    0.7502 H   0  0  0  0  0  0  0  0  0  0  0  0
    2.2244    1.5679    2.3957 H   0  0  0  0  0  0  0  0  0  0  0  0
    1.2442    0.5568    1.3078 H   0  0  0  0  0  0  0  0  0  0  0  0
    0.1315    2.9497    2.8824 H   0  0  0  0  0  0  0  0  0  0  0  0
   -0.5742    1.4345    2.3330 H   0  0  0  0  0  0  0  0  0  0  0  0
   -2.3296    3.1212    2.6042 H   0  0  0  0  0  0  0  0  0  0  0  0
   -2.5859    1.7388    3.6397 H   0  0  0  0  0  0  0  0  0  0  0  0
   -1.4182    4.4014    4.5159 H   0  0  0  0  0  0  0  0  0  0  0  0
   -2.9868    3.7482    4.9614 H   0  0  0  0  0  0  0  0  0  0  0  0
   -1.2807    3.4160    6.7763 H   0  0  0  0  0  0  0  0  0  0  0  0
   -1.9401    1.9036    6.2034 H   0  0  0  0  0  0  0  0  0  0  0  0
    0.5215    1.7257    6.3859 H   0  0  0  0  0  0  0  0  0  0  0  0
    0.7486    3.1156    5.3775 H   0  0  0  0  0  0  0  0  0  0  0  0
   -0.7765   -3.1777    6.5012 H   0  0  0  0  0  0  0  0  0  0  0  0
   -0.2144   -5.5235    5.8048 H   0  0  0  0  0  0  0  0  0  0  0  0
    1.3049   -5.8533    3.8349 H   0  0  0  0  0  0  0  0  0  0  0  0
  1  2  1  0
  1 25  1  0
  1 26  1  0
  1 27  1  0
  2  3  1  0
  2  4  2  3
  3 28  1  0
  3 29  1  0
  3 30  1  0
  4 24  1  0
  4  5  1  0
  5  6  2  0
  5  7  1  0
  7  8  1  0
  7 31  1  0
  7 32  1  0
  8 24  1  0
  8  9  2  0
  9 10  1  0
  9 16  1  0
 10 15  1  0
 10 11  1  0
 11 12  1  0
 11 33  1  0
 11 34  1  0
 12 13  1  0
 12 35  1  0
 12 36  1  0
 13 14  1  0
 13 37  1  0
 13 38  1  0
 14 15  1  0
 14 39  1  0
 14 40  1  0
 15 41  1  0
 15 42  1  0
 16 17  2  0
 16 18  1  0
 18 23  2  0
 18 19  1  0
 19 20  2  0
 19 43  1  0
 20 21  1  0
 20 44  1  0
 21 22  2  0
 21 45  1  0
 22 23  1  0
 23 24  1  0
M  END
>  <i_m_ct_stereo_status>  (331) 
1

>  <s_m_source_file>  (331) 
/var/tmp/pbs.5076255.sched01/tmpfn0mpy04/132vsilkqhl.sdf

>  <i_m_source_file_index>  (331) 
15

>  <i_lp_mmshare_version>  (331) 
48012

>  <i_f3d_flags>  (331) 
0

>  <s_epik_input>  (331) 
W0NIM11DKFtDSDNdKT1DKEMoPU8pW0NIMl0xKW4oYzEyKWMzYyhbY0hdW2NIXVtjSF1uMyljKD1PKWMyTjRbQ0gyXVtDSDJdW0NIMl1bQ0gyXVtDSDJdNA==

>  <s_epik_cmdline>  (331) 
J2VwaWtfcHl0aG9uJywgJy1waHQnLCAnMi4wJywgJy1waCcsICc3LjAnLCAnLXRuJywgJzgnLCAnLW1hJywgJzIwMCcsICctaW1hZScsICc8aW5maWxlLm1hZT4nLCAnLW9tYWUnLCAnPG91dGZpbGUubWFlPic=

>  <r_lp_tautomer_probability>  (331) 
1

>  <r_epik_Ionization_Penalty>  (331) 
2.71982e-09

>  <r_epik_Ionization_Penalty_Charging>  (331) 
0

>  <r_epik_Ionization_Penalty_Neutral>  (331) 
2.71982e-09

>  <r_epik_State_Penalty>  (331) 
-0

>  <r_epik_Charging_Adjusted_Penalty>  (331) 
0

>  <i_epik_Tot_Q>  (331) 
0

>  <i_epik_Tot_abs_Q>  (331) 
0

>  <s_lp_Force_Field>  (331) 
OPLS3e

>  <r_lp_Energy>  (331) 
47.3901

>  <b_lp_Chiralities_Consistent>  (331) 
1

>  <s_lp_Variant>  (331) 
90:0-1

>  <s_i_glide_gridfile>  (331) 
pfpi4k_grid

>  <i_i_glide_lignum>  (331) 
15

>  <i_i_glide_rotatable_bonds>  (331) 
1

>  <r_i_docking_score>  (331) 
-2.6303

>  <r_i_glide_ligand_efficiency>  (331) 
-0.109596

>  <r_i_glide_ligand_efficiency_sa>  (331) 
-0.316129

>  <r_i_glide_ligand_efficiency_ln>  (331) 
-0.629551

>  <r_i_glide_gscore>  (331) 
-2.6303

>  <r_i_glide_lipo>  (331) 
-0.141582

>  <r_i_glide_hbond>  (331) 
0

>  <r_i_glide_metal>  (331) 
-0

>  <r_i_glide_rewards>  (331) 
-1.23611

>  <r_i_glide_evdw>  (331) 
-23.6817

>  <r_i_glide_ecoul>  (331) 
-1.41787

>  <r_i_glide_erotb>  (331) 
0.178938

>  <r_i_glide_esite>  (331) 
-0.0347773

>  <r_i_glide_emodel>  (331) 
-29.1584

>  <r_i_glide_energy>  (331) 
-25.0995

>  <r_i_glide_einternal>  (331) 
0.248747

>  <r_i_glide_intrahb_reward>  (331) 
-0

>  <i_i_glide_confnum>  (331) 
2

>  <i_i_glide_posenum>  (331) 
1

>  <r_i_glide_eff_state_penalty>  (331) 
0

>  <ligand_id>  (331) 
90

>  <original_smiles>  (331) 
CC(C)=C1C(=O)Cc2c(N3CCCCC3)c(=O)c3cccnc3n21

>  <smiles>  (331) 
[H]c1nc2c(c([H])c1[H])c(=O)c(N1C([H])([H])C([H])([H])C([H])([H])C([H])([H])C1([H])[H])c1n2C(=C(C([H])([H])[H])C([H])([H])[H])C(=O)C1([H])[H]

$$$$
90:0:2
     RDKit          3D

 45 48  0  0  1  0  0  0  0  0999 V2000
    0.2712   -0.7369    6.8811 C   0  0  0  0  0  0  0  0  0  0  0  0
    0.3691   -2.1926    6.4388 C   0  0  0  0  0  0  0  0  0  0  0  0
    0.1324   -3.1419    7.6068 C   0  0  0  0  0  0  0  0  0  0  0  0
    0.7017   -2.5833    5.1747 C   0  0  0  0  0  0  0  0  0  0  0  0
    1.1093   -3.9488    4.8270 C   0  0  0  0  0  0  0  0  0  0  0  0
    1.0354   -4.9790    5.4960 O   0  0  0  0  0  0  0  0  0  0  0  0
    1.7917   -3.9446    3.4812 C   0  0  0  0  0  0  0  0  0  0  0  0
    1.8070   -2.4633    3.1706 C   0  0  0  0  0  0  0  0  0  0  0  0
    2.5513   -1.8295    2.2355 C   0  0  0  0  0  0  0  0  0  0  0  0
    3.5322   -2.4627    1.4727 N   0  0  0  0  0  0  0  0  0  0  0  0
    4.6400   -3.2198    2.0611 C   0  0  0  0  0  0  0  0  0  0  0  0
    4.6613   -4.6694    1.5359 C   0  0  0  0  0  0  0  0  0  0  0  0
    4.6929   -4.6882    0.0023 C   0  0  0  0  0  0  0  0  0  0  0  0
    3.5381   -3.8447   -0.5640 C   0  0  0  0  0  0  0  0  0  0  0  0
    3.5595   -2.4215    0.0115 C   0  0  0  0  0  0  0  0  0  0  0  0
    2.3412   -0.3634    2.0492 C   0  0  0  0  0  0  0  0  0  0  0  0
    3.1030    0.3295    1.3768 O   0  0  0  0  0  0  0  0  0  0  0  0
    1.1371    0.2108    2.7224 C   0  0  0  0  0  0  0  0  0  0  0  0
    0.6450    1.4837    2.3784 C   0  0  0  0  0  0  0  0  0  0  0  0
   -0.5617    1.9195    2.9539 C   0  0  0  0  0  0  0  0  0  0  0  0
   -1.2442    1.0472    3.8262 C   0  0  0  0  0  0  0  0  0  0  0  0
   -0.7692   -0.1644    4.1790 N   0  0  0  0  0  0  0  0  0  0  0  0
    0.4235   -0.5586    3.6739 C   0  0  0  0  0  0  0  0  0  0  0  0
    0.9460   -1.8122    4.0366 N   0  0  0  0  0  0  0  0  0  0  0  0
    0.7066   -0.6087    7.8693 H   0  0  0  0  0  0  0  0  0  0  0  0
   -0.7692   -0.4154    6.9084 H   0  0  0  0  0  0  0  0  0  0  0  0
    0.8285   -0.0720    6.2260 H   0  0  0  0  0  0  0  0  0  0  0  0
   -0.5161   -2.6824    8.3487 H   0  0  0  0  0  0  0  0  0  0  0  0
    1.0776   -3.3847    8.0921 H   0  0  0  0  0  0  0  0  0  0  0  0
   -0.3529   -4.0671    7.2953 H   0  0  0  0  0  0  0  0  0  0  0  0
    2.7778   -4.3967    3.5634 H   0  0  0  0  0  0  0  0  0  0  0  0
    1.1950   -4.4826    2.7428 H   0  0  0  0  0  0  0  0  0  0  0  0
    5.5886   -2.7260    1.8306 H   0  0  0  0  0  0  0  0  0  0  0  0
    4.5725   -3.2107    3.1481 H   0  0  0  0  0  0  0  0  0  0  0  0
    5.5166   -5.2060    1.9423 H   0  0  0  0  0  0  0  0  0  0  0  0
    3.7777   -5.2156    1.8600 H   0  0  0  0  0  0  0  0  0  0  0  0
    5.6439   -4.2868   -0.3471 H   0  0  0  0  0  0  0  0  0  0  0  0
    4.6215   -5.7145   -0.3650 H   0  0  0  0  0  0  0  0  0  0  0  0
    3.6006   -3.8068   -1.6488 H   0  0  0  0  0  0  0  0  0  0  0  0
    2.5845   -4.3179   -0.3279 H   0  0  0  0  0  0  0  0  0  0  0  0
    2.6926   -1.8760   -0.3513 H   0  0  0  0  0  0  0  0  0  0  0  0
    4.4424   -1.8748   -0.3295 H   0  0  0  0  0  0  0  0  0  0  0  0
    1.1555    2.1208    1.6694 H   0  0  0  0  0  0  0  0  0  0  0  0
   -0.9691    2.8902    2.7199 H   0  0  0  0  0  0  0  0  0  0  0  0
   -2.1867    1.3204    4.2726 H   0  0  0  0  0  0  0  0  0  0  0  0
  1  2  1  0
  1 25  1  0
  1 26  1  0
  1 27  1  0
  2  3  1  0
  2  4  2  3
  3 28  1  0
  3 29  1  0
  3 30  1  0
  4 24  1  0
  4  5  1  0
  5  6  2  0
  5  7  1  0
  7  8  1  0
  7 31  1  0
  7 32  1  0
  8 24  1  0
  8  9  2  0
  9 10  1  0
  9 16  1  0
 10 15  1  0
 10 11  1  0
 11 12  1  0
 11 33  1  0
 11 34  1  0
 12 13  1  0
 12 35  1  0
 12 36  1  0
 13 14  1  0
 13 37  1  0
 13 38  1  0
 14 15  1  0
 14 39  1  0
 14 40  1  0
 15 41  1  0
 15 42  1  0
 16 17  2  0
 16 18  1  0
 18 23  2  0
 18 19  1  0
 19 20  2  0
 19 43  1  0
 20 21  1  0
 20 44  1  0
 21 22  2  0
 21 45  1  0
 22 23  1  0
 23 24  1  0
M  END
>  <i_m_ct_stereo_status>  (332) 
1

>  <s_m_source_file>  (332) 
/var/tmp/pbs.5076255.sched01/tmpfn0mpy04/132vsilkqhl.sdf

>  <i_m_source_file_index>  (332) 
15

>  <i_lp_mmshare_version>  (332) 
48012

>  <i_f3d_flags>  (332) 
0

>  <s_epik_input>  (332) 
W0NIM11DKFtDSDNdKT1DKEMoPU8pW0NIMl0xKW4oYzEyKWMzYyhbY0hdW2NIXVtjSF1uMyljKD1PKWMyTjRbQ0gyXVtDSDJdW0NIMl1bQ0gyXVtDSDJdNA==

>  <s_epik_cmdline>  (332) 
J2VwaWtfcHl0aG9uJywgJy1waHQnLCAnMi4wJywgJy1waCcsICc3LjAnLCAnLXRuJywgJzgnLCAnLW1hJywgJzIwMCcsICctaW1hZScsICc8aW5maWxlLm1hZT4nLCAnLW9tYWUnLCAnPG91dGZpbGUubWFlPic=

>  <r_lp_tautomer_probability>  (332) 
1

>  <r_epik_Ionization_Penalty>  (332) 
2.71982e-09

>  <r_epik_Ionization_Penalty_Charging>  (332) 
0

>  <r_epik_Ionization_Penalty_Neutral>  (332) 
2.71982e-09

>  <r_epik_State_Penalty>  (332) 
-0

>  <r_epik_Charging_Adjusted_Penalty>  (332) 
0

>  <i_epik_Tot_Q>  (332) 
0

>  <i_epik_Tot_abs_Q>  (332) 
0

>  <s_lp_Force_Field>  (332) 
OPLS3e

>  <r_lp_Energy>  (332) 
47.3901

>  <b_lp_Chiralities_Consistent>  (332) 
1

>  <s_lp_Variant>  (332) 
90:0-1

>  <s_i_glide_gridfile>  (332) 
pfpi4k_grid

>  <i_i_glide_lignum>  (332) 
15

>  <i_i_glide_rotatable_bonds>  (332) 
1

>  <r_i_docking_score>  (332) 
-2.59486

>  <r_i_glide_ligand_efficiency>  (332) 
-0.108119

>  <r_i_glide_ligand_efficiency_sa>  (332) 
-0.31187

>  <r_i_glide_ligand_efficiency_ln>  (332) 
-0.621069

>  <r_i_glide_gscore>  (332) 
-2.59486

>  <r_i_glide_lipo>  (332) 
-0.0782596

>  <r_i_glide_hbond>  (332) 
0

>  <r_i_glide_metal>  (332) 
-0

>  <r_i_glide_rewards>  (332) 
-1.22358

>  <r_i_glide_evdw>  (332) 
-23.4727

>  <r_i_glide_ecoul>  (332) 
-1.8529

>  <r_i_glide_erotb>  (332) 
0.178938

>  <r_i_glide_esite>  (332) 
-0.0203909

>  <r_i_glide_emodel>  (332) 
-29.3658

>  <r_i_glide_energy>  (332) 
-25.3256

>  <r_i_glide_einternal>  (332) 
0.118809

>  <r_i_glide_intrahb_reward>  (332) 
-0

>  <i_i_glide_confnum>  (332) 
4

>  <i_i_glide_posenum>  (332) 
20

>  <r_i_glide_eff_state_penalty>  (332) 
0

>  <ligand_id>  (332) 
90

>  <original_smiles>  (332) 
CC(C)=C1C(=O)Cc2c(N3CCCCC3)c(=O)c3cccnc3n21

>  <smiles>  (332) 
[H]c1nc2c(c([H])c1[H])c(=O)c(N1C([H])([H])C([H])([H])C([H])([H])C([H])([H])C1([H])[H])c1n2C(=C(C([H])([H])[H])C([H])([H])[H])C(=O)C1([H])[H]

$$$$
91:0:0
     RDKit          3D

 59 64  0  0  1  0  0  0  0  0999 V2000
    3.8181   -1.8778   -3.8567 C   0  0  0  0  0  0  0  0  0  0  0  0
    3.6454   -2.3097   -2.6045 C   0  0  0  0  0  0  0  0  0  0  0  0
    4.2248   -1.6480   -1.3614 C   0  0  0  0  0  0  0  0  0  0  0  0
    4.9324   -2.5606   -0.5188 O   0  0  0  0  0  0  0  0  0  0  0  0
    4.1503   -3.5953    0.0782 C   0  0  2  0  0  0  0  0  0  0  0  0
    3.1856   -3.0468    1.1408 C   0  0  0  0  0  0  0  0  0  0  0  0
    2.7505   -3.8740    2.1070 C   0  0  0  0  0  0  0  0  0  0  0  0
    2.1365   -3.5318    3.4332 C   0  0  0  0  0  0  0  0  0  0  0  0
    2.5395   -4.7603    4.2911 C   0  0  0  0  0  0  0  0  0  0  0  0
    2.3995   -5.9550    3.3094 C   0  0  2  0  0  0  0  0  0  0  0  0
    1.0096   -6.1855    3.0210 O   0  0  0  0  0  0  0  0  0  0  0  0
    0.1019   -6.3841    4.1069 C   0  0  0  0  0  0  0  0  0  0  0  0
    3.0295   -7.3371    3.5909 C   0  0  2  0  0  0  0  0  0  0  0  0
    4.4070   -7.3447    4.2639 C   0  0  0  0  0  0  0  0  0  0  0  0
    5.6788   -6.9782    3.5242 C   0  0  0  0  0  0  0  0  0  0  0  0
    6.9779   -7.3290    3.9221 C   0  0  0  0  0  0  0  0  0  0  0  0
    8.1109   -6.9597    3.1545 C   0  0  0  0  0  0  0  0  0  0  0  0
    7.9533   -6.1920    1.9712 C   0  0  0  0  0  0  0  0  0  0  0  0
    9.0427   -5.8819    1.2190 O   0  0  0  0  0  0  0  0  0  0  0  0
    6.6789   -5.7756    1.5581 C   0  0  0  0  0  0  0  0  0  0  0  0
    5.5876   -6.2005    2.3382 C   0  0  0  0  0  0  0  0  0  0  0  0
    4.3895   -5.7665    1.5249 C   0  0  2  0  0  0  0  0  0  0  0  0
    4.1252   -6.9613    0.5823 C   0  0  0  0  0  0  0  0  0  0  0  0
    3.7925   -8.3019    1.3132 C   0  0  0  0  0  0  0  0  0  0  0  0
    2.8252   -8.3070    2.4574 N   0  0  1  0  0  0  0  0  0  0  0  0
    2.6263   -9.6888    2.9464 C   0  0  0  0  0  0  0  0  0  0  0  0
    5.0748   -4.5280    0.8718 C   0  0  1  0  0  0  0  0  0  0  0  0
    6.3503   -4.9974    0.4755 O   0  0  0  0  0  0  0  0  0  0  0  0
    2.9763   -5.3585    2.0472 C   0  0  2  0  0  0  0  0  0  0  0  0
    4.3906   -0.9910   -4.0785 H   0  0  0  0  0  0  0  0  0  0  0  0
    3.3656   -2.4292   -4.6660 H   0  0  0  0  0  0  0  0  0  0  0  0
    3.0315   -3.1919   -2.4709 H   0  0  0  0  0  0  0  0  0  0  0  0
    4.9137   -0.8489   -1.6483 H   0  0  0  0  0  0  0  0  0  0  0  0
    3.4227   -1.1490   -0.8189 H   0  0  0  0  0  0  0  0  0  0  0  0
    3.6318   -4.2150   -0.6498 H   0  0  0  0  0  0  0  0  0  0  0  0
    3.0492   -1.9824    1.2219 H   0  0  0  0  0  0  0  0  0  0  0  0
    2.5121   -2.5893    3.8176 H   0  0  0  0  0  0  0  0  0  0  0  0
    1.0577   -3.4744    3.3217 H   0  0  0  0  0  0  0  0  0  0  0  0
    3.5884   -4.6274    4.5755 H   0  0  0  0  0  0  0  0  0  0  0  0
    1.9649   -4.8391    5.2169 H   0  0  0  0  0  0  0  0  0  0  0  0
   -0.8546   -6.7099    3.7017 H   0  0  0  0  0  0  0  0  0  0  0  0
   -0.0872   -5.4627    4.6582 H   0  0  0  0  0  0  0  0  0  0  0  0
    0.4216   -7.1491    4.8128 H   0  0  0  0  0  0  0  0  0  0  0  0
    2.4288   -7.7229    4.4041 H   0  0  0  0  0  0  0  0  0  0  0  0
    4.3713   -6.7402    5.1655 H   0  0  0  0  0  0  0  0  0  0  0  0
    4.5833   -8.3547    4.6364 H   0  0  0  0  0  0  0  0  0  0  0  0
    7.1128   -7.9077    4.8323 H   0  0  0  0  0  0  0  0  0  0  0  0
    9.0830   -7.2704    3.4735 H   0  0  0  0  0  0  0  0  0  0  0  0
    9.6950   -6.5691    1.2988 H   0  0  0  0  0  0  0  0  0  0  0  0
    3.3917   -6.6629   -0.1508 H   0  0  0  0  0  0  0  0  0  0  0  0
    5.0023   -7.1608   -0.0314 H   0  0  0  0  0  0  0  0  0  0  0  0
    3.4031   -8.9874    0.5612 H   0  0  0  0  0  0  0  0  0  0  0  0
    4.7233   -8.7700    1.6301 H   0  0  0  0  0  0  0  0  0  0  0  0
    3.5380  -10.0898    3.3926 H   0  0  0  0  0  0  0  0  0  0  0  0
    2.3501  -10.3630    2.1379 H   0  0  0  0  0  0  0  0  0  0  0  0
    1.8407   -9.7588    3.6975 H   0  0  0  0  0  0  0  0  0  0  0  0
    5.3602   -3.8592    1.6908 H   0  0  0  0  0  0  0  0  0  0  0  0
    2.2658   -5.6061    1.2523 H   0  0  0  0  0  0  0  0  0  0  0  0
    1.9151   -8.0416    2.0720 H   0  0  0  0  0  0  0  0  0  0  0  0
  1  2  2  0
  1 30  1  0
  1 31  1  0
  2  3  1  0
  2 32  1  0
  3  4  1  0
  3 33  1  0
  3 34  1  0
  4  5  1  0
  5 27  1  0
  5  6  1  0
  5 35  1  6
  6  7  2  0
  6 36  1  0
  7 29  1  0
  7  8  1  0
  8  9  1  0
  8 37  1  0
  8 38  1  0
  9 10  1  0
  9 39  1  0
  9 40  1  0
 10 29  1  0
 10 11  1  6
 10 13  1  0
 11 12  1  0
 12 41  1  0
 12 42  1  0
 12 43  1  0
 13 25  1  0
 13 14  1  0
 13 44  1  1
 14 15  1  0
 14 45  1  0
 14 46  1  0
 15 21  2  0
 15 16  1  0
 16 17  2  0
 16 47  1  0
 17 18  1  0
 17 48  1  0
 18 19  1  0
 18 20  2  0
 19 49  1  0
 20 28  1  0
 20 21  1  0
 21 22  1  0
 22 23  1  6
 22 27  1  0
 22 29  1  0
 23 24  1  0
 23 50  1  0
 23 51  1  0
 24 25  1  0
 24 52  1  0
 24 53  1  0
 25 26  1  0
 25 59  1  6
 26 54  1  0
 26 55  1  0
 26 56  1  0
 27 28  1  0
 27 57  1  1
 29 58  1  6
M  CHG  1  25   1
M  END
>  <i_m_ct_stereo_status>  (333) 
1

>  <s_m_source_file>  (333) 
/var/tmp/pbs.5076255.sched01/tmpfn0mpy04/132vsilkqhl.sdf

>  <i_m_source_file_index>  (333) 
16

>  <i_lp_mmshare_version>  (333) 
48012

>  <i_f3d_flags>  (333) 
0

>  <s_epik_input>  (333) 
W0NIMl0xW0NIMl1OKFtDSDNdKVtDQEBIXShbQ0gyXTIpW0NAXShbQ0gyXVtDSDJdMykoT1tDSDNdKVtDQEhdNEMzPVtDSF1bQ0BASF0oT1tDSDJdW0NIXT1bQ0gyXSlbQ0BASF01T2M2YyhbT0hdKVtjSF1bY0hdYzJjNltDQEBdMTQ1

>  <s_epik_cmdline>  (333) 
J2VwaWtfcHl0aG9uJywgJy1waHQnLCAnMi4wJywgJy1waCcsICc3LjAnLCAnLXRuJywgJzgnLCAnLW1hJywgJzIwMCcsICctaW1hZScsICc8aW5maWxlLm1hZT4nLCAnLW9tYWUnLCAnPG91dGZpbGUubWFlPic=

>  <r_lp_tautomer_probability>  (333) 
1

>  <r_epik_Ionization_Penalty>  (333) 
0.123671

>  <r_epik_Ionization_Penalty_Charging>  (333) 
0.114944

>  <r_epik_Ionization_Penalty_Neutral>  (333) 
0.00872644

>  <r_epik_State_Penalty>  (333) 
0.110121

>  <r_epik_Charging_Adjusted_Penalty>  (333) 
0.225066

>  <i_epik_Tot_Q>  (333) 
1

>  <i_epik_Tot_abs_Q>  (333) 
1

>  <s_lp_Force_Field>  (333) 
OPLS3e

>  <r_lp_Energy>  (333) 
85.8969

>  <b_lp_Chiralities_Consistent>  (333) 
1

>  <s_lp_Variant>  (333) 
91:0-1

>  <s_i_glide_gridfile>  (333) 
pfpi4k_grid

>  <i_i_glide_lignum>  (333) 
16

>  <i_i_glide_rotatable_bonds>  (333) 
5

>  <r_i_docking_score>  (333) 
-3.15906

>  <r_i_glide_ligand_efficiency>  (333) 
-0.108933

>  <r_i_glide_ligand_efficiency_sa>  (333) 
-0.334677

>  <r_i_glide_ligand_efficiency_ln>  (333) 
-0.723344

>  <r_i_glide_gscore>  (333) 
-3.15906

>  <r_i_glide_lipo>  (333) 
-0.468407

>  <r_i_glide_hbond>  (333) 
0

>  <r_i_glide_metal>  (333) 
-0

>  <r_i_glide_rewards>  (333) 
-0.705687

>  <r_i_glide_evdw>  (333) 
-24.0205

>  <r_i_glide_ecoul>  (333) 
-6.91033

>  <r_i_glide_erotb>  (333) 
0.261351

>  <r_i_glide_esite>  (333) 
-0.00873922

>  <r_i_glide_emodel>  (333) 
-36.5108

>  <r_i_glide_energy>  (333) 
-30.9309

>  <r_i_glide_einternal>  (333) 
1.52637

>  <r_i_glide_intrahb_reward>  (333) 
-0

>  <i_i_glide_confnum>  (333) 
2

>  <i_i_glide_posenum>  (333) 
1

>  <r_i_glide_eff_state_penalty>  (333) 
0

>  <ligand_id>  (333) 
91

>  <original_smiles>  (333) 
C=CCOC1C=C2CCC3(OC)C4Cc5ccc(O)c6c5C(CCN4C)(C1O6)C23

>  <smiles>  (333) 
[H]Oc1c([H])c([H])c2c3c1OC1([H])C([H])(OC([H])([H])C([H])=C([H])[H])C([H])=C4C([H])([H])C([H])([H])C5(OC([H])([H])[H])C4([H])C31C([H])([H])C([H])([H])[N+]([H])(C([H])([H])[H])C5([H])C2([H])[H]

$$$$
91:0:1
     RDKit          3D

 59 64  0  0  1  0  0  0  0  0999 V2000
    0.8101  -10.2922    3.0139 C   0  0  0  0  0  0  0  0  0  0  0  0
    1.9624   -9.6176    3.1527 C   0  0  0  0  0  0  0  0  0  0  0  0
    2.6233   -8.7998    2.0613 C   0  0  0  0  0  0  0  0  0  0  0  0
    2.6873   -7.4284    2.4400 O   0  0  0  0  0  0  0  0  0  0  0  0
    3.3173   -6.5772    1.4938 C   0  0  2  0  0  0  0  0  0  0  0  0
    4.8494   -6.6773    1.5770 C   0  0  0  0  0  0  0  0  0  0  0  0
    5.5977   -5.6232    1.1875 C   0  0  0  0  0  0  0  0  0  0  0  0
    7.0276   -5.2872    1.4952 C   0  0  0  0  0  0  0  0  0  0  0  0
    7.0295   -3.7410    1.3914 C   0  0  0  0  0  0  0  0  0  0  0  0
    6.0881   -3.4388    0.2089 C   0  0  2  0  0  0  0  0  0  0  0  0
    6.7024   -3.7975   -1.0314 O   0  0  0  0  0  0  0  0  0  0  0  0
    8.0656   -3.4406   -1.2825 C   0  0  0  0  0  0  0  0  0  0  0  0
    5.5118   -2.0315   -0.0563 C   0  0  2  0  0  0  0  0  0  0  0  0
    5.0920   -1.2058    1.1664 C   0  0  0  0  0  0  0  0  0  0  0  0
    3.8482   -1.5460    1.9712 C   0  0  0  0  0  0  0  0  0  0  0  0
    3.2007   -0.6369    2.8332 C   0  0  0  0  0  0  0  0  0  0  0  0
    2.0362   -1.0194    3.5378 C   0  0  0  0  0  0  0  0  0  0  0  0
    1.5169   -2.3214    3.4169 C   0  0  0  0  0  0  0  0  0  0  0  0
    0.3890   -2.6668    4.0991 O   0  0  0  0  0  0  0  0  0  0  0  0
    2.1634   -3.2702    2.6012 C   0  0  0  0  0  0  0  0  0  0  0  0
    3.2964   -2.8449    1.8895 C   0  0  0  0  0  0  0  0  0  0  0  0
    3.6025   -4.0171    0.9670 C   0  0  2  0  0  0  0  0  0  0  0  0
    2.7998   -3.7332   -0.3248 C   0  0  0  0  0  0  0  0  0  0  0  0
    3.1304   -2.3878   -1.0153 C   0  0  0  0  0  0  0  0  0  0  0  0
    4.5684   -2.0266   -1.2356 N   0  0  1  0  0  0  0  0  0  0  0  0
    4.6360   -0.7514   -1.9975 C   0  0  0  0  0  0  0  0  0  0  0  0
    3.0359   -5.1185    1.9045 C   0  0  1  0  0  0  0  0  0  0  0  0
    1.8146   -4.5893    2.4055 O   0  0  0  0  0  0  0  0  0  0  0  0
    4.9983   -4.4588    0.4419 C   0  0  2  0  0  0  0  0  0  0  0  0
    0.2650  -10.2951    2.0805 H   0  0  0  0  0  0  0  0  0  0  0  0
    0.3939  -10.8545    3.8391 H   0  0  0  0  0  0  0  0  0  0  0  0
    2.4753   -9.6453    4.1042 H   0  0  0  0  0  0  0  0  0  0  0  0
    3.6218   -9.2020    1.8889 H   0  0  0  0  0  0  0  0  0  0  0  0
    2.0623   -8.9097    1.1319 H   0  0  0  0  0  0  0  0  0  0  0  0
    2.9572   -6.7652    0.4818 H   0  0  0  0  0  0  0  0  0  0  0  0
    5.2838   -7.4835    2.1506 H   0  0  0  0  0  0  0  0  0  0  0  0
    7.3382   -5.6518    2.4702 H   0  0  0  0  0  0  0  0  0  0  0  0
    7.6704   -5.7194    0.7325 H   0  0  0  0  0  0  0  0  0  0  0  0
    6.5912   -3.3380    2.3065 H   0  0  0  0  0  0  0  0  0  0  0  0
    8.0289   -3.3220    1.2793 H   0  0  0  0  0  0  0  0  0  0  0  0
    8.3079   -3.7054   -2.3087 H   0  0  0  0  0  0  0  0  0  0  0  0
    8.7723   -3.9917   -0.6609 H   0  0  0  0  0  0  0  0  0  0  0  0
    8.2542   -2.3750   -1.1606 H   0  0  0  0  0  0  0  0  0  0  0  0
    6.3794   -1.4743   -0.3931 H   0  0  0  0  0  0  0  0  0  0  0  0
    5.9253   -1.1560    1.8634 H   0  0  0  0  0  0  0  0  0  0  0  0
    4.9541   -0.1731    0.8404 H   0  0  0  0  0  0  0  0  0  0  0  0
    3.5902    0.3659    2.9514 H   0  0  0  0  0  0  0  0  0  0  0  0
    1.5414   -0.3013    4.1680 H   0  0  0  0  0  0  0  0  0  0  0  0
    0.1248   -3.5511    3.9026 H   0  0  0  0  0  0  0  0  0  0  0  0
    2.8322   -4.5646   -1.0285 H   0  0  0  0  0  0  0  0  0  0  0  0
    1.7561   -3.6516   -0.0615 H   0  0  0  0  0  0  0  0  0  0  0  0
    2.6500   -2.4269   -1.9923 H   0  0  0  0  0  0  0  0  0  0  0  0
    2.6394   -1.5822   -0.4765 H   0  0  0  0  0  0  0  0  0  0  0  0
    4.2503    0.0709   -1.3979 H   0  0  0  0  0  0  0  0  0  0  0  0
    4.0428   -0.7987   -2.9111 H   0  0  0  0  0  0  0  0  0  0  0  0
    5.6572   -0.5094   -2.2821 H   0  0  0  0  0  0  0  0  0  0  0  0
    3.6295   -5.0762    2.8267 H   0  0  0  0  0  0  0  0  0  0  0  0
    4.8274   -4.9386   -0.5260 H   0  0  0  0  0  0  0  0  0  0  0  0
    4.9437   -2.7386   -1.8562 H   0  0  0  0  0  0  0  0  0  0  0  0
  1  2  2  0
  1 30  1  0
  1 31  1  0
  2  3  1  0
  2 32  1  0
  3  4  1  0
  3 33  1  0
  3 34  1  0
  4  5  1  0
  5 27  1  0
  5  6  1  0
  5 35  1  6
  6  7  2  0
  6 36  1  0
  7 29  1  0
  7  8  1  0
  8  9  1  0
  8 37  1  0
  8 38  1  0
  9 10  1  0
  9 39  1  0
  9 40  1  0
 10 29  1  0
 10 11  1  6
 10 13  1  0
 11 12  1  0
 12 41  1  0
 12 42  1  0
 12 43  1  0
 13 25  1  0
 13 14  1  0
 13 44  1  6
 14 15  1  0
 14 45  1  0
 14 46  1  0
 15 21  2  0
 15 16  1  0
 16 17  2  0
 16 47  1  0
 17 18  1  0
 17 48  1  0
 18 19  1  0
 18 20  2  0
 19 49  1  0
 20 28  1  0
 20 21  1  0
 21 22  1  0
 22 23  1  6
 22 27  1  0
 22 29  1  0
 23 24  1  0
 23 50  1  0
 23 51  1  0
 24 25  1  0
 24 52  1  0
 24 53  1  0
 25 26  1  0
 25 59  1  6
 26 54  1  0
 26 55  1  0
 26 56  1  0
 27 28  1  0
 27 57  1  1
 29 58  1  6
M  CHG  1  25   1
M  END
>  <i_m_ct_stereo_status>  (334) 
1

>  <s_m_source_file>  (334) 
/var/tmp/pbs.5076255.sched01/tmpfn0mpy04/132vsilkqhl.sdf

>  <i_m_source_file_index>  (334) 
16

>  <i_lp_mmshare_version>  (334) 
48012

>  <i_f3d_flags>  (334) 
0

>  <s_epik_input>  (334) 
W0NIMl0xW0NIMl1OKFtDSDNdKVtDQEBIXShbQ0gyXTIpW0NAXShbQ0gyXVtDSDJdMykoT1tDSDNdKVtDQEhdNEMzPVtDSF1bQ0BASF0oT1tDSDJdW0NIXT1bQ0gyXSlbQ0BASF01T2M2YyhbT0hdKVtjSF1bY0hdYzJjNltDQEBdMTQ1

>  <s_epik_cmdline>  (334) 
J2VwaWtfcHl0aG9uJywgJy1waHQnLCAnMi4wJywgJy1waCcsICc3LjAnLCAnLXRuJywgJzgnLCAnLW1hJywgJzIwMCcsICctaW1hZScsICc8aW5maWxlLm1hZT4nLCAnLW9tYWUnLCAnPG91dGZpbGUubWFlPic=

>  <r_lp_tautomer_probability>  (334) 
1

>  <r_epik_Ionization_Penalty>  (334) 
0.123671

>  <r_epik_Ionization_Penalty_Charging>  (334) 
0.114944

>  <r_epik_Ionization_Penalty_Neutral>  (334) 
0.00872644

>  <r_epik_State_Penalty>  (334) 
0.110121

>  <r_epik_Charging_Adjusted_Penalty>  (334) 
0.225066

>  <i_epik_Tot_Q>  (334) 
1

>  <i_epik_Tot_abs_Q>  (334) 
1

>  <s_lp_Force_Field>  (334) 
OPLS3e

>  <r_lp_Energy>  (334) 
85.8969

>  <b_lp_Chiralities_Consistent>  (334) 
1

>  <s_lp_Variant>  (334) 
91:0-1

>  <s_i_glide_gridfile>  (334) 
pfpi4k_grid

>  <i_i_glide_lignum>  (334) 
16

>  <i_i_glide_rotatable_bonds>  (334) 
5

>  <r_i_docking_score>  (334) 
-2.80587

>  <r_i_glide_ligand_efficiency>  (334) 
-0.096754

>  <r_i_glide_ligand_efficiency_sa>  (334) 
-0.297259

>  <r_i_glide_ligand_efficiency_ln>  (334) 
-0.642472

>  <r_i_glide_gscore>  (334) 
-2.80587

>  <r_i_glide_lipo>  (334) 
-0.738032

>  <r_i_glide_hbond>  (334) 
0

>  <r_i_glide_metal>  (334) 
-0

>  <r_i_glide_rewards>  (334) 
-0.705687

>  <r_i_glide_evdw>  (334) 
-21.913

>  <r_i_glide_ecoul>  (334) 
-4.07356

>  <r_i_glide_erotb>  (334) 
0.373359

>  <r_i_glide_esite>  (334) 
-0.028823

>  <r_i_glide_emodel>  (334) 
-31.6279

>  <r_i_glide_energy>  (334) 
-25.9866

>  <r_i_glide_einternal>  (334) 
1.16954

>  <r_i_glide_intrahb_reward>  (334) 
-0

>  <i_i_glide_confnum>  (334) 
4

>  <i_i_glide_posenum>  (334) 
19

>  <r_i_glide_eff_state_penalty>  (334) 
0

>  <ligand_id>  (334) 
91

>  <original_smiles>  (334) 
C=CCOC1C=C2CCC3(OC)C4Cc5ccc(O)c6c5C(CCN4C)(C1O6)C23

>  <smiles>  (334) 
[H]Oc1c([H])c([H])c2c3c1OC1([H])C([H])(OC([H])([H])C([H])=C([H])[H])C([H])=C4C([H])([H])C([H])([H])C5(OC([H])([H])[H])C4([H])C31C([H])([H])C([H])([H])[N+]([H])(C([H])([H])[H])C5([H])C2([H])[H]

$$$$
91:0:2
     RDKit          3D

 59 64  0  0  1  0  0  0  0  0999 V2000
    2.6931   -2.8749   -2.4047 C   0  0  0  0  0  0  0  0  0  0  0  0
    2.5938   -3.4573   -1.2031 C   0  0  0  0  0  0  0  0  0  0  0  0
    3.0537   -2.8529    0.1094 C   0  0  0  0  0  0  0  0  0  0  0  0
    3.9475   -3.7126    0.8186 O   0  0  0  0  0  0  0  0  0  0  0  0
    3.3610   -4.8793    1.3896 C   0  0  2  0  0  0  0  0  0  0  0  0
    2.5167   -4.5230    2.6220 C   0  0  0  0  0  0  0  0  0  0  0  0
    2.3176   -5.4532    3.5744 C   0  0  0  0  0  0  0  0  0  0  0  0
    1.8826   -5.2788    5.0023 C   0  0  0  0  0  0  0  0  0  0  0  0
    2.5322   -6.5057    5.6890 C   0  0  0  0  0  0  0  0  0  0  0  0
    2.3711   -7.6406    4.6406 C   0  0  2  0  0  0  0  0  0  0  0  0
    0.9859   -8.0107    4.5356 O   0  0  0  0  0  0  0  0  0  0  0  0
    0.2713   -8.3991    5.7109 C   0  0  0  0  0  0  0  0  0  0  0  0
    3.1691   -8.9622    4.7192 C   0  0  2  0  0  0  0  0  0  0  0  0
    4.6301   -8.8662    5.1815 C   0  0  0  0  0  0  0  0  0  0  0  0
    5.7211   -8.2989    4.2928 C   0  0  0  0  0  0  0  0  0  0  0  0
    7.0972   -8.5364    4.4826 C   0  0  0  0  0  0  0  0  0  0  0  0
    8.0569   -7.9886    3.6010 C   0  0  0  0  0  0  0  0  0  0  0  0
    7.6632   -7.1622    2.5276 C   0  0  0  0  0  0  0  0  0  0  0  0
    8.6106   -6.6427    1.6915 O   0  0  0  0  0  0  0  0  0  0  0  0
    6.2994   -6.8695    2.3242 C   0  0  0  0  0  0  0  0  0  0  0  0
    5.3754   -7.4644    3.2045 C   0  0  0  0  0  0  0  0  0  0  0  0
    4.0242   -7.1163    2.5979 C   0  0  2  0  0  0  0  0  0  0  0  0
    3.7355   -8.2774    1.6108 C   0  0  0  0  0  0  0  0  0  0  0  0
    3.6762   -9.6821    2.2770 C   0  0  0  0  0  0  0  0  0  0  0  0
    2.8920   -9.8666    3.5445 N   0  0  1  0  0  0  0  0  0  0  0  0
    2.9121  -11.3014    3.9353 C   0  0  0  0  0  0  0  0  0  0  0  0
    4.4792   -5.7707    1.9617 C   0  0  1  0  0  0  0  0  0  0  0  0
    5.7354   -6.0562    1.3653 O   0  0  0  0  0  0  0  0  0  0  0  0
    2.6778   -6.8987    3.3571 C   0  0  2  0  0  0  0  0  0  0  0  0
    3.1138   -1.8871   -2.5139 H   0  0  0  0  0  0  0  0  0  0  0  0
    2.3423   -3.3902   -3.2872 H   0  0  0  0  0  0  0  0  0  0  0  0
    2.1424   -4.4379   -1.1588 H   0  0  0  0  0  0  0  0  0  0  0  0
    3.5586   -1.9043   -0.0838 H   0  0  0  0  0  0  0  0  0  0  0  0
    2.1796   -2.6114    0.7126 H   0  0  0  0  0  0  0  0  0  0  0  0
    2.7858   -5.4545    0.6670 H   0  0  0  0  0  0  0  0  0  0  0  0
    2.2959   -3.4838    2.8090 H   0  0  0  0  0  0  0  0  0  0  0  0
    2.2079   -4.3289    5.4181 H   0  0  0  0  0  0  0  0  0  0  0  0
    0.7984   -5.3381    5.0588 H   0  0  0  0  0  0  0  0  0  0  0  0
    3.5920   -6.2827    5.8368 H   0  0  0  0  0  0  0  0  0  0  0  0
    2.1139   -6.7202    6.6745 H   0  0  0  0  0  0  0  0  0  0  0  0
   -0.6971   -8.7975    5.4115 H   0  0  0  0  0  0  0  0  0  0  0  0
    0.0758   -7.5522    6.3687 H   0  0  0  0  0  0  0  0  0  0  0  0
    0.7654   -9.1773    6.2904 H   0  0  0  0  0  0  0  0  0  0  0  0
    2.7353   -9.4741    5.5700 H   0  0  0  0  0  0  0  0  0  0  0  0
    4.6682   -8.3315    6.1295 H   0  0  0  0  0  0  0  0  0  0  0  0
    4.9588   -9.8724    5.4374 H   0  0  0  0  0  0  0  0  0  0  0  0
    7.4197   -9.1541    5.3117 H   0  0  0  0  0  0  0  0  0  0  0  0
    9.0974   -8.2088    3.7597 H   0  0  0  0  0  0  0  0  0  0  0  0
    9.4072   -7.1623    1.6643 H   0  0  0  0  0  0  0  0  0  0  0  0
    2.8383   -8.0900    1.0181 H   0  0  0  0  0  0  0  0  0  0  0  0
    4.5365   -8.3280    0.8652 H   0  0  0  0  0  0  0  0  0  0  0  0
    3.2112  -10.3254    1.5352 H   0  0  0  0  0  0  0  0  0  0  0  0
    4.6873  -10.0687    2.4058 H   0  0  0  0  0  0  0  0  0  0  0  0
    3.9188  -11.6220    4.2112 H   0  0  0  0  0  0  0  0  0  0  0  0
    2.5867  -11.9405    3.1132 H   0  0  0  0  0  0  0  0  0  0  0  0
    2.2557  -11.5085    4.7816 H   0  0  0  0  0  0  0  0  0  0  0  0
    4.8126   -5.1275    2.7857 H   0  0  0  0  0  0  0  0  0  0  0  0
    1.8874   -7.1747    2.6551 H   0  0  0  0  0  0  0  0  0  0  0  0
    1.9204   -9.6810    3.3156 H   0  0  0  0  0  0  0  0  0  0  0  0
  1  2  2  0
  1 30  1  0
  1 31  1  0
  2  3  1  0
  2 32  1  0
  3  4  1  0
  3 33  1  0
  3 34  1  0
  4  5  1  0
  5 27  1  0
  5  6  1  0
  5 35  1  6
  6  7  2  0
  6 36  1  0
  7 29  1  0
  7  8  1  0
  8  9  1  0
  8 37  1  0
  8 38  1  0
  9 10  1  0
  9 39  1  0
  9 40  1  0
 10 29  1  0
 10 11  1  6
 10 13  1  0
 11 12  1  0
 12 41  1  0
 12 42  1  0
 12 43  1  0
 13 25  1  0
 13 14  1  0
 13 44  1  1
 14 15  1  0
 14 45  1  0
 14 46  1  0
 15 21  2  0
 15 16  1  0
 16 17  2  0
 16 47  1  0
 17 18  1  0
 17 48  1  0
 18 19  1  0
 18 20  2  0
 19 49  1  0
 20 28  1  0
 20 21  1  0
 21 22  1  0
 22 23  1  6
 22 27  1  0
 22 29  1  0
 23 24  1  0
 23 50  1  0
 23 51  1  0
 24 25  1  0
 24 52  1  0
 24 53  1  0
 25 26  1  0
 25 59  1  6
 26 54  1  0
 26 55  1  0
 26 56  1  0
 27 28  1  0
 27 57  1  1
 29 58  1  6
M  CHG  1  25   1
M  END
>  <i_m_ct_stereo_status>  (335) 
1

>  <s_m_source_file>  (335) 
/var/tmp/pbs.5076255.sched01/tmpfn0mpy04/132vsilkqhl.sdf

>  <i_m_source_file_index>  (335) 
16

>  <i_lp_mmshare_version>  (335) 
48012

>  <i_f3d_flags>  (335) 
0

>  <s_epik_input>  (335) 
W0NIMl0xW0NIMl1OKFtDSDNdKVtDQEBIXShbQ0gyXTIpW0NAXShbQ0gyXVtDSDJdMykoT1tDSDNdKVtDQEhdNEMzPVtDSF1bQ0BASF0oT1tDSDJdW0NIXT1bQ0gyXSlbQ0BASF01T2M2YyhbT0hdKVtjSF1bY0hdYzJjNltDQEBdMTQ1

>  <s_epik_cmdline>  (335) 
J2VwaWtfcHl0aG9uJywgJy1waHQnLCAnMi4wJywgJy1waCcsICc3LjAnLCAnLXRuJywgJzgnLCAnLW1hJywgJzIwMCcsICctaW1hZScsICc8aW5maWxlLm1hZT4nLCAnLW9tYWUnLCAnPG91dGZpbGUubWFlPic=

>  <r_lp_tautomer_probability>  (335) 
1

>  <r_epik_Ionization_Penalty>  (335) 
0.123671

>  <r_epik_Ionization_Penalty_Charging>  (335) 
0.114944

>  <r_epik_Ionization_Penalty_Neutral>  (335) 
0.00872644

>  <r_epik_State_Penalty>  (335) 
0.110121

>  <r_epik_Charging_Adjusted_Penalty>  (335) 
0.225066

>  <i_epik_Tot_Q>  (335) 
1

>  <i_epik_Tot_abs_Q>  (335) 
1

>  <s_lp_Force_Field>  (335) 
OPLS3e

>  <r_lp_Energy>  (335) 
85.8969

>  <b_lp_Chiralities_Consistent>  (335) 
1

>  <s_lp_Variant>  (335) 
91:0-1

>  <s_i_glide_gridfile>  (335) 
pfpi4k_grid

>  <i_i_glide_lignum>  (335) 
16

>  <i_i_glide_rotatable_bonds>  (335) 
5

>  <r_i_docking_score>  (335) 
-2.52728

>  <r_i_glide_ligand_efficiency>  (335) 
-0.0871476

>  <r_i_glide_ligand_efficiency_sa>  (335) 
-0.267745

>  <r_i_glide_ligand_efficiency_ln>  (335) 
-0.578683

>  <r_i_glide_gscore>  (335) 
-2.52728

>  <r_i_glide_lipo>  (335) 
-0.0872502

>  <r_i_glide_hbond>  (335) 
0

>  <r_i_glide_metal>  (335) 
-0

>  <r_i_glide_rewards>  (335) 
-0.705687

>  <r_i_glide_evdw>  (335) 
-18.7042

>  <r_i_glide_ecoul>  (335) 
-7.7535

>  <r_i_glide_erotb>  (335) 
0.373359

>  <r_i_glide_esite>  (335) 
-0.00946797

>  <r_i_glide_emodel>  (335) 
-31.4039

>  <r_i_glide_energy>  (335) 
-26.4577

>  <r_i_glide_einternal>  (335) 
0.70118

>  <r_i_glide_intrahb_reward>  (335) 
-0

>  <i_i_glide_confnum>  (335) 
2

>  <i_i_glide_posenum>  (335) 
13

>  <r_i_glide_eff_state_penalty>  (335) 
0

>  <ligand_id>  (335) 
91

>  <original_smiles>  (335) 
C=CCOC1C=C2CCC3(OC)C4Cc5ccc(O)c6c5C(CCN4C)(C1O6)C23

>  <smiles>  (335) 
[H]Oc1c([H])c([H])c2c3c1OC1([H])C([H])(OC([H])([H])C([H])=C([H])[H])C([H])=C4C([H])([H])C([H])([H])C5(OC([H])([H])[H])C4([H])C31C([H])([H])C([H])([H])[N+]([H])(C([H])([H])[H])C5([H])C2([H])[H]

$$$$
91:1:0
     RDKit          3D

 58 63  0  0  1  0  0  0  0  0999 V2000
    1.0147  -10.2558    2.9976 C   0  0  0  0  0  0  0  0  0  0  0  0
    2.1598   -9.5667    3.1278 C   0  0  0  0  0  0  0  0  0  0  0  0
    2.8029   -8.7378    2.0340 C   0  0  0  0  0  0  0  0  0  0  0  0
    2.8488   -7.3665    2.4183 O   0  0  0  0  0  0  0  0  0  0  0  0
    3.4508   -6.5026    1.4639 C   0  0  2  0  0  0  0  0  0  0  0  0
    4.9852   -6.5550    1.5471 C   0  0  0  0  0  0  0  0  0  0  0  0
    5.7003   -5.4813    1.1474 C   0  0  0  0  0  0  0  0  0  0  0  0
    7.1188   -5.0881    1.4630 C   0  0  0  0  0  0  0  0  0  0  0  0
    7.0647   -3.5424    1.3462 C   0  0  0  0  0  0  0  0  0  0  0  0
    6.1346   -3.3005    0.1408 C   0  0  2  0  0  0  0  0  0  0  0  0
    6.7888   -3.6891   -1.0730 O   0  0  0  0  0  0  0  0  0  0  0  0
    8.1459   -3.3132   -1.3050 C   0  0  0  0  0  0  0  0  0  0  0  0
    5.5142   -1.9242   -0.1721 C   0  0  2  0  0  0  0  0  0  0  0  0
    5.0783   -1.0898    1.0501 C   0  0  0  0  0  0  0  0  0  0  0  0
    3.8694   -1.4598    1.8969 C   0  0  0  0  0  0  0  0  0  0  0  0
    3.2110   -0.5654    2.7689 C   0  0  0  0  0  0  0  0  0  0  0  0
    2.0630   -0.9693    3.4944 C   0  0  0  0  0  0  0  0  0  0  0  0
    1.5695   -2.2822    3.3863 C   0  0  0  0  0  0  0  0  0  0  0  0
    0.4723   -2.6623    4.1030 O   0  0  0  0  0  0  0  0  0  0  0  0
    2.2230   -3.2152    2.5568 C   0  0  0  0  0  0  0  0  0  0  0  0
    3.3398   -2.7675    1.8278 C   0  0  0  0  0  0  0  0  0  0  0  0
    3.6623   -3.9333    0.9057 C   0  0  2  0  0  0  0  0  0  0  0  0
    2.8452   -3.6624   -0.3748 C   0  0  0  0  0  0  0  0  0  0  0  0
    3.1953   -2.3285   -1.0832 C   0  0  0  0  0  0  0  0  0  0  0  0
    4.6021   -1.9879   -1.3499 N   0  0  0  0  0  0  0  0  0  0  0  0
    4.6634   -0.7871   -2.1698 C   0  0  0  0  0  0  0  0  0  0  0  0
    3.1226   -5.0428    1.8556 C   0  0  1  0  0  0  0  0  0  0  0  0
    1.8965   -4.5414    2.3691 O   0  0  0  0  0  0  0  0  0  0  0  0
    5.0666   -4.3464    0.3847 C   0  0  2  0  0  0  0  0  0  0  0  0
    0.4619  -10.2635    2.0700 H   0  0  0  0  0  0  0  0  0  0  0  0
    0.6107  -10.8251    3.8237 H   0  0  0  0  0  0  0  0  0  0  0  0
    2.6793   -9.5880    4.0756 H   0  0  0  0  0  0  0  0  0  0  0  0
    3.8078   -9.1233    1.8543 H   0  0  0  0  0  0  0  0  0  0  0  0
    2.2383   -8.8569    1.1072 H   0  0  0  0  0  0  0  0  0  0  0  0
    3.0922   -6.7118    0.4573 H   0  0  0  0  0  0  0  0  0  0  0  0
    5.4472   -7.3379    2.1304 H   0  0  0  0  0  0  0  0  0  0  0  0
    7.4344   -5.4312    2.4446 H   0  0  0  0  0  0  0  0  0  0  0  0
    7.7797   -5.5084    0.7060 H   0  0  0  0  0  0  0  0  0  0  0  0
    6.5937   -3.1436    2.2446 H   0  0  0  0  0  0  0  0  0  0  0  0
    8.0440   -3.0731    1.2658 H   0  0  0  0  0  0  0  0  0  0  0  0
    8.4187   -3.6066   -2.3170 H   0  0  0  0  0  0  0  0  0  0  0  0
    8.8384   -3.8400   -0.6481 H   0  0  0  0  0  0  0  0  0  0  0  0
    8.3144   -2.2419   -1.2026 H   0  0  0  0  0  0  0  0  0  0  0  0
    6.3780   -1.3576   -0.5039 H   0  0  0  0  0  0  0  0  0  0  0  0
    5.9201   -0.9937    1.7314 H   0  0  0  0  0  0  0  0  0  0  0  0
    4.8999   -0.0733    0.7116 H   0  0  0  0  0  0  0  0  0  0  0  0
    3.5727    0.4451    2.8765 H   0  0  0  0  0  0  0  0  0  0  0  0
    1.5631   -0.2615    4.1334 H   0  0  0  0  0  0  0  0  0  0  0  0
    0.2621   -3.5710    3.9502 H   0  0  0  0  0  0  0  0  0  0  0  0
    2.8875   -4.4938   -1.0754 H   0  0  0  0  0  0  0  0  0  0  0  0
    1.7998   -3.5865   -0.1051 H   0  0  0  0  0  0  0  0  0  0  0  0
    2.6469   -2.3441   -2.0303 H   0  0  0  0  0  0  0  0  0  0  0  0
    2.7762   -1.5036   -0.5171 H   0  0  0  0  0  0  0  0  0  0  0  0
    4.0810   -0.9042   -3.0866 H   0  0  0  0  0  0  0  0  0  0  0  0
    5.6914   -0.5770   -2.4526 H   0  0  0  0  0  0  0  0  0  0  0  0
    4.2781    0.0790   -1.6389 H   0  0  0  0  0  0  0  0  0  0  0  0
    3.7197   -4.9831    2.7781 H   0  0  0  0  0  0  0  0  0  0  0  0
    4.9039   -4.8297   -0.5811 H   0  0  0  0  0  0  0  0  0  0  0  0
  1  2  2  0
  1 30  1  0
  1 31  1  0
  2  3  1  0
  2 32  1  0
  3  4  1  0
  3 33  1  0
  3 34  1  0
  4  5  1  0
  5 27  1  0
  5  6  1  0
  5 35  1  6
  6  7  2  0
  6 36  1  0
  7 29  1  0
  7  8  1  0
  8  9  1  0
  8 37  1  0
  8 38  1  0
  9 10  1  0
  9 39  1  0
  9 40  1  0
 10 29  1  0
 10 11  1  6
 10 13  1  0
 11 12  1  0
 12 41  1  0
 12 42  1  0
 12 43  1  0
 13 25  1  0
 13 14  1  0
 13 44  1  6
 14 15  1  0
 14 45  1  0
 14 46  1  0
 15 21  2  0
 15 16  1  0
 16 17  2  0
 16 47  1  0
 17 18  1  0
 17 48  1  0
 18 19  1  0
 18 20  2  0
 19 49  1  0
 20 28  1  0
 20 21  1  0
 21 22  1  0
 22 23  1  6
 22 27  1  0
 22 29  1  0
 23 24  1  0
 23 50  1  0
 23 51  1  0
 24 25  1  0
 24 52  1  0
 24 53  1  0
 25 26  1  0
 26 54  1  0
 26 55  1  0
 26 56  1  0
 27 28  1  0
 27 57  1  1
 29 58  1  6
M  END
>  <i_m_ct_stereo_status>  (336) 
1

>  <s_m_source_file>  (336) 
/var/tmp/pbs.5076255.sched01/tmpfn0mpy04/132vsilkqhl.sdf

>  <i_m_source_file_index>  (336) 
17

>  <i_lp_mmshare_version>  (336) 
48012

>  <i_f3d_flags>  (336) 
0

>  <s_epik_input>  (336) 
W0NIMl0xW0NIMl1OKFtDSDNdKVtDQEBIXShbQ0gyXTIpW0NAXShbQ0gyXVtDSDJdMykoT1tDSDNdKVtDQEhdNEMzPVtDSF1bQ0BASF0oT1tDSDJdW0NIXT1bQ0gyXSlbQ0BASF01T2M2YyhbT0hdKVtjSF1bY0hdYzJjNltDQEBdMTQ1

>  <s_epik_cmdline>  (336) 
J2VwaWtfcHl0aG9uJywgJy1waHQnLCAnMi4wJywgJy1waCcsICc3LjAnLCAnLXRuJywgJzgnLCAnLW1hJywgJzIwMCcsICctaW1hZScsICc8aW5maWxlLm1hZT4nLCAnLW9tYWUnLCAnPG91dGZpbGUubWFlPic=

>  <r_lp_tautomer_probability>  (336) 
1

>  <r_epik_Ionization_Penalty>  (336) 
1.02977

>  <r_epik_Ionization_Penalty_Charging>  (336) 
0

>  <r_epik_Ionization_Penalty_Neutral>  (336) 
1.02977

>  <r_epik_State_Penalty>  (336) 
1.08458

>  <r_epik_Charging_Adjusted_Penalty>  (336) 
1.08458

>  <i_epik_Tot_Q>  (336) 
0

>  <i_epik_Tot_abs_Q>  (336) 
0

>  <s_lp_Force_Field>  (336) 
OPLS3e

>  <r_lp_Energy>  (336) 
83.0249

>  <b_lp_Chiralities_Consistent>  (336) 
1

>  <s_lp_Variant>  (336) 
91:0-2

>  <s_i_glide_gridfile>  (336) 
pfpi4k_grid

>  <i_i_glide_lignum>  (336) 
17

>  <i_i_glide_rotatable_bonds>  (336) 
5

>  <r_i_docking_score>  (336) 
-2.54221

>  <r_i_glide_ligand_efficiency>  (336) 
-0.0876626

>  <r_i_glide_ligand_efficiency_sa>  (336) 
-0.269327

>  <r_i_glide_ligand_efficiency_ln>  (336) 
-0.582103

>  <r_i_glide_gscore>  (336) 
-2.54221

>  <r_i_glide_lipo>  (336) 
-0.760824

>  <r_i_glide_hbond>  (336) 
0

>  <r_i_glide_metal>  (336) 
-0

>  <r_i_glide_rewards>  (336) 
-0.712559

>  <r_i_glide_evdw>  (336) 
-23.9427

>  <r_i_glide_ecoul>  (336) 
-1.64513

>  <r_i_glide_erotb>  (336) 
0.375072

>  <r_i_glide_esite>  (336) 
0

>  <r_i_glide_emodel>  (336) 
-30.1379

>  <r_i_glide_energy>  (336) 
-25.5878

>  <r_i_glide_einternal>  (336) 
1.58581

>  <r_i_glide_intrahb_reward>  (336) 
-0

>  <i_i_glide_confnum>  (336) 
5

>  <i_i_glide_posenum>  (336) 
39

>  <r_i_glide_eff_state_penalty>  (336) 
0

>  <ligand_id>  (336) 
91

>  <original_smiles>  (336) 
C=CCOC1C=C2CCC3(OC)C4Cc5ccc(O)c6c5C(CCN4C)(C1O6)C23

>  <smiles>  (336) 
[H]Oc1c([H])c([H])c2c3c1OC1([H])C([H])(OC([H])([H])C([H])=C([H])[H])C([H])=C4C([H])([H])C([H])([H])C5(OC([H])([H])[H])C4([H])C31C([H])([H])C([H])([H])N(C([H])([H])[H])C5([H])C2([H])[H]

$$$$
91:1:1
     RDKit          3D

 58 63  0  0  1  0  0  0  0  0999 V2000
   -1.7848   -9.0578    2.4791 C   0  0  0  0  0  0  0  0  0  0  0  0
   -0.4708   -8.8260    2.6238 C   0  0  0  0  0  0  0  0  0  0  0  0
    0.3414   -7.9043    1.7402 C   0  0  0  0  0  0  0  0  0  0  0  0
    0.8115   -6.7905    2.4920 O   0  0  0  0  0  0  0  0  0  0  0  0
    1.7409   -5.9622    1.8063 C   0  0  2  0  0  0  0  0  0  0  0  0
    3.1266   -6.6201    1.7122 C   0  0  0  0  0  0  0  0  0  0  0  0
    4.2147   -5.8328    1.6005 C   0  0  0  0  0  0  0  0  0  0  0  0
    5.6621   -6.1459    1.8645 C   0  0  0  0  0  0  0  0  0  0  0  0
    6.2320   -4.7616    2.2596 C   0  0  0  0  0  0  0  0  0  0  0  0
    5.5037   -3.7863    1.3034 C   0  0  2  0  0  0  0  0  0  0  0  0
    5.9879   -4.0042   -0.0353 O   0  0  0  0  0  0  0  0  0  0  0  0
    7.3711   -3.7949   -0.3198 C   0  0  0  0  0  0  0  0  0  0  0  0
    5.4674   -2.2550    1.5308 C   0  0  2  0  0  0  0  0  0  0  0  0
    5.3617   -1.7890    2.9868 C   0  0  0  0  0  0  0  0  0  0  0  0
    4.0868   -1.9284    3.7947 C   0  0  0  0  0  0  0  0  0  0  0  0
    3.8214   -1.2089    4.9764 C   0  0  0  0  0  0  0  0  0  0  0  0
    2.5880   -1.3609    5.6532 C   0  0  0  0  0  0  0  0  0  0  0  0
    1.6096   -2.2561    5.1749 C   0  0  0  0  0  0  0  0  0  0  0  0
    0.4216   -2.3957    5.8336 O   0  0  0  0  0  0  0  0  0  0  0  0
    1.8608   -3.0305    4.0264 C   0  0  0  0  0  0  0  0  0  0  0  0
    3.0888   -2.8261    3.3669 C   0  0  0  0  0  0  0  0  0  0  0  0
    2.9535   -3.6396    2.0901 C   0  0  2  0  0  0  0  0  0  0  0  0
    2.3353   -2.6500    1.0739 C   0  0  0  0  0  0  0  0  0  0  0  0
    3.1987   -1.3968    0.7899 C   0  0  0  0  0  0  0  0  0  0  0  0
    4.6388   -1.5573    0.5147 N   0  0  0  0  0  0  0  0  0  0  0  0
    5.2078   -0.2850    0.1035 C   0  0  0  0  0  0  0  0  0  0  0  0
    1.9966   -4.7116    2.6817 C   0  0  1  0  0  0  0  0  0  0  0  0
    1.0487   -3.9855    3.4572 O   0  0  0  0  0  0  0  0  0  0  0  0
    4.1010   -4.3586    1.3144 C   0  0  2  0  0  0  0  0  0  0  0  0
   -2.3635   -8.5909    1.6994 H   0  0  0  0  0  0  0  0  0  0  0  0
   -2.2891   -9.7340    3.1550 H   0  0  0  0  0  0  0  0  0  0  0  0
    0.0634   -9.3273    3.4186 H   0  0  0  0  0  0  0  0  0  0  0  0
    1.1674   -8.4881    1.3317 H   0  0  0  0  0  0  0  0  0  0  0  0
   -0.2613   -7.5629    0.8963 H   0  0  0  0  0  0  0  0  0  0  0  0
    1.3644   -5.6874    0.8200 H   0  0  0  0  0  0  0  0  0  0  0  0
    3.2290   -7.6657    1.9620 H   0  0  0  0  0  0  0  0  0  0  0  0
    5.7851   -6.8965    2.6429 H   0  0  0  0  0  0  0  0  0  0  0  0
    6.1305   -6.4984    0.9452 H   0  0  0  0  0  0  0  0  0  0  0  0
    5.9406   -4.5612    3.2925 H   0  0  0  0  0  0  0  0  0  0  0  0
    7.3208   -4.7191    2.2114 H   0  0  0  0  0  0  0  0  0  0  0  0
    7.5087   -3.8435   -1.3983 H   0  0  0  0  0  0  0  0  0  0  0  0
    8.0002   -4.5652    0.1284 H   0  0  0  0  0  0  0  0  0  0  0  0
    7.7470   -2.8166   -0.0285 H   0  0  0  0  0  0  0  0  0  0  0  0
    6.4889   -1.9511    1.3322 H   0  0  0  0  0  0  0  0  0  0  0  0
    6.1348   -2.2917    3.5483 H   0  0  0  0  0  0  0  0  0  0  0  0
    5.6342   -0.7395    3.0177 H   0  0  0  0  0  0  0  0  0  0  0  0
    4.5576   -0.5177    5.3615 H   0  0  0  0  0  0  0  0  0  0  0  0
    2.3942   -0.7769    6.5365 H   0  0  0  0  0  0  0  0  0  0  0  0
   -0.1121   -3.0494    5.4102 H   0  0  0  0  0  0  0  0  0  0  0  0
    2.0876   -3.1413    0.1338 H   0  0  0  0  0  0  0  0  0  0  0  0
    1.3965   -2.2587    1.4703 H   0  0  0  0  0  0  0  0  0  0  0  0
    2.7370   -0.9112   -0.0741 H   0  0  0  0  0  0  0  0  0  0  0  0
    3.0703   -0.6825    1.6021 H   0  0  0  0  0  0  0  0  0  0  0  0
    4.6341    0.1307   -0.7271 H   0  0  0  0  0  0  0  0  0  0  0  0
    6.2369   -0.4065   -0.2350 H   0  0  0  0  0  0  0  0  0  0  0  0
    5.1996    0.4412    0.9146 H   0  0  0  0  0  0  0  0  0  0  0  0
    2.5403   -5.1981    3.5050 H   0  0  0  0  0  0  0  0  0  0  0  0
    3.7848   -4.3872    0.2707 H   0  0  0  0  0  0  0  0  0  0  0  0
  1  2  2  0
  1 30  1  0
  1 31  1  0
  2  3  1  0
  2 32  1  0
  3  4  1  0
  3 33  1  0
  3 34  1  0
  4  5  1  0
  5 27  1  0
  5  6  1  0
  5 35  1  6
  6  7  2  0
  6 36  1  0
  7 29  1  0
  7  8  1  0
  8  9  1  0
  8 37  1  0
  8 38  1  0
  9 10  1  0
  9 39  1  0
  9 40  1  0
 10 29  1  0
 10 11  1  6
 10 13  1  0
 11 12  1  0
 12 41  1  0
 12 42  1  0
 12 43  1  0
 13 25  1  0
 13 14  1  0
 13 44  1  6
 14 15  1  0
 14 45  1  0
 14 46  1  0
 15 21  2  0
 15 16  1  0
 16 17  2  0
 16 47  1  0
 17 18  1  0
 17 48  1  0
 18 19  1  0
 18 20  2  0
 19 49  1  0
 20 28  1  0
 20 21  1  0
 21 22  1  0
 22 23  1  6
 22 27  1  0
 22 29  1  0
 23 24  1  0
 23 50  1  0
 23 51  1  0
 24 25  1  0
 24 52  1  0
 24 53  1  0
 25 26  1  0
 26 54  1  0
 26 55  1  0
 26 56  1  0
 27 28  1  0
 27 57  1  1
 29 58  1  6
M  END
>  <i_m_ct_stereo_status>  (337) 
1

>  <s_m_source_file>  (337) 
/var/tmp/pbs.5076255.sched01/tmpfn0mpy04/132vsilkqhl.sdf

>  <i_m_source_file_index>  (337) 
17

>  <i_lp_mmshare_version>  (337) 
48012

>  <i_f3d_flags>  (337) 
0

>  <s_epik_input>  (337) 
W0NIMl0xW0NIMl1OKFtDSDNdKVtDQEBIXShbQ0gyXTIpW0NAXShbQ0gyXVtDSDJdMykoT1tDSDNdKVtDQEhdNEMzPVtDSF1bQ0BASF0oT1tDSDJdW0NIXT1bQ0gyXSlbQ0BASF01T2M2YyhbT0hdKVtjSF1bY0hdYzJjNltDQEBdMTQ1

>  <s_epik_cmdline>  (337) 
J2VwaWtfcHl0aG9uJywgJy1waHQnLCAnMi4wJywgJy1waCcsICc3LjAnLCAnLXRuJywgJzgnLCAnLW1hJywgJzIwMCcsICctaW1hZScsICc8aW5maWxlLm1hZT4nLCAnLW9tYWUnLCAnPG91dGZpbGUubWFlPic=

>  <r_lp_tautomer_probability>  (337) 
1

>  <r_epik_Ionization_Penalty>  (337) 
1.02977

>  <r_epik_Ionization_Penalty_Charging>  (337) 
0

>  <r_epik_Ionization_Penalty_Neutral>  (337) 
1.02977

>  <r_epik_State_Penalty>  (337) 
1.08458

>  <r_epik_Charging_Adjusted_Penalty>  (337) 
1.08458

>  <i_epik_Tot_Q>  (337) 
0

>  <i_epik_Tot_abs_Q>  (337) 
0

>  <s_lp_Force_Field>  (337) 
OPLS3e

>  <r_lp_Energy>  (337) 
83.0249

>  <b_lp_Chiralities_Consistent>  (337) 
1

>  <s_lp_Variant>  (337) 
91:0-2

>  <s_i_glide_gridfile>  (337) 
pfpi4k_grid

>  <i_i_glide_lignum>  (337) 
17

>  <i_i_glide_rotatable_bonds>  (337) 
5

>  <r_i_docking_score>  (337) 
-2.31258

>  <r_i_glide_ligand_efficiency>  (337) 
-0.0797442

>  <r_i_glide_ligand_efficiency_sa>  (337) 
-0.244999

>  <r_i_glide_ligand_efficiency_ln>  (337) 
-0.529522

>  <r_i_glide_gscore>  (337) 
-2.31258

>  <r_i_glide_lipo>  (337) 
-0.820784

>  <r_i_glide_hbond>  (337) 
0

>  <r_i_glide_metal>  (337) 
-0

>  <r_i_glide_rewards>  (337) 
-0.712559

>  <r_i_glide_evdw>  (337) 
-22.0736

>  <r_i_glide_ecoul>  (337) 
-0.337533

>  <r_i_glide_erotb>  (337) 
0.375072

>  <r_i_glide_esite>  (337) 
0

>  <r_i_glide_emodel>  (337) 
-26.6769

>  <r_i_glide_energy>  (337) 
-22.4111

>  <r_i_glide_einternal>  (337) 
1.16475

>  <r_i_glide_intrahb_reward>  (337) 
-0

>  <i_i_glide_confnum>  (337) 
5

>  <i_i_glide_posenum>  (337) 
23

>  <r_i_glide_eff_state_penalty>  (337) 
0

>  <ligand_id>  (337) 
91

>  <original_smiles>  (337) 
C=CCOC1C=C2CCC3(OC)C4Cc5ccc(O)c6c5C(CCN4C)(C1O6)C23

>  <smiles>  (337) 
[H]Oc1c([H])c([H])c2c3c1OC1([H])C([H])(OC([H])([H])C([H])=C([H])[H])C([H])=C4C([H])([H])C([H])([H])C5(OC([H])([H])[H])C4([H])C31C([H])([H])C([H])([H])N(C([H])([H])[H])C5([H])C2([H])[H]

$$$$
91:1:2
     RDKit          3D

 58 63  0  0  1  0  0  0  0  0999 V2000
    3.2731   -2.7486   -2.9566 C   0  0  0  0  0  0  0  0  0  0  0  0
    4.2430   -3.4502   -2.3587 C   0  0  0  0  0  0  0  0  0  0  0  0
    4.7563   -3.1995   -0.9531 C   0  0  0  0  0  0  0  0  0  0  0  0
    4.7404   -4.3746   -0.1450 O   0  0  0  0  0  0  0  0  0  0  0  0
    3.5695   -4.5364    0.6485 C   0  0  2  0  0  0  0  0  0  0  0  0
    3.6259   -3.5967    1.8622 C   0  0  0  0  0  0  0  0  0  0  0  0
    2.9710   -3.9296    2.9913 C   0  0  0  0  0  0  0  0  0  0  0  0
    3.1671   -3.4386    4.3994 C   0  0  0  0  0  0  0  0  0  0  0  0
    2.6814   -4.6428    5.2418 C   0  0  0  0  0  0  0  0  0  0  0  0
    1.4590   -5.1552    4.4390 C   0  0  2  0  0  0  0  0  0  0  0  0
    0.3972   -4.1844    4.5278 O   0  0  0  0  0  0  0  0  0  0  0  0
   -0.0613   -3.7734    5.8133 C   0  0  0  0  0  0  0  0  0  0  0  0
    0.8194   -6.5425    4.6693 C   0  0  2  0  0  0  0  0  0  0  0  0
    1.8082   -7.6785    5.0116 C   0  0  0  0  0  0  0  0  0  0  0  0
    2.7295   -8.2874    3.9629 C   0  0  0  0  0  0  0  0  0  0  0  0
    3.3607   -9.5434    4.1054 C   0  0  0  0  0  0  0  0  0  0  0  0
    4.1683  -10.0562    3.0690 C   0  0  0  0  0  0  0  0  0  0  0  0
    4.3913   -9.3172    1.8849 C   0  0  0  0  0  0  0  0  0  0  0  0
    5.1483   -9.8459    0.8901 O   0  0  0  0  0  0  0  0  0  0  0  0
    3.8245   -8.0369    1.7301 C   0  0  0  0  0  0  0  0  0  0  0  0
    2.9956   -7.5824    2.7685 C   0  0  0  0  0  0  0  0  0  0  0  0
    2.3827   -6.3098    2.2038 C   0  0  2  0  0  0  0  0  0  0  0  0
    1.0963   -6.7895    1.4856 C   0  0  0  0  0  0  0  0  0  0  0  0
    0.0590   -7.4661    2.4214 C   0  0  0  0  0  0  0  0  0  0  0  0
   -0.2913   -6.8240    3.7078 N   0  0  0  0  0  0  0  0  0  0  0  0
   -1.3876   -7.5471    4.3475 C   0  0  0  0  0  0  0  0  0  0  0  0
    3.5835   -5.9427    1.2880 C   0  0  1  0  0  0  0  0  0  0  0  0
    3.9755   -7.1597    0.6741 O   0  0  0  0  0  0  0  0  0  0  0  0
    1.9661   -5.0460    3.0190 C   0  0  2  0  0  0  0  0  0  0  0  0
    2.7784   -1.9273   -2.4530 H   0  0  0  0  0  0  0  0  0  0  0  0
    2.9502   -2.9865   -3.9604 H   0  0  0  0  0  0  0  0  0  0  0  0
    4.7140   -4.2684   -2.8906 H   0  0  0  0  0  0  0  0  0  0  0  0
    5.7901   -2.8673   -1.0268 H   0  0  0  0  0  0  0  0  0  0  0  0
    4.1977   -2.3793   -0.4986 H   0  0  0  0  0  0  0  0  0  0  0  0
    2.6698   -4.3915    0.0519 H   0  0  0  0  0  0  0  0  0  0  0  0
    4.3854   -2.8288    1.8669 H   0  0  0  0  0  0  0  0  0  0  0  0
    4.2006   -3.1587    4.5972 H   0  0  0  0  0  0  0  0  0  0  0  0
    2.5282   -2.5705    4.5612 H   0  0  0  0  0  0  0  0  0  0  0  0
    3.4737   -5.3927    5.2349 H   0  0  0  0  0  0  0  0  0  0  0  0
    2.4801   -4.3915    6.2853 H   0  0  0  0  0  0  0  0  0  0  0  0
   -0.9567   -3.1684    5.6828 H   0  0  0  0  0  0  0  0  0  0  0  0
    0.6680   -3.1386    6.3145 H   0  0  0  0  0  0  0  0  0  0  0  0
   -0.3206   -4.6012    6.4726 H   0  0  0  0  0  0  0  0  0  0  0  0
    0.3435   -6.4200    5.6385 H   0  0  0  0  0  0  0  0  0  0  0  0
    2.4262   -7.3713    5.8531 H   0  0  0  0  0  0  0  0  0  0  0  0
    1.2283   -8.5022    5.4116 H   0  0  0  0  0  0  0  0  0  0  0  0
    3.2068  -10.1260    5.0051 H   0  0  0  0  0  0  0  0  0  0  0  0
    4.6118  -11.0334    3.1791 H   0  0  0  0  0  0  0  0  0  0  0  0
    4.8515  -10.7567    0.6878 H   0  0  0  0  0  0  0  0  0  0  0  0
    0.6265   -5.9776    0.9421 H   0  0  0  0  0  0  0  0  0  0  0  0
    1.3577   -7.5275    0.7211 H   0  0  0  0  0  0  0  0  0  0  0  0
   -0.8511   -7.5707    1.8245 H   0  0  0  0  0  0  0  0  0  0  0  0
    0.3728   -8.4899    2.6123 H   0  0  0  0  0  0  0  0  0  0  0  0
   -2.2418   -7.6395    3.6759 H   0  0  0  0  0  0  0  0  0  0  0  0
   -1.7396   -7.0111    5.2292 H   0  0  0  0  0  0  0  0  0  0  0  0
   -1.0939   -8.5538    4.6513 H   0  0  0  0  0  0  0  0  0  0  0  0
    4.4527   -5.8107    1.9453 H   0  0  0  0  0  0  0  0  0  0  0  0
    1.1555   -4.5838    2.4638 H   0  0  0  0  0  0  0  0  0  0  0  0
  1  2  2  0
  1 30  1  0
  1 31  1  0
  2  3  1  0
  2 32  1  0
  3  4  1  0
  3 33  1  0
  3 34  1  0
  4  5  1  0
  5 27  1  0
  5  6  1  0
  5 35  1  6
  6  7  2  0
  6 36  1  0
  7 29  1  0
  7  8  1  0
  8  9  1  0
  8 37  1  0
  8 38  1  0
  9 10  1  0
  9 39  1  0
  9 40  1  0
 10 29  1  0
 10 11  1  6
 10 13  1  0
 11 12  1  0
 12 41  1  0
 12 42  1  0
 12 43  1  0
 13 25  1  0
 13 14  1  0
 13 44  1  1
 14 15  1  0
 14 45  1  0
 14 46  1  0
 15 21  2  0
 15 16  1  0
 16 17  2  0
 16 47  1  0
 17 18  1  0
 17 48  1  0
 18 19  1  0
 18 20  2  0
 19 49  1  0
 20 28  1  0
 20 21  1  0
 21 22  1  0
 22 23  1  6
 22 27  1  0
 22 29  1  0
 23 24  1  0
 23 50  1  0
 23 51  1  0
 24 25  1  0
 24 52  1  0
 24 53  1  0
 25 26  1  0
 26 54  1  0
 26 55  1  0
 26 56  1  0
 27 28  1  0
 27 57  1  1
 29 58  1  6
M  END
>  <i_m_ct_stereo_status>  (338) 
1

>  <s_m_source_file>  (338) 
/var/tmp/pbs.5076255.sched01/tmpfn0mpy04/132vsilkqhl.sdf

>  <i_m_source_file_index>  (338) 
17

>  <i_lp_mmshare_version>  (338) 
48012

>  <i_f3d_flags>  (338) 
0

>  <s_epik_input>  (338) 
W0NIMl0xW0NIMl1OKFtDSDNdKVtDQEBIXShbQ0gyXTIpW0NAXShbQ0gyXVtDSDJdMykoT1tDSDNdKVtDQEhdNEMzPVtDSF1bQ0BASF0oT1tDSDJdW0NIXT1bQ0gyXSlbQ0BASF01T2M2YyhbT0hdKVtjSF1bY0hdYzJjNltDQEBdMTQ1

>  <s_epik_cmdline>  (338) 
J2VwaWtfcHl0aG9uJywgJy1waHQnLCAnMi4wJywgJy1waCcsICc3LjAnLCAnLXRuJywgJzgnLCAnLW1hJywgJzIwMCcsICctaW1hZScsICc8aW5maWxlLm1hZT4nLCAnLW9tYWUnLCAnPG91dGZpbGUubWFlPic=

>  <r_lp_tautomer_probability>  (338) 
1

>  <r_epik_Ionization_Penalty>  (338) 
1.02977

>  <r_epik_Ionization_Penalty_Charging>  (338) 
0

>  <r_epik_Ionization_Penalty_Neutral>  (338) 
1.02977

>  <r_epik_State_Penalty>  (338) 
1.08458

>  <r_epik_Charging_Adjusted_Penalty>  (338) 
1.08458

>  <i_epik_Tot_Q>  (338) 
0

>  <i_epik_Tot_abs_Q>  (338) 
0

>  <s_lp_Force_Field>  (338) 
OPLS3e

>  <r_lp_Energy>  (338) 
83.0249

>  <b_lp_Chiralities_Consistent>  (338) 
1

>  <s_lp_Variant>  (338) 
91:0-2

>  <s_i_glide_gridfile>  (338) 
pfpi4k_grid

>  <i_i_glide_lignum>  (338) 
17

>  <i_i_glide_rotatable_bonds>  (338) 
5

>  <r_i_docking_score>  (338) 
-2.28671

>  <r_i_glide_ligand_efficiency>  (338) 
-0.0788519

>  <r_i_glide_ligand_efficiency_sa>  (338) 
-0.242258

>  <r_i_glide_ligand_efficiency_ln>  (338) 
-0.523598

>  <r_i_glide_gscore>  (338) 
-2.28671

>  <r_i_glide_lipo>  (338) 
-0.0772443

>  <r_i_glide_hbond>  (338) 
-0.0127213

>  <r_i_glide_metal>  (338) 
-0

>  <r_i_glide_rewards>  (338) 
-0.712559

>  <r_i_glide_evdw>  (338) 
-22.4188

>  <r_i_glide_ecoul>  (338) 
-4.92209

>  <r_i_glide_erotb>  (338) 
0.375072

>  <r_i_glide_esite>  (338) 
0

>  <r_i_glide_emodel>  (338) 
-29.4309

>  <r_i_glide_energy>  (338) 
-27.3409

>  <r_i_glide_einternal>  (338) 
3.65806

>  <r_i_glide_intrahb_reward>  (338) 
-0

>  <i_i_glide_confnum>  (338) 
5

>  <i_i_glide_posenum>  (338) 
1

>  <r_i_glide_eff_state_penalty>  (338) 
0

>  <ligand_id>  (338) 
91

>  <original_smiles>  (338) 
C=CCOC1C=C2CCC3(OC)C4Cc5ccc(O)c6c5C(CCN4C)(C1O6)C23

>  <smiles>  (338) 
[H]Oc1c([H])c([H])c2c3c1OC1([H])C([H])(OC([H])([H])C([H])=C([H])[H])C([H])=C4C([H])([H])C([H])([H])C5(OC([H])([H])[H])C4([H])C31C([H])([H])C([H])([H])N(C([H])([H])[H])C5([H])C2([H])[H]

$$$$
92:0:0
     RDKit          3D

 68 73  0  0  1  0  0  0  0  0999 V2000
    5.4879   -3.5118   -1.5567 C   0  0  0  0  0  0  0  0  0  0  0  0
    5.5711   -3.3177   -0.2260 C   0  0  0  0  0  0  0  0  0  0  0  0
    5.9895   -2.0285    0.4773 C   0  0  1  0  0  0  0  0  0  0  0  0
    5.9385   -0.8966   -0.3595 O   0  0  0  0  0  0  0  0  0  0  0  0
    5.0586   -1.9506    1.6991 C   0  0  1  0  0  0  0  0  0  0  0  0
    3.7251   -1.2063    1.5915 C   0  0  0  0  0  0  0  0  0  0  0  0
    3.0291   -2.5149    1.2302 C   0  0  1  0  0  0  0  0  0  0  0  0
    2.6178   -2.6570   -0.1167 O   0  0  0  0  0  0  0  0  0  0  0  0
    4.2905   -3.2914    1.7376 C   0  0  2  0  0  0  0  0  0  0  0  0
    3.9195   -4.0051    3.0395 C   0  0  0  0  0  0  0  0  0  0  0  0
    4.3459   -3.6540    4.2674 C   0  0  0  0  0  0  0  0  0  0  0  0
    3.9837   -4.4079    5.5315 C   0  0  0  0  0  0  0  0  0  0  0  0
    3.4578   -5.8421    5.2615 C   0  0  1  0  0  0  0  0  0  0  0  0
    4.6988   -6.7208    4.9333 C   0  0  0  0  0  0  0  0  0  0  0  0
    2.8510   -6.4040    6.5776 C   0  0  0  0  0  0  0  0  0  0  0  0
    2.3516   -7.8478    6.4340 C   0  0  0  0  0  0  0  0  0  0  0  0
    1.4778   -8.0865    5.1894 C   0  0  1  0  0  0  0  0  0  0  0  0
   -0.0199   -7.8233    5.3525 C   0  0  0  0  0  0  0  0  0  0  0  0
   -0.4910   -7.4513    4.0549 O   0  0  0  0  0  0  0  0  0  0  0  0
    0.5483   -7.5209    3.1281 C   0  0  1  0  0  0  0  0  0  0  0  0
    0.4064   -6.5838    2.1041 O   0  0  0  0  0  0  0  0  0  0  0  0
   -0.0302   -7.1403    0.8779 C   0  0  0  0  0  0  0  0  0  0  0  0
    1.8619   -7.3218    3.9168 C   0  0  1  0  0  0  0  0  0  0  0  0
    2.3714   -5.8323    4.1070 C   0  0  1  0  0  0  0  0  0  0  0  0
    1.1975   -4.8699    4.5063 C   0  0  0  0  0  0  0  0  0  0  0  0
    2.9960   -5.2153    2.7848 C   0  0  2  0  0  0  0  0  0  0  0  0
    3.6229   -6.1834    1.7274 C   0  0  0  0  0  0  0  0  0  0  0  0
    4.1969   -5.4708    0.4665 C   0  0  0  0  0  0  0  0  0  0  0  0
    5.0868   -4.2692    0.8591 C   0  0  1  0  0  0  0  0  0  0  0  0
    6.3780   -4.8035    1.5428 C   0  0  0  0  0  0  0  0  0  0  0  0
    5.1040   -4.4419   -1.9557 H   0  0  0  0  0  0  0  0  0  0  0  0
    5.7954   -2.7391   -2.2487 H   0  0  0  0  0  0  0  0  0  0  0  0
    7.0278   -2.1409    0.7955 H   0  0  0  0  0  0  0  0  0  0  0  0
    5.0462   -0.5832   -0.3847 H   0  0  0  0  0  0  0  0  0  0  0  0
    5.5741   -1.7002    2.6231 H   0  0  0  0  0  0  0  0  0  0  0  0
    3.3955   -0.8169    2.5567 H   0  0  0  0  0  0  0  0  0  0  0  0
    3.6742   -0.4299    0.8231 H   0  0  0  0  0  0  0  0  0  0  0  0
    2.1570   -2.6230    1.8749 H   0  0  0  0  0  0  0  0  0  0  0  0
    1.9804   -1.9686   -0.3141 H   0  0  0  0  0  0  0  0  0  0  0  0
    4.9935   -2.8009    4.4019 H   0  0  0  0  0  0  0  0  0  0  0  0
    4.8747   -4.4580    6.1566 H   0  0  0  0  0  0  0  0  0  0  0  0
    3.2559   -3.8130    6.0846 H   0  0  0  0  0  0  0  0  0  0  0  0
    4.4432   -7.7284    4.6054 H   0  0  0  0  0  0  0  0  0  0  0  0
    5.3349   -6.8358    5.8130 H   0  0  0  0  0  0  0  0  0  0  0  0
    5.3202   -6.2746    4.1628 H   0  0  0  0  0  0  0  0  0  0  0  0
    3.5914   -6.3639    7.3791 H   0  0  0  0  0  0  0  0  0  0  0  0
    2.0357   -5.7808    6.9391 H   0  0  0  0  0  0  0  0  0  0  0  0
    3.2108   -8.5160    6.3997 H   0  0  0  0  0  0  0  0  0  0  0  0
    1.8056   -8.1391    7.3301 H   0  0  0  0  0  0  0  0  0  0  0  0
    1.5616   -9.1520    4.9621 H   0  0  0  0  0  0  0  0  0  0  0  0
   -0.5362   -8.7099    5.7324 H   0  0  0  0  0  0  0  0  0  0  0  0
   -0.2171   -7.0084    6.0479 H   0  0  0  0  0  0  0  0  0  0  0  0
    0.5330   -8.5412    2.7347 H   0  0  0  0  0  0  0  0  0  0  0  0
   -0.1502   -6.3458    0.1433 H   0  0  0  0  0  0  0  0  0  0  0  0
   -0.9801   -7.6648    0.9864 H   0  0  0  0  0  0  0  0  0  0  0  0
    0.7165   -7.8371    0.4982 H   0  0  0  0  0  0  0  0  0  0  0  0
    2.6253   -7.9070    3.4099 H   0  0  0  0  0  0  0  0  0  0  0  0
    0.4150   -4.8254    3.7518 H   0  0  0  0  0  0  0  0  0  0  0  0
    1.5393   -3.8420    4.6108 H   0  0  0  0  0  0  0  0  0  0  0  0
    0.7002   -5.1242    5.4368 H   0  0  0  0  0  0  0  0  0  0  0  0
    2.1489   -4.8000    2.2419 H   0  0  0  0  0  0  0  0  0  0  0  0
    4.3983   -6.7897    2.1867 H   0  0  0  0  0  0  0  0  0  0  0  0
    2.8759   -6.8956    1.3864 H   0  0  0  0  0  0  0  0  0  0  0  0
    4.7632   -6.1850   -0.1333 H   0  0  0  0  0  0  0  0  0  0  0  0
    3.3726   -5.1431   -0.1645 H   0  0  0  0  0  0  0  0  0  0  0  0
    6.1895   -5.5437    2.3158 H   0  0  0  0  0  0  0  0  0  0  0  0
    6.9518   -4.0107    2.0197 H   0  0  0  0  0  0  0  0  0  0  0  0
    7.0310   -5.2730    0.8047 H   0  0  0  0  0  0  0  0  0  0  0  0
  1  2  2  0
  1 31  1  0
  1 32  1  0
  2 29  1  0
  2  3  1  0
  3  4  1  0
  3  5  1  0
  3 33  1  1
  4 34  1  0
  5  9  1  0
  5  6  1  0
  5 35  1  1
  6  7  1  0
  6 36  1  0
  6 37  1  0
  7  8  1  0
  7  9  1  0
  7 38  1  1
  8 39  1  0
  9 29  1  0
  9 10  1  1
 10 26  1  0
 10 11  2  0
 11 12  1  0
 11 40  1  0
 12 13  1  0
 12 41  1  0
 12 42  1  0
 13 24  1  0
 13 14  1  6
 13 15  1  0
 14 43  1  0
 14 44  1  0
 14 45  1  0
 15 16  1  0
 15 46  1  0
 15 47  1  0
 16 17  1  0
 16 48  1  0
 16 49  1  0
 17 23  1  0
 17 18  1  0
 17 50  1  6
 18 19  1  0
 18 51  1  0
 18 52  1  0
 19 20  1  0
 20 21  1  0
 20 23  1  0
 20 53  1  6
 21 22  1  0
 22 54  1  0
 22 55  1  0
 22 56  1  0
 23 24  1  0
 23 57  1  6
 24 25  1  1
 24 26  1  0
 25 58  1  0
 25 59  1  0
 25 60  1  0
 26 27  1  0
 26 61  1  6
 27 28  1  0
 27 62  1  0
 27 63  1  0
 28 29  1  0
 28 64  1  0
 28 65  1  0
 29 30  1  1
 30 66  1  0
 30 67  1  0
 30 68  1  0
M  END
>  <i_m_ct_stereo_status>  (339) 
1

>  <s_m_source_file>  (339) 
/var/tmp/pbs.5076255.sched01/tmpfn0mpy04/132vsilkqhl.sdf

>  <i_m_source_file_index>  (339) 
18

>  <i_lp_mmshare_version>  (339) 
48012

>  <i_f3d_flags>  (339) 
0

>  <s_epik_input>  (339) 
W09IXVtDQEBIXTFbQ0gyXVtDQEBIXShbQ0BdMTIzKVtDQEhdKFtPSF0pQyg9W0NIMl0pW0NAXTMoW0NIM10pW0NIMl1bQ0gyXVtDQEBIXTRDMj1bQ0hdW0NIMl1bQ0BdNShbQ0gzXSlbQ0BdNChbQ0gzXSlbQ0BIXTZbQ0BASF0oW0NIMl1bQ0gyXTUpW0NIMl1PW0NASF02T1tDSDNd

>  <s_epik_cmdline>  (339) 
J2VwaWtfcHl0aG9uJywgJy1waHQnLCAnMi4wJywgJy1waCcsICc3LjAnLCAnLXRuJywgJzgnLCAnLW1hJywgJzIwMCcsICctaW1hZScsICc8aW5maWxlLm1hZT4nLCAnLW9tYWUnLCAnPG91dGZpbGUubWFlPic=

>  <r_lp_tautomer_probability>  (339) 
1

>  <r_epik_Ionization_Penalty>  (339) 
7.1958e-07

>  <r_epik_Ionization_Penalty_Charging>  (339) 
0

>  <r_epik_Ionization_Penalty_Neutral>  (339) 
7.1958e-07

>  <r_epik_State_Penalty>  (339) 
-0

>  <r_epik_Charging_Adjusted_Penalty>  (339) 
0

>  <i_epik_Tot_Q>  (339) 
0

>  <i_epik_Tot_abs_Q>  (339) 
0

>  <s_epik_Chemistry_Notes>  (339) 
This compound contains an acetal/aminal-like group ( X-CH(R)-Y where X, Y are N, S, or O) that may be acid/base labile, releasing an aldehyde.

>  <s_lp_Force_Field>  (339) 
OPLS3e

>  <r_lp_Energy>  (339) 
58.3433

>  <b_lp_Chiralities_Consistent>  (339) 
1

>  <s_lp_Variant>  (339) 
92:0-1

>  <s_i_glide_gridfile>  (339) 
pfpi4k_grid

>  <i_i_glide_lignum>  (339) 
18

>  <i_i_glide_rotatable_bonds>  (339) 
3

>  <r_i_docking_score>  (339) 
-3.47001

>  <r_i_glide_ligand_efficiency>  (339) 
-0.115667

>  <r_i_glide_ligand_efficiency_sa>  (339) 
-0.359404

>  <r_i_glide_ligand_efficiency_ln>  (339) 
-0.788423

>  <r_i_glide_gscore>  (339) 
-3.47001

>  <r_i_glide_lipo>  (339) 
-0.519447

>  <r_i_glide_hbond>  (339) 
-0.224781

>  <r_i_glide_metal>  (339) 
-0

>  <r_i_glide_rewards>  (339) 
-0.582426

>  <r_i_glide_evdw>  (339) 
-19.5146

>  <r_i_glide_ecoul>  (339) 
-7.5587

>  <r_i_glide_erotb>  (339) 
0

>  <r_i_glide_esite>  (339) 
-0.033815

>  <r_i_glide_emodel>  (339) 
-32.2186

>  <r_i_glide_energy>  (339) 
-27.0733

>  <r_i_glide_einternal>  (339) 
3.6991

>  <r_i_glide_intrahb_reward>  (339) 
-0

>  <i_i_glide_confnum>  (339) 
1

>  <i_i_glide_posenum>  (339) 
17

>  <r_i_glide_eff_state_penalty>  (339) 
0

>  <ligand_id>  (339) 
92

>  <original_smiles>  (339) 
C=C1C(O)C2CC(O)C23C2=CCC4(C)CCC5COC(OC)C5C4(C)C2CCC13C

>  <smiles>  (339) 
[H]OC1([H])C(=C([H])[H])C2(C([H])([H])[H])C([H])([H])C([H])([H])C3([H])C(=C([H])C([H])([H])C4(C([H])([H])[H])C([H])([H])C([H])([H])C5([H])C([H])([H])OC([H])(OC([H])([H])[H])C5([H])C34C([H])([H])[H])C23C([H])(O[H])C([H])([H])C13[H]

$$$$
92:0:1
     RDKit          3D

 68 73  0  0  1  0  0  0  0  0999 V2000
    5.2856   -3.8968   -2.1075 C   0  0  0  0  0  0  0  0  0  0  0  0
    5.3933   -3.4253   -0.8577 C   0  0  0  0  0  0  0  0  0  0  0  0
    5.6860   -1.9815   -0.4804 C   0  0  1  0  0  0  0  0  0  0  0  0
    5.4782   -1.0739   -1.5496 O   0  0  0  0  0  0  0  0  0  0  0  0
    4.7964   -1.7394    0.7472 C   0  0  1  0  0  0  0  0  0  0  0  0
    3.3893   -1.1850    0.5585 C   0  0  0  0  0  0  0  0  0  0  0  0
    2.8394   -2.6011    0.5162 C   0  0  1  0  0  0  0  0  0  0  0  0
    2.4124   -3.0544   -0.7515 O   0  0  0  0  0  0  0  0  0  0  0  0
    4.1865   -3.1090    1.1161 C   0  0  2  0  0  0  0  0  0  0  0  0
    3.9229   -3.5417    2.5610 C   0  0  0  0  0  0  0  0  0  0  0  0
    4.3447   -2.8833    3.6547 C   0  0  0  0  0  0  0  0  0  0  0  0
    4.1026   -3.3663    5.0728 C   0  0  0  0  0  0  0  0  0  0  0  0
    3.7261   -4.8695    5.1532 C   0  0  1  0  0  0  0  0  0  0  0  0
    5.0427   -5.6720    4.9598 C   0  0  0  0  0  0  0  0  0  0  0  0
    3.2265   -5.1783    6.5922 C   0  0  0  0  0  0  0  0  0  0  0  0
    2.8814   -6.6585    6.7969 C   0  0  0  0  0  0  0  0  0  0  0  0
    1.9981   -7.2506    5.6848 C   0  0  1  0  0  0  0  0  0  0  0  0
    0.4857   -7.1050    5.8708 C   0  0  0  0  0  0  0  0  0  0  0  0
   -0.0677   -7.0746    4.5542 O   0  0  0  0  0  0  0  0  0  0  0  0
    0.9406   -7.2529    3.6036 C   0  0  1  0  0  0  0  0  0  0  0  0
    0.6737   -6.6004    2.4010 O   0  0  0  0  0  0  0  0  0  0  0  0
   -0.2884   -7.2716    1.6040 C   0  0  0  0  0  0  0  0  0  0  0  0
    2.2550   -6.7617    4.2551 C   0  0  1  0  0  0  0  0  0  0  0  0
    2.6095   -5.2241    4.0865 C   0  0  1  0  0  0  0  0  0  0  0  0
    1.3548   -4.3176    4.3295 C   0  0  0  0  0  0  0  0  0  0  0  0
    3.1231   -4.8607    2.6286 C   0  0  2  0  0  0  0  0  0  0  0  0
    3.8128   -5.9749    1.7758 C   0  0  0  0  0  0  0  0  0  0  0  0
    4.2739   -5.5089    0.3603 C   0  0  0  0  0  0  0  0  0  0  0  0
    5.0488   -4.1718    0.4308 C   0  0  1  0  0  0  0  0  0  0  0  0
    6.4049   -4.4086    1.1472 C   0  0  0  0  0  0  0  0  0  0  0  0
    5.0128   -4.9305   -2.2735 H   0  0  0  0  0  0  0  0  0  0  0  0
    5.4796   -3.2726   -2.9714 H   0  0  0  0  0  0  0  0  0  0  0  0
    6.7385   -1.9310   -0.2109 H   0  0  0  0  0  0  0  0  0  0  0  0
    4.5497   -0.9584   -1.6622 H   0  0  0  0  0  0  0  0  0  0  0  0
    5.3101   -1.2369    1.5620 H   0  0  0  0  0  0  0  0  0  0  0  0
    3.0445   -0.6234    1.4279 H   0  0  0  0  0  0  0  0  0  0  0  0
    3.2345   -0.6358   -0.3671 H   0  0  0  0  0  0  0  0  0  0  0  0
    1.9920   -2.6425    1.1947 H   0  0  0  0  0  0  0  0  0  0  0  0
    1.7972   -2.3937   -1.0747 H   0  0  0  0  0  0  0  0  0  0  0  0
    4.9029   -1.9644    3.5704 H   0  0  0  0  0  0  0  0  0  0  0  0
    5.0121   -3.1873    5.6423 H   0  0  0  0  0  0  0  0  0  0  0  0
    3.3351   -2.7364    5.5213 H   0  0  0  0  0  0  0  0  0  0  0  0
    4.8872   -6.7472    4.8742 H   0  0  0  0  0  0  0  0  0  0  0  0
    5.7149   -5.5274    5.8085 H   0  0  0  0  0  0  0  0  0  0  0  0
    5.5912   -5.3510    4.0793 H   0  0  0  0  0  0  0  0  0  0  0  0
    3.9845   -4.8874    7.3242 H   0  0  0  0  0  0  0  0  0  0  0  0
    2.3609   -4.5743    6.8517 H   0  0  0  0  0  0  0  0  0  0  0  0
    3.8065   -7.2294    6.8612 H   0  0  0  0  0  0  0  0  0  0  0  0
    2.3957   -6.7917    7.7618 H   0  0  0  0  0  0  0  0  0  0  0  0
    2.1855   -8.3258    5.6915 H   0  0  0  0  0  0  0  0  0  0  0  0
    0.0854   -7.9304    6.4656 H   0  0  0  0  0  0  0  0  0  0  0  0
    0.2188   -6.1836    6.3850 H   0  0  0  0  0  0  0  0  0  0  0  0
    1.0244   -8.3285    3.4237 H   0  0  0  0  0  0  0  0  0  0  0  0
   -0.4706   -6.6881    0.7029 H   0  0  0  0  0  0  0  0  0  0  0  0
   -1.2373   -7.3959    2.1288 H   0  0  0  0  0  0  0  0  0  0  0  0
    0.0732   -8.2529    1.2950 H   0  0  0  0  0  0  0  0  0  0  0  0
    3.0590   -7.3704    3.8474 H   0  0  0  0  0  0  0  0  0  0  0  0
    0.5482   -4.5225    3.6288 H   0  0  0  0  0  0  0  0  0  0  0  0
    1.5858   -3.2635    4.1835 H   0  0  0  0  0  0  0  0  0  0  0  0
    0.9161   -4.4005    5.3198 H   0  0  0  0  0  0  0  0  0  0  0  0
    2.2190   -4.6617    2.0585 H   0  0  0  0  0  0  0  0  0  0  0  0
    4.6628   -6.3856    2.3146 H   0  0  0  0  0  0  0  0  0  0  0  0
    3.1318   -6.8126    1.6401 H   0  0  0  0  0  0  0  0  0  0  0  0
    4.8927   -6.2796   -0.0995 H   0  0  0  0  0  0  0  0  0  0  0  0
    3.3987   -5.4093   -0.2807 H   0  0  0  0  0  0  0  0  0  0  0  0
    6.3208   -4.9742    2.0705 H   0  0  0  0  0  0  0  0  0  0  0  0
    6.9015   -3.4755    1.4080 H   0  0  0  0  0  0  0  0  0  0  0  0
    7.0791   -4.9633    0.4952 H   0  0  0  0  0  0  0  0  0  0  0  0
  1  2  2  0
  1 31  1  0
  1 32  1  0
  2 29  1  0
  2  3  1  0
  3  4  1  0
  3  5  1  0
  3 33  1  1
  4 34  1  0
  5  9  1  0
  5  6  1  0
  5 35  1  1
  6  7  1  0
  6 36  1  0
  6 37  1  0
  7  8  1  0
  7  9  1  0
  7 38  1  1
  8 39  1  0
  9 29  1  0
  9 10  1  1
 10 26  1  0
 10 11  2  0
 11 12  1  0
 11 40  1  0
 12 13  1  0
 12 41  1  0
 12 42  1  0
 13 24  1  0
 13 14  1  6
 13 15  1  0
 14 43  1  0
 14 44  1  0
 14 45  1  0
 15 16  1  0
 15 46  1  0
 15 47  1  0
 16 17  1  0
 16 48  1  0
 16 49  1  0
 17 23  1  0
 17 18  1  0
 17 50  1  6
 18 19  1  0
 18 51  1  0
 18 52  1  0
 19 20  1  0
 20 21  1  0
 20 23  1  0
 20 53  1  6
 21 22  1  0
 22 54  1  0
 22 55  1  0
 22 56  1  0
 23 24  1  0
 23 57  1  6
 24 25  1  1
 24 26  1  0
 25 58  1  0
 25 59  1  0
 25 60  1  0
 26 27  1  0
 26 61  1  6
 27 28  1  0
 27 62  1  0
 27 63  1  0
 28 29  1  0
 28 64  1  0
 28 65  1  0
 29 30  1  1
 30 66  1  0
 30 67  1  0
 30 68  1  0
M  END
>  <i_m_ct_stereo_status>  (340) 
1

>  <s_m_source_file>  (340) 
/var/tmp/pbs.5076255.sched01/tmpfn0mpy04/132vsilkqhl.sdf

>  <i_m_source_file_index>  (340) 
18

>  <i_lp_mmshare_version>  (340) 
48012

>  <i_f3d_flags>  (340) 
0

>  <s_epik_input>  (340) 
W09IXVtDQEBIXTFbQ0gyXVtDQEBIXShbQ0BdMTIzKVtDQEhdKFtPSF0pQyg9W0NIMl0pW0NAXTMoW0NIM10pW0NIMl1bQ0gyXVtDQEBIXTRDMj1bQ0hdW0NIMl1bQ0BdNShbQ0gzXSlbQ0BdNChbQ0gzXSlbQ0BIXTZbQ0BASF0oW0NIMl1bQ0gyXTUpW0NIMl1PW0NASF02T1tDSDNd

>  <s_epik_cmdline>  (340) 
J2VwaWtfcHl0aG9uJywgJy1waHQnLCAnMi4wJywgJy1waCcsICc3LjAnLCAnLXRuJywgJzgnLCAnLW1hJywgJzIwMCcsICctaW1hZScsICc8aW5maWxlLm1hZT4nLCAnLW9tYWUnLCAnPG91dGZpbGUubWFlPic=

>  <r_lp_tautomer_probability>  (340) 
1

>  <r_epik_Ionization_Penalty>  (340) 
7.1958e-07

>  <r_epik_Ionization_Penalty_Charging>  (340) 
0

>  <r_epik_Ionization_Penalty_Neutral>  (340) 
7.1958e-07

>  <r_epik_State_Penalty>  (340) 
-0

>  <r_epik_Charging_Adjusted_Penalty>  (340) 
0

>  <i_epik_Tot_Q>  (340) 
0

>  <i_epik_Tot_abs_Q>  (340) 
0

>  <s_epik_Chemistry_Notes>  (340) 
This compound contains an acetal/aminal-like group ( X-CH(R)-Y where X, Y are N, S, or O) that may be acid/base labile, releasing an aldehyde.

>  <s_lp_Force_Field>  (340) 
OPLS3e

>  <r_lp_Energy>  (340) 
58.3433

>  <b_lp_Chiralities_Consistent>  (340) 
1

>  <s_lp_Variant>  (340) 
92:0-1

>  <s_i_glide_gridfile>  (340) 
pfpi4k_grid

>  <i_i_glide_lignum>  (340) 
18

>  <i_i_glide_rotatable_bonds>  (340) 
3

>  <r_i_docking_score>  (340) 
-2.9308

>  <r_i_glide_ligand_efficiency>  (340) 
-0.0976934

>  <r_i_glide_ligand_efficiency_sa>  (340) 
-0.303556

>  <r_i_glide_ligand_efficiency_ln>  (340) 
-0.66591

>  <r_i_glide_gscore>  (340) 
-2.9308

>  <r_i_glide_lipo>  (340) 
-0.366039

>  <r_i_glide_hbond>  (340) 
-0.177849

>  <r_i_glide_metal>  (340) 
-0

>  <r_i_glide_rewards>  (340) 
-0.582426

>  <r_i_glide_evdw>  (340) 
-19.4313

>  <r_i_glide_ecoul>  (340) 
-5.41756

>  <r_i_glide_erotb>  (340) 
0

>  <r_i_glide_esite>  (340) 
-0.020287

>  <r_i_glide_emodel>  (340) 
-29.8886

>  <r_i_glide_energy>  (340) 
-24.8489

>  <r_i_glide_einternal>  (340) 
1.71935

>  <r_i_glide_intrahb_reward>  (340) 
-0

>  <i_i_glide_confnum>  (340) 
2

>  <i_i_glide_posenum>  (340) 
9

>  <r_i_glide_eff_state_penalty>  (340) 
0

>  <ligand_id>  (340) 
92

>  <original_smiles>  (340) 
C=C1C(O)C2CC(O)C23C2=CCC4(C)CCC5COC(OC)C5C4(C)C2CCC13C

>  <smiles>  (340) 
[H]OC1([H])C(=C([H])[H])C2(C([H])([H])[H])C([H])([H])C([H])([H])C3([H])C(=C([H])C([H])([H])C4(C([H])([H])[H])C([H])([H])C([H])([H])C5([H])C([H])([H])OC([H])(OC([H])([H])[H])C5([H])C34C([H])([H])[H])C23C([H])(O[H])C([H])([H])C13[H]

$$$$
93:0:0
     RDKit          3D

 77 82  0  0  1  0  0  0  0  0999 V2000
    5.5019   -6.0346    0.5583 C   0  0  0  0  0  0  0  0  0  0  0  0
    5.0104   -4.6718    1.0024 C   0  0  2  0  0  0  0  0  0  0  0  0
    6.0787   -3.7075    1.5068 C   0  0  0  0  0  0  0  0  0  0  0  0
    5.3976   -2.7898    2.3522 O   0  0  0  0  0  0  0  0  0  0  0  0
    4.0782   -3.2106    2.6603 C   0  0  1  0  0  0  0  0  0  0  0  0
    4.0362   -4.6639    2.1609 C   0  0  0  0  0  0  0  0  0  0  0  0
    3.8788   -3.2426    4.0658 O   0  0  0  0  0  0  0  0  0  0  0  0
    3.3938   -2.1199    4.8757 C   0  0  1  0  0  0  0  0  0  0  0  0
    4.4048   -0.9675    5.2460 C   0  0  1  0  0  0  0  0  0  0  0  0
    4.9348   -0.2421    3.9974 C   0  0  0  0  0  0  0  0  0  0  0  0
    3.9527   -0.2634    2.8512 C   0  0  0  0  0  0  0  0  0  0  0  0
    2.8737   -1.0717    2.8700 C   0  0  0  0  0  0  0  0  0  0  0  0
    3.0481   -2.2490    1.9234 C   0  0  1  0  0  0  0  0  0  0  0  0
    3.4090   -1.8632    0.4751 C   0  0  0  0  0  0  0  0  0  0  0  0
    2.1604   -1.4722    4.2002 C   0  0  1  0  0  0  0  0  0  0  0  0
    1.1080   -2.6274    3.9822 C   0  0  0  0  0  0  0  0  0  0  0  0
    1.4669   -0.2692    5.1059 C   0  0  1  0  0  0  0  0  0  0  0  0
    0.1276   -0.7796    5.7645 C   0  0  0  0  0  0  0  0  0  0  0  0
    2.2837   -0.1770    6.4401 C   0  0  0  0  0  0  0  0  0  0  0  0
    3.7762    0.0316    6.2708 C   0  0  2  0  0  0  0  0  0  0  0  0
    4.1051    1.5432    6.1960 C   0  0  0  0  0  0  0  0  0  0  0  0
    3.4224    2.3921    5.0867 C   0  0  0  0  0  0  0  0  0  0  0  0
    1.8707    2.4996    5.0213 C   0  0  1  0  0  0  0  0  0  0  0  0
    1.4673    2.7354    6.3503 O   0  0  0  0  0  0  0  0  0  0  0  0
    1.4670    3.8534    4.2966 C   0  0  1  0  0  0  0  0  0  0  0  0
    2.2147    4.1240    2.9556 C   0  0  0  0  0  0  0  0  0  0  0  0
   -0.0807    4.0580    4.1664 C   0  0  1  0  0  0  0  0  0  0  0  0
   -0.7463    4.5156    5.4752 C   0  0  0  0  0  0  0  0  0  0  0  0
   -0.3899    5.1382    3.2790 O   0  0  0  0  0  0  0  0  0  0  0  0
   -0.7749    2.8194    3.5880 C   0  0  0  0  0  0  0  0  0  0  0  0
   -0.4020    1.5288    4.3382 C   0  0  0  0  0  0  0  0  0  0  0  0
    1.1331    1.2043    4.4416 C   0  0  2  0  0  0  0  0  0  0  0  0
    1.4365    1.2032    3.0764 O   0  0  0  0  0  0  0  0  0  0  0  0
    6.0509   -6.5612    1.3405 H   0  0  0  0  0  0  0  0  0  0  0  0
    6.1571   -5.8911   -0.3061 H   0  0  0  0  0  0  0  0  0  0  0  0
    4.6646   -6.6514    0.2315 H   0  0  0  0  0  0  0  0  0  0  0  0
    4.5422   -4.2484    0.1110 H   0  0  0  0  0  0  0  0  0  0  0  0
    6.8503   -4.2263    2.0785 H   0  0  0  0  0  0  0  0  0  0  0  0
    6.5602   -3.1630    0.6966 H   0  0  0  0  0  0  0  0  0  0  0  0
    3.0181   -4.9614    1.9003 H   0  0  0  0  0  0  0  0  0  0  0  0
    4.3881   -5.3202    2.9680 H   0  0  0  0  0  0  0  0  0  0  0  0
    3.0918   -2.6074    5.8035 H   0  0  0  0  0  0  0  0  0  0  0  0
    5.2663   -1.4259    5.7338 H   0  0  0  0  0  0  0  0  0  0  0  0
    5.3745    0.7384    4.1474 H   0  0  0  0  0  0  0  0  0  0  0  0
    5.7878   -0.8203    3.6617 H   0  0  0  0  0  0  0  0  0  0  0  0
    4.4997   -0.1168    1.9325 H   0  0  0  0  0  0  0  0  0  0  0  0
    2.1035   -2.7611    1.7812 H   0  0  0  0  0  0  0  0  0  0  0  0
    2.7997   -1.0185    0.1560 H   0  0  0  0  0  0  0  0  0  0  0  0
    3.1781   -2.6642   -0.2295 H   0  0  0  0  0  0  0  0  0  0  0  0
    4.4558   -1.5787    0.3360 H   0  0  0  0  0  0  0  0  0  0  0  0
    0.6869   -3.0301    4.8993 H   0  0  0  0  0  0  0  0  0  0  0  0
    1.5135   -3.5404    3.5601 H   0  0  0  0  0  0  0  0  0  0  0  0
    0.2973   -2.3011    3.3320 H   0  0  0  0  0  0  0  0  0  0  0  0
   -0.2818   -0.0590    6.4732 H   0  0  0  0  0  0  0  0  0  0  0  0
    0.2552   -1.6739    6.3760 H   0  0  0  0  0  0  0  0  0  0  0  0
   -0.6546   -1.0194    5.0416 H   0  0  0  0  0  0  0  0  0  0  0  0
    1.8711    0.5241    7.1546 H   0  0  0  0  0  0  0  0  0  0  0  0
    2.1928   -1.1063    7.0060 H   0  0  0  0  0  0  0  0  0  0  0  0
    4.2082   -0.2688    7.2238 H   0  0  0  0  0  0  0  0  0  0  0  0
    3.8625    1.9916    7.1576 H   0  0  0  0  0  0  0  0  0  0  0  0
    5.1838    1.6734    6.1233 H   0  0  0  0  0  0  0  0  0  0  0  0
    3.8116    3.4023    5.2410 H   0  0  0  0  0  0  0  0  0  0  0  0
    3.7830    2.1190    4.0983 H   0  0  0  0  0  0  0  0  0  0  0  0
    1.7982    2.0175    6.8857 H   0  0  0  0  0  0  0  0  0  0  0  0
    1.8234    4.6658    4.9341 H   0  0  0  0  0  0  0  0  0  0  0  0
    1.8553    3.4852    2.1487 H   0  0  0  0  0  0  0  0  0  0  0  0
    3.2930    4.0076    3.0252 H   0  0  0  0  0  0  0  0  0  0  0  0
    2.0566    5.1512    2.6280 H   0  0  0  0  0  0  0  0  0  0  0  0
   -0.7953    3.7381    6.2332 H   0  0  0  0  0  0  0  0  0  0  0  0
   -1.7701    4.8120    5.2690 H   0  0  0  0  0  0  0  0  0  0  0  0
   -0.2257    5.3665    5.9138 H   0  0  0  0  0  0  0  0  0  0  0  0
   -0.1838    4.8985    2.3933 H   0  0  0  0  0  0  0  0  0  0  0  0
   -1.8534    2.9652    3.6027 H   0  0  0  0  0  0  0  0  0  0  0  0
   -0.5247    2.7236    2.5360 H   0  0  0  0  0  0  0  0  0  0  0  0
   -0.8425    1.6157    5.3320 H   0  0  0  0  0  0  0  0  0  0  0  0
   -0.9229    0.7202    3.8230 H   0  0  0  0  0  0  0  0  0  0  0  0
    0.8660    0.5888    2.6267 H   0  0  0  0  0  0  0  0  0  0  0  0
  1  2  1  0
  1 34  1  0
  1 35  1  0
  1 36  1  0
  2  6  1  0
  2  3  1  0
  2 37  1  6
  3  4  1  0
  3 38  1  0
  3 39  1  0
  5  4  1  1
  5 13  1  0
  5  6  1  0
  5  7  1  0
  6 40  1  0
  6 41  1  0
  7  8  1  0
  8 15  1  0
  8  9  1  0
  8 42  1  1
  9 20  1  0
  9 10  1  0
  9 43  1  1
 10 11  1  0
 10 44  1  0
 10 45  1  0
 11 12  2  0
 11 46  1  0
 12 13  1  0
 12 15  1  0
 13 14  1  0
 13 47  1  6
 14 48  1  0
 14 49  1  0
 14 50  1  0
 15 16  1  6
 15 17  1  0
 16 51  1  0
 16 52  1  0
 16 53  1  0
 17 32  1  0
 17 18  1  1
 17 19  1  0
 18 54  1  0
 18 55  1  0
 18 56  1  0
 19 20  1  0
 19 57  1  0
 19 58  1  0
 20 21  1  0
 20 59  1  1
 21 22  1  0
 21 60  1  0
 21 61  1  0
 22 23  1  0
 22 62  1  0
 22 63  1  0
 23 32  1  0
 23 24  1  1
 23 25  1  0
 24 64  1  0
 25 26  1  0
 25 27  1  0
 25 65  1  1
 26 66  1  0
 26 67  1  0
 26 68  1  0
 27 28  1  0
 27 29  1  6
 27 30  1  0
 28 69  1  0
 28 70  1  0
 28 71  1  0
 29 72  1  0
 30 31  1  0
 30 73  1  0
 30 74  1  0
 31 32  1  0
 31 75  1  0
 31 76  1  0
 32 33  1  6
 33 77  1  0
M  END
>  <i_m_ct_stereo_status>  (341) 
1

>  <s_m_source_file>  (341) 
/var/tmp/pbs.5076255.sched01/tmpfn0mpy04/132vsilkqhl.sdf

>  <i_m_source_file_index>  (341) 
19

>  <i_lp_mmshare_version>  (341) 
48012

>  <i_f3d_flags>  (341) 
0

>  <s_epik_input>  (341) 
W0NIM11bQ0BASF0oW0NIMl0xKVtDSDJdT1tDQF0xMk9bQ0BIXTNbQ0BASF00W0NIXTVbQ0gyXVtDQF0oW0NIM10pKFtDQEBdMyhbQ0gzXSlDKD1bQ0hdW0NIMl00KVtDQEhdMltDSDNdKVtDQF02KFtPSF0pW0NAQF0oW09IXSkoW0NIMl1bQ0gyXTUpW0NAQEhdKFtDSDNdKVtDQEBdKFtDSDNdKShbT0hdKVtDSDJdW0NIMl02

>  <s_epik_cmdline>  (341) 
J2VwaWtfcHl0aG9uJywgJy1waHQnLCAnMi4wJywgJy1waCcsICc3LjAnLCAnLXRuJywgJzgnLCAnLW1hJywgJzIwMCcsICctaW1hZScsICc8aW5maWxlLm1hZT4nLCAnLW9tYWUnLCAnPG91dGZpbGUubWFlPic=

>  <r_lp_tautomer_probability>  (341) 
1

>  <r_epik_Ionization_Penalty>  (341) 
4.08228e-06

>  <r_epik_Ionization_Penalty_Charging>  (341) 
0

>  <r_epik_Ionization_Penalty_Neutral>  (341) 
4.08228e-06

>  <r_epik_State_Penalty>  (341) 
-0

>  <r_epik_Charging_Adjusted_Penalty>  (341) 
0

>  <i_epik_Tot_Q>  (341) 
0

>  <i_epik_Tot_abs_Q>  (341) 
0

>  <s_lp_Force_Field>  (341) 
OPLS3e

>  <r_lp_Energy>  (341) 
153.233

>  <b_lp_Chiralities_Consistent>  (341) 
1

>  <s_lp_Variant>  (341) 
93:0-1

>  <s_i_glide_gridfile>  (341) 
pfpi4k_grid

>  <i_i_glide_lignum>  (341) 
19

>  <i_i_glide_rotatable_bonds>  (341) 
3

>  <r_i_docking_score>  (341) 
-3.02691

>  <r_i_glide_ligand_efficiency>  (341) 
-0.0917246

>  <r_i_glide_ligand_efficiency_sa>  (341) 
-0.29421

>  <r_i_glide_ligand_efficiency_ln>  (341) 
-0.67317

>  <r_i_glide_gscore>  (341) 
-3.02691

>  <r_i_glide_lipo>  (341) 
-0.391062

>  <r_i_glide_hbond>  (341) 
-0.16

>  <r_i_glide_metal>  (341) 
-0

>  <r_i_glide_rewards>  (341) 
-0.270586

>  <r_i_glide_evdw>  (341) 
-25.8279

>  <r_i_glide_ecoul>  (341) 
-6.09245

>  <r_i_glide_erotb>  (341) 
0

>  <r_i_glide_esite>  (341) 
0

>  <r_i_glide_emodel>  (341) 
-38.0554

>  <r_i_glide_energy>  (341) 
-31.9204

>  <r_i_glide_einternal>  (341) 
0.168773

>  <r_i_glide_intrahb_reward>  (341) 
-0

>  <i_i_glide_confnum>  (341) 
2

>  <i_i_glide_posenum>  (341) 
19

>  <r_i_glide_eff_state_penalty>  (341) 
0

>  <ligand_id>  (341) 
93

>  <original_smiles>  (341) 
CC1COC2(C1)OC1C3CC=C(C2C)C1(C)C1(C)CC3CCC2(O)C(C)C(C)(O)CCC21O

>  <smiles>  (341) 
[H]OC1(C([H])([H])[H])C([H])([H])C([H])([H])C2(O[H])C(O[H])(C([H])([H])C([H])([H])C3([H])C([H])([H])C2(C([H])([H])[H])C2(C([H])([H])[H])C4=C([H])C([H])([H])C3([H])C2([H])OC2(OC([H])([H])C([H])(C([H])([H])[H])C2([H])[H])C4([H])C([H])([H])[H])C1([H])C([H])([H])[H]

$$$$
93:0:1
     RDKit          3D

 77 82  0  0  1  0  0  0  0  0999 V2000
    5.4759   -6.0531    0.5655 C   0  0  0  0  0  0  0  0  0  0  0  0
    4.9876   -4.6831    0.9959 C   0  0  2  0  0  0  0  0  0  0  0  0
    6.0581   -3.7254    1.5035 C   0  0  0  0  0  0  0  0  0  0  0  0
    5.3729   -2.7942    2.3397 O   0  0  0  0  0  0  0  0  0  0  0  0
    4.0529   -3.2174    2.6543 C   0  0  1  0  0  0  0  0  0  0  0  0
    4.0112   -4.6737    2.1579 C   0  0  0  0  0  0  0  0  0  0  0  0
    3.8569   -3.2483    4.0630 O   0  0  0  0  0  0  0  0  0  0  0  0
    3.3722   -2.1254    4.8716 C   0  0  1  0  0  0  0  0  0  0  0  0
    4.3861   -0.9771    5.2439 C   0  0  1  0  0  0  0  0  0  0  0  0
    4.9199   -0.2507    3.9975 C   0  0  0  0  0  0  0  0  0  0  0  0
    3.9365   -0.2693    2.8515 C   0  0  0  0  0  0  0  0  0  0  0  0
    2.8616   -1.0759    2.8719 C   0  0  0  0  0  0  0  0  0  0  0  0
    3.0256   -2.2516    1.9194 C   0  0  1  0  0  0  0  0  0  0  0  0
    3.3930   -1.8615    0.4737 C   0  0  0  0  0  0  0  0  0  0  0  0
    2.1426   -1.4775    4.1946 C   0  0  1  0  0  0  0  0  0  0  0  0
    1.0881   -2.6256    3.9821 C   0  0  0  0  0  0  0  0  0  0  0  0
    1.4556   -0.2719    5.1009 C   0  0  1  0  0  0  0  0  0  0  0  0
    0.1159   -0.7744    5.7594 C   0  0  0  0  0  0  0  0  0  0  0  0
    2.2688   -0.1775    6.4348 C   0  0  0  0  0  0  0  0  0  0  0  0
    3.7630    0.0237    6.2686 C   0  0  2  0  0  0  0  0  0  0  0  0
    4.0962    1.5314    6.1928 C   0  0  0  0  0  0  0  0  0  0  0  0
    3.4212    2.3847    5.0839 C   0  0  0  0  0  0  0  0  0  0  0  0
    1.8648    2.4940    5.0216 C   0  0  1  0  0  0  0  0  0  0  0  0
    1.4545    2.7151    6.3526 O   0  0  0  0  0  0  0  0  0  0  0  0
    1.4659    3.8477    4.2922 C   0  0  1  0  0  0  0  0  0  0  0  0
    2.2100    4.1171    2.9507 C   0  0  0  0  0  0  0  0  0  0  0  0
   -0.0812    4.0603    4.1627 C   0  0  1  0  0  0  0  0  0  0  0  0
   -0.7470    4.5162    5.4691 C   0  0  0  0  0  0  0  0  0  0  0  0
   -0.3794    5.1446    3.2793 O   0  0  0  0  0  0  0  0  0  0  0  0
   -0.7788    2.8232    3.5801 C   0  0  0  0  0  0  0  0  0  0  0  0
   -0.4118    1.5332    4.3362 C   0  0  0  0  0  0  0  0  0  0  0  0
    1.1218    1.2021    4.4395 C   0  0  2  0  0  0  0  0  0  0  0  0
    1.3973    1.1710    3.0727 O   0  0  0  0  0  0  0  0  0  0  0  0
    6.0240   -6.5871    1.3397 H   0  0  0  0  0  0  0  0  0  0  0  0
    6.1307   -5.9070   -0.2893 H   0  0  0  0  0  0  0  0  0  0  0  0
    4.6415   -6.6692    0.2311 H   0  0  0  0  0  0  0  0  0  0  0  0
    4.5117   -4.2576    0.1067 H   0  0  0  0  0  0  0  0  0  0  0  0
    6.8237   -4.2338    2.0856 H   0  0  0  0  0  0  0  0  0  0  0  0
    6.5453   -3.1871    0.6920 H   0  0  0  0  0  0  0  0  0  0  0  0
    2.9940   -4.9700    1.8996 H   0  0  0  0  0  0  0  0  0  0  0  0
    4.3612   -5.3192    2.9762 H   0  0  0  0  0  0  0  0  0  0  0  0
    3.0710   -2.6119    5.8008 H   0  0  0  0  0  0  0  0  0  0  0  0
    5.2481   -1.4373    5.7323 H   0  0  0  0  0  0  0  0  0  0  0  0
    5.3629    0.7257    4.1500 H   0  0  0  0  0  0  0  0  0  0  0  0
    5.7696   -0.8372    3.6651 H   0  0  0  0  0  0  0  0  0  0  0  0
    4.4871   -0.1285    1.9340 H   0  0  0  0  0  0  0  0  0  0  0  0
    2.0754   -2.7511    1.7807 H   0  0  0  0  0  0  0  0  0  0  0  0
    2.7940   -1.0059    0.1678 H   0  0  0  0  0  0  0  0  0  0  0  0
    3.1565   -2.6740   -0.2259 H   0  0  0  0  0  0  0  0  0  0  0  0
    4.4436   -1.5908    0.3338 H   0  0  0  0  0  0  0  0  0  0  0  0
    0.6650   -3.0277    4.8991 H   0  0  0  0  0  0  0  0  0  0  0  0
    1.4905   -3.5392    3.5615 H   0  0  0  0  0  0  0  0  0  0  0  0
    0.2801   -2.2921    3.3318 H   0  0  0  0  0  0  0  0  0  0  0  0
   -0.2913   -0.0475    6.4710 H   0  0  0  0  0  0  0  0  0  0  0  0
    0.2413   -1.6698    6.3712 H   0  0  0  0  0  0  0  0  0  0  0  0
   -0.6670   -1.0086    5.0316 H   0  0  0  0  0  0  0  0  0  0  0  0
    1.8609    0.5447    7.1371 H   0  0  0  0  0  0  0  0  0  0  0  0
    2.1727   -1.1024    7.0107 H   0  0  0  0  0  0  0  0  0  0  0  0
    4.1907   -0.2808    7.2225 H   0  0  0  0  0  0  0  0  0  0  0  0
    3.8437    1.9749    7.1563 H   0  0  0  0  0  0  0  0  0  0  0  0
    5.1761    1.6579    6.1290 H   0  0  0  0  0  0  0  0  0  0  0  0
    3.8148    3.3907    5.2377 H   0  0  0  0  0  0  0  0  0  0  0  0
    3.7788    2.1103    4.0964 H   0  0  0  0  0  0  0  0  0  0  0  0
    1.9096    3.4875    6.6799 H   0  0  0  0  0  0  0  0  0  0  0  0
    1.8210    4.6695    4.9224 H   0  0  0  0  0  0  0  0  0  0  0  0
    1.8558    3.4876    2.1337 H   0  0  0  0  0  0  0  0  0  0  0  0
    3.2911    3.9969    3.0263 H   0  0  0  0  0  0  0  0  0  0  0  0
    2.0612    5.1487    2.6291 H   0  0  0  0  0  0  0  0  0  0  0  0
   -0.8032    3.7419    6.2283 H   0  0  0  0  0  0  0  0  0  0  0  0
   -1.7700    4.8065    5.2541 H   0  0  0  0  0  0  0  0  0  0  0  0
   -0.2317    5.3682    5.9068 H   0  0  0  0  0  0  0  0  0  0  0  0
   -0.1866    4.9038    2.3901 H   0  0  0  0  0  0  0  0  0  0  0  0
   -1.8577    2.9686    3.5982 H   0  0  0  0  0  0  0  0  0  0  0  0
   -0.5378    2.7260    2.5249 H   0  0  0  0  0  0  0  0  0  0  0  0
   -0.8487    1.6175    5.3265 H   0  0  0  0  0  0  0  0  0  0  0  0
   -0.9223    0.7238    3.8182 H   0  0  0  0  0  0  0  0  0  0  0  0
    1.1565    2.0204    2.7059 H   0  0  0  0  0  0  0  0  0  0  0  0
  1  2  1  0
  1 34  1  0
  1 35  1  0
  1 36  1  0
  2  6  1  0
  2  3  1  0
  2 37  1  6
  3  4  1  0
  3 38  1  0
  3 39  1  0
  5  4  1  1
  5 13  1  0
  5  6  1  0
  5  7  1  0
  6 40  1  0
  6 41  1  0
  7  8  1  0
  8 15  1  0
  8  9  1  0
  8 42  1  1
  9 20  1  0
  9 10  1  0
  9 43  1  1
 10 11  1  0
 10 44  1  0
 10 45  1  0
 11 12  2  0
 11 46  1  0
 12 13  1  0
 12 15  1  0
 13 14  1  0
 13 47  1  6
 14 48  1  0
 14 49  1  0
 14 50  1  0
 15 16  1  6
 15 17  1  0
 16 51  1  0
 16 52  1  0
 16 53  1  0
 17 32  1  0
 17 18  1  1
 17 19  1  0
 18 54  1  0
 18 55  1  0
 18 56  1  0
 19 20  1  0
 19 57  1  0
 19 58  1  0
 20 21  1  0
 20 59  1  1
 21 22  1  0
 21 60  1  0
 21 61  1  0
 22 23  1  0
 22 62  1  0
 22 63  1  0
 23 32  1  0
 23 24  1  1
 23 25  1  0
 24 64  1  0
 25 26  1  0
 25 27  1  0
 25 65  1  1
 26 66  1  0
 26 67  1  0
 26 68  1  0
 27 28  1  0
 27 29  1  6
 27 30  1  0
 28 69  1  0
 28 70  1  0
 28 71  1  0
 29 72  1  0
 30 31  1  0
 30 73  1  0
 30 74  1  0
 31 32  1  0
 31 75  1  0
 31 76  1  0
 32 33  1  6
 33 77  1  0
M  END
>  <i_m_ct_stereo_status>  (342) 
1

>  <s_m_source_file>  (342) 
/var/tmp/pbs.5076255.sched01/tmpfn0mpy04/132vsilkqhl.sdf

>  <i_m_source_file_index>  (342) 
19

>  <i_lp_mmshare_version>  (342) 
48012

>  <i_f3d_flags>  (342) 
0

>  <s_epik_input>  (342) 
W0NIM11bQ0BASF0oW0NIMl0xKVtDSDJdT1tDQF0xMk9bQ0BIXTNbQ0BASF00W0NIXTVbQ0gyXVtDQF0oW0NIM10pKFtDQEBdMyhbQ0gzXSlDKD1bQ0hdW0NIMl00KVtDQEhdMltDSDNdKVtDQF02KFtPSF0pW0NAQF0oW09IXSkoW0NIMl1bQ0gyXTUpW0NAQEhdKFtDSDNdKVtDQEBdKFtDSDNdKShbT0hdKVtDSDJdW0NIMl02

>  <s_epik_cmdline>  (342) 
J2VwaWtfcHl0aG9uJywgJy1waHQnLCAnMi4wJywgJy1waCcsICc3LjAnLCAnLXRuJywgJzgnLCAnLW1hJywgJzIwMCcsICctaW1hZScsICc8aW5maWxlLm1hZT4nLCAnLW9tYWUnLCAnPG91dGZpbGUubWFlPic=

>  <r_lp_tautomer_probability>  (342) 
1

>  <r_epik_Ionization_Penalty>  (342) 
4.08228e-06

>  <r_epik_Ionization_Penalty_Charging>  (342) 
0

>  <r_epik_Ionization_Penalty_Neutral>  (342) 
4.08228e-06

>  <r_epik_State_Penalty>  (342) 
-0

>  <r_epik_Charging_Adjusted_Penalty>  (342) 
0

>  <i_epik_Tot_Q>  (342) 
0

>  <i_epik_Tot_abs_Q>  (342) 
0

>  <s_lp_Force_Field>  (342) 
OPLS3e

>  <r_lp_Energy>  (342) 
153.233

>  <b_lp_Chiralities_Consistent>  (342) 
1

>  <s_lp_Variant>  (342) 
93:0-1

>  <s_i_glide_gridfile>  (342) 
pfpi4k_grid

>  <i_i_glide_lignum>  (342) 
19

>  <i_i_glide_rotatable_bonds>  (342) 
3

>  <r_i_docking_score>  (342) 
-3.01396

>  <r_i_glide_ligand_efficiency>  (342) 
-0.0913322

>  <r_i_glide_ligand_efficiency_sa>  (342) 
-0.292951

>  <r_i_glide_ligand_efficiency_ln>  (342) 
-0.670289

>  <r_i_glide_gscore>  (342) 
-3.01396

>  <r_i_glide_lipo>  (342) 
-0.390012

>  <r_i_glide_hbond>  (342) 
-0.16

>  <r_i_glide_metal>  (342) 
-0

>  <r_i_glide_rewards>  (342) 
-0.270563

>  <r_i_glide_evdw>  (342) 
-25.8605

>  <r_i_glide_ecoul>  (342) 
-6.0024

>  <r_i_glide_erotb>  (342) 
0

>  <r_i_glide_esite>  (342) 
0

>  <r_i_glide_emodel>  (342) 
-37.9612

>  <r_i_glide_energy>  (342) 
-31.8629

>  <r_i_glide_einternal>  (342) 
0.106815

>  <r_i_glide_intrahb_reward>  (342) 
-0

>  <i_i_glide_confnum>  (342) 
1

>  <i_i_glide_posenum>  (342) 
17

>  <r_i_glide_eff_state_penalty>  (342) 
0

>  <ligand_id>  (342) 
93

>  <original_smiles>  (342) 
CC1COC2(C1)OC1C3CC=C(C2C)C1(C)C1(C)CC3CCC2(O)C(C)C(C)(O)CCC21O

>  <smiles>  (342) 
[H]OC1(C([H])([H])[H])C([H])([H])C([H])([H])C2(O[H])C(O[H])(C([H])([H])C([H])([H])C3([H])C([H])([H])C2(C([H])([H])[H])C2(C([H])([H])[H])C4=C([H])C([H])([H])C3([H])C2([H])OC2(OC([H])([H])C([H])(C([H])([H])[H])C2([H])[H])C4([H])C([H])([H])[H])C1([H])C([H])([H])[H]

$$$$
93:0:2
     RDKit          3D

 77 82  0  0  1  0  0  0  0  0999 V2000
    5.4112   -6.0987    0.5827 C   0  0  0  0  0  0  0  0  0  0  0  0
    4.9317   -4.7285    1.0228 C   0  0  2  0  0  0  0  0  0  0  0  0
    6.0127   -3.7574    1.4868 C   0  0  0  0  0  0  0  0  0  0  0  0
    5.3522   -2.8260    2.3343 O   0  0  0  0  0  0  0  0  0  0  0  0
    4.0423   -3.2401    2.6818 C   0  0  1  0  0  0  0  0  0  0  0  0
    3.9857   -4.7018    2.2066 C   0  0  0  0  0  0  0  0  0  0  0  0
    3.8772   -3.2490    4.0929 O   0  0  0  0  0  0  0  0  0  0  0  0
    3.4137   -2.1114    4.8957 C   0  0  1  0  0  0  0  0  0  0  0  0
    4.4344   -0.9545    5.2223 C   0  0  1  0  0  0  0  0  0  0  0  0
    4.9349   -0.2486    3.9503 C   0  0  0  0  0  0  0  0  0  0  0  0
    3.9252   -0.2881    2.8283 C   0  0  0  0  0  0  0  0  0  0  0  0
    2.8493   -1.0961    2.8879 C   0  0  0  0  0  0  0  0  0  0  0  0
    2.9980   -2.2890    1.9550 C   0  0  1  0  0  0  0  0  0  0  0  0
    3.3306   -1.9274    0.4933 C   0  0  0  0  0  0  0  0  0  0  0  0
    2.1656   -1.4747    4.2404 C   0  0  1  0  0  0  0  0  0  0  0  0
    1.1052   -2.6290    4.0678 C   0  0  0  0  0  0  0  0  0  0  0  0
    1.4962   -0.2561    5.1447 C   0  0  1  0  0  0  0  0  0  0  0  0
    0.1717   -0.7508    5.8442 C   0  0  0  0  0  0  0  0  0  0  0  0
    2.3447   -0.1414    6.4567 C   0  0  0  0  0  0  0  0  0  0  0  0
    3.8328    0.0619    6.2468 C   0  0  2  0  0  0  0  0  0  0  0  0
    4.1612    1.5714    6.1399 C   0  0  0  0  0  0  0  0  0  0  0  0
    3.4530    2.4035    5.0341 C   0  0  0  0  0  0  0  0  0  0  0  0
    1.9003    2.5084    5.0022 C   0  0  1  0  0  0  0  0  0  0  0  0
    1.5294    2.7698    6.3358 O   0  0  0  0  0  0  0  0  0  0  0  0
    1.4809    3.8513    4.2665 C   0  0  1  0  0  0  0  0  0  0  0  0
    2.1931    4.0990    2.9034 C   0  0  0  0  0  0  0  0  0  0  0  0
   -0.0689    4.0575    4.1740 C   0  0  1  0  0  0  0  0  0  0  0  0
   -0.7005    4.5310    5.4928 C   0  0  0  0  0  0  0  0  0  0  0  0
   -0.3929    5.1255    3.2776 O   0  0  0  0  0  0  0  0  0  0  0  0
   -0.7794    2.8126    3.6298 C   0  0  0  0  0  0  0  0  0  0  0  0
   -0.3892    1.5332    4.3921 C   0  0  0  0  0  0  0  0  0  0  0  0
    1.1457    1.2061    4.4644 C   0  0  2  0  0  0  0  0  0  0  0  0
    1.3848    1.1550    3.0892 O   0  0  0  0  0  0  0  0  0  0  0  0
    5.9840   -6.6142    1.3555 H   0  0  0  0  0  0  0  0  0  0  0  0
    6.0316   -5.9695   -0.2990 H   0  0  0  0  0  0  0  0  0  0  0  0
    4.5637   -6.7206    0.2948 H   0  0  0  0  0  0  0  0  0  0  0  0
    4.4409   -4.3188    0.1380 H   0  0  0  0  0  0  0  0  0  0  0  0
    6.7983   -4.2646    2.0489 H   0  0  0  0  0  0  0  0  0  0  0  0
    6.4740   -3.2272    0.6566 H   0  0  0  0  0  0  0  0  0  0  0  0
    2.9610   -5.0000    1.9755 H   0  0  0  0  0  0  0  0  0  0  0  0
    4.3560   -5.3440    3.0156 H   0  0  0  0  0  0  0  0  0  0  0  0
    3.1329   -2.5831    5.8377 H   0  0  0  0  0  0  0  0  0  0  0  0
    5.3066   -1.4068    5.6953 H   0  0  0  0  0  0  0  0  0  0  0  0
    5.3794    0.7327    4.0747 H   0  0  0  0  0  0  0  0  0  0  0  0
    5.7785   -0.8346    3.6023 H   0  0  0  0  0  0  0  0  0  0  0  0
    4.4492   -0.1567    1.8939 H   0  0  0  0  0  0  0  0  0  0  0  0
    2.0475   -2.7971    1.8439 H   0  0  0  0  0  0  0  0  0  0  0  0
    2.7108   -1.0869    0.1827 H   0  0  0  0  0  0  0  0  0  0  0  0
    3.0772   -2.7366   -0.1939 H   0  0  0  0  0  0  0  0  0  0  0  0
    4.3730   -1.6437    0.3221 H   0  0  0  0  0  0  0  0  0  0  0  0
    0.7060   -3.0163    5.0013 H   0  0  0  0  0  0  0  0  0  0  0  0
    1.4987   -3.5490    3.6494 H   0  0  0  0  0  0  0  0  0  0  0  0
    0.2794   -2.3098    3.4328 H   0  0  0  0  0  0  0  0  0  0  0  0
   -0.2198   -0.0176    6.5514 H   0  0  0  0  0  0  0  0  0  0  0  0
    0.3138   -1.6357    6.4653 H   0  0  0  0  0  0  0  0  0  0  0  0
   -0.6269   -0.9998    5.1424 H   0  0  0  0  0  0  0  0  0  0  0  0
    1.9511    0.5720    7.1710 H   0  0  0  0  0  0  0  0  0  0  0  0
    2.2659   -1.0622    7.0375 H   0  0  0  0  0  0  0  0  0  0  0  0
    4.2879   -0.2249    7.1932 H   0  0  0  0  0  0  0  0  0  0  0  0
    3.9419    2.0352    7.0997 H   0  0  0  0  0  0  0  0  0  0  0  0
    5.2379    1.6987    6.0381 H   0  0  0  0  0  0  0  0  0  0  0  0
    3.8474    3.4156    5.1634 H   0  0  0  0  0  0  0  0  0  0  0  0
    3.7890    2.1131    4.0429 H   0  0  0  0  0  0  0  0  0  0  0  0
    1.8386    2.0436    6.8728 H   0  0  0  0  0  0  0  0  0  0  0  0
    1.8526    4.6746    4.8820 H   0  0  0  0  0  0  0  0  0  0  0  0
    1.8183    3.4557    2.1073 H   0  0  0  0  0  0  0  0  0  0  0  0
    3.2749    3.9856    2.9514 H   0  0  0  0  0  0  0  0  0  0  0  0
    2.0329    5.1244    2.5697 H   0  0  0  0  0  0  0  0  0  0  0  0
   -0.7343    3.7685    6.2642 H   0  0  0  0  0  0  0  0  0  0  0  0
   -1.7273    4.8292    5.3037 H   0  0  0  0  0  0  0  0  0  0  0  0
   -0.1692    5.3904    5.9045 H   0  0  0  0  0  0  0  0  0  0  0  0
   -0.1594    4.8978    2.3962 H   0  0  0  0  0  0  0  0  0  0  0  0
   -1.8562    2.9610    3.6766 H   0  0  0  0  0  0  0  0  0  0  0  0
   -0.5679    2.7018    2.5703 H   0  0  0  0  0  0  0  0  0  0  0  0
   -0.8068    1.6357    5.3940 H   0  0  0  0  0  0  0  0  0  0  0  0
   -0.9183    0.7164    3.9004 H   0  0  0  0  0  0  0  0  0  0  0  0
    1.1189    1.9845    2.7084 H   0  0  0  0  0  0  0  0  0  0  0  0
  1  2  1  0
  1 34  1  0
  1 35  1  0
  1 36  1  0
  2  6  1  0
  2  3  1  0
  2 37  1  6
  3  4  1  0
  3 38  1  0
  3 39  1  0
  5  4  1  1
  5 13  1  0
  5  6  1  0
  5  7  1  0
  6 40  1  0
  6 41  1  0
  7  8  1  0
  8 15  1  0
  8  9  1  0
  8 42  1  1
  9 20  1  0
  9 10  1  0
  9 43  1  1
 10 11  1  0
 10 44  1  0
 10 45  1  0
 11 12  2  0
 11 46  1  0
 12 13  1  0
 12 15  1  0
 13 14  1  0
 13 47  1  6
 14 48  1  0
 14 49  1  0
 14 50  1  0
 15 16  1  6
 15 17  1  0
 16 51  1  0
 16 52  1  0
 16 53  1  0
 17 32  1  0
 17 18  1  1
 17 19  1  0
 18 54  1  0
 18 55  1  0
 18 56  1  0
 19 20  1  0
 19 57  1  0
 19 58  1  0
 20 21  1  0
 20 59  1  1
 21 22  1  0
 21 60  1  0
 21 61  1  0
 22 23  1  0
 22 62  1  0
 22 63  1  0
 23 32  1  0
 23 24  1  1
 23 25  1  0
 24 64  1  0
 25 26  1  0
 25 27  1  0
 25 65  1  1
 26 66  1  0
 26 67  1  0
 26 68  1  0
 27 28  1  0
 27 29  1  6
 27 30  1  0
 28 69  1  0
 28 70  1  0
 28 71  1  0
 29 72  1  0
 30 31  1  0
 30 73  1  0
 30 74  1  0
 31 32  1  0
 31 75  1  0
 31 76  1  0
 32 33  1  6
 33 77  1  0
M  END
>  <i_m_ct_stereo_status>  (343) 
1

>  <s_m_source_file>  (343) 
/var/tmp/pbs.5076255.sched01/tmpfn0mpy04/132vsilkqhl.sdf

>  <i_m_source_file_index>  (343) 
19

>  <i_lp_mmshare_version>  (343) 
48012

>  <i_f3d_flags>  (343) 
0

>  <s_epik_input>  (343) 
W0NIM11bQ0BASF0oW0NIMl0xKVtDSDJdT1tDQF0xMk9bQ0BIXTNbQ0BASF00W0NIXTVbQ0gyXVtDQF0oW0NIM10pKFtDQEBdMyhbQ0gzXSlDKD1bQ0hdW0NIMl00KVtDQEhdMltDSDNdKVtDQF02KFtPSF0pW0NAQF0oW09IXSkoW0NIMl1bQ0gyXTUpW0NAQEhdKFtDSDNdKVtDQEBdKFtDSDNdKShbT0hdKVtDSDJdW0NIMl02

>  <s_epik_cmdline>  (343) 
J2VwaWtfcHl0aG9uJywgJy1waHQnLCAnMi4wJywgJy1waCcsICc3LjAnLCAnLXRuJywgJzgnLCAnLW1hJywgJzIwMCcsICctaW1hZScsICc8aW5maWxlLm1hZT4nLCAnLW9tYWUnLCAnPG91dGZpbGUubWFlPic=

>  <r_lp_tautomer_probability>  (343) 
1

>  <r_epik_Ionization_Penalty>  (343) 
4.08228e-06

>  <r_epik_Ionization_Penalty_Charging>  (343) 
0

>  <r_epik_Ionization_Penalty_Neutral>  (343) 
4.08228e-06

>  <r_epik_State_Penalty>  (343) 
-0

>  <r_epik_Charging_Adjusted_Penalty>  (343) 
0

>  <i_epik_Tot_Q>  (343) 
0

>  <i_epik_Tot_abs_Q>  (343) 
0

>  <s_lp_Force_Field>  (343) 
OPLS3e

>  <r_lp_Energy>  (343) 
153.233

>  <b_lp_Chiralities_Consistent>  (343) 
1

>  <s_lp_Variant>  (343) 
93:0-1

>  <s_i_glide_gridfile>  (343) 
pfpi4k_grid

>  <i_i_glide_lignum>  (343) 
19

>  <i_i_glide_rotatable_bonds>  (343) 
3

>  <r_i_docking_score>  (343) 
-2.99687

>  <r_i_glide_ligand_efficiency>  (343) 
-0.0908143

>  <r_i_glide_ligand_efficiency_sa>  (343) 
-0.29129

>  <r_i_glide_ligand_efficiency_ln>  (343) 
-0.666489

>  <r_i_glide_gscore>  (343) 
-2.99687

>  <r_i_glide_lipo>  (343) 
-0.393357

>  <r_i_glide_hbond>  (343) 
-0.16

>  <r_i_glide_metal>  (343) 
-0

>  <r_i_glide_rewards>  (343) 
-0.27051

>  <r_i_glide_evdw>  (343) 
-25.5472

>  <r_i_glide_ecoul>  (343) 
-5.97099

>  <r_i_glide_erotb>  (343) 
0

>  <r_i_glide_esite>  (343) 
0

>  <r_i_glide_emodel>  (343) 
-37.615

>  <r_i_glide_energy>  (343) 
-31.5182

>  <r_i_glide_einternal>  (343) 
0.0855152

>  <r_i_glide_intrahb_reward>  (343) 
-0

>  <i_i_glide_confnum>  (343) 
2

>  <i_i_glide_posenum>  (343) 
27

>  <r_i_glide_eff_state_penalty>  (343) 
0

>  <ligand_id>  (343) 
93

>  <original_smiles>  (343) 
CC1COC2(C1)OC1C3CC=C(C2C)C1(C)C1(C)CC3CCC2(O)C(C)C(C)(O)CCC21O

>  <smiles>  (343) 
[H]OC1(C([H])([H])[H])C([H])([H])C([H])([H])C2(O[H])C(O[H])(C([H])([H])C([H])([H])C3([H])C([H])([H])C2(C([H])([H])[H])C2(C([H])([H])[H])C4=C([H])C([H])([H])C3([H])C2([H])OC2(OC([H])([H])C([H])(C([H])([H])[H])C2([H])[H])C4([H])C([H])([H])[H])C1([H])C([H])([H])[H]

$$$$
94:0:0
     RDKit          3D

 33 36  0  0  1  0  0  0  0  0999 V2000
   -0.2222   -7.1072    1.3901 C   0  0  0  0  0  0  0  0  0  0  0  0
    1.2707   -7.1337    1.4643 C   0  0  0  0  0  0  0  0  0  0  0  0
    1.9060   -8.1514    2.0692 N   0  0  0  0  0  0  0  0  0  0  0  0
    3.2591   -7.8976    1.9483 N   0  0  0  0  0  0  0  0  0  0  0  0
    4.2325   -8.8279    2.4759 C   0  0  0  0  0  0  0  0  0  0  0  0
    3.4105   -6.7058    1.2666 C   0  0  0  0  0  0  0  0  0  0  0  0
    2.2314   -6.2223    0.9644 C   0  0  0  0  0  0  0  0  0  0  0  0
    2.2608   -5.0461    0.2522 N   0  0  0  0  0  0  0  0  0  0  0  0
    3.6108   -4.8529    0.1769 C   0  0  0  0  0  0  0  0  0  0  0  0
    4.1956   -3.6568   -0.4395 C   0  0  0  0  0  0  0  0  0  0  0  0
    5.3511   -2.9293   -0.0274 C   0  0  0  0  0  0  0  0  0  0  0  0
    5.6366   -1.8749   -0.8112 N   0  0  0  0  0  0  0  0  0  0  0  0
    4.6781   -1.8215   -1.7776 N   0  0  0  0  0  0  0  0  0  0  0  0
    4.6101   -0.9062   -2.7394 N   0  0  0  0  0  0  0  0  0  0  0  0
    3.5731   -1.0837   -3.5989 C   0  0  0  0  0  0  0  0  0  0  0  0
    2.6267   -2.1364   -3.5083 C   0  0  0  0  0  0  0  0  0  0  0  0
    2.7199   -3.0699   -2.4478 C   0  0  0  0  0  0  0  0  0  0  0  0
    3.8158   -2.8827   -1.5682 C   0  0  0  0  0  0  0  0  0  0  0  0
    4.3719   -5.8489    0.7760 N   0  0  0  0  0  0  0  0  0  0  0  0
    5.8174   -5.9934    0.8920 C   0  0  0  0  0  0  0  0  0  0  0  0
   -0.5803   -6.2488    0.8281 H   0  0  0  0  0  0  0  0  0  0  0  0
   -0.6521   -7.0843    2.3899 H   0  0  0  0  0  0  0  0  0  0  0  0
   -0.6021   -7.9875    0.8805 H   0  0  0  0  0  0  0  0  0  0  0  0
    5.1061   -8.2915    2.8461 H   0  0  0  0  0  0  0  0  0  0  0  0
    4.5357   -9.5283    1.6962 H   0  0  0  0  0  0  0  0  0  0  0  0
    3.7922   -9.3899    3.2995 H   0  0  0  0  0  0  0  0  0  0  0  0
    5.9888   -3.1229    0.8239 H   0  0  0  0  0  0  0  0  0  0  0  0
    3.4907   -0.3497   -4.3903 H   0  0  0  0  0  0  0  0  0  0  0  0
    1.8269   -2.2070   -4.2302 H   0  0  0  0  0  0  0  0  0  0  0  0
    2.0153   -3.8834   -2.3246 H   0  0  0  0  0  0  0  0  0  0  0  0
    6.3129   -5.6286   -0.0035 H   0  0  0  0  0  0  0  0  0  0  0  0
    6.0849   -7.0403    1.0193 H   0  0  0  0  0  0  0  0  0  0  0  0
    6.1932   -5.4406    1.7521 H   0  0  0  0  0  0  0  0  0  0  0  0
  1  2  1  0
  1 21  1  0
  1 22  1  0
  1 23  1  0
  2  7  1  0
  2  3  2  0
  3  4  1  0
  4  5  1  0
  4  6  1  0
  5 24  1  0
  5 25  1  0
  5 26  1  0
  6 19  1  0
  6  7  2  0
  7  8  1  0
  8  9  2  0
  9 10  1  0
  9 19  1  0
 10 18  2  0
 10 11  1  0
 11 12  2  0
 11 27  1  0
 12 13  1  0
 13 18  1  0
 13 14  1  0
 14 15  2  0
 15 16  1  0
 15 28  1  0
 16 17  2  0
 16 29  1  0
 17 18  1  0
 17 30  1  0
 19 20  1  0
 20 31  1  0
 20 32  1  0
 20 33  1  0
M  END
>  <i_m_ct_stereo_status>  (344) 
1

>  <s_m_source_file>  (344) 
/var/tmp/pbs.5076255.sched01/tmpfn0mpy04/132vsilkqhl.sdf

>  <i_m_source_file_index>  (344) 
20

>  <i_lp_mmshare_version>  (344) 
48012

>  <i_f3d_flags>  (344) 
0

>  <s_epik_input>  (344) 
W0NIM11uMW5jKFtDSDNdKWMoYzEyKW5jKG4yW0NIM10pLWMoW2NIXW4zKWMobjM0KVtjSF1bY0hdW2NIXW40

>  <s_epik_cmdline>  (344) 
J2VwaWtfcHl0aG9uJywgJy1waHQnLCAnMi4wJywgJy1waCcsICc3LjAnLCAnLXRuJywgJzgnLCAnLW1hJywgJzIwMCcsICctaW1hZScsICc8aW5maWxlLm1hZT4nLCAnLW9tYWUnLCAnPG91dGZpbGUubWFlPic=

>  <r_lp_tautomer_probability>  (344) 
1

>  <r_epik_Ionization_Penalty>  (344) 
0.000166721

>  <r_epik_Ionization_Penalty_Charging>  (344) 
0.000163984

>  <r_epik_Ionization_Penalty_Neutral>  (344) 
2.737e-06

>  <r_epik_State_Penalty>  (344) 
-0

>  <r_epik_Charging_Adjusted_Penalty>  (344) 
0.000163984

>  <i_epik_Tot_Q>  (344) 
0

>  <i_epik_Tot_abs_Q>  (344) 
0

>  <s_lp_Force_Field>  (344) 
OPLS3e

>  <r_lp_Energy>  (344) 
19.0629

>  <b_lp_Chiralities_Consistent>  (344) 
1

>  <s_lp_Variant>  (344) 
94:0-1

>  <s_i_glide_gridfile>  (344) 
pfpi4k_grid

>  <i_i_glide_lignum>  (344) 
20

>  <i_i_glide_rotatable_bonds>  (344) 
1

>  <r_i_docking_score>  (344) 
-3.71276

>  <r_i_glide_ligand_efficiency>  (344) 
-0.185638

>  <r_i_glide_ligand_efficiency_sa>  (344) 
-0.5039

>  <r_i_glide_ligand_efficiency_ln>  (344) 
-0.929182

>  <r_i_glide_gscore>  (344) 
-3.71276

>  <r_i_glide_lipo>  (344) 
-0.557617

>  <r_i_glide_hbond>  (344) 
-0.00630777

>  <r_i_glide_metal>  (344) 
-0

>  <r_i_glide_rewards>  (344) 
-1.78199

>  <r_i_glide_evdw>  (344) 
-28.8647

>  <r_i_glide_ecoul>  (344) 
-0.834169

>  <r_i_glide_erotb>  (344) 
0.249561

>  <r_i_glide_esite>  (344) 
-0.0480487

>  <r_i_glide_emodel>  (344) 
-36.4822

>  <r_i_glide_energy>  (344) 
-29.6989

>  <r_i_glide_einternal>  (344) 
0.664583

>  <r_i_glide_intrahb_reward>  (344) 
-0

>  <i_i_glide_confnum>  (344) 
3

>  <i_i_glide_posenum>  (344) 
11

>  <r_i_glide_eff_state_penalty>  (344) 
0

>  <ligand_id>  (344) 
94

>  <original_smiles>  (344) 
Cc1nn(C)c2c1nc(-c1cnn3ncccc13)n2C

>  <smiles>  (344) 
[H]c1nn2nc([H])c(-c3nc4c(C([H])([H])[H])nn(C([H])([H])[H])c4n3C([H])([H])[H])c2c([H])c1[H]

$$$$
94:0:1
     RDKit          3D

 33 36  0  0  1  0  0  0  0  0999 V2000
    4.0383   -1.0644   -2.2053 C   0  0  0  0  0  0  0  0  0  0  0  0
    4.8725   -2.0585   -1.4567 C   0  0  0  0  0  0  0  0  0  0  0  0
    6.2140   -1.9746   -1.5150 N   0  0  0  0  0  0  0  0  0  0  0  0
    6.7067   -3.0192   -0.7555 N   0  0  0  0  0  0  0  0  0  0  0  0
    8.1272   -3.2336   -0.6021 C   0  0  0  0  0  0  0  0  0  0  0  0
    5.6375   -3.7128   -0.2319 C   0  0  0  0  0  0  0  0  0  0  0  0
    4.5202   -3.1643   -0.6322 C   0  0  0  0  0  0  0  0  0  0  0  0
    3.3901   -3.7928   -0.1611 N   0  0  0  0  0  0  0  0  0  0  0  0
    3.9581   -4.7970    0.5755 C   0  0  0  0  0  0  0  0  0  0  0  0
    3.1067   -5.7387    1.3036 C   0  0  0  0  0  0  0  0  0  0  0  0
    1.9110   -5.4373    2.0145 C   0  0  0  0  0  0  0  0  0  0  0  0
    1.3337   -6.5065    2.5780 N   0  0  0  0  0  0  0  0  0  0  0  0
    2.1389   -7.5834    2.3167 N   0  0  0  0  0  0  0  0  0  0  0  0
    1.9079   -8.8306    2.7319 N   0  0  0  0  0  0  0  0  0  0  0  0
    2.8591   -9.7262    2.3504 C   0  0  0  0  0  0  0  0  0  0  0  0
    3.9877   -9.3899    1.5560 C   0  0  0  0  0  0  0  0  0  0  0  0
    4.1671   -8.0690    1.0960 C   0  0  0  0  0  0  0  0  0  0  0  0
    3.1968   -7.1335    1.5461 C   0  0  0  0  0  0  0  0  0  0  0  0
    5.3422   -4.7783    0.5906 N   0  0  0  0  0  0  0  0  0  0  0  0
    6.2853   -5.6151    1.3055 C   0  0  0  0  0  0  0  0  0  0  0  0
    2.9732   -1.2176   -2.0291 H   0  0  0  0  0  0  0  0  0  0  0  0
    4.2187   -1.1324   -3.2784 H   0  0  0  0  0  0  0  0  0  0  0  0
    4.2882   -0.0495   -1.8994 H   0  0  0  0  0  0  0  0  0  0  0  0
    8.3372   -4.2990   -0.5008 H   0  0  0  0  0  0  0  0  0  0  0  0
    8.4837   -2.7188    0.2905 H   0  0  0  0  0  0  0  0  0  0  0  0
    8.6574   -2.8579   -1.4760 H   0  0  0  0  0  0  0  0  0  0  0  0
    1.4505   -4.4680    2.1208 H   0  0  0  0  0  0  0  0  0  0  0  0
    2.7160  -10.7569    2.6557 H   0  0  0  0  0  0  0  0  0  0  0  0
    4.6944  -10.1567    1.2791 H   0  0  0  0  0  0  0  0  0  0  0  0
    4.9616   -7.7980    0.4265 H   0  0  0  0  0  0  0  0  0  0  0  0
    5.8477   -5.9181    2.2541 H   0  0  0  0  0  0  0  0  0  0  0  0
    7.2063   -5.0674    1.5027 H   0  0  0  0  0  0  0  0  0  0  0  0
    6.5264   -6.4867    0.7043 H   0  0  0  0  0  0  0  0  0  0  0  0
  1  2  1  0
  1 21  1  0
  1 22  1  0
  1 23  1  0
  2  7  1  0
  2  3  2  0
  3  4  1  0
  4  5  1  0
  4  6  1  0
  5 24  1  0
  5 25  1  0
  5 26  1  0
  6 19  1  0
  6  7  2  0
  7  8  1  0
  8  9  2  0
  9 10  1  0
  9 19  1  0
 10 18  2  0
 10 11  1  0
 11 12  2  0
 11 27  1  0
 12 13  1  0
 13 18  1  0
 13 14  1  0
 14 15  2  0
 15 16  1  0
 15 28  1  0
 16 17  2  0
 16 29  1  0
 17 18  1  0
 17 30  1  0
 19 20  1  0
 20 31  1  0
 20 32  1  0
 20 33  1  0
M  END
>  <i_m_ct_stereo_status>  (345) 
1

>  <s_m_source_file>  (345) 
/var/tmp/pbs.5076255.sched01/tmpfn0mpy04/132vsilkqhl.sdf

>  <i_m_source_file_index>  (345) 
20

>  <i_lp_mmshare_version>  (345) 
48012

>  <i_f3d_flags>  (345) 
0

>  <s_epik_input>  (345) 
W0NIM11uMW5jKFtDSDNdKWMoYzEyKW5jKG4yW0NIM10pLWMoW2NIXW4zKWMobjM0KVtjSF1bY0hdW2NIXW40

>  <s_epik_cmdline>  (345) 
J2VwaWtfcHl0aG9uJywgJy1waHQnLCAnMi4wJywgJy1waCcsICc3LjAnLCAnLXRuJywgJzgnLCAnLW1hJywgJzIwMCcsICctaW1hZScsICc8aW5maWxlLm1hZT4nLCAnLW9tYWUnLCAnPG91dGZpbGUubWFlPic=

>  <r_lp_tautomer_probability>  (345) 
1

>  <r_epik_Ionization_Penalty>  (345) 
0.000166721

>  <r_epik_Ionization_Penalty_Charging>  (345) 
0.000163984

>  <r_epik_Ionization_Penalty_Neutral>  (345) 
2.737e-06

>  <r_epik_State_Penalty>  (345) 
-0

>  <r_epik_Charging_Adjusted_Penalty>  (345) 
0.000163984

>  <i_epik_Tot_Q>  (345) 
0

>  <i_epik_Tot_abs_Q>  (345) 
0

>  <s_lp_Force_Field>  (345) 
OPLS3e

>  <r_lp_Energy>  (345) 
19.0629

>  <b_lp_Chiralities_Consistent>  (345) 
1

>  <s_lp_Variant>  (345) 
94:0-1

>  <s_i_glide_gridfile>  (345) 
pfpi4k_grid

>  <i_i_glide_lignum>  (345) 
20

>  <i_i_glide_rotatable_bonds>  (345) 
1

>  <r_i_docking_score>  (345) 
-3.69025

>  <r_i_glide_ligand_efficiency>  (345) 
-0.184513

>  <r_i_glide_ligand_efficiency_sa>  (345) 
-0.500844

>  <r_i_glide_ligand_efficiency_ln>  (345) 
-0.923549

>  <r_i_glide_gscore>  (345) 
-3.69025

>  <r_i_glide_lipo>  (345) 
-0.360642

>  <r_i_glide_hbond>  (345) 
-0.139486

>  <r_i_glide_metal>  (345) 
-0

>  <r_i_glide_rewards>  (345) 
-1.85945

>  <r_i_glide_evdw>  (345) 
-24.7773

>  <r_i_glide_ecoul>  (345) 
-2.19768

>  <r_i_glide_erotb>  (345) 
0.249561

>  <r_i_glide_esite>  (345) 
-0.0117181

>  <r_i_glide_emodel>  (345) 
-33.4234

>  <r_i_glide_energy>  (345) 
-26.9749

>  <r_i_glide_einternal>  (345) 
1.02517

>  <r_i_glide_intrahb_reward>  (345) 
-0

>  <i_i_glide_confnum>  (345) 
3

>  <i_i_glide_posenum>  (345) 
1

>  <r_i_glide_eff_state_penalty>  (345) 
0

>  <ligand_id>  (345) 
94

>  <original_smiles>  (345) 
Cc1nn(C)c2c1nc(-c1cnn3ncccc13)n2C

>  <smiles>  (345) 
[H]c1nn2nc([H])c(-c3nc4c(C([H])([H])[H])nn(C([H])([H])[H])c4n3C([H])([H])[H])c2c([H])c1[H]

$$$$
94:0:2
     RDKit          3D

 33 36  0  0  1  0  0  0  0  0999 V2000
   -0.4933   -7.1647    1.6866 C   0  0  0  0  0  0  0  0  0  0  0  0
    0.9818   -7.4026    1.7920 C   0  0  0  0  0  0  0  0  0  0  0  0
    1.4160   -8.5074    2.4256 N   0  0  0  0  0  0  0  0  0  0  0  0
    2.8005   -8.4650    2.3272 N   0  0  0  0  0  0  0  0  0  0  0  0
    3.6469   -9.5067    2.8777 C   0  0  0  0  0  0  0  0  0  0  0  0
    3.1443   -7.3400    1.6357 C   0  0  0  0  0  0  0  0  0  0  0  0
    2.0781   -6.6537    1.3149 C   0  0  0  0  0  0  0  0  0  0  0  0
    2.3736   -5.4735    0.6426 N   0  0  0  0  0  0  0  0  0  0  0  0
    3.7404   -5.5167    0.6020 C   0  0  0  0  0  0  0  0  0  0  0  0
    4.5011   -4.3964   -0.0299 C   0  0  0  0  0  0  0  0  0  0  0  0
    3.9763   -3.4674   -1.0037 C   0  0  0  0  0  0  0  0  0  0  0  0
    4.8976   -2.5815   -1.4623 N   0  0  0  0  0  0  0  0  0  0  0  0
    6.0692   -2.9058   -0.8149 N   0  0  0  0  0  0  0  0  0  0  0  0
    7.2188   -2.2695   -1.0748 N   0  0  0  0  0  0  0  0  0  0  0  0
    8.2878   -2.6745   -0.3191 C   0  0  0  0  0  0  0  0  0  0  0  0
    8.1923   -3.7271    0.6120 C   0  0  0  0  0  0  0  0  0  0  0  0
    6.9554   -4.3704    0.8650 C   0  0  0  0  0  0  0  0  0  0  0  0
    5.8588   -3.9459    0.0727 C   0  0  0  0  0  0  0  0  0  0  0  0
    4.2527   -6.6662    1.1787 N   0  0  0  0  0  0  0  0  0  0  0  0
    5.5841   -7.1710    1.3615 C   0  0  0  0  0  0  0  0  0  0  0  0
   -0.6954   -6.2575    1.1245 H   0  0  0  0  0  0  0  0  0  0  0  0
   -0.9181   -7.0804    2.6830 H   0  0  0  0  0  0  0  0  0  0  0  0
   -0.9716   -8.0031    1.1833 H   0  0  0  0  0  0  0  0  0  0  0  0
    4.5817   -9.0829    3.2542 H   0  0  0  0  0  0  0  0  0  0  0  0
    3.8863  -10.2480    2.1098 H   0  0  0  0  0  0  0  0  0  0  0  0
    3.1376   -9.9930    3.7039 H   0  0  0  0  0  0  0  0  0  0  0  0
    2.9530   -3.4331   -1.3725 H   0  0  0  0  0  0  0  0  0  0  0  0
    9.2672   -2.1492   -0.4334 H   0  0  0  0  0  0  0  0  0  0  0  0
    9.0393   -4.0777    1.1650 H   0  0  0  0  0  0  0  0  0  0  0  0
    6.9023   -5.0989    1.6547 H   0  0  0  0  0  0  0  0  0  0  0  0
    6.1873   -6.8066    0.5352 H   0  0  0  0  0  0  0  0  0  0  0  0
    5.6156   -8.2691    1.3654 H   0  0  0  0  0  0  0  0  0  0  0  0
    5.9647   -6.7595    2.3011 H   0  0  0  0  0  0  0  0  0  0  0  0
  1  2  1  0
  1 21  1  0
  1 22  1  0
  1 23  1  0
  2  7  1  0
  2  3  2  0
  3  4  1  0
  4  5  1  0
  4  6  1  0
  5 24  1  0
  5 25  1  0
  5 26  1  0
  6 19  1  0
  6  7  2  0
  7  8  1  0
  8  9  2  0
  9 10  1  0
  9 19  1  0
 10 18  2  0
 10 11  1  0
 11 12  2  0
 11 27  1  0
 12 13  1  0
 13 18  1  0
 13 14  1  0
 14 15  2  0
 15 16  1  0
 15 28  1  0
 16 17  2  0
 16 29  1  0
 17 18  1  0
 17 30  1  0
 19 20  1  0
 20 31  1  0
 20 32  1  0
 20 33  1  0
M  END
>  <i_m_ct_stereo_status>  (346) 
1

>  <s_m_source_file>  (346) 
/var/tmp/pbs.5076255.sched01/tmpfn0mpy04/132vsilkqhl.sdf

>  <i_m_source_file_index>  (346) 
20

>  <i_lp_mmshare_version>  (346) 
48012

>  <i_f3d_flags>  (346) 
0

>  <s_epik_input>  (346) 
W0NIM11uMW5jKFtDSDNdKWMoYzEyKW5jKG4yW0NIM10pLWMoW2NIXW4zKWMobjM0KVtjSF1bY0hdW2NIXW40

>  <s_epik_cmdline>  (346) 
J2VwaWtfcHl0aG9uJywgJy1waHQnLCAnMi4wJywgJy1waCcsICc3LjAnLCAnLXRuJywgJzgnLCAnLW1hJywgJzIwMCcsICctaW1hZScsICc8aW5maWxlLm1hZT4nLCAnLW9tYWUnLCAnPG91dGZpbGUubWFlPic=

>  <r_lp_tautomer_probability>  (346) 
1

>  <r_epik_Ionization_Penalty>  (346) 
0.000166721

>  <r_epik_Ionization_Penalty_Charging>  (346) 
0.000163984

>  <r_epik_Ionization_Penalty_Neutral>  (346) 
2.737e-06

>  <r_epik_State_Penalty>  (346) 
-0

>  <r_epik_Charging_Adjusted_Penalty>  (346) 
0.000163984

>  <i_epik_Tot_Q>  (346) 
0

>  <i_epik_Tot_abs_Q>  (346) 
0

>  <s_lp_Force_Field>  (346) 
OPLS3e

>  <r_lp_Energy>  (346) 
19.0629

>  <b_lp_Chiralities_Consistent>  (346) 
1

>  <s_lp_Variant>  (346) 
94:0-1

>  <s_i_glide_gridfile>  (346) 
pfpi4k_grid

>  <i_i_glide_lignum>  (346) 
20

>  <i_i_glide_rotatable_bonds>  (346) 
1

>  <r_i_docking_score>  (346) 
-3.56967

>  <r_i_glide_ligand_efficiency>  (346) 
-0.178483

>  <r_i_glide_ligand_efficiency_sa>  (346) 
-0.484478

>  <r_i_glide_ligand_efficiency_ln>  (346) 
-0.89337

>  <r_i_glide_gscore>  (346) 
-3.56967

>  <r_i_glide_lipo>  (346) 
-0.470017

>  <r_i_glide_hbond>  (346) 
-0.16

>  <r_i_glide_metal>  (346) 
-0

>  <r_i_glide_rewards>  (346) 
-1.82145

>  <r_i_glide_evdw>  (346) 
-25.826

>  <r_i_glide_ecoul>  (346) 
-0.439224

>  <r_i_glide_erotb>  (346) 
0.249561

>  <r_i_glide_esite>  (346) 
-0.0105814

>  <r_i_glide_emodel>  (346) 
-31.2181

>  <r_i_glide_energy>  (346) 
-26.2652

>  <r_i_glide_einternal>  (346) 
1.73501

>  <r_i_glide_intrahb_reward>  (346) 
-0

>  <i_i_glide_confnum>  (346) 
3

>  <i_i_glide_posenum>  (346) 
2

>  <r_i_glide_eff_state_penalty>  (346) 
0

>  <ligand_id>  (346) 
94

>  <original_smiles>  (346) 
Cc1nn(C)c2c1nc(-c1cnn3ncccc13)n2C

>  <smiles>  (346) 
[H]c1nn2nc([H])c(-c3nc4c(C([H])([H])[H])nn(C([H])([H])[H])c4n3C([H])([H])[H])c2c([H])c1[H]

$$$$
95:0:0
     RDKit          3D

 67 72  0  0  1  0  0  0  0  0999 V2000
   -1.4147   -0.5618    4.5983 C   0  0  0  0  0  0  0  0  0  0  0  0
   -0.1805   -0.7677    5.0884 C   0  0  0  0  0  0  0  0  0  0  0  0
    1.1006   -1.1688    4.3079 C   0  0  2  0  0  0  0  0  0  0  0  0
    1.2227   -0.4111    2.9746 C   0  0  0  0  0  0  0  0  0  0  0  0
    0.4279    0.4405    2.5893 O   0  0  0  0  0  0  0  0  0  0  0  0
    2.4486   -0.7300    2.1343 C   0  0  0  0  0  0  0  0  0  0  0  0
    3.7284   -1.3201    2.8523 C   0  0  2  0  0  0  0  0  0  0  0  0
    4.8529   -0.8566    1.8085 C   0  0  1  0  0  0  0  0  0  0  0  0
    6.2126   -0.9901    2.1791 O   0  0  0  0  0  0  0  0  0  0  0  0
    4.6881   -1.2185    0.2917 C   0  0  0  0  0  0  0  0  0  0  0  0
    5.1876   -2.5889   -0.2825 C   0  0  2  0  0  0  0  0  0  0  0  0
    5.8583   -2.3511   -1.6448 C   0  0  0  0  0  0  0  0  0  0  0  0
    4.8017   -2.2948   -2.5932 O   0  0  0  0  0  0  0  0  0  0  0  0
    3.6510   -2.9451   -2.0572 C   0  0  0  0  0  0  0  0  0  0  0  0
    4.0935   -3.5936   -0.7255 C   0  0  1  0  0  0  0  0  0  0  0  0
    4.6522   -4.8234   -1.1184 O   0  0  0  0  0  0  0  0  0  0  0  0
    2.9310   -3.9357    0.2556 C   0  0  1  0  0  0  0  0  0  0  0  0
    1.8878   -4.5664   -0.4895 O   0  0  0  0  0  0  0  0  0  0  0  0
    3.1430   -4.6761    1.6456 C   0  0  1  0  0  0  0  0  0  0  0  0
    2.4562   -5.9156    1.6664 O   0  0  0  0  0  0  0  0  0  0  0  0
    4.5603   -5.0020    2.2180 C   0  0  1  0  0  0  0  0  0  0  0  0
    5.6295   -5.7795    1.4266 C   0  0  0  0  0  0  0  0  0  0  0  0
    5.0612   -3.7420    2.9321 C   0  0  0  0  0  0  0  0  0  0  0  0
    3.8038   -2.8912    3.2186 C   0  0  2  0  0  0  0  0  0  0  0  0
    2.6557   -3.8506    2.8691 C   0  0  1  0  0  0  0  0  0  0  0  0
    1.4196   -3.1634    2.8767 O   0  0  0  0  0  0  0  0  0  0  0  0
    0.9673   -2.7058    4.0641 C   0  0  0  0  0  0  0  0  0  0  0  0
    0.5757   -3.4611    4.9566 O   0  0  0  0  0  0  0  0  0  0  0  0
    3.7711   -0.6153    4.2706 C   0  0  2  0  0  0  0  0  0  0  0  0
    4.1652    0.8684    4.1744 C   0  0  0  0  0  0  0  0  0  0  0  0
    5.2802    0.7211    4.9097 C   0  0  0  0  0  0  0  0  0  0  0  0
    5.1009   -0.7703    5.0657 C   0  0  1  0  0  0  0  0  0  0  0  0
    5.0718   -1.1153    6.4313 O   0  0  0  0  0  0  0  0  0  0  0  0
    2.4230   -0.8411    5.1086 C   0  0  1  0  0  0  0  0  0  0  0  0
    2.2084    0.2387    6.0144 O   0  0  0  0  0  0  0  0  0  0  0  0
   -1.6184   -0.6514    3.5437 H   0  0  0  0  0  0  0  0  0  0  0  0
   -2.2539   -0.2894    5.2256 H   0  0  0  0  0  0  0  0  0  0  0  0
   -0.0594   -0.6686    6.1618 H   0  0  0  0  0  0  0  0  0  0  0  0
    2.0875   -1.3202    1.3085 H   0  0  0  0  0  0  0  0  0  0  0  0
    2.6880    0.2307    1.6805 H   0  0  0  0  0  0  0  0  0  0  0  0
    4.7530    0.2285    1.7871 H   0  0  0  0  0  0  0  0  0  0  0  0
    6.7283   -0.3333    1.7312 H   0  0  0  0  0  0  0  0  0  0  0  0
    3.6809   -1.0188   -0.0658 H   0  0  0  0  0  0  0  0  0  0  0  0
    5.2520   -0.4363   -0.2174 H   0  0  0  0  0  0  0  0  0  0  0  0
    5.9427   -3.0221    0.3616 H   0  0  0  0  0  0  0  0  0  0  0  0
    6.4693   -1.4542   -1.6898 H   0  0  0  0  0  0  0  0  0  0  0  0
    6.5103   -3.1913   -1.8969 H   0  0  0  0  0  0  0  0  0  0  0  0
    2.9092   -2.1654   -1.8783 H   0  0  0  0  0  0  0  0  0  0  0  0
    3.2062   -3.6447   -2.7684 H   0  0  0  0  0  0  0  0  0  0  0  0
    4.0608   -5.2888   -1.6928 H   0  0  0  0  0  0  0  0  0  0  0  0
    2.4937   -2.9812    0.4845 H   0  0  0  0  0  0  0  0  0  0  0  0
    2.2604   -5.0499   -1.2180 H   0  0  0  0  0  0  0  0  0  0  0  0
    2.8817   -6.4887    1.0458 H   0  0  0  0  0  0  0  0  0  0  0  0
    4.3618   -5.6892    3.0458 H   0  0  0  0  0  0  0  0  0  0  0  0
    6.2118   -5.1486    0.7616 H   0  0  0  0  0  0  0  0  0  0  0  0
    5.1889   -6.5893    0.8471 H   0  0  0  0  0  0  0  0  0  0  0  0
    6.3533   -6.2274    2.1082 H   0  0  0  0  0  0  0  0  0  0  0  0
    5.5451   -4.0226    3.8716 H   0  0  0  0  0  0  0  0  0  0  0  0
    5.8395   -3.2630    2.3687 H   0  0  0  0  0  0  0  0  0  0  0  0
    3.7737   -2.9454    4.3041 H   0  0  0  0  0  0  0  0  0  0  0  0
    2.5886   -4.5756    3.6869 H   0  0  0  0  0  0  0  0  0  0  0  0
    3.7053    1.7367    3.7094 H   0  0  0  0  0  0  0  0  0  0  0  0
    6.0482    1.4013    5.2675 H   0  0  0  0  0  0  0  0  0  0  0  0
    5.8092   -1.4133    4.5571 H   0  0  0  0  0  0  0  0  0  0  0  0
    4.8900   -2.0392    6.4720 H   0  0  0  0  0  0  0  0  0  0  0  0
    2.5888   -1.6945    5.7726 H   0  0  0  0  0  0  0  0  0  0  0  0
    2.1351    1.0441    5.5244 H   0  0  0  0  0  0  0  0  0  0  0  0
  1  2  2  0
  1 36  1  0
  1 37  1  0
  3  2  1  1
  2 38  1  0
  3 27  1  0
  3 34  1  0
  3  4  1  0
  4  5  2  0
  4  6  1  0
  7  6  1  6
  6 39  1  0
  6 40  1  0
  7 24  1  0
  7  8  1  0
  7 29  1  0
  8  9  1  0
  8 10  1  0
  8 41  1  6
  9 42  1  0
 10 11  1  0
 10 43  1  0
 10 44  1  0
 11 15  1  0
 11 12  1  0
 11 45  1  1
 12 13  1  0
 12 46  1  0
 12 47  1  0
 13 14  1  0
 14 15  1  0
 14 48  1  0
 14 49  1  0
 15 16  1  6
 15 17  1  0
 16 50  1  0
 17 18  1  0
 17 19  1  0
 17 51  1  1
 18 52  1  0
 19 25  1  0
 19 20  1  6
 19 21  1  0
 20 53  1  0
 21 22  1  0
 21 23  1  0
 21 54  1  1
 22 55  1  0
 22 56  1  0
 22 57  1  0
 23 24  1  0
 23 58  1  0
 23 59  1  0
 24 25  1  0
 24 60  1  1
 25 26  1  0
 25 61  1  1
 26 27  1  0
 27 28  2  0
 29 32  1  0
 29 30  1  6
 29 34  1  0
 30 31  2  0
 30 62  1  0
 31 32  1  0
 31 63  1  0
 32 33  1  0
 32 64  1  6
 33 65  1  0
 34 35  1  0
 34 66  1  1
 35 67  1  0
M  END
>  <i_m_ct_stereo_status>  (347) 
1

>  <s_m_source_file>  (347) 
/var/tmp/pbs.5076255.sched01/tmpfn0mpy04/132vsilkqhl.sdf

>  <i_m_source_file_index>  (347) 
21

>  <i_lp_mmshare_version>  (347) 
48012

>  <i_f3d_flags>  (347) 
2

>  <s_epik_input>  (347) 
W09IXVtDQEBIXTFbQ0hdPVtDSF1bQ0BdMShbQ0BAXTIzNClbQ0BASF0oW09IXSlbQ0BAXShbQ0hdPVtDSDJdKShDKD1PKVtDSDJdMilDKD1PKU9bQ0hdNVtDQEBdKFtPSF0pKFtDQEBIXShbQ0gzXSlbQ0gyXVtDQEBIXTQ1KVtDQEhdKFtPSF0pW0NAXTYoW09IXSlbQ0BIXShbQ0gyXVtDQEBIXTNbT0hdKVtDSDJdT1tDSDJdNg==

>  <s_epik_cmdline>  (347) 
J2VwaWtfcHl0aG9uJywgJy1waHQnLCAnMi4wJywgJy1waCcsICc3LjAnLCAnLXRuJywgJzgnLCAnLW1hJywgJzIwMCcsICctaW1hZScsICc8aW5maWxlLm1hZT4nLCAnLW9tYWUnLCAnPG91dGZpbGUubWFlPic=

>  <r_lp_tautomer_probability>  (347) 
1

>  <r_epik_Ionization_Penalty>  (347) 
1.58687e-06

>  <r_epik_Ionization_Penalty_Charging>  (347) 
0

>  <r_epik_Ionization_Penalty_Neutral>  (347) 
1.58687e-06

>  <r_epik_State_Penalty>  (347) 
-0

>  <r_epik_Charging_Adjusted_Penalty>  (347) 
0

>  <i_epik_Tot_Q>  (347) 
0

>  <i_epik_Tot_abs_Q>  (347) 
0

>  <s_epik_Chemistry_Notes>  (347) 
This compound has an ester and may undergo hydrolysis at high or low pH.

>  <s_lp_Force_Field>  (347) 
OPLS3e

>  <r_lp_Energy>  (347) 
121.822

>  <b_lp_Chiralities_Consistent>  (347) 
0

>  <s_lp_Variant>  (347) 
95:0-1

>  <s_i_glide_gridfile>  (347) 
pfpi4k_grid

>  <i_i_glide_lignum>  (347) 
21

>  <i_i_glide_rotatable_bonds>  (347) 
7

>  <r_i_docking_score>  (347) 
-3.9368

>  <r_i_glide_ligand_efficiency>  (347) 
-0.11248

>  <r_i_glide_ligand_efficiency_sa>  (347) 
-0.36793

>  <r_i_glide_ligand_efficiency_ln>  (347) 
-0.864215

>  <r_i_glide_gscore>  (347) 
-3.9368

>  <r_i_glide_lipo>  (347) 
-0.371163

>  <r_i_glide_hbond>  (347) 
-0.288

>  <r_i_glide_metal>  (347) 
-0

>  <r_i_glide_rewards>  (347) 
-0.0921884

>  <r_i_glide_evdw>  (347) 
-28.156

>  <r_i_glide_ecoul>  (347) 
-12.2519

>  <r_i_glide_erotb>  (347) 
0.083955

>  <r_i_glide_esite>  (347) 
-0.0238247

>  <r_i_glide_emodel>  (347) 
-49.2629

>  <r_i_glide_energy>  (347) 
-40.4079

>  <r_i_glide_einternal>  (347) 
2.55227

>  <r_i_glide_intrahb_reward>  (347) 
-0

>  <i_i_glide_confnum>  (347) 
1

>  <i_i_glide_posenum>  (347) 
1

>  <r_i_glide_eff_state_penalty>  (347) 
0

>  <ligand_id>  (347) 
95

>  <original_smiles>  (347) 
C=CC12C(=O)CC3(C(O)CC4COCC4(O)C(O)C4(O)C(C)CC3C4OC1=O)C1(C=CC1O)C2O

>  <smiles>  (347) 
[H]OC1([H])C([H])=C([H])C12C([H])(O[H])C1(C([H])=C([H])[H])C(=O)OC3([H])C4([H])C([H])([H])C([H])(C([H])([H])[H])C3(O[H])C([H])(O[H])C3(O[H])C([H])([H])OC([H])([H])C3([H])C([H])([H])C([H])(O[H])C42C([H])([H])C1=O

$$$$
95:0:1
     RDKit          3D

 67 72  0  0  1  0  0  0  0  0999 V2000
   -1.4038   -1.7670    5.1638 C   0  0  0  0  0  0  0  0  0  0  0  0
   -0.1144   -1.8538    5.5440 C   0  0  0  0  0  0  0  0  0  0  0  0
    1.1264   -1.9400    4.6228 C   0  0  2  0  0  0  0  0  0  0  0  0
    1.0183   -0.9924    3.4199 C   0  0  0  0  0  0  0  0  0  0  0  0
    0.0935   -0.1948    3.2532 O   0  0  0  0  0  0  0  0  0  0  0  0
    2.1834   -1.0081    2.4473 C   0  0  0  0  0  0  0  0  0  0  0  0
    3.5983   -1.4798    2.9776 C   0  0  2  0  0  0  0  0  0  0  0  0
    4.5313   -0.7112    1.9335 C   0  0  1  0  0  0  0  0  0  0  0  0
    5.9182   -0.6931    2.2039 O   0  0  0  0  0  0  0  0  0  0  0  0
    4.2804   -0.8989    0.3917 C   0  0  0  0  0  0  0  0  0  0  0  0
    4.9167   -2.0850   -0.4198 C   0  0  2  0  0  0  0  0  0  0  0  0
    5.4079   -1.5549   -1.7742 C   0  0  0  0  0  0  0  0  0  0  0  0
    4.2982   -1.5681   -2.6487 O   0  0  0  0  0  0  0  0  0  0  0  0
    3.3158   -2.4540   -2.1328 C   0  0  0  0  0  0  0  0  0  0  0  0
    3.9573   -3.1871   -0.9351 C   0  0  1  0  0  0  0  0  0  0  0  0
    4.6491   -4.2600   -1.5315 O   0  0  0  0  0  0  0  0  0  0  0  0
    2.9367   -3.8097    0.0652 C   0  0  1  0  0  0  0  0  0  0  0  0
    1.8991   -4.4349   -0.6901 O   0  0  0  0  0  0  0  0  0  0  0  0
    3.3761   -4.6933    1.3140 C   0  0  1  0  0  0  0  0  0  0  0  0
    2.8731   -6.0121    1.1868 O   0  0  0  0  0  0  0  0  0  0  0  0
    4.8736   -4.8723    1.7346 C   0  0  1  0  0  0  0  0  0  0  0  0
    5.9687   -5.3591    0.7665 C   0  0  0  0  0  0  0  0  0  0  0  0
    5.2522   -3.6604    2.5910 C   0  0  0  0  0  0  0  0  0  0  0  0
    3.9228   -3.0556    3.0889 C   0  0  2  0  0  0  0  0  0  0  0  0
    2.8945   -4.1240    2.6781 C   0  0  1  0  0  0  0  0  0  0  0  0
    1.5763   -3.6490    2.8768 O   0  0  0  0  0  0  0  0  0  0  0  0
    1.1805   -3.4317    4.1528 C   0  0  0  0  0  0  0  0  0  0  0  0
    0.9747   -4.3533    4.9476 O   0  0  0  0  0  0  0  0  0  0  0  0
    3.6771   -0.9749    4.4805 C   0  0  2  0  0  0  0  0  0  0  0  0
    3.8410    0.5470    4.5777 C   0  0  0  0  0  0  0  0  0  0  0  0
    5.0241    0.4896    5.1892 C   0  0  0  0  0  0  0  0  0  0  0  0
    5.0813   -1.0167    5.1570 C   0  0  1  0  0  0  0  0  0  0  0  0
    5.2195   -1.5458    6.4547 O   0  0  0  0  0  0  0  0  0  0  0  0
    2.4627   -1.5317    5.3671 C   0  0  1  0  0  0  0  0  0  0  0  0
    2.1984   -0.6249    6.4392 O   0  0  0  0  0  0  0  0  0  0  0  0
   -1.6661   -1.7399    4.1162 H   0  0  0  0  0  0  0  0  0  0  0  0
   -2.2146   -1.7187    5.8766 H   0  0  0  0  0  0  0  0  0  0  0  0
    0.0865   -1.8830    6.6076 H   0  0  0  0  0  0  0  0  0  0  0  0
    1.8361   -1.5329    1.5710 H   0  0  0  0  0  0  0  0  0  0  0  0
    2.2402    0.0276    2.1182 H   0  0  0  0  0  0  0  0  0  0  0  0
    4.2928    0.3447    2.0731 H   0  0  0  0  0  0  0  0  0  0  0  0
    6.3610   -0.1316    1.5845 H   0  0  0  0  0  0  0  0  0  0  0  0
    3.2267   -0.8006    0.1374 H   0  0  0  0  0  0  0  0  0  0  0  0
    4.6788    0.0269   -0.0287 H   0  0  0  0  0  0  0  0  0  0  0  0
    5.7874   -2.4685    0.0994 H   0  0  0  0  0  0  0  0  0  0  0  0
    5.8201   -0.5485   -1.7291 H   0  0  0  0  0  0  0  0  0  0  0  0
    6.1651   -2.2274   -2.1836 H   0  0  0  0  0  0  0  0  0  0  0  0
    2.5173   -1.8087   -1.7905 H   0  0  0  0  0  0  0  0  0  0  0  0
    2.8965   -3.1079   -2.9022 H   0  0  0  0  0  0  0  0  0  0  0  0
    4.0311   -4.8355   -1.9650 H   0  0  0  0  0  0  0  0  0  0  0  0
    2.4104   -2.9669    0.4724 H   0  0  0  0  0  0  0  0  0  0  0  0
    2.2817   -5.0249   -1.3323 H   0  0  0  0  0  0  0  0  0  0  0  0
    3.2711   -6.3991    0.4194 H   0  0  0  0  0  0  0  0  0  0  0  0
    4.8543   -5.6866    2.4637 H   0  0  0  0  0  0  0  0  0  0  0  0
    6.3923   -4.5611    0.1636 H   0  0  0  0  0  0  0  0  0  0  0  0
    5.5954   -6.1390    0.1057 H   0  0  0  0  0  0  0  0  0  0  0  0
    6.8074   -5.7816    1.3193 H   0  0  0  0  0  0  0  0  0  0  0  0
    5.8361   -3.9955    3.4500 H   0  0  0  0  0  0  0  0  0  0  0  0
    5.9115   -3.0017    2.0588 H   0  0  0  0  0  0  0  0  0  0  0  0
    4.0034   -3.2619    4.1551 H   0  0  0  0  0  0  0  0  0  0  0  0
    3.0054   -4.9548    3.3859 H   0  0  0  0  0  0  0  0  0  0  0  0
    3.2183    1.3854    4.2662 H   0  0  0  0  0  0  0  0  0  0  0  0
    5.7192    1.2461    5.5546 H   0  0  0  0  0  0  0  0  0  0  0  0
    5.8103   -1.4748    4.5179 H   0  0  0  0  0  0  0  0  0  0  0  0
    4.6417   -1.0369    7.0115 H   0  0  0  0  0  0  0  0  0  0  0  0
    2.8091   -2.4327    5.8763 H   0  0  0  0  0  0  0  0  0  0  0  0
    1.9644    0.2195    6.0774 H   0  0  0  0  0  0  0  0  0  0  0  0
  1  2  2  0
  1 36  1  0
  1 37  1  0
  3  2  1  1
  2 38  1  0
  3 27  1  0
  3 34  1  0
  3  4  1  0
  4  5  2  0
  4  6  1  0
  7  6  1  6
  6 39  1  0
  6 40  1  0
  7 24  1  0
  7  8  1  0
  7 29  1  0
  8  9  1  0
  8 10  1  0
  8 41  1  1
  9 42  1  0
 10 11  1  0
 10 43  1  0
 10 44  1  0
 11 15  1  0
 11 12  1  0
 11 45  1  1
 12 13  1  0
 12 46  1  0
 12 47  1  0
 13 14  1  0
 14 15  1  0
 14 48  1  0
 14 49  1  0
 15 16  1  6
 15 17  1  0
 16 50  1  0
 17 18  1  0
 17 19  1  0
 17 51  1  1
 18 52  1  0
 19 25  1  0
 19 20  1  6
 19 21  1  0
 20 53  1  0
 21 22  1  0
 21 23  1  0
 21 54  1  1
 22 55  1  0
 22 56  1  0
 22 57  1  0
 23 24  1  0
 23 58  1  0
 23 59  1  0
 24 25  1  0
 24 60  1  1
 25 26  1  0
 25 61  1  1
 26 27  1  0
 27 28  2  0
 29 32  1  0
 29 30  1  6
 29 34  1  0
 30 31  2  0
 30 62  1  0
 31 32  1  0
 31 63  1  0
 32 33  1  0
 32 64  1  6
 33 65  1  0
 34 35  1  0
 34 66  1  1
 35 67  1  0
M  END
>  <i_m_ct_stereo_status>  (348) 
1

>  <s_m_source_file>  (348) 
/var/tmp/pbs.5076255.sched01/tmpfn0mpy04/132vsilkqhl.sdf

>  <i_m_source_file_index>  (348) 
21

>  <i_lp_mmshare_version>  (348) 
48012

>  <i_f3d_flags>  (348) 
2

>  <s_epik_input>  (348) 
W09IXVtDQEBIXTFbQ0hdPVtDSF1bQ0BdMShbQ0BAXTIzNClbQ0BASF0oW09IXSlbQ0BAXShbQ0hdPVtDSDJdKShDKD1PKVtDSDJdMilDKD1PKU9bQ0hdNVtDQEBdKFtPSF0pKFtDQEBIXShbQ0gzXSlbQ0gyXVtDQEBIXTQ1KVtDQEhdKFtPSF0pW0NAXTYoW09IXSlbQ0BIXShbQ0gyXVtDQEBIXTNbT0hdKVtDSDJdT1tDSDJdNg==

>  <s_epik_cmdline>  (348) 
J2VwaWtfcHl0aG9uJywgJy1waHQnLCAnMi4wJywgJy1waCcsICc3LjAnLCAnLXRuJywgJzgnLCAnLW1hJywgJzIwMCcsICctaW1hZScsICc8aW5maWxlLm1hZT4nLCAnLW9tYWUnLCAnPG91dGZpbGUubWFlPic=

>  <r_lp_tautomer_probability>  (348) 
1

>  <r_epik_Ionization_Penalty>  (348) 
1.58687e-06

>  <r_epik_Ionization_Penalty_Charging>  (348) 
0

>  <r_epik_Ionization_Penalty_Neutral>  (348) 
1.58687e-06

>  <r_epik_State_Penalty>  (348) 
-0

>  <r_epik_Charging_Adjusted_Penalty>  (348) 
0

>  <i_epik_Tot_Q>  (348) 
0

>  <i_epik_Tot_abs_Q>  (348) 
0

>  <s_epik_Chemistry_Notes>  (348) 
This compound has an ester and may undergo hydrolysis at high or low pH.

>  <s_lp_Force_Field>  (348) 
OPLS3e

>  <r_lp_Energy>  (348) 
121.822

>  <b_lp_Chiralities_Consistent>  (348) 
0

>  <s_lp_Variant>  (348) 
95:0-1

>  <s_i_glide_gridfile>  (348) 
pfpi4k_grid

>  <i_i_glide_lignum>  (348) 
21

>  <i_i_glide_rotatable_bonds>  (348) 
7

>  <r_i_docking_score>  (348) 
-3.63231

>  <r_i_glide_ligand_efficiency>  (348) 
-0.10378

>  <r_i_glide_ligand_efficiency_sa>  (348) 
-0.339473

>  <r_i_glide_ligand_efficiency_ln>  (348) 
-0.797374

>  <r_i_glide_gscore>  (348) 
-3.63231

>  <r_i_glide_lipo>  (348) 
-0.402759

>  <r_i_glide_hbond>  (348) 
-0.153955

>  <r_i_glide_metal>  (348) 
-0

>  <r_i_glide_rewards>  (348) 
-0.0887384

>  <r_i_glide_evdw>  (348) 
-28.9879

>  <r_i_glide_ecoul>  (348) 
-10.745

>  <r_i_glide_erotb>  (348) 
0.083955

>  <r_i_glide_esite>  (348) 
-0.009672

>  <r_i_glide_emodel>  (348) 
-48.7717

>  <r_i_glide_energy>  (348) 
-39.7329

>  <r_i_glide_einternal>  (348) 
1.59025

>  <r_i_glide_intrahb_reward>  (348) 
-0

>  <i_i_glide_confnum>  (348) 
3

>  <i_i_glide_posenum>  (348) 
29

>  <r_i_glide_eff_state_penalty>  (348) 
0

>  <ligand_id>  (348) 
95

>  <original_smiles>  (348) 
C=CC12C(=O)CC3(C(O)CC4COCC4(O)C(O)C4(O)C(C)CC3C4OC1=O)C1(C=CC1O)C2O

>  <smiles>  (348) 
[H]OC1([H])C([H])=C([H])C12C([H])(O[H])C1(C([H])=C([H])[H])C(=O)OC3([H])C4([H])C([H])([H])C([H])(C([H])([H])[H])C3(O[H])C([H])(O[H])C3(O[H])C([H])([H])OC([H])([H])C3([H])C([H])([H])C([H])(O[H])C42C([H])([H])C1=O

$$$$
95:0:2
     RDKit          3D

 67 72  0  0  1  0  0  0  0  0999 V2000
   -1.4727   -1.2280    4.8910 C   0  0  0  0  0  0  0  0  0  0  0  0
   -0.1976   -1.2549    5.3209 C   0  0  0  0  0  0  0  0  0  0  0  0
    1.0696   -1.5146    4.4682 C   0  0  2  0  0  0  0  0  0  0  0  0
    1.0618   -0.6829    3.1766 C   0  0  0  0  0  0  0  0  0  0  0  0
    0.1797    0.1258    2.8808 O   0  0  0  0  0  0  0  0  0  0  0  0
    2.2658   -0.8616    2.2652 C   0  0  0  0  0  0  0  0  0  0  0  0
    3.6252   -1.3796    2.8947 C   0  0  2  0  0  0  0  0  0  0  0  0
    4.6484   -0.7815    1.8287 C   0  0  1  0  0  0  0  0  0  0  0  0
    6.0195   -0.7967    2.1526 O   0  0  0  0  0  0  0  0  0  0  0  0
    4.4513   -1.0911    0.3016 C   0  0  0  0  0  0  0  0  0  0  0  0
    5.0328   -2.3857   -0.3682 C   0  0  2  0  0  0  0  0  0  0  0  0
    5.6197   -2.0235   -1.7434 C   0  0  0  0  0  0  0  0  0  0  0  0
    4.5228   -2.0163   -2.6459 O   0  0  0  0  0  0  0  0  0  0  0  0
    3.4537   -2.7796   -2.0923 C   0  0  0  0  0  0  0  0  0  0  0  0
    4.0073   -3.4560   -0.8169 C   0  0  1  0  0  0  0  0  0  0  0  0
    4.6507   -4.6302   -1.2683 O   0  0  0  0  0  0  0  0  0  0  0  0
    2.9169   -3.9296    0.1937 C   0  0  1  0  0  0  0  0  0  0  0  0
    1.8769   -4.5890   -0.5328 O   0  0  0  0  0  0  0  0  0  0  0  0
    3.2518   -4.7145    1.5355 C   0  0  1  0  0  0  0  0  0  0  0  0
    2.6702   -6.0077    1.5195 O   0  0  0  0  0  0  0  0  0  0  0  0
    4.7160   -4.9491    2.0351 C   0  0  1  0  0  0  0  0  0  0  0  0
    5.8070   -5.5982    1.1606 C   0  0  0  0  0  0  0  0  0  0  0  0
    5.1466   -3.6872    2.7895 C   0  0  0  0  0  0  0  0  0  0  0  0
    3.8400   -2.9556    3.1708 C   0  0  2  0  0  0  0  0  0  0  0  0
    2.7548   -3.9851    2.8130 C   0  0  1  0  0  0  0  0  0  0  0  0
    1.4682   -3.4048    2.8992 O   0  0  0  0  0  0  0  0  0  0  0  0
    1.0368   -3.0430    4.1376 C   0  0  0  0  0  0  0  0  0  0  0  0
    0.7450   -3.8719    5.0037 O   0  0  0  0  0  0  0  0  0  0  0  0
    3.6906   -0.7413    4.3455 C   0  0  2  0  0  0  0  0  0  0  0  0
    3.9569    0.7716    4.3071 C   0  0  0  0  0  0  0  0  0  0  0  0
    5.1080    0.6947    4.9820 C   0  0  0  0  0  0  0  0  0  0  0  0
    5.0637   -0.8083    5.0875 C   0  0  1  0  0  0  0  0  0  0  0  0
    5.1036   -1.2199    6.4345 O   0  0  0  0  0  0  0  0  0  0  0  0
    2.4073   -1.1229    5.2242 C   0  0  1  0  0  0  0  0  0  0  0  0
    2.1782   -0.1011    6.1966 O   0  0  0  0  0  0  0  0  0  0  0  0
   -1.7034   -1.3939    3.8516 H   0  0  0  0  0  0  0  0  0  0  0  0
   -2.3070   -1.0407    5.5527 H   0  0  0  0  0  0  0  0  0  0  0  0
   -0.0384   -1.0895    6.3790 H   0  0  0  0  0  0  0  0  0  0  0  0
    1.9182   -1.4415    1.4237 H   0  0  0  0  0  0  0  0  0  0  0  0
    2.4069    0.1345    1.8446 H   0  0  0  0  0  0  0  0  0  0  0  0
    4.4737    0.2913    1.8583 H   0  0  0  0  0  0  0  0  0  0  0  0
    6.3286   -1.6870    2.1124 H   0  0  0  0  0  0  0  0  0  0  0  0
    3.4202   -0.9466   -0.0086 H   0  0  0  0  0  0  0  0  0  0  0  0
    4.9398   -0.2473   -0.1856 H   0  0  0  0  0  0  0  0  0  0  0  0
    5.8536   -2.7806    0.2167 H   0  0  0  0  0  0  0  0  0  0  0  0
    6.1516   -1.0719   -1.7682 H   0  0  0  0  0  0  0  0  0  0  0  0
    6.3301   -2.7887   -2.0631 H   0  0  0  0  0  0  0  0  0  0  0  0
    2.6635   -2.0667   -1.8418 H   0  0  0  0  0  0  0  0  0  0  0  0
    3.0302   -3.4744   -2.8194 H   0  0  0  0  0  0  0  0  0  0  0  0
    4.0548   -5.1408   -1.8028 H   0  0  0  0  0  0  0  0  0  0  0  0
    2.4259   -3.0187    0.4908 H   0  0  0  0  0  0  0  0  0  0  0  0
    2.2572   -5.1096   -1.2302 H   0  0  0  0  0  0  0  0  0  0  0  0
    3.1170   -6.5166    0.8596 H   0  0  0  0  0  0  0  0  0  0  0  0
    4.6108   -5.6885    2.8339 H   0  0  0  0  0  0  0  0  0  0  0  0
    6.3086   -4.8914    0.5061 H   0  0  0  0  0  0  0  0  0  0  0  0
    5.4041   -6.4102    0.5578 H   0  0  0  0  0  0  0  0  0  0  0  0
    6.5921   -6.0212    1.7855 H   0  0  0  0  0  0  0  0  0  0  0  0
    5.6911   -3.9735    3.6934 H   0  0  0  0  0  0  0  0  0  0  0  0
    5.8602   -3.1310    2.2134 H   0  0  0  0  0  0  0  0  0  0  0  0
    3.8638   -3.0637    4.2529 H   0  0  0  0  0  0  0  0  0  0  0  0
    2.7775   -4.7478    3.5982 H   0  0  0  0  0  0  0  0  0  0  0  0
    3.4086    1.6154    3.8945 H   0  0  0  0  0  0  0  0  0  0  0  0
    5.8369    1.4291    5.3140 H   0  0  0  0  0  0  0  0  0  0  0  0
    5.8193   -1.3590    4.5388 H   0  0  0  0  0  0  0  0  0  0  0  0
    4.5042   -0.6561    6.8971 H   0  0  0  0  0  0  0  0  0  0  0  0
    2.6670   -1.9939    5.8321 H   0  0  0  0  0  0  0  0  0  0  0  0
    2.0171    0.7171    5.7479 H   0  0  0  0  0  0  0  0  0  0  0  0
  1  2  2  0
  1 36  1  0
  1 37  1  0
  3  2  1  1
  2 38  1  0
  3 27  1  0
  3 34  1  0
  3  4  1  0
  4  5  2  0
  4  6  1  0
  7  6  1  6
  6 39  1  0
  6 40  1  0
  7 24  1  0
  7  8  1  0
  7 29  1  0
  8  9  1  0
  8 10  1  0
  8 41  1  6
  9 42  1  0
 10 11  1  0
 10 43  1  0
 10 44  1  0
 11 15  1  0
 11 12  1  0
 11 45  1  1
 12 13  1  0
 12 46  1  0
 12 47  1  0
 13 14  1  0
 14 15  1  0
 14 48  1  0
 14 49  1  0
 15 16  1  6
 15 17  1  0
 16 50  1  0
 17 18  1  0
 17 19  1  0
 17 51  1  1
 18 52  1  0
 19 25  1  0
 19 20  1  6
 19 21  1  0
 20 53  1  0
 21 22  1  0
 21 23  1  0
 21 54  1  1
 22 55  1  0
 22 56  1  0
 22 57  1  0
 23 24  1  0
 23 58  1  0
 23 59  1  0
 24 25  1  0
 24 60  1  1
 25 26  1  0
 25 61  1  1
 26 27  1  0
 27 28  2  0
 29 32  1  0
 29 30  1  6
 29 34  1  0
 30 31  2  0
 30 62  1  0
 31 32  1  0
 31 63  1  0
 32 33  1  0
 32 64  1  6
 33 65  1  0
 34 35  1  0
 34 66  1  1
 35 67  1  0
M  END
>  <i_m_ct_stereo_status>  (349) 
1

>  <s_m_source_file>  (349) 
/var/tmp/pbs.5076255.sched01/tmpfn0mpy04/132vsilkqhl.sdf

>  <i_m_source_file_index>  (349) 
21

>  <i_lp_mmshare_version>  (349) 
48012

>  <i_f3d_flags>  (349) 
2

>  <s_epik_input>  (349) 
W09IXVtDQEBIXTFbQ0hdPVtDSF1bQ0BdMShbQ0BAXTIzNClbQ0BASF0oW09IXSlbQ0BAXShbQ0hdPVtDSDJdKShDKD1PKVtDSDJdMilDKD1PKU9bQ0hdNVtDQEBdKFtPSF0pKFtDQEBIXShbQ0gzXSlbQ0gyXVtDQEBIXTQ1KVtDQEhdKFtPSF0pW0NAXTYoW09IXSlbQ0BIXShbQ0gyXVtDQEBIXTNbT0hdKVtDSDJdT1tDSDJdNg==

>  <s_epik_cmdline>  (349) 
J2VwaWtfcHl0aG9uJywgJy1waHQnLCAnMi4wJywgJy1waCcsICc3LjAnLCAnLXRuJywgJzgnLCAnLW1hJywgJzIwMCcsICctaW1hZScsICc8aW5maWxlLm1hZT4nLCAnLW9tYWUnLCAnPG91dGZpbGUubWFlPic=

>  <r_lp_tautomer_probability>  (349) 
1

>  <r_epik_Ionization_Penalty>  (349) 
1.58687e-06

>  <r_epik_Ionization_Penalty_Charging>  (349) 
0

>  <r_epik_Ionization_Penalty_Neutral>  (349) 
1.58687e-06

>  <r_epik_State_Penalty>  (349) 
-0

>  <r_epik_Charging_Adjusted_Penalty>  (349) 
0

>  <i_epik_Tot_Q>  (349) 
0

>  <i_epik_Tot_abs_Q>  (349) 
0

>  <s_epik_Chemistry_Notes>  (349) 
This compound has an ester and may undergo hydrolysis at high or low pH.

>  <s_lp_Force_Field>  (349) 
OPLS3e

>  <r_lp_Energy>  (349) 
121.822

>  <b_lp_Chiralities_Consistent>  (349) 
0

>  <s_lp_Variant>  (349) 
95:0-1

>  <s_i_glide_gridfile>  (349) 
pfpi4k_grid

>  <i_i_glide_lignum>  (349) 
21

>  <i_i_glide_rotatable_bonds>  (349) 
7

>  <r_i_docking_score>  (349) 
-3.29197

>  <r_i_glide_ligand_efficiency>  (349) 
-0.0940563

>  <r_i_glide_ligand_efficiency_sa>  (349) 
-0.307664

>  <r_i_glide_ligand_efficiency_ln>  (349) 
-0.72266

>  <r_i_glide_gscore>  (349) 
-3.29197

>  <r_i_glide_lipo>  (349) 
-0.368465

>  <r_i_glide_hbond>  (349) 
0

>  <r_i_glide_metal>  (349) 
-0

>  <r_i_glide_rewards>  (349) 
-0.0900248

>  <r_i_glide_evdw>  (349) 
-28.0083

>  <r_i_glide_ecoul>  (349) 
-9.99611

>  <r_i_glide_erotb>  (349) 
0.083955

>  <r_i_glide_esite>  (349) 
-0.017601

>  <r_i_glide_emodel>  (349) 
-46.2819

>  <r_i_glide_energy>  (349) 
-38.0044

>  <r_i_glide_einternal>  (349) 
1.0865

>  <r_i_glide_intrahb_reward>  (349) 
-0

>  <i_i_glide_confnum>  (349) 
3

>  <i_i_glide_posenum>  (349) 
24

>  <r_i_glide_eff_state_penalty>  (349) 
0

>  <ligand_id>  (349) 
95

>  <original_smiles>  (349) 
C=CC12C(=O)CC3(C(O)CC4COCC4(O)C(O)C4(O)C(C)CC3C4OC1=O)C1(C=CC1O)C2O

>  <smiles>  (349) 
[H]OC1([H])C([H])=C([H])C12C([H])(O[H])C1(C([H])=C([H])[H])C(=O)OC3([H])C4([H])C([H])([H])C([H])(C([H])([H])[H])C3(O[H])C([H])(O[H])C3(O[H])C([H])([H])OC([H])([H])C3([H])C([H])([H])C([H])(O[H])C42C([H])([H])C1=O

$$$$
96:0:0
     RDKit          3D

 87 95  0  0  1  0  0  0  0  0999 V2000
    5.4124   -9.3074    0.9921 C   0  0  0  0  0  0  0  0  0  0  0  0
    5.2705   -8.6658    2.3864 C   0  0  2  0  0  0  0  0  0  0  0  0
    3.9943   -9.3127    3.1852 C   0  0  1  0  0  0  0  0  0  0  0  0
    4.2743   -9.6030    4.6509 C   0  0  0  0  0  0  0  0  0  0  0  0
    3.2117   -9.4074    5.4326 C   0  0  0  0  0  0  0  0  0  0  0  0
    3.0961   -9.4001    6.9444 C   0  0  0  0  0  0  0  0  0  0  0  0
    2.4167   -8.2148    7.3542 O   0  0  0  0  0  0  0  0  0  0  0  0
    1.1967   -8.0141    6.6964 C   0  0  1  0  0  0  0  0  0  0  0  0
    0.5805   -6.7216    7.2153 C   0  0  0  0  0  0  0  0  0  0  0  0
   -0.0248   -5.7893    6.3382 C   0  0  0  0  0  0  0  0  0  0  0  0
   -0.5991   -4.6028    6.8223 C   0  0  0  0  0  0  0  0  0  0  0  0
   -0.6073   -4.3473    8.2055 C   0  0  0  0  0  0  0  0  0  0  0  0
   -0.0283   -5.2715    9.0929 C   0  0  0  0  0  0  0  0  0  0  0  0
    0.5597   -6.4549    8.6030 C   0  0  0  0  0  0  0  0  0  0  0  0
    1.3811   -7.8563    5.3239 O   0  0  0  0  0  0  0  0  0  0  0  0
    1.9898   -8.9656    4.6868 C   0  0  1  0  0  0  0  0  0  0  0  0
    2.5098   -8.6551    3.2493 C   0  0  2  0  0  0  0  0  0  0  0  0
    1.5994   -9.3566    2.4019 O   0  0  0  0  0  0  0  0  0  0  0  0
    2.6458   -7.1364    2.8631 C   0  0  2  0  0  0  0  0  0  0  0  0
    2.9608   -7.4753    1.5227 O   0  0  0  0  0  0  0  0  0  0  0  0
    3.6631   -6.5131    3.9167 C   0  0  0  0  0  0  0  0  0  0  0  0
    5.1736   -6.5828    3.7077 C   0  0  0  0  0  0  0  0  0  0  0  0
    5.5007   -7.0909    2.3579 C   0  0  1  0  0  0  0  0  0  0  0  0
    6.7236   -6.4527    1.7245 C   0  0  0  0  0  0  0  0  0  0  0  0
    7.9371   -6.2797    1.7206 O   0  0  0  0  0  0  0  0  0  0  0  0
    5.3873   -6.1635    1.0898 C   0  0  2  0  0  0  0  0  0  0  0  0
    4.7433   -4.7147    0.9288 C   0  0  1  0  0  0  0  0  0  0  0  0
    5.1396   -4.2181   -0.4816 C   0  0  0  0  0  0  0  0  0  0  0  0
    3.2261   -4.9174    0.9063 C   0  0  0  0  0  0  0  0  0  0  0  0
    2.4154   -4.7337    1.9790 C   0  0  0  0  0  0  0  0  0  0  0  0
    2.7444   -3.5826    2.8086 C   0  0  0  0  0  0  0  0  0  0  0  0
    1.7702   -2.7671    3.2531 C   0  0  0  0  0  0  0  0  0  0  0  0
    2.1499   -1.4330    3.8503 C   0  0  1  0  0  0  0  0  0  0  0  0
    1.3102   -0.7201    4.8946 C   0  0  0  0  0  0  0  0  0  0  0  0
    2.3470    0.3354    5.3790 C   0  0  0  0  0  0  0  0  0  0  0  0
    2.1464    1.7015    4.6982 C   0  0  0  0  0  0  0  0  0  0  0  0
    2.3687    0.4938    6.9094 C   0  0  0  0  0  0  0  0  0  0  0  0
    3.6343   -0.1624    4.9545 O   0  0  0  0  0  0  0  0  0  0  0  0
    3.4985   -1.4841    4.5356 C   0  0  1  0  0  0  0  0  0  0  0  0
    3.4859   -2.3578    5.6498 O   0  0  0  0  0  0  0  0  0  0  0  0
    4.4182   -1.8902    3.5600 O   0  0  0  0  0  0  0  0  0  0  0  0
    4.2184   -3.2482    3.1049 C   0  0  2  0  0  0  0  0  0  0  0  0
    5.1700   -3.5793    1.9270 C   0  0  0  0  0  0  0  0  0  0  0  0
    1.6111   -5.9630    2.5500 C   0  0  1  0  0  0  0  0  0  0  0  0
    0.5499   -6.3427    1.6852 O   0  0  0  0  0  0  0  0  0  0  0  0
    4.5953   -9.0452    0.3216 H   0  0  0  0  0  0  0  0  0  0  0  0
    5.4163  -10.3931    1.0716 H   0  0  0  0  0  0  0  0  0  0  0  0
    6.3506   -9.0399    0.5055 H   0  0  0  0  0  0  0  0  0  0  0  0
    6.1479   -9.0487    2.9154 H   0  0  0  0  0  0  0  0  0  0  0  0
    3.8765  -10.3224    2.7903 H   0  0  0  0  0  0  0  0  0  0  0  0
    5.2498   -9.8951    5.0103 H   0  0  0  0  0  0  0  0  0  0  0  0
    2.5120  -10.2632    7.2615 H   0  0  0  0  0  0  0  0  0  0  0  0
    4.0781   -9.4624    7.4216 H   0  0  0  0  0  0  0  0  0  0  0  0
    0.5365   -8.8629    6.8801 H   0  0  0  0  0  0  0  0  0  0  0  0
   -0.0618   -5.9728    5.2771 H   0  0  0  0  0  0  0  0  0  0  0  0
   -1.0354   -3.9015    6.1297 H   0  0  0  0  0  0  0  0  0  0  0  0
   -1.0468   -3.4447    8.5869 H   0  0  0  0  0  0  0  0  0  0  0  0
   -0.0344   -5.0698   10.1537 H   0  0  0  0  0  0  0  0  0  0  0  0
    0.9998   -7.1615    9.2909 H   0  0  0  0  0  0  0  0  0  0  0  0
    1.3065   -9.8180    4.7090 H   0  0  0  0  0  0  0  0  0  0  0  0
    1.5971  -10.2694    2.6498 H   0  0  0  0  0  0  0  0  0  0  0  0
    3.6160   -8.1590    1.5507 H   0  0  0  0  0  0  0  0  0  0  0  0
    3.3705   -5.5239    4.2231 H   0  0  0  0  0  0  0  0  0  0  0  0
    3.5250   -6.9481    4.8974 H   0  0  0  0  0  0  0  0  0  0  0  0
    5.6441   -5.6166    3.8480 H   0  0  0  0  0  0  0  0  0  0  0  0
    5.6417   -7.2264    4.4557 H   0  0  0  0  0  0  0  0  0  0  0  0
    5.1634   -6.7140    0.1798 H   0  0  0  0  0  0  0  0  0  0  0  0
    6.2151   -4.0386   -0.5519 H   0  0  0  0  0  0  0  0  0  0  0  0
    4.6296   -3.2849   -0.7347 H   0  0  0  0  0  0  0  0  0  0  0  0
    4.8755   -4.9392   -1.2592 H   0  0  0  0  0  0  0  0  0  0  0  0
    2.9734   -5.6748    0.1801 H   0  0  0  0  0  0  0  0  0  0  0  0
    0.7280   -2.9461    3.0277 H   0  0  0  0  0  0  0  0  0  0  0  0
    2.2390   -0.7603    2.9927 H   0  0  0  0  0  0  0  0  0  0  0  0
    0.4023   -0.2738    4.4844 H   0  0  0  0  0  0  0  0  0  0  0  0
    1.0118   -1.3974    5.6960 H   0  0  0  0  0  0  0  0  0  0  0  0
    1.1941    2.1520    4.9758 H   0  0  0  0  0  0  0  0  0  0  0  0
    2.1664    1.6196    3.6106 H   0  0  0  0  0  0  0  0  0  0  0  0
    2.9324    2.4000    4.9842 H   0  0  0  0  0  0  0  0  0  0  0  0
    1.4274    0.8857    7.2904 H   0  0  0  0  0  0  0  0  0  0  0  0
    3.1561    1.1829    7.2107 H   0  0  0  0  0  0  0  0  0  0  0  0
    2.5603   -0.4554    7.4091 H   0  0  0  0  0  0  0  0  0  0  0  0
    4.3360   -2.3075    6.0600 H   0  0  0  0  0  0  0  0  0  0  0  0
    4.5330   -3.8432    3.9517 H   0  0  0  0  0  0  0  0  0  0  0  0
    6.1888   -3.7312    2.2839 H   0  0  0  0  0  0  0  0  0  0  0  0
    5.2197   -2.6480    1.3606 H   0  0  0  0  0  0  0  0  0  0  0  0
    1.1487   -5.6546    3.4850 H   0  0  0  0  0  0  0  0  0  0  0  0
    0.7169   -7.2511    1.4574 H   0  0  0  0  0  0  0  0  0  0  0  0
  1  2  1  0
  1 46  1  0
  1 47  1  0
  1 48  1  0
  2 23  1  0
  2  3  1  0
  2 49  1  1
  3 17  1  0
  3  4  1  0
  3 50  1  6
  4  5  2  0
  4 51  1  0
  5 16  1  0
  5  6  1  0
  6  7  1  0
  6 52  1  0
  6 53  1  0
  7  8  1  0
  8  9  1  0
  8 15  1  0
  8 54  1  6
  9 14  1  0
  9 10  2  0
 10 11  1  0
 10 55  1  0
 11 12  2  0
 11 56  1  0
 12 13  1  0
 12 57  1  0
 13 14  2  0
 13 58  1  0
 14 59  1  0
 15 16  1  0
 16 17  1  0
 16 60  1  6
 17 18  1  6
 17 19  1  0
 18 61  1  0
 19 44  1  0
 19 20  1  6
 19 21  1  0
 20 62  1  0
 21 22  1  0
 21 63  1  0
 21 64  1  0
 22 23  1  0
 22 65  1  0
 22 66  1  0
 23 26  1  0
 23 24  1  1
 24 25  2  0
 24 26  1  0
 26 27  1  0
 26 67  1  6
 27 43  1  0
 27 28  1  6
 27 29  1  0
 28 68  1  0
 28 69  1  0
 28 70  1  0
 29 30  2  0
 29 71  1  0
 30 31  1  0
 30 44  1  0
 31 42  1  0
 31 32  2  0
 32 33  1  0
 32 72  1  0
 33 39  1  0
 33 34  1  0
 33 73  1  6
 34 35  1  0
 34 74  1  0
 34 75  1  0
 35 36  1  0
 35 37  1  0
 35 38  1  0
 36 76  1  0
 36 77  1  0
 36 78  1  0
 37 79  1  0
 37 80  1  0
 37 81  1  0
 38 39  1  0
 39 40  1  1
 39 41  1  0
 40 82  1  0
 41 42  1  0
 42 43  1  0
 42 83  1  1
 43 84  1  0
 43 85  1  0
 44 45  1  0
 44 86  1  1
 45 87  1  0
M  END
>  <i_m_ct_stereo_status>  (350) 
1

>  <s_m_source_file>  (350) 
/var/tmp/pbs.5076255.sched01/tmpfn0mpy04/132vsilkqhl.sdf

>  <i_m_source_file_index>  (350) 
22

>  <i_lp_mmshare_version>  (350) 
48012

>  <i_f3d_flags>  (350) 
0

>  <s_epik_input>  (350) 
W2NIXTFbY0hdW2NIXVtjSF1bY0hdYzFbQ0BIXShPW0NIMl0yKU9bQ0BASF0zQzI9W0NIXVtDQEhdKFtDQEhdNFtDSDNdKVtDQF0zKFtPSF0pW0NAXShbT0hdKShbQ0gyXVtDSDJdNSlbQ0BIXShbT0hdKUMoPVtDSF1bQ0BdNihbQ0gzXSlbQ0hdKEM0NTcpQzc9TylDPThbQ0BASF0oW0NIMl02KU9bQ0BdOShbT0hdKVtDQEBIXShbQ0hdOClbQ0gyXUMoTzkpKFtDSDNdKVtDSDNd

>  <s_epik_cmdline>  (350) 
J2VwaWtfcHl0aG9uJywgJy1waHQnLCAnMi4wJywgJy1waCcsICc3LjAnLCAnLXRuJywgJzgnLCAnLW1hJywgJzIwMCcsICctaW1hZScsICc8aW5maWxlLm1hZT4nLCAnLW9tYWUnLCAnPG91dGZpbGUubWFlPic=

>  <r_lp_tautomer_probability>  (350) 
1

>  <r_epik_Ionization_Penalty>  (350) 
4.059e-05

>  <r_epik_Ionization_Penalty_Charging>  (350) 
0

>  <r_epik_Ionization_Penalty_Neutral>  (350) 
4.059e-05

>  <r_epik_State_Penalty>  (350) 
-0

>  <r_epik_Charging_Adjusted_Penalty>  (350) 
0

>  <i_epik_Tot_Q>  (350) 
0

>  <i_epik_Tot_abs_Q>  (350) 
0

>  <s_epik_Chemistry_Notes>  (350) 
This compound contains an acetal/aminal-like group ( X-CH(R)-Y where X, Y are N, S, or O) that may be acid/base labile, releasing an aldehyde.

>  <s_lp_Force_Field>  (350) 
OPLS3e

>  <r_lp_Energy>  (350) 
163.07

>  <b_lp_Chiralities_Consistent>  (350) 
1

>  <s_lp_Variant>  (350) 
96:0-1

>  <s_i_glide_gridfile>  (350) 
pfpi4k_grid

>  <i_i_glide_lignum>  (350) 
22

>  <i_i_glide_rotatable_bonds>  (350) 
5

>  <r_i_docking_score>  (350) 
-3.2033

>  <r_i_glide_ligand_efficiency>  (350) 
-0.0711844

>  <r_i_glide_ligand_efficiency_sa>  (350) 
-0.253195

>  <r_i_glide_ligand_efficiency_ln>  (350) 
-0.666429

>  <r_i_glide_gscore>  (350) 
-3.2033

>  <r_i_glide_lipo>  (350) 
-0.278041

>  <r_i_glide_hbond>  (350) 
0

>  <r_i_glide_metal>  (350) 
-0

>  <r_i_glide_rewards>  (350) 
-0.59469

>  <r_i_glide_evdw>  (350) 
-33.5815

>  <r_i_glide_ecoul>  (350) 
-4.58857

>  <r_i_glide_erotb>  (350) 
0.0550961

>  <r_i_glide_esite>  (350) 
-0.0183028

>  <r_i_glide_emodel>  (350) 
-50.2769

>  <r_i_glide_energy>  (350) 
-38.1701

>  <r_i_glide_einternal>  (350) 
1.75373

>  <r_i_glide_intrahb_reward>  (350) 
-0.5

>  <i_i_glide_confnum>  (350) 
6

>  <i_i_glide_posenum>  (350) 
26

>  <r_i_glide_eff_state_penalty>  (350) 
0

>  <ligand_id>  (350) 
96

>  <original_smiles>  (350) 
CC1C2C=C3COC(c4ccccc4)OC3C2(O)C2(O)CCC13C(=O)C3C1(C)C=C(C3=CC4CC(C)(C)OC4(O)OC3C1)C2O

>  <smiles>  (350) 
[H]OC12OC3([H])C(=C([H])C1([H])C([H])([H])C(C([H])([H])[H])(C([H])([H])[H])O2)C1=C([H])C(C([H])([H])[H])(C3([H])[H])C2([H])C(=O)C23C([H])([H])C([H])([H])C(O[H])(C1([H])O[H])C1(O[H])C2([H])OC([H])(c4c([H])c([H])c([H])c([H])c4[H])OC([H])([H])C2=C([H])C1([H])C3([H])C([H])([H])[H]

$$$$
96:0:1
     RDKit          3D

 87 95  0  0  1  0  0  0  0  0999 V2000
    3.7263    0.0135    0.9912 C   0  0  0  0  0  0  0  0  0  0  0  0
    4.6698   -0.9498    1.7322 C   0  0  2  0  0  0  0  0  0  0  0  0
    5.3001   -2.0379    0.6822 C   0  0  1  0  0  0  0  0  0  0  0  0
    6.7809   -2.2912    0.8809 C   0  0  0  0  0  0  0  0  0  0  0  0
    7.1339   -3.5556    0.6444 C   0  0  0  0  0  0  0  0  0  0  0  0
    8.4451   -4.2673    0.8976 C   0  0  0  0  0  0  0  0  0  0  0  0
    8.1743   -5.4605    1.6241 O   0  0  0  0  0  0  0  0  0  0  0  0
    7.2237   -6.2809    1.0089 C   0  0  1  0  0  0  0  0  0  0  0  0
    7.0160   -7.5499    1.8206 C   0  0  0  0  0  0  0  0  0  0  0  0
    7.8486   -7.8609    2.9166 C   0  0  0  0  0  0  0  0  0  0  0  0
    7.6572   -9.0440    3.6522 C   0  0  0  0  0  0  0  0  0  0  0  0
    6.6368   -9.9440    3.2891 C   0  0  0  0  0  0  0  0  0  0  0  0
    5.8070   -9.6564    2.1899 C   0  0  0  0  0  0  0  0  0  0  0  0
    5.9960   -8.4643    1.4612 C   0  0  0  0  0  0  0  0  0  0  0  0
    5.9784   -5.6556    0.9215 O   0  0  0  0  0  0  0  0  0  0  0  0
    5.9874   -4.4207    0.2158 C   0  0  1  0  0  0  0  0  0  0  0  0
    4.7236   -3.5375    0.4481 C   0  0  2  0  0  0  0  0  0  0  0  0
    3.9991   -3.6223   -0.7853 O   0  0  0  0  0  0  0  0  0  0  0  0
    3.8304   -3.9143    1.6779 C   0  0  2  0  0  0  0  0  0  0  0  0
    2.8653   -2.9614    1.2618 O   0  0  0  0  0  0  0  0  0  0  0  0
    4.7788   -3.7950    2.9493 C   0  0  0  0  0  0  0  0  0  0  0  0
    4.9873   -2.4613    3.6521 C   0  0  0  0  0  0  0  0  0  0  0  0
    4.0776   -1.4245    3.1306 C   0  0  1  0  0  0  0  0  0  0  0  0
    3.5864   -0.4430    4.1742 C   0  0  0  0  0  0  0  0  0  0  0  0
    3.8301    0.4629    4.9640 O   0  0  0  0  0  0  0  0  0  0  0  0
    2.5696   -1.3793    3.5673 C   0  0  2  0  0  0  0  0  0  0  0  0
    1.7103   -2.4492    4.3765 C   0  0  1  0  0  0  0  0  0  0  0  0
    0.3593   -1.7644    4.6920 C   0  0  0  0  0  0  0  0  0  0  0  0
    1.4148   -3.5760    3.3896 C   0  0  0  0  0  0  0  0  0  0  0  0
    2.0665   -4.7608    3.3250 C   0  0  0  0  0  0  0  0  0  0  0  0
    2.4308   -5.3260    4.6166 C   0  0  0  0  0  0  0  0  0  0  0  0
    2.2607   -6.6396    4.8505 C   0  0  0  0  0  0  0  0  0  0  0  0
    2.3660   -7.1431    6.2719 C   0  0  1  0  0  0  0  0  0  0  0  0
    2.8057   -8.5522    6.6213 C   0  0  0  0  0  0  0  0  0  0  0  0
    3.0808   -8.3616    8.1408 C   0  0  0  0  0  0  0  0  0  0  0  0
    1.8947   -8.8222    9.0068 C   0  0  0  0  0  0  0  0  0  0  0  0
    4.3807   -9.0432    8.6030 C   0  0  0  0  0  0  0  0  0  0  0  0
    3.2171   -6.9375    8.3370 O   0  0  0  0  0  0  0  0  0  0  0  0
    3.3308   -6.3162    7.0958 C   0  0  1  0  0  0  0  0  0  0  0  0
    4.6568   -6.4104    6.6086 O   0  0  0  0  0  0  0  0  0  0  0  0
    2.8489   -4.9996    7.0539 O   0  0  0  0  0  0  0  0  0  0  0  0
    2.9290   -4.3981    5.7413 C   0  0  2  0  0  0  0  0  0  0  0  0
    2.2566   -3.0012    5.7394 C   0  0  0  0  0  0  0  0  0  0  0  0
    2.8466   -5.1259    2.0041 C   0  0  1  0  0  0  0  0  0  0  0  0
    1.9520   -5.4596    0.9478 O   0  0  0  0  0  0  0  0  0  0  0  0
    2.8334   -0.4863    0.6218 H   0  0  0  0  0  0  0  0  0  0  0  0
    4.2287    0.4426    0.1266 H   0  0  0  0  0  0  0  0  0  0  0  0
    3.4086    0.8429    1.6203 H   0  0  0  0  0  0  0  0  0  0  0  0
    5.5125   -0.3038    2.0008 H   0  0  0  0  0  0  0  0  0  0  0  0
    5.3049   -1.5533   -0.2922 H   0  0  0  0  0  0  0  0  0  0  0  0
    7.4529   -1.5244    1.2394 H   0  0  0  0  0  0  0  0  0  0  0  0
    8.9220   -4.5119   -0.0543 H   0  0  0  0  0  0  0  0  0  0  0  0
    9.1407   -3.6476    1.4668 H   0  0  0  0  0  0  0  0  0  0  0  0
    7.6026   -6.5314    0.0248 H   0  0  0  0  0  0  0  0  0  0  0  0
    8.6517   -7.1985    3.1994 H   0  0  0  0  0  0  0  0  0  0  0  0
    8.3066   -9.2580    4.4865 H   0  0  0  0  0  0  0  0  0  0  0  0
    6.4939  -10.8521    3.8534 H   0  0  0  0  0  0  0  0  0  0  0  0
    5.0283  -10.3504    1.9033 H   0  0  0  0  0  0  0  0  0  0  0  0
    5.3523   -8.2603    0.6182 H   0  0  0  0  0  0  0  0  0  0  0  0
    6.1549   -4.6115   -0.8422 H   0  0  0  0  0  0  0  0  0  0  0  0
    3.8701   -4.5371   -0.9952 H   0  0  0  0  0  0  0  0  0  0  0  0
    2.7801   -3.0712    0.3183 H   0  0  0  0  0  0  0  0  0  0  0  0
    4.5976   -4.5795    3.6638 H   0  0  0  0  0  0  0  0  0  0  0  0
    5.7843   -4.1219    2.7198 H   0  0  0  0  0  0  0  0  0  0  0  0
    4.8669   -2.5444    4.7254 H   0  0  0  0  0  0  0  0  0  0  0  0
    6.0058   -2.1141    3.4985 H   0  0  0  0  0  0  0  0  0  0  0  0
    1.9263   -0.9579    2.7991 H   0  0  0  0  0  0  0  0  0  0  0  0
    0.4923   -0.9418    5.3982 H   0  0  0  0  0  0  0  0  0  0  0  0
   -0.3567   -2.4645    5.1289 H   0  0  0  0  0  0  0  0  0  0  0  0
   -0.1121   -1.3499    3.7964 H   0  0  0  0  0  0  0  0  0  0  0  0
    1.0281   -3.1437    2.4838 H   0  0  0  0  0  0  0  0  0  0  0  0
    1.8739   -7.3133    4.0975 H   0  0  0  0  0  0  0  0  0  0  0  0
    1.3667   -6.9997    6.6915 H   0  0  0  0  0  0  0  0  0  0  0  0
    2.0441   -9.3067    6.4136 H   0  0  0  0  0  0  0  0  0  0  0  0
    3.7062   -8.8354    6.0743 H   0  0  0  0  0  0  0  0  0  0  0  0
    1.7306   -9.8964    8.9155 H   0  0  0  0  0  0  0  0  0  0  0  0
    0.9696   -8.3212    8.7211 H   0  0  0  0  0  0  0  0  0  0  0  0
    2.0748   -8.6064   10.0596 H   0  0  0  0  0  0  0  0  0  0  0  0
    4.3289  -10.1264    8.4938 H   0  0  0  0  0  0  0  0  0  0  0  0
    4.5749   -8.8260    9.6524 H   0  0  0  0  0  0  0  0  0  0  0  0
    5.2412   -8.6923    8.0347 H   0  0  0  0  0  0  0  0  0  0  0  0
    5.2162   -5.9386    7.2083 H   0  0  0  0  0  0  0  0  0  0  0  0
    3.9896   -4.2407    5.6013 H   0  0  0  0  0  0  0  0  0  0  0  0
    2.8859   -2.2626    6.2351 H   0  0  0  0  0  0  0  0  0  0  0  0
    1.4013   -3.1181    6.4068 H   0  0  0  0  0  0  0  0  0  0  0  0
    3.4469   -6.0176    2.1904 H   0  0  0  0  0  0  0  0  0  0  0  0
    2.4651   -5.7415    0.2032 H   0  0  0  0  0  0  0  0  0  0  0  0
  1  2  1  0
  1 46  1  0
  1 47  1  0
  1 48  1  0
  2 23  1  0
  2  3  1  0
  2 49  1  1
  3 17  1  0
  3  4  1  0
  3 50  1  6
  4  5  2  0
  4 51  1  0
  5 16  1  0
  5  6  1  0
  6  7  1  0
  6 52  1  0
  6 53  1  0
  7  8  1  0
  8  9  1  0
  8 15  1  0
  8 54  1  6
  9 14  1  0
  9 10  2  0
 10 11  1  0
 10 55  1  0
 11 12  2  0
 11 56  1  0
 12 13  1  0
 12 57  1  0
 13 14  2  0
 13 58  1  0
 14 59  1  0
 15 16  1  0
 16 17  1  0
 16 60  1  6
 17 18  1  6
 17 19  1  0
 18 61  1  0
 19 44  1  0
 19 20  1  1
 19 21  1  0
 20 62  1  0
 21 22  1  0
 21 63  1  0
 21 64  1  0
 22 23  1  0
 22 65  1  0
 22 66  1  0
 23 26  1  0
 23 24  1  1
 24 25  2  0
 24 26  1  0
 26 27  1  0
 26 67  1  6
 27 43  1  0
 27 28  1  1
 27 29  1  0
 28 68  1  0
 28 69  1  0
 28 70  1  0
 29 30  2  0
 29 71  1  0
 30 31  1  0
 30 44  1  0
 31 42  1  0
 31 32  2  0
 32 33  1  0
 32 72  1  0
 33 39  1  0
 33 34  1  0
 33 73  1  1
 34 35  1  0
 34 74  1  0
 34 75  1  0
 35 36  1  0
 35 37  1  0
 35 38  1  0
 36 76  1  0
 36 77  1  0
 36 78  1  0
 37 79  1  0
 37 80  1  0
 37 81  1  0
 38 39  1  0
 39 40  1  6
 39 41  1  0
 40 82  1  0
 41 42  1  0
 42 43  1  0
 42 83  1  6
 43 84  1  0
 43 85  1  0
 44 45  1  0
 44 86  1  1
 45 87  1  0
M  END
>  <i_m_ct_stereo_status>  (351) 
1

>  <s_m_source_file>  (351) 
/var/tmp/pbs.5076255.sched01/tmpfn0mpy04/132vsilkqhl.sdf

>  <i_m_source_file_index>  (351) 
22

>  <i_lp_mmshare_version>  (351) 
48012

>  <i_f3d_flags>  (351) 
0

>  <s_epik_input>  (351) 
W2NIXTFbY0hdW2NIXVtjSF1bY0hdYzFbQ0BIXShPW0NIMl0yKU9bQ0BASF0zQzI9W0NIXVtDQEhdKFtDQEhdNFtDSDNdKVtDQF0zKFtPSF0pW0NAXShbT0hdKShbQ0gyXVtDSDJdNSlbQ0BIXShbT0hdKUMoPVtDSF1bQ0BdNihbQ0gzXSlbQ0hdKEM0NTcpQzc9TylDPThbQ0BASF0oW0NIMl02KU9bQ0BdOShbT0hdKVtDQEBIXShbQ0hdOClbQ0gyXUMoTzkpKFtDSDNdKVtDSDNd

>  <s_epik_cmdline>  (351) 
J2VwaWtfcHl0aG9uJywgJy1waHQnLCAnMi4wJywgJy1waCcsICc3LjAnLCAnLXRuJywgJzgnLCAnLW1hJywgJzIwMCcsICctaW1hZScsICc8aW5maWxlLm1hZT4nLCAnLW9tYWUnLCAnPG91dGZpbGUubWFlPic=

>  <r_lp_tautomer_probability>  (351) 
1

>  <r_epik_Ionization_Penalty>  (351) 
4.059e-05

>  <r_epik_Ionization_Penalty_Charging>  (351) 
0

>  <r_epik_Ionization_Penalty_Neutral>  (351) 
4.059e-05

>  <r_epik_State_Penalty>  (351) 
-0

>  <r_epik_Charging_Adjusted_Penalty>  (351) 
0

>  <i_epik_Tot_Q>  (351) 
0

>  <i_epik_Tot_abs_Q>  (351) 
0

>  <s_epik_Chemistry_Notes>  (351) 
This compound contains an acetal/aminal-like group ( X-CH(R)-Y where X, Y are N, S, or O) that may be acid/base labile, releasing an aldehyde.

>  <s_lp_Force_Field>  (351) 
OPLS3e

>  <r_lp_Energy>  (351) 
163.07

>  <b_lp_Chiralities_Consistent>  (351) 
1

>  <s_lp_Variant>  (351) 
96:0-1

>  <s_i_glide_gridfile>  (351) 
pfpi4k_grid

>  <i_i_glide_lignum>  (351) 
22

>  <i_i_glide_rotatable_bonds>  (351) 
5

>  <r_i_docking_score>  (351) 
-2.95815

>  <r_i_glide_ligand_efficiency>  (351) 
-0.0657366

>  <r_i_glide_ligand_efficiency_sa>  (351) 
-0.233818

>  <r_i_glide_ligand_efficiency_ln>  (351) 
-0.615427

>  <r_i_glide_gscore>  (351) 
-2.95815

>  <r_i_glide_lipo>  (351) 
-0.818827

>  <r_i_glide_hbond>  (351) 
0

>  <r_i_glide_metal>  (351) 
-0

>  <r_i_glide_rewards>  (351) 
-0.0611822

>  <r_i_glide_evdw>  (351) 
-32.4459

>  <r_i_glide_ecoul>  (351) 
-3.40626

>  <r_i_glide_erotb>  (351) 
0.0550961

>  <r_i_glide_esite>  (351) 
0

>  <r_i_glide_emodel>  (351) 
-42.2407

>  <r_i_glide_energy>  (351) 
-35.8522

>  <r_i_glide_einternal>  (351) 
1.3727

>  <r_i_glide_intrahb_reward>  (351) 
-0

>  <i_i_glide_confnum>  (351) 
1

>  <i_i_glide_posenum>  (351) 
2

>  <r_i_glide_eff_state_penalty>  (351) 
0

>  <ligand_id>  (351) 
96

>  <original_smiles>  (351) 
CC1C2C=C3COC(c4ccccc4)OC3C2(O)C2(O)CCC13C(=O)C3C1(C)C=C(C3=CC4CC(C)(C)OC4(O)OC3C1)C2O

>  <smiles>  (351) 
[H]OC12OC3([H])C(=C([H])C1([H])C([H])([H])C(C([H])([H])[H])(C([H])([H])[H])O2)C1=C([H])C(C([H])([H])[H])(C3([H])[H])C2([H])C(=O)C23C([H])([H])C([H])([H])C(O[H])(C1([H])O[H])C1(O[H])C2([H])OC([H])(c4c([H])c([H])c([H])c([H])c4[H])OC([H])([H])C2=C([H])C1([H])C3([H])C([H])([H])[H]

$$$$
96:0:2
     RDKit          3D

 87 95  0  0  1  0  0  0  0  0999 V2000
    3.1959   -0.3020    1.3845 C   0  0  0  0  0  0  0  0  0  0  0  0
    4.2152   -1.2397    2.0703 C   0  0  2  0  0  0  0  0  0  0  0  0
    4.8722   -2.2703    0.9769 C   0  0  1  0  0  0  0  0  0  0  0  0
    6.3685   -2.4591    1.1334 C   0  0  0  0  0  0  0  0  0  0  0  0
    6.7747   -3.6973    0.8440 C   0  0  0  0  0  0  0  0  0  0  0  0
    8.1210   -4.3589    1.0370 C   0  0  0  0  0  0  0  0  0  0  0  0
    7.9266   -5.5859    1.7287 O   0  0  0  0  0  0  0  0  0  0  0  0
    6.9960   -6.4286    1.1149 C   0  0  1  0  0  0  0  0  0  0  0  0
    6.8766   -7.7235    1.9036 C   0  0  0  0  0  0  0  0  0  0  0  0
    7.7630   -8.0254    2.9620 C   0  0  0  0  0  0  0  0  0  0  0  0
    7.6492   -9.2318    3.6741 C   0  0  0  0  0  0  0  0  0  0  0  0
    6.6539  -10.1653    3.3256 C   0  0  0  0  0  0  0  0  0  0  0  0
    5.7697   -9.8835    2.2679 C   0  0  0  0  0  0  0  0  0  0  0  0
    5.8804   -8.6689    1.5630 C   0  0  0  0  0  0  0  0  0  0  0  0
    5.7233   -5.8583    1.0924 O   0  0  0  0  0  0  0  0  0  0  0  0
    5.6622   -4.6070    0.4204 C   0  0  1  0  0  0  0  0  0  0  0  0
    4.3704   -3.7897    0.7116 C   0  0  2  0  0  0  0  0  0  0  0  0
    3.6698   -3.8548   -0.5302 O   0  0  0  0  0  0  0  0  0  0  0  0
    3.5270   -4.2421    1.9588 C   0  0  2  0  0  0  0  0  0  0  0  0
    2.5055   -3.3213    1.6208 O   0  0  0  0  0  0  0  0  0  0  0  0
    4.5081   -4.1068    3.2077 C   0  0  0  0  0  0  0  0  0  0  0  0
    4.6848   -2.7819    3.9448 C   0  0  0  0  0  0  0  0  0  0  0  0
    3.7043   -1.7761    3.4803 C   0  0  1  0  0  0  0  0  0  0  0  0
    3.1931   -0.8510    4.5663 C   0  0  0  0  0  0  0  0  0  0  0  0
    3.4139    0.0441    5.3749 O   0  0  0  0  0  0  0  0  0  0  0  0
    2.2060   -1.8195    3.9623 C   0  0  2  0  0  0  0  0  0  0  0  0
    1.4162   -2.9477    4.7656 C   0  0  1  0  0  0  0  0  0  0  0  0
    0.0495   -2.3317    5.1478 C   0  0  0  0  0  0  0  0  0  0  0  0
    1.1268   -4.0642    3.7603 C   0  0  0  0  0  0  0  0  0  0  0  0
    1.8448   -5.2073    3.6454 C   0  0  0  0  0  0  0  0  0  0  0  0
    2.2802   -5.7882    4.9071 C   0  0  0  0  0  0  0  0  0  0  0  0
    2.1819   -7.1137    5.1101 C   0  0  0  0  0  0  0  0  0  0  0  0
    2.3606   -7.6533    6.5112 C   0  0  1  0  0  0  0  0  0  0  0  0
    2.8724   -9.0491    6.8111 C   0  0  0  0  0  0  0  0  0  0  0  0
    3.1878   -8.8846    8.3267 C   0  0  0  0  0  0  0  0  0  0  0  0
    2.0530   -9.4196    9.2192 C   0  0  0  0  0  0  0  0  0  0  0  0
    4.5324   -9.5153    8.7284 C   0  0  0  0  0  0  0  0  0  0  0  0
    3.2693   -7.4618    8.5549 O   0  0  0  0  0  0  0  0  0  0  0  0
    3.3073   -6.8054    7.3286 C   0  0  1  0  0  0  0  0  0  0  0  0
    4.6181   -6.8267    6.7982 O   0  0  0  0  0  0  0  0  0  0  0  0
    2.7674   -5.5118    7.3362 O   0  0  0  0  0  0  0  0  0  0  0  0
    2.7726   -4.8689    6.0414 C   0  0  2  0  0  0  0  0  0  0  0  0
    2.0324   -3.5083    6.0969 C   0  0  0  0  0  0  0  0  0  0  0  0
    2.6010   -5.4996    2.2938 C   0  0  1  0  0  0  0  0  0  0  0  0
    1.6858   -5.8569    1.2667 O   0  0  0  0  0  0  0  0  0  0  0  0
    2.3087   -0.8268    1.0351 H   0  0  0  0  0  0  0  0  0  0  0  0
    3.6392    0.1742    0.5106 H   0  0  0  0  0  0  0  0  0  0  0  0
    2.8676    0.4972    2.0482 H   0  0  0  0  0  0  0  0  0  0  0  0
    5.0323   -0.5590    2.3301 H   0  0  0  0  0  0  0  0  0  0  0  0
    4.8259   -1.7559    0.0184 H   0  0  0  0  0  0  0  0  0  0  0  0
    7.0109   -1.6689    1.4921 H   0  0  0  0  0  0  0  0  0  0  0  0
    8.5734   -4.5530    0.0633 H   0  0  0  0  0  0  0  0  0  0  0  0
    8.8089   -3.7327    1.6048 H   0  0  0  0  0  0  0  0  0  0  0  0
    7.3390   -6.6214    0.0987 H   0  0  0  0  0  0  0  0  0  0  0  0
    8.5480   -7.3366    3.2330 H   0  0  0  0  0  0  0  0  0  0  0  0
    8.3409   -9.4431    4.4748 H   0  0  0  0  0  0  0  0  0  0  0  0
    6.5714  -11.0947    3.8666 H   0  0  0  0  0  0  0  0  0  0  0  0
    5.0121  -10.6043    1.9922 H   0  0  0  0  0  0  0  0  0  0  0  0
    5.1960   -8.4692    0.7511 H   0  0  0  0  0  0  0  0  0  0  0  0
    5.8109   -4.7712   -0.6479 H   0  0  0  0  0  0  0  0  0  0  0  0
    3.5776   -4.7649   -0.7750 H   0  0  0  0  0  0  0  0  0  0  0  0
    2.9162   -2.4918    1.4143 H   0  0  0  0  0  0  0  0  0  0  0  0
    4.3810   -4.9123    3.9099 H   0  0  0  0  0  0  0  0  0  0  0  0
    5.5193   -4.3854    2.9434 H   0  0  0  0  0  0  0  0  0  0  0  0
    4.5899   -2.9032    5.0175 H   0  0  0  0  0  0  0  0  0  0  0  0
    5.6936   -2.3880    3.8014 H   0  0  0  0  0  0  0  0  0  0  0  0
    1.5160   -1.4019    3.2331 H   0  0  0  0  0  0  0  0  0  0  0  0
    0.1694   -1.5234    5.8722 H   0  0  0  0  0  0  0  0  0  0  0  0
   -0.6166   -3.0764    5.5898 H   0  0  0  0  0  0  0  0  0  0  0  0
   -0.4722   -1.9195    4.2797 H   0  0  0  0  0  0  0  0  0  0  0  0
    0.6747   -3.6425    2.8809 H   0  0  0  0  0  0  0  0  0  0  0  0
    1.7982   -7.7848    4.3535 H   0  0  0  0  0  0  0  0  0  0  0  0
    1.3725   -7.5658    6.9679 H   0  0  0  0  0  0  0  0  0  0  0  0
    2.1360   -9.8290    6.6103 H   0  0  0  0  0  0  0  0  0  0  0  0
    3.7622   -9.2860    6.2268 H   0  0  0  0  0  0  0  0  0  0  0  0
    1.9359  -10.4977    9.1105 H   0  0  0  0  0  0  0  0  0  0  0  0
    1.0957   -8.9588    8.9748 H   0  0  0  0  0  0  0  0  0  0  0  0
    2.2558   -9.2215   10.2712 H   0  0  0  0  0  0  0  0  0  0  0  0
    4.5275  -10.5967    8.5921 H   0  0  0  0  0  0  0  0  0  0  0  0
    4.7486   -9.3157    9.7770 H   0  0  0  0  0  0  0  0  0  0  0  0
    5.3589   -9.1085    8.1474 H   0  0  0  0  0  0  0  0  0  0  0  0
    4.7747   -7.6997    6.4714 H   0  0  0  0  0  0  0  0  0  0  0  0
    3.8200   -4.6587    5.8765 H   0  0  0  0  0  0  0  0  0  0  0  0
    2.6431   -2.7548    6.5937 H   0  0  0  0  0  0  0  0  0  0  0  0
    1.2086   -3.6838    6.7899 H   0  0  0  0  0  0  0  0  0  0  0  0
    3.2463   -6.3671    2.4429 H   0  0  0  0  0  0  0  0  0  0  0  0
    2.1904   -6.2071    0.5472 H   0  0  0  0  0  0  0  0  0  0  0  0
  1  2  1  0
  1 46  1  0
  1 47  1  0
  1 48  1  0
  2 23  1  0
  2  3  1  0
  2 49  1  1
  3 17  1  0
  3  4  1  0
  3 50  1  6
  4  5  2  0
  4 51  1  0
  5 16  1  0
  5  6  1  0
  6  7  1  0
  6 52  1  0
  6 53  1  0
  7  8  1  0
  8  9  1  0
  8 15  1  0
  8 54  1  6
  9 14  1  0
  9 10  2  0
 10 11  1  0
 10 55  1  0
 11 12  2  0
 11 56  1  0
 12 13  1  0
 12 57  1  0
 13 14  2  0
 13 58  1  0
 14 59  1  0
 15 16  1  0
 16 17  1  0
 16 60  1  6
 17 18  1  6
 17 19  1  0
 18 61  1  0
 19 44  1  0
 19 20  1  1
 19 21  1  0
 20 62  1  0
 21 22  1  0
 21 63  1  0
 21 64  1  0
 22 23  1  0
 22 65  1  0
 22 66  1  0
 23 26  1  0
 23 24  1  1
 24 25  2  0
 24 26  1  0
 26 27  1  0
 26 67  1  6
 27 43  1  0
 27 28  1  1
 27 29  1  0
 28 68  1  0
 28 69  1  0
 28 70  1  0
 29 30  2  0
 29 71  1  0
 30 31  1  0
 30 44  1  0
 31 42  1  0
 31 32  2  0
 32 33  1  0
 32 72  1  0
 33 39  1  0
 33 34  1  0
 33 73  1  1
 34 35  1  0
 34 74  1  0
 34 75  1  0
 35 36  1  0
 35 37  1  0
 35 38  1  0
 36 76  1  0
 36 77  1  0
 36 78  1  0
 37 79  1  0
 37 80  1  0
 37 81  1  0
 38 39  1  0
 39 40  1  6
 39 41  1  0
 40 82  1  0
 41 42  1  0
 42 43  1  0
 42 83  1  6
 43 84  1  0
 43 85  1  0
 44 45  1  0
 44 86  1  1
 45 87  1  0
M  END
>  <i_m_ct_stereo_status>  (352) 
1

>  <s_m_source_file>  (352) 
/var/tmp/pbs.5076255.sched01/tmpfn0mpy04/132vsilkqhl.sdf

>  <i_m_source_file_index>  (352) 
22

>  <i_lp_mmshare_version>  (352) 
48012

>  <i_f3d_flags>  (352) 
0

>  <s_epik_input>  (352) 
W2NIXTFbY0hdW2NIXVtjSF1bY0hdYzFbQ0BIXShPW0NIMl0yKU9bQ0BASF0zQzI9W0NIXVtDQEhdKFtDQEhdNFtDSDNdKVtDQF0zKFtPSF0pW0NAXShbT0hdKShbQ0gyXVtDSDJdNSlbQ0BIXShbT0hdKUMoPVtDSF1bQ0BdNihbQ0gzXSlbQ0hdKEM0NTcpQzc9TylDPThbQ0BASF0oW0NIMl02KU9bQ0BdOShbT0hdKVtDQEBIXShbQ0hdOClbQ0gyXUMoTzkpKFtDSDNdKVtDSDNd

>  <s_epik_cmdline>  (352) 
J2VwaWtfcHl0aG9uJywgJy1waHQnLCAnMi4wJywgJy1waCcsICc3LjAnLCAnLXRuJywgJzgnLCAnLW1hJywgJzIwMCcsICctaW1hZScsICc8aW5maWxlLm1hZT4nLCAnLW9tYWUnLCAnPG91dGZpbGUubWFlPic=

>  <r_lp_tautomer_probability>  (352) 
1

>  <r_epik_Ionization_Penalty>  (352) 
4.059e-05

>  <r_epik_Ionization_Penalty_Charging>  (352) 
0

>  <r_epik_Ionization_Penalty_Neutral>  (352) 
4.059e-05

>  <r_epik_State_Penalty>  (352) 
-0

>  <r_epik_Charging_Adjusted_Penalty>  (352) 
0

>  <i_epik_Tot_Q>  (352) 
0

>  <i_epik_Tot_abs_Q>  (352) 
0

>  <s_epik_Chemistry_Notes>  (352) 
This compound contains an acetal/aminal-like group ( X-CH(R)-Y where X, Y are N, S, or O) that may be acid/base labile, releasing an aldehyde.

>  <s_lp_Force_Field>  (352) 
OPLS3e

>  <r_lp_Energy>  (352) 
163.07

>  <b_lp_Chiralities_Consistent>  (352) 
1

>  <s_lp_Variant>  (352) 
96:0-1

>  <s_i_glide_gridfile>  (352) 
pfpi4k_grid

>  <i_i_glide_lignum>  (352) 
22

>  <i_i_glide_rotatable_bonds>  (352) 
5

>  <r_i_docking_score>  (352) 
-2.87064

>  <r_i_glide_ligand_efficiency>  (352) 
-0.0637921

>  <r_i_glide_ligand_efficiency_sa>  (352) 
-0.226902

>  <r_i_glide_ligand_efficiency_ln>  (352) 
-0.597222

>  <r_i_glide_gscore>  (352) 
-2.87064

>  <r_i_glide_lipo>  (352) 
-0.718909

>  <r_i_glide_hbond>  (352) 
0

>  <r_i_glide_metal>  (352) 
-0

>  <r_i_glide_rewards>  (352) 
-0.0926111

>  <r_i_glide_evdw>  (352) 
-31.8729

>  <r_i_glide_ecoul>  (352) 
-3.4705

>  <r_i_glide_erotb>  (352) 
0.0550961

>  <r_i_glide_esite>  (352) 
0

>  <r_i_glide_emodel>  (352) 
-41.1726

>  <r_i_glide_energy>  (352) 
-35.3434

>  <r_i_glide_einternal>  (352) 
2.82627

>  <r_i_glide_intrahb_reward>  (352) 
-0

>  <i_i_glide_confnum>  (352) 
1

>  <i_i_glide_posenum>  (352) 
4

>  <r_i_glide_eff_state_penalty>  (352) 
0

>  <ligand_id>  (352) 
96

>  <original_smiles>  (352) 
CC1C2C=C3COC(c4ccccc4)OC3C2(O)C2(O)CCC13C(=O)C3C1(C)C=C(C3=CC4CC(C)(C)OC4(O)OC3C1)C2O

>  <smiles>  (352) 
[H]OC12OC3([H])C(=C([H])C1([H])C([H])([H])C(C([H])([H])[H])(C([H])([H])[H])O2)C1=C([H])C(C([H])([H])[H])(C3([H])[H])C2([H])C(=O)C23C([H])([H])C([H])([H])C(O[H])(C1([H])O[H])C1(O[H])C2([H])OC([H])(c4c([H])c([H])c([H])c([H])c4[H])OC([H])([H])C2=C([H])C1([H])C3([H])C([H])([H])[H]

$$$$
96:1:0
     RDKit          3D

 87 95  0  0  1  0  0  0  0  0999 V2000
    0.4021    2.7175    8.9084 C   0  0  0  0  0  0  0  0  0  0  0  0
    1.0096    3.2269    7.5687 C   0  0  2  0  0  0  0  0  0  0  0  0
    2.5222    3.5723    7.7094 C   0  0  1  0  0  0  0  0  0  0  0  0
    3.3075    2.5590    8.5233 C   0  0  0  0  0  0  0  0  0  0  0  0
    4.3060    1.9883    7.8593 C   0  0  0  0  0  0  0  0  0  0  0  0
    5.1921    0.8268    8.2342 C   0  0  0  0  0  0  0  0  0  0  0  0
    5.1035   -0.1580    7.2089 O   0  0  0  0  0  0  0  0  0  0  0  0
    5.3012    0.3527    5.9187 C   0  0  1  0  0  0  0  0  0  0  0  0
    5.1768   -0.7712    4.9037 C   0  0  0  0  0  0  0  0  0  0  0  0
    5.2431   -0.4806    3.5221 C   0  0  0  0  0  0  0  0  0  0  0  0
    5.1609   -1.5006    2.5579 C   0  0  0  0  0  0  0  0  0  0  0  0
    5.0127   -2.8407    2.9643 C   0  0  0  0  0  0  0  0  0  0  0  0
    4.9619   -3.1490    4.3375 C   0  0  0  0  0  0  0  0  0  0  0  0
    5.0566   -2.1224    5.2945 C   0  0  0  0  0  0  0  0  0  0  0  0
    4.3419    1.3242    5.6110 O   0  0  0  0  0  0  0  0  0  0  0  0
    4.4356    2.4642    6.4566 C   0  0  1  0  0  0  0  0  0  0  0  0
    3.3602    3.6048    6.3703 C   0  0  2  0  0  0  0  0  0  0  0  0
    4.1541    4.7718    6.6065 O   0  0  0  0  0  0  0  0  0  0  0  0
    2.6622    3.8478    4.9599 C   0  0  2  0  0  0  0  0  0  0  0  0
    3.7830    4.2270    4.1741 O   0  0  0  0  0  0  0  0  0  0  0  0
    1.7582    5.1365    4.9867 C   0  0  0  0  0  0  0  0  0  0  0  0
    0.9180    5.4475    6.2642 C   0  0  0  0  0  0  0  0  0  0  0  0
    0.1168    4.2728    6.8319 C   0  0  2  0  0  0  0  0  0  0  0  0
   -1.2745    4.4225    7.4564 C   0  0  0  0  0  0  0  0  0  0  0  0
   -1.9781    4.6645    8.4321 O   0  0  0  0  0  0  0  0  0  0  0  0
   -1.1863    4.0430    6.0218 C   0  0  2  0  0  0  0  0  0  0  0  0
   -1.5141    2.7417    5.2647 C   0  0  1  0  0  0  0  0  0  0  0  0
   -2.7768    2.9532    4.4015 C   0  0  0  0  0  0  0  0  0  0  0  0
   -0.3140    2.7691    4.3637 C   0  0  0  0  0  0  0  0  0  0  0  0
    0.7682    1.9995    4.4838 C   0  0  0  0  0  0  0  0  0  0  0  0
    0.6091    0.7005    5.1411 C   0  0  0  0  0  0  0  0  0  0  0  0
    1.3044   -0.3687    4.7105 C   0  0  0  0  0  0  0  0  0  0  0  0
    0.8551   -1.7482    5.1352 C   0  0  1  0  0  0  0  0  0  0  0  0
    1.8036   -2.9168    5.2732 C   0  0  0  0  0  0  0  0  0  0  0  0
    0.9236   -3.9056    6.0723 C   0  0  0  0  0  0  0  0  0  0  0  0
    0.2774   -4.9472    5.1521 C   0  0  0  0  0  0  0  0  0  0  0  0
    1.6988   -4.6062    7.2027 C   0  0  0  0  0  0  0  0  0  0  0  0
   -0.1247   -3.0902    6.6437 O   0  0  0  0  0  0  0  0  0  0  0  0
    0.2210   -1.7446    6.5082 C   0  0  1  0  0  0  0  0  0  0  0  0
    1.1332   -1.3616    7.5227 O   0  0  0  0  0  0  0  0  0  0  0  0
   -0.8672   -0.8652    6.4296 O   0  0  0  0  0  0  0  0  0  0  0  0
   -0.4611    0.5080    6.2413 C   0  0  2  0  0  0  0  0  0  0  0  0
   -1.6946    1.4130    6.0661 C   0  0  0  0  0  0  0  0  0  0  0  0
    2.1064    2.6160    4.0686 C   0  0  1  0  0  0  0  0  0  0  0  0
    2.0384    2.9882    2.6953 O   0  0  0  0  0  0  0  0  0  0  0  0
    0.4457    3.4779    9.6926 H   0  0  0  0  0  0  0  0  0  0  0  0
    0.9200    1.8310    9.2682 H   0  0  0  0  0  0  0  0  0  0  0  0
   -0.6359    2.3979    8.8086 H   0  0  0  0  0  0  0  0  0  0  0  0
    1.0809    2.3898    6.9216 H   0  0  0  0  0  0  0  0  0  0  0  0
    2.6145    4.5042    8.2801 H   0  0  0  0  0  0  0  0  0  0  0  0
    3.0523    2.3062    9.5382 H   0  0  0  0  0  0  0  0  0  0  0  0
    6.2221    1.1752    8.2996 H   0  0  0  0  0  0  0  0  0  0  0  0
    4.9236    0.4134    9.2073 H   0  0  0  0  0  0  0  0  0  0  0  0
    6.2935    0.8023    5.8591 H   0  0  0  0  0  0  0  0  0  0  0  0
    5.3648    0.5420    3.2084 H   0  0  0  0  0  0  0  0  0  0  0  0
    5.2233   -1.2643    1.5056 H   0  0  0  0  0  0  0  0  0  0  0  0
    4.9257   -3.6271    2.2325 H   0  0  0  0  0  0  0  0  0  0  0  0
    4.8343   -4.1727    4.6576 H   0  0  0  0  0  0  0  0  0  0  0  0
    5.0068   -2.3877    6.3391 H   0  0  0  0  0  0  0  0  0  0  0  0
    5.4401    2.8773    6.3243 H   0  0  0  0  0  0  0  0  0  0  0  0
    4.6180    4.9158    5.7906 H   0  0  0  0  0  0  0  0  0  0  0  0
    3.8756    3.5616    3.4987 H   0  0  0  0  0  0  0  0  0  0  0  0
    2.4050    6.0036    4.8562 H   0  0  0  0  0  0  0  0  0  0  0  0
    1.1358    5.1910    4.0997 H   0  0  0  0  0  0  0  0  0  0  0  0
    1.5400    5.8850    7.0437 H   0  0  0  0  0  0  0  0  0  0  0  0
    0.2268    6.2516    6.0162 H   0  0  0  0  0  0  0  0  0  0  0  0
   -1.3979    4.8605    5.3350 H   0  0  0  0  0  0  0  0  0  0  0  0
   -3.6688    3.0197    5.0265 H   0  0  0  0  0  0  0  0  0  0  0  0
   -2.9243    2.1318    3.6974 H   0  0  0  0  0  0  0  0  0  0  0  0
   -2.7234    3.8617    3.7983 H   0  0  0  0  0  0  0  0  0  0  0  0
   -0.2421    3.6909    3.8079 H   0  0  0  0  0  0  0  0  0  0  0  0
    2.0286   -0.2990    3.9091 H   0  0  0  0  0  0  0  0  0  0  0  0
    0.0894   -2.0281    4.4050 H   0  0  0  0  0  0  0  0  0  0  0  0
    2.1539   -3.3004    4.3132 H   0  0  0  0  0  0  0  0  0  0  0  0
    2.6576   -2.6349    5.8775 H   0  0  0  0  0  0  0  0  0  0  0  0
    1.0212   -5.5983    4.6897 H   0  0  0  0  0  0  0  0  0  0  0  0
   -0.2524   -4.4478    4.3459 H   0  0  0  0  0  0  0  0  0  0  0  0
   -0.4255   -5.5738    5.7016 H   0  0  0  0  0  0  0  0  0  0  0  0
    2.4995   -5.2385    6.8171 H   0  0  0  0  0  0  0  0  0  0  0  0
    1.0289   -5.2396    7.7808 H   0  0  0  0  0  0  0  0  0  0  0  0
    2.1459   -3.8893    7.8905 H   0  0  0  0  0  0  0  0  0  0  0  0
    1.7568   -0.7528    7.1435 H   0  0  0  0  0  0  0  0  0  0  0  0
   -0.0331    0.7546    7.2031 H   0  0  0  0  0  0  0  0  0  0  0  0
   -2.1915    1.6040    7.0184 H   0  0  0  0  0  0  0  0  0  0  0  0
   -2.3963    0.7993    5.5040 H   0  0  0  0  0  0  0  0  0  0  0  0
    2.8263    1.8121    4.0327 H   0  0  0  0  0  0  0  0  0  0  0  0
    1.3045    3.5748    2.5447 H   0  0  0  0  0  0  0  0  0  0  0  0
  1  2  1  0
  1 46  1  0
  1 47  1  0
  1 48  1  0
  2 23  1  0
  2  3  1  0
  2 49  1  6
  3 17  1  0
  3  4  1  0
  3 50  1  1
  4  5  2  0
  4 51  1  0
  5 16  1  0
  5  6  1  0
  6  7  1  0
  6 52  1  0
  6 53  1  0
  7  8  1  0
  8  9  1  0
  8 15  1  0
  8 54  1  1
  9 14  1  0
  9 10  2  0
 10 11  1  0
 10 55  1  0
 11 12  2  0
 11 56  1  0
 12 13  1  0
 12 57  1  0
 13 14  2  0
 13 58  1  0
 14 59  1  0
 15 16  1  0
 16 17  1  0
 16 60  1  1
 17 18  1  1
 17 19  1  0
 18 61  1  0
 19 44  1  0
 19 20  1  6
 19 21  1  0
 20 62  1  0
 21 22  1  0
 21 63  1  0
 21 64  1  0
 22 23  1  0
 22 65  1  0
 22 66  1  0
 23 26  1  0
 23 24  1  1
 24 25  2  0
 24 26  1  0
 26 27  1  0
 26 67  1  6
 27 43  1  0
 27 28  1  6
 27 29  1  0
 28 68  1  0
 28 69  1  0
 28 70  1  0
 29 30  2  0
 29 71  1  0
 30 31  1  0
 30 44  1  0
 31 42  1  0
 31 32  2  0
 32 33  1  0
 32 72  1  0
 33 39  1  0
 33 34  1  0
 33 73  1  6
 34 35  1  0
 34 74  1  0
 34 75  1  0
 35 36  1  0
 35 37  1  0
 35 38  1  0
 36 76  1  0
 36 77  1  0
 36 78  1  0
 37 79  1  0
 37 80  1  0
 37 81  1  0
 38 39  1  0
 39 40  1  1
 39 41  1  0
 40 82  1  0
 41 42  1  0
 42 43  1  0
 42 83  1  1
 43 84  1  0
 43 85  1  0
 44 45  1  0
 44 86  1  6
 45 87  1  0
M  END
>  <i_m_ct_stereo_status>  (353) 
1

>  <s_m_source_file>  (353) 
/var/tmp/pbs.5076255.sched01/tmpfn0mpy04/132vsilkqhl.sdf

>  <i_m_source_file_index>  (353) 
23

>  <i_lp_mmshare_version>  (353) 
48012

>  <i_f3d_flags>  (353) 
0

>  <s_epik_input>  (353) 
W2NIXTFbY0hdW2NIXVtjSF1bY0hdYzFbQ0BIXShPW0NIMl0yKU9bQ0BASF0zQzI9W0NIXVtDQEhdKFtDQEhdNFtDSDNdKVtDQF0zKFtPSF0pW0NAXShbT0hdKShbQ0gyXVtDSDJdNSlbQ0BIXShbT0hdKUMoPVtDSF1bQ0BdNihbQ0gzXSlbQ0hdKEM0NTcpQzc9TylDPThbQ0BASF0oW0NIMl02KU9bQ0BdOShbT0hdKVtDQEBIXShbQ0hdOClbQ0gyXUMoTzkpKFtDSDNdKVtDSDNd

>  <s_epik_cmdline>  (353) 
J2VwaWtfcHl0aG9uJywgJy1waHQnLCAnMi4wJywgJy1waCcsICc3LjAnLCAnLXRuJywgJzgnLCAnLW1hJywgJzIwMCcsICctaW1hZScsICc8aW5maWxlLm1hZT4nLCAnLW9tYWUnLCAnPG91dGZpbGUubWFlPic=

>  <r_lp_tautomer_probability>  (353) 
1

>  <r_epik_Ionization_Penalty>  (353) 
4.059e-05

>  <r_epik_Ionization_Penalty_Charging>  (353) 
0

>  <r_epik_Ionization_Penalty_Neutral>  (353) 
4.059e-05

>  <r_epik_State_Penalty>  (353) 
-0

>  <r_epik_Charging_Adjusted_Penalty>  (353) 
0

>  <i_epik_Tot_Q>  (353) 
0

>  <i_epik_Tot_abs_Q>  (353) 
0

>  <s_epik_Chemistry_Notes>  (353) 
This compound contains an acetal/aminal-like group ( X-CH(R)-Y where X, Y are N, S, or O) that may be acid/base labile, releasing an aldehyde.

>  <s_lp_Force_Field>  (353) 
OPLS3e

>  <r_lp_Energy>  (353) 
110.316

>  <b_lp_Chiralities_Consistent>  (353) 
1

>  <s_lp_Variant>  (353) 
96:0-2

>  <s_i_glide_gridfile>  (353) 
pfpi4k_grid

>  <i_i_glide_lignum>  (353) 
23

>  <i_i_glide_rotatable_bonds>  (353) 
5

>  <r_i_docking_score>  (353) 
-2.37035

>  <r_i_glide_ligand_efficiency>  (353) 
-0.0526744

>  <r_i_glide_ligand_efficiency_sa>  (353) 
-0.187357

>  <r_i_glide_ligand_efficiency_ln>  (353) 
-0.493138

>  <r_i_glide_gscore>  (353) 
-2.37035

>  <r_i_glide_lipo>  (353) 
-0.410676

>  <r_i_glide_hbond>  (353) 
-0.0369846

>  <r_i_glide_metal>  (353) 
-0

>  <r_i_glide_rewards>  (353) 
-0.0461055

>  <r_i_glide_evdw>  (353) 
-25.6861

>  <r_i_glide_ecoul>  (353) 
-4.13559

>  <r_i_glide_erotb>  (353) 
0.0550961

>  <r_i_glide_esite>  (353) 
-0.0270365

>  <r_i_glide_emodel>  (353) 
-33.0302

>  <r_i_glide_energy>  (353) 
-29.8217

>  <r_i_glide_einternal>  (353) 
2.80284

>  <r_i_glide_intrahb_reward>  (353) 
-0

>  <i_i_glide_confnum>  (353) 
4

>  <i_i_glide_posenum>  (353) 
24

>  <r_i_glide_eff_state_penalty>  (353) 
0

>  <ligand_id>  (353) 
96

>  <original_smiles>  (353) 
CC1C2C=C3COC(c4ccccc4)OC3C2(O)C2(O)CCC13C(=O)C3C1(C)C=C(C3=CC4CC(C)(C)OC4(O)OC3C1)C2O

>  <smiles>  (353) 
[H]OC12OC3([H])C(=C([H])C1([H])C([H])([H])C(C([H])([H])[H])(C([H])([H])[H])O2)C1=C([H])C(C([H])([H])[H])(C3([H])[H])C2([H])C(=O)C23C([H])([H])C([H])([H])C(O[H])(C1([H])O[H])C1(O[H])C2([H])OC([H])(c4c([H])c([H])c([H])c([H])c4[H])OC([H])([H])C2=C([H])C1([H])C3([H])C([H])([H])[H]

$$$$
96:1:1
     RDKit          3D

 87 95  0  0  1  0  0  0  0  0999 V2000
   -0.8989    2.3959    7.1741 C   0  0  0  0  0  0  0  0  0  0  0  0
    0.5470    2.5277    6.6116 C   0  0  2  0  0  0  0  0  0  0  0  0
    1.5699    2.9060    7.7264 C   0  0  1  0  0  0  0  0  0  0  0  0
    1.3564    2.1675    9.0399 C   0  0  0  0  0  0  0  0  0  0  0  0
    2.4072    1.4487    9.4281 C   0  0  0  0  0  0  0  0  0  0  0  0
    2.5439    0.4370   10.5440 C   0  0  0  0  0  0  0  0  0  0  0  0
    2.9993   -0.7937    9.9845 O   0  0  0  0  0  0  0  0  0  0  0  0
    4.1244   -0.6522    9.1604 C   0  0  1  0  0  0  0  0  0  0  0  0
    4.5165   -2.0143    8.6063 C   0  0  0  0  0  0  0  0  0  0  0  0
    5.2638   -2.1111    7.4092 C   0  0  0  0  0  0  0  0  0  0  0  0
    5.6663   -3.3655    6.9067 C   0  0  0  0  0  0  0  0  0  0  0  0
    5.3460   -4.5404    7.6110 C   0  0  0  0  0  0  0  0  0  0  0  0
    4.6268   -4.4584    8.8176 C   0  0  0  0  0  0  0  0  0  0  0  0
    4.2239   -3.2023    9.3161 C   0  0  0  0  0  0  0  0  0  0  0  0
    3.8561    0.2016    8.0810 O   0  0  0  0  0  0  0  0  0  0  0  0
    3.5596    1.5283    8.4917 C   0  0  1  0  0  0  0  0  0  0  0  0
    3.0966    2.5853    7.4267 C   0  0  2  0  0  0  0  0  0  0  0  0
    3.6856    3.7865    7.9288 O   0  0  0  0  0  0  0  0  0  0  0  0
    3.6440    2.4192    5.9316 C   0  0  2  0  0  0  0  0  0  0  0  0
    5.0514    2.5854    6.0869 O   0  0  0  0  0  0  0  0  0  0  0  0
    3.2303    3.6580    5.0521 C   0  0  0  0  0  0  0  0  0  0  0  0
    1.8179    4.2996    5.2400 C   0  0  0  0  0  0  0  0  0  0  0  0
    0.6383    3.3228    5.2660 C   0  0  2  0  0  0  0  0  0  0  0  0
   -0.7285    3.6233    4.6398 C   0  0  0  0  0  0  0  0  0  0  0  0
   -1.8440    4.1245    4.7274 O   0  0  0  0  0  0  0  0  0  0  0  0
    0.2499    2.8681    3.8286 C   0  0  2  0  0  0  0  0  0  0  0  0
    0.2920    1.3987    3.3647 C   0  0  1  0  0  0  0  0  0  0  0  0
    0.0469    1.3429    1.8435 C   0  0  0  0  0  0  0  0  0  0  0  0
    1.7548    1.1914    3.6243 C   0  0  0  0  0  0  0  0  0  0  0  0
    2.2717    0.4973    4.6388 C   0  0  0  0  0  0  0  0  0  0  0  0
    1.4635   -0.5744    5.2192 C   0  0  0  0  0  0  0  0  0  0  0  0
    2.0486   -1.7132    5.6402 C   0  0  0  0  0  0  0  0  0  0  0  0
    1.1923   -2.9314    5.8958 C   0  0  1  0  0  0  0  0  0  0  0  0
    1.5576   -4.0025    6.9060 C   0  0  0  0  0  0  0  0  0  0  0  0
    0.1950   -4.7463    6.9889 C   0  0  0  0  0  0  0  0  0  0  0  0
    0.1688   -5.9956    6.0895 C   0  0  0  0  0  0  0  0  0  0  0  0
   -0.2034   -5.1047    8.4308 C   0  0  0  0  0  0  0  0  0  0  0  0
   -0.7851   -3.8172    6.4790 O   0  0  0  0  0  0  0  0  0  0  0  0
   -0.1983   -2.5602    6.3505 C   0  0  1  0  0  0  0  0  0  0  0  0
   -0.1794   -1.9026    7.6049 O   0  0  0  0  0  0  0  0  0  0  0  0
   -0.7424   -1.7515    5.3450 O   0  0  0  0  0  0  0  0  0  0  0  0
   -0.0789   -0.4749    5.2214 C   0  0  2  0  0  0  0  0  0  0  0  0
   -0.6408    0.3407    4.0391 C   0  0  0  0  0  0  0  0  0  0  0  0
    3.6166    0.9815    5.1873 C   0  0  1  0  0  0  0  0  0  0  0  0
    4.5529    0.9416    4.1175 O   0  0  0  0  0  0  0  0  0  0  0  0
   -1.2666    3.3389    7.5826 H   0  0  0  0  0  0  0  0  0  0  0  0
   -0.9543    1.6493    7.9649 H   0  0  0  0  0  0  0  0  0  0  0  0
   -1.6143    2.0506    6.4279 H   0  0  0  0  0  0  0  0  0  0  0  0
    0.8834    1.5440    6.3992 H   0  0  0  0  0  0  0  0  0  0  0  0
    1.4003    3.9547    7.9900 H   0  0  0  0  0  0  0  0  0  0  0  0
    0.4290    2.1978    9.5844 H   0  0  0  0  0  0  0  0  0  0  0  0
    3.2878    0.7920   11.2583 H   0  0  0  0  0  0  0  0  0  0  0  0
    1.6090    0.2976   11.0902 H   0  0  0  0  0  0  0  0  0  0  0  0
    4.9475   -0.2395    9.7455 H   0  0  0  0  0  0  0  0  0  0  0  0
    5.5407   -1.2189    6.8688 H   0  0  0  0  0  0  0  0  0  0  0  0
    6.2319   -3.4222    5.9897 H   0  0  0  0  0  0  0  0  0  0  0  0
    5.6502   -5.5008    7.2286 H   0  0  0  0  0  0  0  0  0  0  0  0
    4.3910   -5.3562    9.3678 H   0  0  0  0  0  0  0  0  0  0  0  0
    3.6865   -3.1577   10.2519 H   0  0  0  0  0  0  0  0  0  0  0  0
    4.4307    1.8968    9.0398 H   0  0  0  0  0  0  0  0  0  0  0  0
    3.4501    4.4887    7.3439 H   0  0  0  0  0  0  0  0  0  0  0  0
    5.3739    1.8581    6.5961 H   0  0  0  0  0  0  0  0  0  0  0  0
    3.9366    4.4673    5.2468 H   0  0  0  0  0  0  0  0  0  0  0  0
    3.4144    3.4525    4.0012 H   0  0  0  0  0  0  0  0  0  0  0  0
    1.7917    4.9479    6.1146 H   0  0  0  0  0  0  0  0  0  0  0  0
    1.6698    4.9948    4.4138 H   0  0  0  0  0  0  0  0  0  0  0  0
    0.6984    3.4710    3.0389 H   0  0  0  0  0  0  0  0  0  0  0  0
   -0.9924    1.5726    1.6037 H   0  0  0  0  0  0  0  0  0  0  0  0
    0.2702    0.3582    1.4332 H   0  0  0  0  0  0  0  0  0  0  0  0
    0.6687    2.0608    1.3001 H   0  0  0  0  0  0  0  0  0  0  0  0
    2.3646    1.9173    3.1119 H   0  0  0  0  0  0  0  0  0  0  0  0
    3.1196   -1.8549    5.5989 H   0  0  0  0  0  0  0  0  0  0  0  0
    1.1068   -3.4161    4.9189 H   0  0  0  0  0  0  0  0  0  0  0  0
    2.3804   -4.6385    6.5757 H   0  0  0  0  0  0  0  0  0  0  0  0
    1.8424   -3.5695    7.8645 H   0  0  0  0  0  0  0  0  0  0  0  0
    0.8710   -6.7530    6.4375 H   0  0  0  0  0  0  0  0  0  0  0  0
    0.4228   -5.7604    5.0563 H   0  0  0  0  0  0  0  0  0  0  0  0
   -0.8195   -6.4493    6.0783 H   0  0  0  0  0  0  0  0  0  0  0  0
    0.4930   -5.8110    8.8834 H   0  0  0  0  0  0  0  0  0  0  0  0
   -1.1968   -5.5517    8.4502 H   0  0  0  0  0  0  0  0  0  0  0  0
   -0.2397   -4.2212    9.0669 H   0  0  0  0  0  0  0  0  0  0  0  0
    0.6834   -1.5191    7.7089 H   0  0  0  0  0  0  0  0  0  0  0  0
   -0.3985    0.0332    6.1188 H   0  0  0  0  0  0  0  0  0  0  0  0
   -1.6130    0.7753    4.2758 H   0  0  0  0  0  0  0  0  0  0  0  0
   -0.8580   -0.4047    3.2803 H   0  0  0  0  0  0  0  0  0  0  0  0
    3.9904    0.2067    5.8392 H   0  0  0  0  0  0  0  0  0  0  0  0
    4.3735    1.6608    3.5267 H   0  0  0  0  0  0  0  0  0  0  0  0
  1  2  1  0
  1 46  1  0
  1 47  1  0
  1 48  1  0
  2 23  1  0
  2  3  1  0
  2 49  1  6
  3 17  1  0
  3  4  1  0
  3 50  1  1
  4  5  2  0
  4 51  1  0
  5 16  1  0
  5  6  1  0
  6  7  1  0
  6 52  1  0
  6 53  1  0
  7  8  1  0
  8  9  1  0
  8 15  1  0
  8 54  1  1
  9 14  1  0
  9 10  2  0
 10 11  1  0
 10 55  1  0
 11 12  2  0
 11 56  1  0
 12 13  1  0
 12 57  1  0
 13 14  2  0
 13 58  1  0
 14 59  1  0
 15 16  1  0
 16 17  1  0
 16 60  1  1
 17 18  1  1
 17 19  1  0
 18 61  1  0
 19 44  1  0
 19 20  1  1
 19 21  1  0
 20 62  1  0
 21 22  1  0
 21 63  1  0
 21 64  1  0
 22 23  1  0
 22 65  1  0
 22 66  1  0
 23 26  1  0
 23 24  1  1
 24 25  2  0
 24 26  1  0
 26 27  1  0
 26 67  1  6
 27 43  1  0
 27 28  1  6
 27 29  1  0
 28 68  1  0
 28 69  1  0
 28 70  1  0
 29 30  2  0
 29 71  1  0
 30 31  1  0
 30 44  1  0
 31 42  1  0
 31 32  2  0
 32 33  1  0
 32 72  1  0
 33 39  1  0
 33 34  1  0
 33 73  1  6
 34 35  1  0
 34 74  1  0
 34 75  1  0
 35 36  1  0
 35 37  1  0
 35 38  1  0
 36 76  1  0
 36 77  1  0
 36 78  1  0
 37 79  1  0
 37 80  1  0
 37 81  1  0
 38 39  1  0
 39 40  1  1
 39 41  1  0
 40 82  1  0
 41 42  1  0
 42 43  1  0
 42 83  1  1
 43 84  1  0
 43 85  1  0
 44 45  1  0
 44 86  1  1
 45 87  1  0
M  END
>  <i_m_ct_stereo_status>  (354) 
1

>  <s_m_source_file>  (354) 
/var/tmp/pbs.5076255.sched01/tmpfn0mpy04/132vsilkqhl.sdf

>  <i_m_source_file_index>  (354) 
23

>  <i_lp_mmshare_version>  (354) 
48012

>  <i_f3d_flags>  (354) 
0

>  <s_epik_input>  (354) 
W2NIXTFbY0hdW2NIXVtjSF1bY0hdYzFbQ0BIXShPW0NIMl0yKU9bQ0BASF0zQzI9W0NIXVtDQEhdKFtDQEhdNFtDSDNdKVtDQF0zKFtPSF0pW0NAXShbT0hdKShbQ0gyXVtDSDJdNSlbQ0BIXShbT0hdKUMoPVtDSF1bQ0BdNihbQ0gzXSlbQ0hdKEM0NTcpQzc9TylDPThbQ0BASF0oW0NIMl02KU9bQ0BdOShbT0hdKVtDQEBIXShbQ0hdOClbQ0gyXUMoTzkpKFtDSDNdKVtDSDNd

>  <s_epik_cmdline>  (354) 
J2VwaWtfcHl0aG9uJywgJy1waHQnLCAnMi4wJywgJy1waCcsICc3LjAnLCAnLXRuJywgJzgnLCAnLW1hJywgJzIwMCcsICctaW1hZScsICc8aW5maWxlLm1hZT4nLCAnLW9tYWUnLCAnPG91dGZpbGUubWFlPic=

>  <r_lp_tautomer_probability>  (354) 
1

>  <r_epik_Ionization_Penalty>  (354) 
4.059e-05

>  <r_epik_Ionization_Penalty_Charging>  (354) 
0

>  <r_epik_Ionization_Penalty_Neutral>  (354) 
4.059e-05

>  <r_epik_State_Penalty>  (354) 
-0

>  <r_epik_Charging_Adjusted_Penalty>  (354) 
0

>  <i_epik_Tot_Q>  (354) 
0

>  <i_epik_Tot_abs_Q>  (354) 
0

>  <s_epik_Chemistry_Notes>  (354) 
This compound contains an acetal/aminal-like group ( X-CH(R)-Y where X, Y are N, S, or O) that may be acid/base labile, releasing an aldehyde.

>  <s_lp_Force_Field>  (354) 
OPLS3e

>  <r_lp_Energy>  (354) 
110.316

>  <b_lp_Chiralities_Consistent>  (354) 
1

>  <s_lp_Variant>  (354) 
96:0-2

>  <s_i_glide_gridfile>  (354) 
pfpi4k_grid

>  <i_i_glide_lignum>  (354) 
23

>  <i_i_glide_rotatable_bonds>  (354) 
5

>  <r_i_docking_score>  (354) 
-2.14139

>  <r_i_glide_ligand_efficiency>  (354) 
-0.0475864

>  <r_i_glide_ligand_efficiency_sa>  (354) 
-0.16926

>  <r_i_glide_ligand_efficiency_ln>  (354) 
-0.445504

>  <r_i_glide_gscore>  (354) 
-2.14139

>  <r_i_glide_lipo>  (354) 
-0.0166059

>  <r_i_glide_hbond>  (354) 
-0.00241053

>  <r_i_glide_metal>  (354) 
-0

>  <r_i_glide_rewards>  (354) 
0

>  <r_i_glide_evdw>  (354) 
-24.9077

>  <r_i_glide_ecoul>  (354) 
-5.81007

>  <r_i_glide_erotb>  (354) 
0.0550961

>  <r_i_glide_esite>  (354) 
-0.060572

>  <r_i_glide_emodel>  (354) 
-34.4494

>  <r_i_glide_energy>  (354) 
-30.7178

>  <r_i_glide_einternal>  (354) 
1.64172

>  <r_i_glide_intrahb_reward>  (354) 
-0

>  <i_i_glide_confnum>  (354) 
5

>  <i_i_glide_posenum>  (354) 
21

>  <r_i_glide_eff_state_penalty>  (354) 
0

>  <ligand_id>  (354) 
96

>  <original_smiles>  (354) 
CC1C2C=C3COC(c4ccccc4)OC3C2(O)C2(O)CCC13C(=O)C3C1(C)C=C(C3=CC4CC(C)(C)OC4(O)OC3C1)C2O

>  <smiles>  (354) 
[H]OC12OC3([H])C(=C([H])C1([H])C([H])([H])C(C([H])([H])[H])(C([H])([H])[H])O2)C1=C([H])C(C([H])([H])[H])(C3([H])[H])C2([H])C(=O)C23C([H])([H])C([H])([H])C(O[H])(C1([H])O[H])C1(O[H])C2([H])OC([H])(c4c([H])c([H])c([H])c([H])c4[H])OC([H])([H])C2=C([H])C1([H])C3([H])C([H])([H])[H]

$$$$
96:1:2
     RDKit          3D

 87 95  0  0  1  0  0  0  0  0999 V2000
   -1.1411    1.7226    7.8602 C   0  0  0  0  0  0  0  0  0  0  0  0
    0.1961    2.0013    7.1158 C   0  0  2  0  0  0  0  0  0  0  0  0
    1.3586    2.3130    8.1084 C   0  0  1  0  0  0  0  0  0  0  0  0
    1.3799    1.4151    9.3320 C   0  0  0  0  0  0  0  0  0  0  0  0
    2.5050    0.7154    9.4723 C   0  0  0  0  0  0  0  0  0  0  0  0
    2.8479   -0.4056   10.4232 C   0  0  0  0  0  0  0  0  0  0  0  0
    3.2695   -1.5359    9.6619 O   0  0  0  0  0  0  0  0  0  0  0  0
    4.2481   -1.2325    8.7047 C   0  0  1  0  0  0  0  0  0  0  0  0
    4.6097   -2.4936    7.9346 C   0  0  0  0  0  0  0  0  0  0  0  0
    5.0879   -2.4127    6.6080 C   0  0  0  0  0  0  0  0  0  0  0  0
    5.4559   -3.5730    5.8988 C   0  0  0  0  0  0  0  0  0  0  0  0
    5.3824   -4.8302    6.5246 C   0  0  0  0  0  0  0  0  0  0  0  0
    4.9376   -4.9232    7.8566 C   0  0  0  0  0  0  0  0  0  0  0  0
    4.5605   -3.7605    8.5585 C   0  0  0  0  0  0  0  0  0  0  0  0
    3.7738   -0.2832    7.7911 O   0  0  0  0  0  0  0  0  0  0  0  0
    3.4962    0.9714    8.3968 C   0  0  1  0  0  0  0  0  0  0  0  0
    2.8298    2.1168    7.5572 C   0  0  2  0  0  0  0  0  0  0  0  0
    3.4561    3.2791    8.0962 O   0  0  0  0  0  0  0  0  0  0  0  0
    3.1434    2.1622    5.9957 C   0  0  2  0  0  0  0  0  0  0  0  0
    4.5504    2.3939    5.9624 O   0  0  0  0  0  0  0  0  0  0  0  0
    2.5512    3.4651    5.3348 C   0  0  0  0  0  0  0  0  0  0  0  0
    1.1594    3.9912    5.8018 C   0  0  0  0  0  0  0  0  0  0  0  0
    0.0465    2.9455    5.8797 C   0  0  2  0  0  0  0  0  0  0  0  0
   -1.4132    3.2296    5.5047 C   0  0  0  0  0  0  0  0  0  0  0  0
   -2.5290    3.6228    5.8275 O   0  0  0  0  0  0  0  0  0  0  0  0
   -0.5380    2.6384    4.4694 C   0  0  2  0  0  0  0  0  0  0  0  0
   -0.5035    1.2412    3.8207 C   0  0  1  0  0  0  0  0  0  0  0  0
   -0.9772    1.3568    2.3553 C   0  0  0  0  0  0  0  0  0  0  0  0
    0.9917    1.0947    3.8410 C   0  0  0  0  0  0  0  0  0  0  0  0
    1.6810    0.3222    4.6801 C   0  0  0  0  0  0  0  0  0  0  0  0
    1.0189   -0.8589    5.2289 C   0  0  0  0  0  0  0  0  0  0  0  0
    1.7086   -2.0008    5.4187 C   0  0  0  0  0  0  0  0  0  0  0  0
    0.9538   -3.2844    5.6544 C   0  0  1  0  0  0  0  0  0  0  0  0
    1.5186   -4.4425    6.4539 C   0  0  0  0  0  0  0  0  0  0  0  0
    0.2166   -5.2731    6.6407 C   0  0  0  0  0  0  0  0  0  0  0  0
    0.1064   -6.4075    5.6035 C   0  0  0  0  0  0  0  0  0  0  0  0
    0.0616   -5.8202    8.0675 C   0  0  0  0  0  0  0  0  0  0  0  0
   -0.8703   -4.3539    6.4117 O   0  0  0  0  0  0  0  0  0  0  0  0
   -0.3648   -3.0578    6.3538 C   0  0  1  0  0  0  0  0  0  0  0  0
   -0.1797   -2.5481    7.6609 O   0  0  0  0  0  0  0  0  0  0  0  0
   -1.0901   -2.1706    5.5458 O   0  0  0  0  0  0  0  0  0  0  0  0
   -0.5051   -0.8532    5.4703 C   0  0  2  0  0  0  0  0  0  0  0  0
   -1.2752    0.0559    4.4876 C   0  0  0  0  0  0  0  0  0  0  0  0
    3.0678    0.8197    5.0977 C   0  0  1  0  0  0  0  0  0  0  0  0
    3.8379    0.9829    3.9192 O   0  0  0  0  0  0  0  0  0  0  0  0
   -1.4840    2.5896    8.4283 H   0  0  0  0  0  0  0  0  0  0  0  0
   -1.0403    0.8908    8.5536 H   0  0  0  0  0  0  0  0  0  0  0  0
   -1.9461    1.4220    7.1882 H   0  0  0  0  0  0  0  0  0  0  0  0
    0.5384    1.0708    6.7392 H   0  0  0  0  0  0  0  0  0  0  0  0
    1.2029    3.3157    8.5196 H   0  0  0  0  0  0  0  0  0  0  0  0
    0.5480    1.3240   10.0048 H   0  0  0  0  0  0  0  0  0  0  0  0
    3.6723   -0.0873   11.0586 H   0  0  0  0  0  0  0  0  0  0  0  0
    2.0091   -0.6578   11.0741 H   0  0  0  0  0  0  0  0  0  0  0  0
    5.1315   -0.8325    9.2067 H   0  0  0  0  0  0  0  0  0  0  0  0
    5.1862   -1.4559    6.1216 H   0  0  0  0  0  0  0  0  0  0  0  0
    5.8137   -3.4932    4.8841 H   0  0  0  0  0  0  0  0  0  0  0  0
    5.6686   -5.7201    5.9868 H   0  0  0  0  0  0  0  0  0  0  0  0
    4.9002   -5.8839    8.3464 H   0  0  0  0  0  0  0  0  0  0  0  0
    4.2398   -3.8445    9.5857 H   0  0  0  0  0  0  0  0  0  0  0  0
    4.4243    1.3226    8.8558 H   0  0  0  0  0  0  0  0  0  0  0  0
    4.3497    3.2500    7.7829 H   0  0  0  0  0  0  0  0  0  0  0  0
    4.7830    2.3579    5.0415 H   0  0  0  0  0  0  0  0  0  0  0  0
    3.2380    4.2903    5.5293 H   0  0  0  0  0  0  0  0  0  0  0  0
    2.5890    3.3967    4.2501 H   0  0  0  0  0  0  0  0  0  0  0  0
    1.2426    4.5227    6.7478 H   0  0  0  0  0  0  0  0  0  0  0  0
    0.8546    4.7672    5.1034 H   0  0  0  0  0  0  0  0  0  0  0  0
   -0.2276    3.3508    3.7059 H   0  0  0  0  0  0  0  0  0  0  0  0
   -2.0490    1.5540    2.2940 H   0  0  0  0  0  0  0  0  0  0  0  0
   -0.7690    0.4403    1.8014 H   0  0  0  0  0  0  0  0  0  0  0  0
   -0.4663    2.1535    1.8115 H   0  0  0  0  0  0  0  0  0  0  0  0
    1.4894    1.9166    3.3475 H   0  0  0  0  0  0  0  0  0  0  0  0
    2.7635   -2.0766    5.2056 H   0  0  0  0  0  0  0  0  0  0  0  0
    0.7359   -3.6559    4.6485 H   0  0  0  0  0  0  0  0  0  0  0  0
    2.3040   -4.9831    5.9236 H   0  0  0  0  0  0  0  0  0  0  0  0
    1.9379   -4.1105    7.4021 H   0  0  0  0  0  0  0  0  0  0  0  0
    0.8859   -7.1538    5.7506 H   0  0  0  0  0  0  0  0  0  0  0  0
    0.1908   -6.0390    4.5815 H   0  0  0  0  0  0  0  0  0  0  0  0
   -0.8484   -6.9232    5.6789 H   0  0  0  0  0  0  0  0  0  0  0  0
    0.8466   -6.5340    8.3196 H   0  0  0  0  0  0  0  0  0  0  0  0
   -0.8981   -6.3224    8.1668 H   0  0  0  0  0  0  0  0  0  0  0  0
    0.0809   -5.0230    8.8088 H   0  0  0  0  0  0  0  0  0  0  0  0
    0.6717   -2.8397    7.9574 H   0  0  0  0  0  0  0  0  0  0  0  0
   -0.7004   -0.4733    6.4615 H   0  0  0  0  0  0  0  0  0  0  0  0
   -2.2113    0.4058    4.9215 H   0  0  0  0  0  0  0  0  0  0  0  0
   -1.5809   -0.6056    3.6803 H   0  0  0  0  0  0  0  0  0  0  0  0
    3.5717    0.0004    5.5842 H   0  0  0  0  0  0  0  0  0  0  0  0
    3.6325    0.2606    3.3385 H   0  0  0  0  0  0  0  0  0  0  0  0
  1  2  1  0
  1 46  1  0
  1 47  1  0
  1 48  1  0
  2 23  1  0
  2  3  1  0
  2 49  1  6
  3 17  1  0
  3  4  1  0
  3 50  1  1
  4  5  2  0
  4 51  1  0
  5 16  1  0
  5  6  1  0
  6  7  1  0
  6 52  1  0
  6 53  1  0
  7  8  1  0
  8  9  1  0
  8 15  1  0
  8 54  1  1
  9 14  1  0
  9 10  2  0
 10 11  1  0
 10 55  1  0
 11 12  2  0
 11 56  1  0
 12 13  1  0
 12 57  1  0
 13 14  2  0
 13 58  1  0
 14 59  1  0
 15 16  1  0
 16 17  1  0
 16 60  1  1
 17 18  1  1
 17 19  1  0
 18 61  1  0
 19 44  1  0
 19 20  1  1
 19 21  1  0
 20 62  1  0
 21 22  1  0
 21 63  1  0
 21 64  1  0
 22 23  1  0
 22 65  1  0
 22 66  1  0
 23 26  1  0
 23 24  1  1
 24 25  2  0
 24 26  1  0
 26 27  1  0
 26 67  1  6
 27 43  1  0
 27 28  1  6
 27 29  1  0
 28 68  1  0
 28 69  1  0
 28 70  1  0
 29 30  2  0
 29 71  1  0
 30 31  1  0
 30 44  1  0
 31 42  1  0
 31 32  2  0
 32 33  1  0
 32 72  1  0
 33 39  1  0
 33 34  1  0
 33 73  1  6
 34 35  1  0
 34 74  1  0
 34 75  1  0
 35 36  1  0
 35 37  1  0
 35 38  1  0
 36 76  1  0
 36 77  1  0
 36 78  1  0
 37 79  1  0
 37 80  1  0
 37 81  1  0
 38 39  1  0
 39 40  1  1
 39 41  1  0
 40 82  1  0
 41 42  1  0
 42 43  1  0
 42 83  1  1
 43 84  1  0
 43 85  1  0
 44 45  1  0
 44 86  1  1
 45 87  1  0
M  END
>  <i_m_ct_stereo_status>  (355) 
1

>  <s_m_source_file>  (355) 
/var/tmp/pbs.5076255.sched01/tmpfn0mpy04/132vsilkqhl.sdf

>  <i_m_source_file_index>  (355) 
23

>  <i_lp_mmshare_version>  (355) 
48012

>  <i_f3d_flags>  (355) 
0

>  <s_epik_input>  (355) 
W2NIXTFbY0hdW2NIXVtjSF1bY0hdYzFbQ0BIXShPW0NIMl0yKU9bQ0BASF0zQzI9W0NIXVtDQEhdKFtDQEhdNFtDSDNdKVtDQF0zKFtPSF0pW0NAXShbT0hdKShbQ0gyXVtDSDJdNSlbQ0BIXShbT0hdKUMoPVtDSF1bQ0BdNihbQ0gzXSlbQ0hdKEM0NTcpQzc9TylDPThbQ0BASF0oW0NIMl02KU9bQ0BdOShbT0hdKVtDQEBIXShbQ0hdOClbQ0gyXUMoTzkpKFtDSDNdKVtDSDNd

>  <s_epik_cmdline>  (355) 
J2VwaWtfcHl0aG9uJywgJy1waHQnLCAnMi4wJywgJy1waCcsICc3LjAnLCAnLXRuJywgJzgnLCAnLW1hJywgJzIwMCcsICctaW1hZScsICc8aW5maWxlLm1hZT4nLCAnLW9tYWUnLCAnPG91dGZpbGUubWFlPic=

>  <r_lp_tautomer_probability>  (355) 
1

>  <r_epik_Ionization_Penalty>  (355) 
4.059e-05

>  <r_epik_Ionization_Penalty_Charging>  (355) 
0

>  <r_epik_Ionization_Penalty_Neutral>  (355) 
4.059e-05

>  <r_epik_State_Penalty>  (355) 
-0

>  <r_epik_Charging_Adjusted_Penalty>  (355) 
0

>  <i_epik_Tot_Q>  (355) 
0

>  <i_epik_Tot_abs_Q>  (355) 
0

>  <s_epik_Chemistry_Notes>  (355) 
This compound contains an acetal/aminal-like group ( X-CH(R)-Y where X, Y are N, S, or O) that may be acid/base labile, releasing an aldehyde.

>  <s_lp_Force_Field>  (355) 
OPLS3e

>  <r_lp_Energy>  (355) 
110.316

>  <b_lp_Chiralities_Consistent>  (355) 
1

>  <s_lp_Variant>  (355) 
96:0-2

>  <s_i_glide_gridfile>  (355) 
pfpi4k_grid

>  <i_i_glide_lignum>  (355) 
23

>  <i_i_glide_rotatable_bonds>  (355) 
5

>  <r_i_docking_score>  (355) 
-1.71385

>  <r_i_glide_ligand_efficiency>  (355) 
-0.0380856

>  <r_i_glide_ligand_efficiency_sa>  (355) 
-0.135467

>  <r_i_glide_ligand_efficiency_ln>  (355) 
-0.356558

>  <r_i_glide_gscore>  (355) 
-1.71385

>  <r_i_glide_lipo>  (355) 
-0.00912782

>  <r_i_glide_hbond>  (355) 
0

>  <r_i_glide_metal>  (355) 
-0

>  <r_i_glide_rewards>  (355) 
0

>  <r_i_glide_evdw>  (355) 
-27.034

>  <r_i_glide_ecoul>  (355) 
-2.514

>  <r_i_glide_erotb>  (355) 
0.0550961

>  <r_i_glide_esite>  (355) 
-0.0310236

>  <r_i_glide_emodel>  (355) 
-31.9582

>  <r_i_glide_energy>  (355) 
-29.548

>  <r_i_glide_einternal>  (355) 
2.14199

>  <r_i_glide_intrahb_reward>  (355) 
-0

>  <i_i_glide_confnum>  (355) 
5

>  <i_i_glide_posenum>  (355) 
1

>  <r_i_glide_eff_state_penalty>  (355) 
0

>  <ligand_id>  (355) 
96

>  <original_smiles>  (355) 
CC1C2C=C3COC(c4ccccc4)OC3C2(O)C2(O)CCC13C(=O)C3C1(C)C=C(C3=CC4CC(C)(C)OC4(O)OC3C1)C2O

>  <smiles>  (355) 
[H]OC12OC3([H])C(=C([H])C1([H])C([H])([H])C(C([H])([H])[H])(C([H])([H])[H])O2)C1=C([H])C(C([H])([H])[H])(C3([H])[H])C2([H])C(=O)C23C([H])([H])C([H])([H])C(O[H])(C1([H])O[H])C1(O[H])C2([H])OC([H])(c4c([H])c([H])c([H])c([H])c4[H])OC([H])([H])C2=C([H])C1([H])C3([H])C([H])([H])[H]

$$$$
96:2:0
     RDKit          3D

 87 95  0  0  1  0  0  0  0  0999 V2000
    3.2630   -9.2237    6.4261 C   0  0  0  0  0  0  0  0  0  0  0  0
    3.0615   -8.4304    5.1086 C   0  0  2  0  0  0  0  0  0  0  0  0
    4.4699   -7.9003    4.4518 C   0  0  1  0  0  0  0  0  0  0  0  0
    4.5278   -8.0329    2.9413 C   0  0  0  0  0  0  0  0  0  0  0  0
    5.0700   -6.9739    2.3431 C   0  0  0  0  0  0  0  0  0  0  0  0
    5.1452   -6.6131    0.8783 C   0  0  0  0  0  0  0  0  0  0  0  0
    4.8080   -5.2384    0.7151 O   0  0  0  0  0  0  0  0  0  0  0  0
    5.5530   -4.3916    1.5431 C   0  0  1  0  0  0  0  0  0  0  0  0
    5.1351   -2.9641    1.2667 C   0  0  0  0  0  0  0  0  0  0  0  0
    6.1107   -1.9967    0.9533 C   0  0  0  0  0  0  0  0  0  0  0  0
    5.7369   -0.6555    0.7257 C   0  0  0  0  0  0  0  0  0  0  0  0
    4.3875   -0.2753    0.8194 C   0  0  0  0  0  0  0  0  0  0  0  0
    3.4055   -1.2342    1.1327 C   0  0  0  0  0  0  0  0  0  0  0  0
    3.7789   -2.5738    1.3595 C   0  0  0  0  0  0  0  0  0  0  0  0
    5.2828   -4.6280    2.8903 O   0  0  0  0  0  0  0  0  0  0  0  0
    5.6008   -5.9509    3.2938 C   0  0  1  0  0  0  0  0  0  0  0  0
    5.0499   -6.3961    4.6785 C   0  0  2  0  0  0  0  0  0  0  0  0
    6.2415   -6.4530    5.4637 O   0  0  0  0  0  0  0  0  0  0  0  0
    3.9190   -5.5042    5.3187 C   0  0  2  0  0  0  0  0  0  0  0  0
    3.9442   -6.3605    6.4337 O   0  0  0  0  0  0  0  0  0  0  0  0
    2.7056   -5.3808    4.2847 C   0  0  0  0  0  0  0  0  0  0  0  0
    1.8781   -6.6189    3.8985 C   0  0  0  0  0  0  0  0  0  0  0  0
    1.7954   -7.4647    5.1239 C   0  0  1  0  0  0  0  0  0  0  0  0
    0.5472   -8.0712    5.7644 C   0  0  0  0  0  0  0  0  0  0  0  0
   -0.1626   -9.0545    5.9362 O   0  0  0  0  0  0  0  0  0  0  0  0
    0.8166   -6.6403    6.0799 C   0  0  1  0  0  0  0  0  0  0  0  0
    0.8263   -5.9275    7.5004 C   0  0  1  0  0  0  0  0  0  0  0  0
    0.5916   -6.9255    8.6496 C   0  0  0  0  0  0  0  0  0  0  0  0
    2.1098   -5.1433    7.7651 C   0  0  0  0  0  0  0  0  0  0  0  0
    2.5199   -4.0980    6.9909 C   0  0  0  0  0  0  0  0  0  0  0  0
    1.4572   -3.1709    6.6112 C   0  0  0  0  0  0  0  0  0  0  0  0
    1.7169   -1.8558    6.4678 C   0  0  0  0  0  0  0  0  0  0  0  0
    0.5556   -0.8872    6.4178 C   0  0  1  0  0  0  0  0  0  0  0  0
    0.6028    0.4348    5.6756 C   0  0  0  0  0  0  0  0  0  0  0  0
   -0.9164    0.7765    5.6655 C   0  0  0  0  0  0  0  0  0  0  0  0
   -1.3012    1.7520    6.7927 C   0  0  0  0  0  0  0  0  0  0  0  0
   -1.3904    1.3124    4.3026 C   0  0  0  0  0  0  0  0  0  0  0  0
   -1.5980   -0.4668    5.9426 O   0  0  0  0  0  0  0  0  0  0  0  0
   -0.6866   -1.5131    5.8311 C   0  0  1  0  0  0  0  0  0  0  0  0
   -0.5009   -1.8599    4.4790 O   0  0  0  0  0  0  0  0  0  0  0  0
   -0.9824   -2.6334    6.6175 O   0  0  0  0  0  0  0  0  0  0  0  0
    0.0053   -3.6792    6.5117 C   0  0  2  0  0  0  0  0  0  0  0  0
   -0.2862   -4.8327    7.5145 C   0  0  0  0  0  0  0  0  0  0  0  0
    3.8922   -4.1719    6.2060 C   0  0  1  0  0  0  0  0  0  0  0  0
    4.9823   -4.0046    7.1009 O   0  0  0  0  0  0  0  0  0  0  0  0
    3.4080   -8.5931    7.3046 H   0  0  0  0  0  0  0  0  0  0  0  0
    4.1317   -9.8815    6.3579 H   0  0  0  0  0  0  0  0  0  0  0  0
    2.4106   -9.8732    6.6437 H   0  0  0  0  0  0  0  0  0  0  0  0
    2.7580   -9.2254    4.4238 H   0  0  0  0  0  0  0  0  0  0  0  0
    5.2420   -8.5996    4.7735 H   0  0  0  0  0  0  0  0  0  0  0  0
    4.0905   -8.8728    2.4225 H   0  0  0  0  0  0  0  0  0  0  0  0
    6.1702   -6.7537    0.5370 H   0  0  0  0  0  0  0  0  0  0  0  0
    4.4991   -7.2538    0.2738 H   0  0  0  0  0  0  0  0  0  0  0  0
    6.6194   -4.5453    1.3578 H   0  0  0  0  0  0  0  0  0  0  0  0
    7.1494   -2.2762    0.8935 H   0  0  0  0  0  0  0  0  0  0  0  0
    6.4863    0.0771    0.4784 H   0  0  0  0  0  0  0  0  0  0  0  0
    4.1074    0.7506    0.6364 H   0  0  0  0  0  0  0  0  0  0  0  0
    2.3678   -0.9406    1.1843 H   0  0  0  0  0  0  0  0  0  0  0  0
    3.0220   -3.3030    1.6035 H   0  0  0  0  0  0  0  0  0  0  0  0
    6.6857   -6.0689    3.2384 H   0  0  0  0  0  0  0  0  0  0  0  0
    6.5824   -5.5768    5.5238 H   0  0  0  0  0  0  0  0  0  0  0  0
    3.8330   -7.2467    6.1168 H   0  0  0  0  0  0  0  0  0  0  0  0
    1.9726   -4.6611    4.6190 H   0  0  0  0  0  0  0  0  0  0  0  0
    3.0292   -4.9096    3.3648 H   0  0  0  0  0  0  0  0  0  0  0  0
    0.8840   -6.3058    3.5754 H   0  0  0  0  0  0  0  0  0  0  0  0
    2.2572   -7.1658    3.0417 H   0  0  0  0  0  0  0  0  0  0  0  0
    0.1399   -6.0317    5.4984 H   0  0  0  0  0  0  0  0  0  0  0  0
   -0.3740   -7.4264    8.5554 H   0  0  0  0  0  0  0  0  0  0  0  0
    0.6033   -6.4079    9.6114 H   0  0  0  0  0  0  0  0  0  0  0  0
    1.3681   -7.6924    8.6857 H   0  0  0  0  0  0  0  0  0  0  0  0
    2.8299   -5.7809    8.2512 H   0  0  0  0  0  0  0  0  0  0  0  0
    2.7114   -1.4503    6.5966 H   0  0  0  0  0  0  0  0  0  0  0  0
    0.3420   -0.6633    7.4643 H   0  0  0  0  0  0  0  0  0  0  0  0
    1.2096    1.1857    6.1814 H   0  0  0  0  0  0  0  0  0  0  0  0
    1.0059    0.3201    4.6686 H   0  0  0  0  0  0  0  0  0  0  0  0
   -0.8327    2.7260    6.6531 H   0  0  0  0  0  0  0  0  0  0  0  0
   -0.9956    1.3807    7.7713 H   0  0  0  0  0  0  0  0  0  0  0  0
   -2.3790    1.9128    6.8223 H   0  0  0  0  0  0  0  0  0  0  0  0
   -0.9246    2.2652    4.0509 H   0  0  0  0  0  0  0  0  0  0  0  0
   -2.4680    1.4700    4.3065 H   0  0  0  0  0  0  0  0  0  0  0  0
   -1.1772    0.6153    3.4932 H   0  0  0  0  0  0  0  0  0  0  0  0
    0.1031   -1.2366    4.1051 H   0  0  0  0  0  0  0  0  0  0  0  0
   -0.1007   -4.0658    5.5028 H   0  0  0  0  0  0  0  0  0  0  0  0
   -1.2636   -5.2705    7.3105 H   0  0  0  0  0  0  0  0  0  0  0  0
   -0.3529   -4.4020    8.5157 H   0  0  0  0  0  0  0  0  0  0  0  0
    3.9407   -3.3243    5.5193 H   0  0  0  0  0  0  0  0  0  0  0  0
    5.7830   -3.9878    6.6051 H   0  0  0  0  0  0  0  0  0  0  0  0
  1  2  1  0
  1 46  1  0
  1 47  1  0
  1 48  1  0
  2 23  1  0
  2  3  1  0
  2 49  1  6
  3 17  1  0
  3  4  1  0
  3 50  1  1
  4  5  2  0
  4 51  1  0
  5 16  1  0
  5  6  1  0
  6  7  1  0
  6 52  1  0
  6 53  1  0
  7  8  1  0
  8  9  1  0
  8 15  1  0
  8 54  1  1
  9 14  1  0
  9 10  2  0
 10 11  1  0
 10 55  1  0
 11 12  2  0
 11 56  1  0
 12 13  1  0
 12 57  1  0
 13 14  2  0
 13 58  1  0
 14 59  1  0
 15 16  1  0
 16 17  1  0
 16 60  1  1
 17 18  1  1
 17 19  1  0
 18 61  1  0
 19 44  1  0
 19 20  1  1
 19 21  1  0
 20 62  1  0
 21 22  1  0
 21 63  1  0
 21 64  1  0
 22 23  1  0
 22 65  1  0
 22 66  1  0
 23 26  1  0
 23 24  1  6
 24 25  2  0
 24 26  1  0
 26 27  1  0
 26 67  1  6
 27 43  1  0
 27 28  1  1
 27 29  1  0
 28 68  1  0
 28 69  1  0
 28 70  1  0
 29 30  2  0
 29 71  1  0
 30 31  1  0
 30 44  1  0
 31 42  1  0
 31 32  2  0
 32 33  1  0
 32 72  1  0
 33 39  1  0
 33 34  1  0
 33 73  1  1
 34 35  1  0
 34 74  1  0
 34 75  1  0
 35 36  1  0
 35 37  1  0
 35 38  1  0
 36 76  1  0
 36 77  1  0
 36 78  1  0
 37 79  1  0
 37 80  1  0
 37 81  1  0
 38 39  1  0
 39 40  1  6
 39 41  1  0
 40 82  1  0
 41 42  1  0
 42 43  1  0
 42 83  1  6
 43 84  1  0
 43 85  1  0
 44 45  1  0
 44 86  1  6
 45 87  1  0
M  END
>  <i_m_ct_stereo_status>  (356) 
1

>  <s_m_source_file>  (356) 
/var/tmp/pbs.5076255.sched01/tmpfn0mpy04/132vsilkqhl.sdf

>  <i_m_source_file_index>  (356) 
24

>  <i_lp_mmshare_version>  (356) 
48012

>  <i_f3d_flags>  (356) 
0

>  <s_epik_input>  (356) 
W2NIXTFbY0hdW2NIXVtjSF1bY0hdYzFbQ0BIXShPW0NIMl0yKU9bQ0BASF0zQzI9W0NIXVtDQEhdKFtDQEhdNFtDSDNdKVtDQF0zKFtPSF0pW0NAXShbT0hdKShbQ0gyXVtDSDJdNSlbQ0BIXShbT0hdKUMoPVtDSF1bQ0BdNihbQ0gzXSlbQ0hdKEM0NTcpQzc9TylDPThbQ0BASF0oW0NIMl02KU9bQ0BdOShbT0hdKVtDQEBIXShbQ0hdOClbQ0gyXUMoTzkpKFtDSDNdKVtDSDNd

>  <s_epik_cmdline>  (356) 
J2VwaWtfcHl0aG9uJywgJy1waHQnLCAnMi4wJywgJy1waCcsICc3LjAnLCAnLXRuJywgJzgnLCAnLW1hJywgJzIwMCcsICctaW1hZScsICc8aW5maWxlLm1hZT4nLCAnLW9tYWUnLCAnPG91dGZpbGUubWFlPic=

>  <r_lp_tautomer_probability>  (356) 
1

>  <r_epik_Ionization_Penalty>  (356) 
4.059e-05

>  <r_epik_Ionization_Penalty_Charging>  (356) 
0

>  <r_epik_Ionization_Penalty_Neutral>  (356) 
4.059e-05

>  <r_epik_State_Penalty>  (356) 
-0

>  <r_epik_Charging_Adjusted_Penalty>  (356) 
0

>  <i_epik_Tot_Q>  (356) 
0

>  <i_epik_Tot_abs_Q>  (356) 
0

>  <s_epik_Chemistry_Notes>  (356) 
This compound contains an acetal/aminal-like group ( X-CH(R)-Y where X, Y are N, S, or O) that may be acid/base labile, releasing an aldehyde.

>  <s_lp_Force_Field>  (356) 
OPLS3e

>  <r_lp_Energy>  (356) 
192.099

>  <b_lp_Chiralities_Consistent>  (356) 
1

>  <s_lp_Variant>  (356) 
96:0-3

>  <s_i_glide_gridfile>  (356) 
pfpi4k_grid

>  <i_i_glide_lignum>  (356) 
24

>  <i_i_glide_rotatable_bonds>  (356) 
5

>  <r_i_docking_score>  (356) 
-2.64659

>  <r_i_glide_ligand_efficiency>  (356) 
-0.0588131

>  <r_i_glide_ligand_efficiency_sa>  (356) 
-0.209192

>  <r_i_glide_ligand_efficiency_ln>  (356) 
-0.550609

>  <r_i_glide_gscore>  (356) 
-2.64659

>  <r_i_glide_lipo>  (356) 
-0.522294

>  <r_i_glide_hbond>  (356) 
-0.0952624

>  <r_i_glide_metal>  (356) 
-0

>  <r_i_glide_rewards>  (356) 
-0.0673082

>  <r_i_glide_evdw>  (356) 
-32.9047

>  <r_i_glide_ecoul>  (356) 
-2.01306

>  <r_i_glide_erotb>  (356) 
0.0550961

>  <r_i_glide_esite>  (356) 
-0.0696281

>  <r_i_glide_emodel>  (356) 
-40.1243

>  <r_i_glide_energy>  (356) 
-34.9178

>  <r_i_glide_einternal>  (356) 
2.02856

>  <r_i_glide_intrahb_reward>  (356) 
-0

>  <i_i_glide_confnum>  (356) 
4

>  <i_i_glide_posenum>  (356) 
4

>  <r_i_glide_eff_state_penalty>  (356) 
0

>  <ligand_id>  (356) 
96

>  <original_smiles>  (356) 
CC1C2C=C3COC(c4ccccc4)OC3C2(O)C2(O)CCC13C(=O)C3C1(C)C=C(C3=CC4CC(C)(C)OC4(O)OC3C1)C2O

>  <smiles>  (356) 
[H]OC12OC3([H])C(=C([H])C1([H])C([H])([H])C(C([H])([H])[H])(C([H])([H])[H])O2)C1=C([H])C(C([H])([H])[H])(C3([H])[H])C2([H])C(=O)C23C([H])([H])C([H])([H])C(O[H])(C1([H])O[H])C1(O[H])C2([H])OC([H])(c4c([H])c([H])c([H])c([H])c4[H])OC([H])([H])C2=C([H])C1([H])C3([H])C([H])([H])[H]

$$$$
96:2:1
     RDKit          3D

 87 95  0  0  1  0  0  0  0  0999 V2000
    3.2596   -9.2308    6.4164 C   0  0  0  0  0  0  0  0  0  0  0  0
    3.0582   -8.4335    5.1017 C   0  0  2  0  0  0  0  0  0  0  0  0
    4.4669   -7.9009    4.4502 C   0  0  1  0  0  0  0  0  0  0  0  0
    4.5246   -8.0306    2.9387 C   0  0  0  0  0  0  0  0  0  0  0  0
    5.0687   -6.9725    2.3414 C   0  0  0  0  0  0  0  0  0  0  0  0
    5.1412   -6.6119    0.8753 C   0  0  0  0  0  0  0  0  0  0  0  0
    4.8039   -5.2377    0.7117 O   0  0  0  0  0  0  0  0  0  0  0  0
    5.5505   -4.3936    1.5395 C   0  0  1  0  0  0  0  0  0  0  0  0
    5.1324   -2.9648    1.2626 C   0  0  0  0  0  0  0  0  0  0  0  0
    6.1066   -1.9958    0.9502 C   0  0  0  0  0  0  0  0  0  0  0  0
    5.7336   -0.6586    0.7245 C   0  0  0  0  0  0  0  0  0  0  0  0
    4.3846   -0.2766    0.8166 C   0  0  0  0  0  0  0  0  0  0  0  0
    3.4027   -1.2349    1.1278 C   0  0  0  0  0  0  0  0  0  0  0  0
    3.7764   -2.5760    1.3539 C   0  0  0  0  0  0  0  0  0  0  0  0
    5.2838   -4.6288    2.8885 O   0  0  0  0  0  0  0  0  0  0  0  0
    5.5998   -5.9521    3.2982 C   0  0  1  0  0  0  0  0  0  0  0  0
    5.0408   -6.3949    4.6845 C   0  0  2  0  0  0  0  0  0  0  0  0
    6.2088   -6.4256    5.5149 O   0  0  0  0  0  0  0  0  0  0  0  0
    3.9050   -5.5076    5.3119 C   0  0  2  0  0  0  0  0  0  0  0  0
    3.9408   -6.3532    6.4355 O   0  0  0  0  0  0  0  0  0  0  0  0
    2.6970   -5.3814    4.2775 C   0  0  0  0  0  0  0  0  0  0  0  0
    1.8733   -6.6207    3.8947 C   0  0  0  0  0  0  0  0  0  0  0  0
    1.7959   -7.4653    5.1209 C   0  0  1  0  0  0  0  0  0  0  0  0
    0.5482   -8.0702    5.7614 C   0  0  0  0  0  0  0  0  0  0  0  0
   -0.1606   -9.0550    5.9359 O   0  0  0  0  0  0  0  0  0  0  0  0
    0.8182   -6.6387    6.0770 C   0  0  1  0  0  0  0  0  0  0  0  0
    0.8268   -5.9271    7.4982 C   0  0  1  0  0  0  0  0  0  0  0  0
    0.5927   -6.9270    8.6457 C   0  0  0  0  0  0  0  0  0  0  0  0
    2.1074   -5.1400    7.7678 C   0  0  0  0  0  0  0  0  0  0  0  0
    2.5214   -4.0994    6.9894 C   0  0  0  0  0  0  0  0  0  0  0  0
    1.4584   -3.1709    6.6089 C   0  0  0  0  0  0  0  0  0  0  0  0
    1.7181   -1.8568    6.4655 C   0  0  0  0  0  0  0  0  0  0  0  0
    0.5567   -0.8883    6.4179 C   0  0  1  0  0  0  0  0  0  0  0  0
    0.6033    0.4338    5.6759 C   0  0  0  0  0  0  0  0  0  0  0  0
   -0.9153    0.7761    5.6670 C   0  0  0  0  0  0  0  0  0  0  0  0
   -1.2991    1.7508    6.7949 C   0  0  0  0  0  0  0  0  0  0  0  0
   -1.3899    1.3128    4.3047 C   0  0  0  0  0  0  0  0  0  0  0  0
   -1.5974   -0.4669    5.9451 O   0  0  0  0  0  0  0  0  0  0  0  0
   -0.6861   -1.5130    5.8313 C   0  0  1  0  0  0  0  0  0  0  0  0
   -0.5028   -1.8603    4.4810 O   0  0  0  0  0  0  0  0  0  0  0  0
   -0.9817   -2.6343    6.6182 O   0  0  0  0  0  0  0  0  0  0  0  0
    0.0062   -3.6796    6.5102 C   0  0  2  0  0  0  0  0  0  0  0  0
   -0.2860   -4.8331    7.5128 C   0  0  0  0  0  0  0  0  0  0  0  0
    3.8921   -4.1815    6.2005 C   0  0  1  0  0  0  0  0  0  0  0  0
    4.9923   -4.0750    7.0952 O   0  0  0  0  0  0  0  0  0  0  0  0
    3.4071   -8.5911    7.2874 H   0  0  0  0  0  0  0  0  0  0  0  0
    4.1303   -9.8852    6.3493 H   0  0  0  0  0  0  0  0  0  0  0  0
    2.4064   -9.8775    6.6390 H   0  0  0  0  0  0  0  0  0  0  0  0
    2.7534   -9.2256    4.4140 H   0  0  0  0  0  0  0  0  0  0  0  0
    5.2400   -8.5979    4.7704 H   0  0  0  0  0  0  0  0  0  0  0  0
    4.0860   -8.8687    2.4166 H   0  0  0  0  0  0  0  0  0  0  0  0
    6.1646   -6.7535    0.5304 H   0  0  0  0  0  0  0  0  0  0  0  0
    4.4935   -7.2527    0.2711 H   0  0  0  0  0  0  0  0  0  0  0  0
    6.6161   -4.5463    1.3516 H   0  0  0  0  0  0  0  0  0  0  0  0
    7.1473   -2.2777    0.8920 H   0  0  0  0  0  0  0  0  0  0  0  0
    6.4850    0.0765    0.4787 H   0  0  0  0  0  0  0  0  0  0  0  0
    4.1064    0.7495    0.6348 H   0  0  0  0  0  0  0  0  0  0  0  0
    2.3646   -0.9405    1.1784 H   0  0  0  0  0  0  0  0  0  0  0  0
    3.0186   -3.3035    1.5960 H   0  0  0  0  0  0  0  0  0  0  0  0
    6.6838   -6.0739    3.2484 H   0  0  0  0  0  0  0  0  0  0  0  0
    6.6187   -5.5759    5.4657 H   0  0  0  0  0  0  0  0  0  0  0  0
    4.8327   -6.3043    6.7669 H   0  0  0  0  0  0  0  0  0  0  0  0
    1.9670   -4.6604    4.6148 H   0  0  0  0  0  0  0  0  0  0  0  0
    3.0269   -4.9107    3.3596 H   0  0  0  0  0  0  0  0  0  0  0  0
    0.8795   -6.3075    3.5734 H   0  0  0  0  0  0  0  0  0  0  0  0
    2.2556   -7.1676    3.0395 H   0  0  0  0  0  0  0  0  0  0  0  0
    0.1423   -6.0303    5.4960 H   0  0  0  0  0  0  0  0  0  0  0  0
   -0.3728   -7.4284    8.5501 H   0  0  0  0  0  0  0  0  0  0  0  0
    0.6053   -6.4105    9.6081 H   0  0  0  0  0  0  0  0  0  0  0  0
    1.3699   -7.6941    8.6781 H   0  0  0  0  0  0  0  0  0  0  0  0
    2.8219   -5.7845    8.2518 H   0  0  0  0  0  0  0  0  0  0  0  0
    2.7124   -1.4497    6.5937 H   0  0  0  0  0  0  0  0  0  0  0  0
    0.3435   -0.6651    7.4647 H   0  0  0  0  0  0  0  0  0  0  0  0
    1.2106    1.1843    6.1820 H   0  0  0  0  0  0  0  0  0  0  0  0
    1.0063    0.3193    4.6689 H   0  0  0  0  0  0  0  0  0  0  0  0
   -0.8297    2.7244    6.6543 H   0  0  0  0  0  0  0  0  0  0  0  0
   -0.9925    1.3790    7.7732 H   0  0  0  0  0  0  0  0  0  0  0  0
   -2.3768    1.9119    6.8246 H   0  0  0  0  0  0  0  0  0  0  0  0
   -0.9231    2.2655    4.0544 H   0  0  0  0  0  0  0  0  0  0  0  0
   -2.4671    1.4714    4.3099 H   0  0  0  0  0  0  0  0  0  0  0  0
   -1.1773    0.6165    3.4944 H   0  0  0  0  0  0  0  0  0  0  0  0
    0.0958   -1.2319    4.1035 H   0  0  0  0  0  0  0  0  0  0  0  0
   -0.1013   -4.0653    5.5014 H   0  0  0  0  0  0  0  0  0  0  0  0
   -1.2631   -5.2713    7.3088 H   0  0  0  0  0  0  0  0  0  0  0  0
   -0.3520   -4.4037    8.5145 H   0  0  0  0  0  0  0  0  0  0  0  0
    3.9518   -3.3263    5.5241 H   0  0  0  0  0  0  0  0  0  0  0  0
    5.7855   -3.9559    6.5952 H   0  0  0  0  0  0  0  0  0  0  0  0
  1  2  1  0
  1 46  1  0
  1 47  1  0
  1 48  1  0
  2 23  1  0
  2  3  1  0
  2 49  1  6
  3 17  1  0
  3  4  1  0
  3 50  1  1
  4  5  2  0
  4 51  1  0
  5 16  1  0
  5  6  1  0
  6  7  1  0
  6 52  1  0
  6 53  1  0
  7  8  1  0
  8  9  1  0
  8 15  1  0
  8 54  1  1
  9 14  1  0
  9 10  2  0
 10 11  1  0
 10 55  1  0
 11 12  2  0
 11 56  1  0
 12 13  1  0
 12 57  1  0
 13 14  2  0
 13 58  1  0
 14 59  1  0
 15 16  1  0
 16 17  1  0
 16 60  1  1
 17 18  1  1
 17 19  1  0
 18 61  1  0
 19 44  1  0
 19 20  1  1
 19 21  1  0
 20 62  1  0
 21 22  1  0
 21 63  1  0
 21 64  1  0
 22 23  1  0
 22 65  1  0
 22 66  1  0
 23 26  1  0
 23 24  1  6
 24 25  2  0
 24 26  1  0
 26 27  1  0
 26 67  1  6
 27 43  1  0
 27 28  1  1
 27 29  1  0
 28 68  1  0
 28 69  1  0
 28 70  1  0
 29 30  2  0
 29 71  1  0
 30 31  1  0
 30 44  1  0
 31 42  1  0
 31 32  2  0
 32 33  1  0
 32 72  1  0
 33 39  1  0
 33 34  1  0
 33 73  1  1
 34 35  1  0
 34 74  1  0
 34 75  1  0
 35 36  1  0
 35 37  1  0
 35 38  1  0
 36 76  1  0
 36 77  1  0
 36 78  1  0
 37 79  1  0
 37 80  1  0
 37 81  1  0
 38 39  1  0
 39 40  1  6
 39 41  1  0
 40 82  1  0
 41 42  1  0
 42 43  1  0
 42 83  1  6
 43 84  1  0
 43 85  1  0
 44 45  1  0
 44 86  1  6
 45 87  1  0
M  END
>  <i_m_ct_stereo_status>  (357) 
1

>  <s_m_source_file>  (357) 
/var/tmp/pbs.5076255.sched01/tmpfn0mpy04/132vsilkqhl.sdf

>  <i_m_source_file_index>  (357) 
24

>  <i_lp_mmshare_version>  (357) 
48012

>  <i_f3d_flags>  (357) 
0

>  <s_epik_input>  (357) 
W2NIXTFbY0hdW2NIXVtjSF1bY0hdYzFbQ0BIXShPW0NIMl0yKU9bQ0BASF0zQzI9W0NIXVtDQEhdKFtDQEhdNFtDSDNdKVtDQF0zKFtPSF0pW0NAXShbT0hdKShbQ0gyXVtDSDJdNSlbQ0BIXShbT0hdKUMoPVtDSF1bQ0BdNihbQ0gzXSlbQ0hdKEM0NTcpQzc9TylDPThbQ0BASF0oW0NIMl02KU9bQ0BdOShbT0hdKVtDQEBIXShbQ0hdOClbQ0gyXUMoTzkpKFtDSDNdKVtDSDNd

>  <s_epik_cmdline>  (357) 
J2VwaWtfcHl0aG9uJywgJy1waHQnLCAnMi4wJywgJy1waCcsICc3LjAnLCAnLXRuJywgJzgnLCAnLW1hJywgJzIwMCcsICctaW1hZScsICc8aW5maWxlLm1hZT4nLCAnLW9tYWUnLCAnPG91dGZpbGUubWFlPic=

>  <r_lp_tautomer_probability>  (357) 
1

>  <r_epik_Ionization_Penalty>  (357) 
4.059e-05

>  <r_epik_Ionization_Penalty_Charging>  (357) 
0

>  <r_epik_Ionization_Penalty_Neutral>  (357) 
4.059e-05

>  <r_epik_State_Penalty>  (357) 
-0

>  <r_epik_Charging_Adjusted_Penalty>  (357) 
0

>  <i_epik_Tot_Q>  (357) 
0

>  <i_epik_Tot_abs_Q>  (357) 
0

>  <s_epik_Chemistry_Notes>  (357) 
This compound contains an acetal/aminal-like group ( X-CH(R)-Y where X, Y are N, S, or O) that may be acid/base labile, releasing an aldehyde.

>  <s_lp_Force_Field>  (357) 
OPLS3e

>  <r_lp_Energy>  (357) 
192.099

>  <b_lp_Chiralities_Consistent>  (357) 
1

>  <s_lp_Variant>  (357) 
96:0-3

>  <s_i_glide_gridfile>  (357) 
pfpi4k_grid

>  <i_i_glide_lignum>  (357) 
24

>  <i_i_glide_rotatable_bonds>  (357) 
5

>  <r_i_docking_score>  (357) 
-2.60441

>  <r_i_glide_ligand_efficiency>  (357) 
-0.0578758

>  <r_i_glide_ligand_efficiency_sa>  (357) 
-0.205858

>  <r_i_glide_ligand_efficiency_ln>  (357) 
-0.541834

>  <r_i_glide_gscore>  (357) 
-2.60441

>  <r_i_glide_lipo>  (357) 
-0.522487

>  <r_i_glide_hbond>  (357) 
-0.095819

>  <r_i_glide_metal>  (357) 
-0

>  <r_i_glide_rewards>  (357) 
-0.0673397

>  <r_i_glide_evdw>  (357) 
-32.9075

>  <r_i_glide_ecoul>  (357) 
-1.726

>  <r_i_glide_erotb>  (357) 
0.0550961

>  <r_i_glide_esite>  (357) 
-0.0695856

>  <r_i_glide_emodel>  (357) 
-39.6495

>  <r_i_glide_energy>  (357) 
-34.6335

>  <r_i_glide_einternal>  (357) 
2.05024

>  <r_i_glide_intrahb_reward>  (357) 
-0

>  <i_i_glide_confnum>  (357) 
4

>  <i_i_glide_posenum>  (357) 
32

>  <r_i_glide_eff_state_penalty>  (357) 
0

>  <ligand_id>  (357) 
96

>  <original_smiles>  (357) 
CC1C2C=C3COC(c4ccccc4)OC3C2(O)C2(O)CCC13C(=O)C3C1(C)C=C(C3=CC4CC(C)(C)OC4(O)OC3C1)C2O

>  <smiles>  (357) 
[H]OC12OC3([H])C(=C([H])C1([H])C([H])([H])C(C([H])([H])[H])(C([H])([H])[H])O2)C1=C([H])C(C([H])([H])[H])(C3([H])[H])C2([H])C(=O)C23C([H])([H])C([H])([H])C(O[H])(C1([H])O[H])C1(O[H])C2([H])OC([H])(c4c([H])c([H])c([H])c([H])c4[H])OC([H])([H])C2=C([H])C1([H])C3([H])C([H])([H])[H]

$$$$
96:2:2
     RDKit          3D

 87 95  0  0  1  0  0  0  0  0999 V2000
    1.1479   -0.9615   10.6819 C   0  0  0  0  0  0  0  0  0  0  0  0
    2.1985   -1.1237    9.5535 C   0  0  2  0  0  0  0  0  0  0  0  0
    2.0212   -0.0222    8.3465 C   0  0  1  0  0  0  0  0  0  0  0  0
    3.3382    0.5296    7.8287 C   0  0  0  0  0  0  0  0  0  0  0  0
    3.3719    0.6521    6.5016 C   0  0  0  0  0  0  0  0  0  0  0  0
    4.5317    0.9714    5.5798 C   0  0  0  0  0  0  0  0  0  0  0  0
    4.5048    0.0815    4.4655 O   0  0  0  0  0  0  0  0  0  0  0  0
    3.2602    0.0366    3.8249 C   0  0  1  0  0  0  0  0  0  0  0  0
    3.3685   -0.9203    2.6533 C   0  0  0  0  0  0  0  0  0  0  0  0
    3.1568   -2.3111    2.8149 C   0  0  0  0  0  0  0  0  0  0  0  0
    3.2432   -3.1873    1.7188 C   0  0  0  0  0  0  0  0  0  0  0  0
    3.5502   -2.6820    0.4417 C   0  0  0  0  0  0  0  0  0  0  0  0
    3.7698   -1.3008    0.2699 C   0  0  0  0  0  0  0  0  0  0  0  0
    3.6777   -0.4242    1.3696 C   0  0  0  0  0  0  0  0  0  0  0  0
    2.2658   -0.4601    4.6703 O   0  0  0  0  0  0  0  0  0  0  0  0
    2.0730    0.3211    5.8366 C   0  0  1  0  0  0  0  0  0  0  0  0
    1.2116   -0.3298    6.9639 C   0  0  2  0  0  0  0  0  0  0  0  0
   -0.0037    0.4290    6.9215 O   0  0  0  0  0  0  0  0  0  0  0  0
    0.9590   -1.8832    6.8682 C   0  0  2  0  0  0  0  0  0  0  0  0
    0.1898   -1.7906    8.0431 O   0  0  0  0  0  0  0  0  0  0  0  0
    2.3630   -2.6400    6.7751 C   0  0  0  0  0  0  0  0  0  0  0  0
    3.3484   -2.6206    7.9527 C   0  0  0  0  0  0  0  0  0  0  0  0
    2.5211   -2.6407    9.1888 C   0  0  1  0  0  0  0  0  0  0  0  0
    2.6608   -3.5696   10.3919 C   0  0  0  0  0  0  0  0  0  0  0  0
    3.0597   -3.7289   11.5405 O   0  0  0  0  0  0  0  0  0  0  0  0
    1.9315   -4.1256    9.2137 C   0  0  1  0  0  0  0  0  0  0  0  0
    0.5287   -4.8755    9.1760 C   0  0  1  0  0  0  0  0  0  0  0  0
   -0.1342   -4.9228   10.5648 C   0  0  0  0  0  0  0  0  0  0  0  0
   -0.4505   -4.2743    8.1691 C   0  0  0  0  0  0  0  0  0  0  0  0
   -0.2014   -4.2061    6.8321 C   0  0  0  0  0  0  0  0  0  0  0  0
    0.3879   -5.4188    6.2639 C   0  0  0  0  0  0  0  0  0  0  0  0
    0.0997   -5.7955    5.0044 C   0  0  0  0  0  0  0  0  0  0  0  0
    0.4309   -7.2061    4.5666 C   0  0  1  0  0  0  0  0  0  0  0  0
    0.7497   -7.5816    3.1309 C   0  0  0  0  0  0  0  0  0  0  0  0
    1.3491   -8.9990    3.3657 C   0  0  0  0  0  0  0  0  0  0  0  0
    0.3154  -10.1133    3.1278 C   0  0  0  0  0  0  0  0  0  0  0  0
    2.6179   -9.2570    2.5332 C   0  0  0  0  0  0  0  0  0  0  0  0
    1.7043   -9.0413    4.7639 O   0  0  0  0  0  0  0  0  0  0  0  0
    1.6399   -7.7555    5.2934 C   0  0  1  0  0  0  0  0  0  0  0  0
    2.8178   -7.0320    4.9820 O   0  0  0  0  0  0  0  0  0  0  0  0
    1.3325   -7.6943    6.6595 O   0  0  0  0  0  0  0  0  0  0  0  0
    1.2311   -6.3453    7.1597 C   0  0  2  0  0  0  0  0  0  0  0  0
    0.7540   -6.3252    8.6405 C   0  0  0  0  0  0  0  0  0  0  0  0
   -0.1017   -2.8037    6.1036 C   0  0  1  0  0  0  0  0  0  0  0  0
   -1.3888   -2.2298    5.9323 O   0  0  0  0  0  0  0  0  0  0  0  0
    0.1754   -1.4009   10.4542 H   0  0  0  0  0  0  0  0  0  0  0  0
    0.9751    0.0928   10.9065 H   0  0  0  0  0  0  0  0  0  0  0  0
    1.4849   -1.4217   11.6142 H   0  0  0  0  0  0  0  0  0  0  0  0
    3.1110   -0.7937   10.0538 H   0  0  0  0  0  0  0  0  0  0  0  0
    1.5706    0.8587    8.8033 H   0  0  0  0  0  0  0  0  0  0  0  0
    4.1784    0.7187    8.4808 H   0  0  0  0  0  0  0  0  0  0  0  0
    4.4220    1.9924    5.2122 H   0  0  0  0  0  0  0  0  0  0  0  0
    5.4886    0.9110    6.1061 H   0  0  0  0  0  0  0  0  0  0  0  0
    2.9825    1.0423    3.4977 H   0  0  0  0  0  0  0  0  0  0  0  0
    2.9104   -2.7239    3.7780 H   0  0  0  0  0  0  0  0  0  0  0  0
    3.0687   -4.2427    1.8606 H   0  0  0  0  0  0  0  0  0  0  0  0
    3.6078   -3.3484   -0.4034 H   0  0  0  0  0  0  0  0  0  0  0  0
    3.9828   -0.9059   -0.7112 H   0  0  0  0  0  0  0  0  0  0  0  0
    3.8223    0.6364    1.2249 H   0  0  0  0  0  0  0  0  0  0  0  0
    1.6703    1.2905    5.5345 H   0  0  0  0  0  0  0  0  0  0  0  0
    0.2246    1.3468    6.9200 H   0  0  0  0  0  0  0  0  0  0  0  0
    0.7706   -1.4689    8.7208 H   0  0  0  0  0  0  0  0  0  0  0  0
    2.2338   -3.6876    6.5428 H   0  0  0  0  0  0  0  0  0  0  0  0
    2.9237   -2.3107    5.9127 H   0  0  0  0  0  0  0  0  0  0  0  0
    3.9956   -3.4982    7.8996 H   0  0  0  0  0  0  0  0  0  0  0  0
    4.0506   -1.7938    7.9346 H   0  0  0  0  0  0  0  0  0  0  0  0
    2.5910   -4.8057    8.6941 H   0  0  0  0  0  0  0  0  0  0  0  0
    0.4836   -5.4623   11.2865 H   0  0  0  0  0  0  0  0  0  0  0  0
   -1.0946   -5.4382   10.5122 H   0  0  0  0  0  0  0  0  0  0  0  0
   -0.3226   -3.9215   10.9591 H   0  0  0  0  0  0  0  0  0  0  0  0
   -1.0388   -3.5181    8.6587 H   0  0  0  0  0  0  0  0  0  0  0  0
   -0.5406   -5.2034    4.3696 H   0  0  0  0  0  0  0  0  0  0  0  0
   -0.4323   -7.8021    4.8765 H   0  0  0  0  0  0  0  0  0  0  0  0
   -0.1280   -7.5908    2.4837 H   0  0  0  0  0  0  0  0  0  0  0  0
    1.4787   -6.8975    2.6951 H   0  0  0  0  0  0  0  0  0  0  0  0
    0.0069  -10.1590    2.0831 H   0  0  0  0  0  0  0  0  0  0  0  0
   -0.5813   -9.9661    3.7298 H   0  0  0  0  0  0  0  0  0  0  0  0
    0.7268  -11.0884    3.3885 H   0  0  0  0  0  0  0  0  0  0  0  0
    2.4092   -9.2608    1.4637 H   0  0  0  0  0  0  0  0  0  0  0  0
    3.0491  -10.2257    2.7843 H   0  0  0  0  0  0  0  0  0  0  0  0
    3.3825   -8.5047    2.7238 H   0  0  0  0  0  0  0  0  0  0  0  0
    3.5409   -7.4846    5.3919 H   0  0  0  0  0  0  0  0  0  0  0  0
    2.2419   -5.9509    7.1193 H   0  0  0  0  0  0  0  0  0  0  0  0
    1.4647   -6.8618    9.2694 H   0  0  0  0  0  0  0  0  0  0  0  0
   -0.1825   -6.8832    8.6988 H   0  0  0  0  0  0  0  0  0  0  0  0
    0.2755   -2.9709    5.0927 H   0  0  0  0  0  0  0  0  0  0  0  0
   -1.3029   -1.5253    5.3066 H   0  0  0  0  0  0  0  0  0  0  0  0
  1  2  1  0
  1 46  1  0
  1 47  1  0
  1 48  1  0
  2 23  1  0
  2  3  1  0
  2 49  1  1
  3 17  1  0
  3  4  1  0
  3 50  1  1
  4  5  2  0
  4 51  1  0
  5 16  1  0
  5  6  1  0
  6  7  1  0
  6 52  1  0
  6 53  1  0
  7  8  1  0
  8  9  1  0
  8 15  1  0
  8 54  1  6
  9 14  1  0
  9 10  2  0
 10 11  1  0
 10 55  1  0
 11 12  2  0
 11 56  1  0
 12 13  1  0
 12 57  1  0
 13 14  2  0
 13 58  1  0
 14 59  1  0
 15 16  1  0
 16 17  1  0
 16 60  1  6
 17 18  1  1
 17 19  1  0
 18 61  1  0
 19 44  1  0
 19 20  1  1
 19 21  1  0
 20 62  1  0
 21 22  1  0
 21 63  1  0
 21 64  1  0
 22 23  1  0
 22 65  1  0
 22 66  1  0
 23 26  1  0
 23 24  1  1
 24 25  2  0
 24 26  1  0
 26 27  1  0
 26 67  1  6
 27 43  1  0
 27 28  1  1
 27 29  1  0
 28 68  1  0
 28 69  1  0
 28 70  1  0
 29 30  2  0
 29 71  1  0
 30 31  1  0
 30 44  1  0
 31 42  1  0
 31 32  2  0
 32 33  1  0
 32 72  1  0
 33 39  1  0
 33 34  1  0
 33 73  1  1
 34 35  1  0
 34 74  1  0
 34 75  1  0
 35 36  1  0
 35 37  1  0
 35 38  1  0
 36 76  1  0
 36 77  1  0
 36 78  1  0
 37 79  1  0
 37 80  1  0
 37 81  1  0
 38 39  1  0
 39 40  1  1
 39 41  1  0
 40 82  1  0
 41 42  1  0
 42 43  1  0
 42 83  1  1
 43 84  1  0
 43 85  1  0
 44 45  1  0
 44 86  1  6
 45 87  1  0
M  END
>  <i_m_ct_stereo_status>  (358) 
1

>  <s_m_source_file>  (358) 
/var/tmp/pbs.5076255.sched01/tmpfn0mpy04/132vsilkqhl.sdf

>  <i_m_source_file_index>  (358) 
24

>  <i_lp_mmshare_version>  (358) 
48012

>  <i_f3d_flags>  (358) 
0

>  <s_epik_input>  (358) 
W2NIXTFbY0hdW2NIXVtjSF1bY0hdYzFbQ0BIXShPW0NIMl0yKU9bQ0BASF0zQzI9W0NIXVtDQEhdKFtDQEhdNFtDSDNdKVtDQF0zKFtPSF0pW0NAXShbT0hdKShbQ0gyXVtDSDJdNSlbQ0BIXShbT0hdKUMoPVtDSF1bQ0BdNihbQ0gzXSlbQ0hdKEM0NTcpQzc9TylDPThbQ0BASF0oW0NIMl02KU9bQ0BdOShbT0hdKVtDQEBIXShbQ0hdOClbQ0gyXUMoTzkpKFtDSDNdKVtDSDNd

>  <s_epik_cmdline>  (358) 
J2VwaWtfcHl0aG9uJywgJy1waHQnLCAnMi4wJywgJy1waCcsICc3LjAnLCAnLXRuJywgJzgnLCAnLW1hJywgJzIwMCcsICctaW1hZScsICc8aW5maWxlLm1hZT4nLCAnLW9tYWUnLCAnPG91dGZpbGUubWFlPic=

>  <r_lp_tautomer_probability>  (358) 
1

>  <r_epik_Ionization_Penalty>  (358) 
4.059e-05

>  <r_epik_Ionization_Penalty_Charging>  (358) 
0

>  <r_epik_Ionization_Penalty_Neutral>  (358) 
4.059e-05

>  <r_epik_State_Penalty>  (358) 
-0

>  <r_epik_Charging_Adjusted_Penalty>  (358) 
0

>  <i_epik_Tot_Q>  (358) 
0

>  <i_epik_Tot_abs_Q>  (358) 
0

>  <s_epik_Chemistry_Notes>  (358) 
This compound contains an acetal/aminal-like group ( X-CH(R)-Y where X, Y are N, S, or O) that may be acid/base labile, releasing an aldehyde.

>  <s_lp_Force_Field>  (358) 
OPLS3e

>  <r_lp_Energy>  (358) 
192.099

>  <b_lp_Chiralities_Consistent>  (358) 
1

>  <s_lp_Variant>  (358) 
96:0-3

>  <s_i_glide_gridfile>  (358) 
pfpi4k_grid

>  <i_i_glide_lignum>  (358) 
24

>  <i_i_glide_rotatable_bonds>  (358) 
5

>  <r_i_docking_score>  (358) 
-2.13844

>  <r_i_glide_ligand_efficiency>  (358) 
-0.0475209

>  <r_i_glide_ligand_efficiency_sa>  (358) 
-0.169027

>  <r_i_glide_ligand_efficiency_ln>  (358) 
-0.444891

>  <r_i_glide_gscore>  (358) 
-2.13844

>  <r_i_glide_lipo>  (358) 
-0.012227

>  <r_i_glide_hbond>  (358) 
0

>  <r_i_glide_metal>  (358) 
-0

>  <r_i_glide_rewards>  (358) 
0

>  <r_i_glide_evdw>  (358) 
-30.5065

>  <r_i_glide_ecoul>  (358) 
-4.32289

>  <r_i_glide_erotb>  (358) 
0.0550961

>  <r_i_glide_esite>  (358) 
-0.0075498

>  <r_i_glide_emodel>  (358) 
-39.4113

>  <r_i_glide_energy>  (358) 
-34.8294

>  <r_i_glide_einternal>  (358) 
0.789778

>  <r_i_glide_intrahb_reward>  (358) 
-0

>  <i_i_glide_confnum>  (358) 
1

>  <i_i_glide_posenum>  (358) 
7

>  <r_i_glide_eff_state_penalty>  (358) 
0

>  <ligand_id>  (358) 
96

>  <original_smiles>  (358) 
CC1C2C=C3COC(c4ccccc4)OC3C2(O)C2(O)CCC13C(=O)C3C1(C)C=C(C3=CC4CC(C)(C)OC4(O)OC3C1)C2O

>  <smiles>  (358) 
[H]OC12OC3([H])C(=C([H])C1([H])C([H])([H])C(C([H])([H])[H])(C([H])([H])[H])O2)C1=C([H])C(C([H])([H])[H])(C3([H])[H])C2([H])C(=O)C23C([H])([H])C([H])([H])C(O[H])(C1([H])O[H])C1(O[H])C2([H])OC([H])(c4c([H])c([H])c([H])c([H])c4[H])OC([H])([H])C2=C([H])C1([H])C3([H])C([H])([H])[H]

$$$$
97:0:0
     RDKit          3D

 23 24  0  0  1  0  0  0  0  0999 V2000
   -4.8339   -9.3678   -5.1260 C   0  0  0  0  0  0  0  0  0  0  0  0
   -5.0303   -7.8991   -5.5355 C   0  0  0  0  0  0  0  0  0  0  0  0
   -4.1859   -7.0945   -5.1329 O   0  0  0  0  0  0  0  0  0  0  0  0
   -6.0527   -7.5489   -6.3649 N   0  0  0  0  0  0  0  0  0  0  0  0
   -6.3103   -8.3266   -7.4789 C   0  0  0  0  0  0  0  0  0  0  0  0
   -5.5127   -9.1627   -7.9265 O   0  0  0  0  0  0  0  0  0  0  0  0
   -7.5747   -8.0981   -8.1739 C   0  0  0  0  0  0  0  0  0  0  0  0
   -8.3939   -7.0851   -7.8559 C   0  0  0  0  0  0  0  0  0  0  0  0
   -8.0534   -6.1425   -6.8014 C   0  0  0  0  0  0  0  0  0  0  0  0
   -8.8951   -5.0437   -6.5267 C   0  0  0  0  0  0  0  0  0  0  0  0
   -8.5510   -4.1225   -5.5250 C   0  0  0  0  0  0  0  0  0  0  0  0
   -7.3562   -4.2975   -4.8107 C   0  0  0  0  0  0  0  0  0  0  0  0
   -6.5259   -5.4001   -5.0704 C   0  0  0  0  0  0  0  0  0  0  0  0
   -6.8593   -6.3605   -6.0717 C   0  0  0  0  0  0  0  0  0  0  0  0
   -5.5692  -10.0515   -5.5494 H   0  0  0  0  0  0  0  0  0  0  0  0
   -4.9494   -9.4410   -4.0495 H   0  0  0  0  0  0  0  0  0  0  0  0
   -3.8340   -9.7077   -5.3995 H   0  0  0  0  0  0  0  0  0  0  0  0
   -7.8520   -8.7726   -8.9695 H   0  0  0  0  0  0  0  0  0  0  0  0
   -9.3304   -6.9526   -8.3779 H   0  0  0  0  0  0  0  0  0  0  0  0
   -9.8126   -4.9128   -7.0820 H   0  0  0  0  0  0  0  0  0  0  0  0
   -9.1857   -3.2773   -5.3156 H   0  0  0  0  0  0  0  0  0  0  0  0
   -7.0569   -3.5956   -4.0495 H   0  0  0  0  0  0  0  0  0  0  0  0
   -5.6408   -5.4513   -4.4560 H   0  0  0  0  0  0  0  0  0  0  0  0
  1  2  1  0
  1 15  1  0
  1 16  1  0
  1 17  1  0
  2  3  2  0
  2  4  1  0
  4 14  1  0
  4  5  1  0
  5  6  2  0
  5  7  1  0
  7  8  2  0
  7 18  1  0
  8  9  1  0
  8 19  1  0
  9 14  2  0
  9 10  1  0
 10 11  2  0
 10 20  1  0
 11 12  1  0
 11 21  1  0
 12 13  2  0
 12 22  1  0
 13 14  1  0
 13 23  1  0
M  END
>  <i_m_ct_stereo_status>  (359) 
1

>  <s_m_source_file>  (359) 
/var/tmp/pbs.5076255.sched01/tmpfn0mpy04/132vsilkqhl.sdf

>  <i_m_source_file_index>  (359) 
26

>  <i_lp_mmshare_version>  (359) 
48012

>  <i_f3d_flags>  (359) 
0

>  <s_epik_input>  (359) 
W2NIXTFbY0hdYyg9TyluKEMoPU8pW0NIM10pYyhjMTIpW2NIXVtjSF1bY0hdW2NIXTI=

>  <s_epik_cmdline>  (359) 
J2VwaWtfcHl0aG9uJywgJy1waHQnLCAnMi4wJywgJy1waCcsICc3LjAnLCAnLXRuJywgJzgnLCAnLW1hJywgJzIwMCcsICctaW1hZScsICc8aW5maWxlLm1hZT4nLCAnLW9tYWUnLCAnPG91dGZpbGUubWFlPic=

>  <r_lp_tautomer_probability>  (359) 
1

>  <r_epik_Ionization_Penalty>  (359) 
7.48071e-11

>  <r_epik_Ionization_Penalty_Charging>  (359) 
7.48071e-11

>  <r_epik_Ionization_Penalty_Neutral>  (359) 
0

>  <r_epik_State_Penalty>  (359) 
-0

>  <r_epik_Charging_Adjusted_Penalty>  (359) 
7.48071e-11

>  <i_epik_Tot_Q>  (359) 
0

>  <i_epik_Tot_abs_Q>  (359) 
0

>  <s_lp_Force_Field>  (359) 
OPLS3e

>  <r_lp_Energy>  (359) 
42.0178

>  <b_lp_Chiralities_Consistent>  (359) 
1

>  <s_lp_Variant>  (359) 
97:0-1

>  <s_i_glide_gridfile>  (359) 
pfpi4k_grid

>  <i_i_glide_lignum>  (359) 
26

>  <i_i_glide_rotatable_bonds>  (359) 
1

>  <r_i_docking_score>  (359) 
-7.82066

>  <r_i_glide_ligand_efficiency>  (359) 
-0.558619

>  <r_i_glide_ligand_efficiency_sa>  (359) 
-1.34635

>  <r_i_glide_ligand_efficiency_ln>  (359) 
-2.14909

>  <r_i_glide_gscore>  (359) 
-7.82066

>  <r_i_glide_lipo>  (359) 
-2.28465

>  <r_i_glide_hbond>  (359) 
-0.241053

>  <r_i_glide_metal>  (359) 
-0

>  <r_i_glide_rewards>  (359) 
-3.56465

>  <r_i_glide_evdw>  (359) 
-25.926

>  <r_i_glide_ecoul>  (359) 
-2.89341

>  <r_i_glide_erotb>  (359) 
0

>  <r_i_glide_esite>  (359) 
0

>  <r_i_glide_emodel>  (359) 
-42.8999

>  <r_i_glide_energy>  (359) 
-28.8194

>  <r_i_glide_einternal>  (359) 
0.838494

>  <r_i_glide_intrahb_reward>  (359) 
-0

>  <i_i_glide_confnum>  (359) 
1

>  <i_i_glide_posenum>  (359) 
39

>  <r_i_glide_eff_state_penalty>  (359) 
0

>  <ligand_id>  (359) 
97

>  <original_smiles>  (359) 
CC(=O)n1c(=O)ccc2ccccc21

>  <smiles>  (359) 
[H]c1c([H])c([H])c2c(c1[H])c([H])c([H])c(=O)n2C(=O)C([H])([H])[H]

$$$$
97:0:1
     RDKit          3D

 23 24  0  0  1  0  0  0  0  0999 V2000
  -10.5896   -6.3324   -8.5251 C   0  0  0  0  0  0  0  0  0  0  0  0
   -9.0588   -6.2271   -8.4050 C   0  0  0  0  0  0  0  0  0  0  0  0
   -8.3948   -6.6060   -9.3758 O   0  0  0  0  0  0  0  0  0  0  0  0
   -8.4990   -5.6528   -7.2997 N   0  0  0  0  0  0  0  0  0  0  0  0
   -9.0075   -4.4487   -6.8482 C   0  0  0  0  0  0  0  0  0  0  0  0
   -9.7562   -3.7284   -7.5143 O   0  0  0  0  0  0  0  0  0  0  0  0
   -8.5827   -4.0061   -5.5247 C   0  0  0  0  0  0  0  0  0  0  0  0
   -7.6559   -4.6563   -4.8128 C   0  0  0  0  0  0  0  0  0  0  0  0
   -6.9938   -5.8364   -5.3425 C   0  0  0  0  0  0  0  0  0  0  0  0
   -5.9751   -6.4645   -4.6013 C   0  0  0  0  0  0  0  0  0  0  0  0
   -5.3170   -7.5961   -5.1182 C   0  0  0  0  0  0  0  0  0  0  0  0
   -5.6875   -8.0927   -6.3773 C   0  0  0  0  0  0  0  0  0  0  0  0
   -6.7196   -7.4733   -7.1097 C   0  0  0  0  0  0  0  0  0  0  0  0
   -7.3969   -6.3201   -6.6115 C   0  0  0  0  0  0  0  0  0  0  0  0
  -11.1392   -5.8976   -7.6905 H   0  0  0  0  0  0  0  0  0  0  0  0
  -10.8717   -7.3831   -8.5596 H   0  0  0  0  0  0  0  0  0  0  0  0
  -10.9323   -5.8594   -9.4456 H   0  0  0  0  0  0  0  0  0  0  0  0
   -9.0424   -3.1171   -5.1180 H   0  0  0  0  0  0  0  0  0  0  0  0
   -7.3767   -4.2998   -3.8301 H   0  0  0  0  0  0  0  0  0  0  0  0
   -5.7181   -6.0947   -3.6209 H   0  0  0  0  0  0  0  0  0  0  0  0
   -4.5409   -8.0870   -4.5505 H   0  0  0  0  0  0  0  0  0  0  0  0
   -5.1952   -8.9674   -6.7809 H   0  0  0  0  0  0  0  0  0  0  0  0
   -6.9572   -7.9293   -8.0600 H   0  0  0  0  0  0  0  0  0  0  0  0
  1  2  1  0
  1 15  1  0
  1 16  1  0
  1 17  1  0
  2  3  2  0
  2  4  1  0
  4 14  1  0
  4  5  1  0
  5  6  2  0
  5  7  1  0
  7  8  2  0
  7 18  1  0
  8  9  1  0
  8 19  1  0
  9 14  2  0
  9 10  1  0
 10 11  2  0
 10 20  1  0
 11 12  1  0
 11 21  1  0
 12 13  2  0
 12 22  1  0
 13 14  1  0
 13 23  1  0
M  END
>  <i_m_ct_stereo_status>  (360) 
1

>  <s_m_source_file>  (360) 
/var/tmp/pbs.5076255.sched01/tmpfn0mpy04/132vsilkqhl.sdf

>  <i_m_source_file_index>  (360) 
26

>  <i_lp_mmshare_version>  (360) 
48012

>  <i_f3d_flags>  (360) 
0

>  <s_epik_input>  (360) 
W2NIXTFbY0hdYyg9TyluKEMoPU8pW0NIM10pYyhjMTIpW2NIXVtjSF1bY0hdW2NIXTI=

>  <s_epik_cmdline>  (360) 
J2VwaWtfcHl0aG9uJywgJy1waHQnLCAnMi4wJywgJy1waCcsICc3LjAnLCAnLXRuJywgJzgnLCAnLW1hJywgJzIwMCcsICctaW1hZScsICc8aW5maWxlLm1hZT4nLCAnLW9tYWUnLCAnPG91dGZpbGUubWFlPic=

>  <r_lp_tautomer_probability>  (360) 
1

>  <r_epik_Ionization_Penalty>  (360) 
7.48071e-11

>  <r_epik_Ionization_Penalty_Charging>  (360) 
7.48071e-11

>  <r_epik_Ionization_Penalty_Neutral>  (360) 
0

>  <r_epik_State_Penalty>  (360) 
-0

>  <r_epik_Charging_Adjusted_Penalty>  (360) 
7.48071e-11

>  <i_epik_Tot_Q>  (360) 
0

>  <i_epik_Tot_abs_Q>  (360) 
0

>  <s_lp_Force_Field>  (360) 
OPLS3e

>  <r_lp_Energy>  (360) 
42.0178

>  <b_lp_Chiralities_Consistent>  (360) 
1

>  <s_lp_Variant>  (360) 
97:0-1

>  <s_i_glide_gridfile>  (360) 
pfpi4k_grid

>  <i_i_glide_lignum>  (360) 
26

>  <i_i_glide_rotatable_bonds>  (360) 
1

>  <r_i_docking_score>  (360) 
-6.78213

>  <r_i_glide_ligand_efficiency>  (360) 
-0.484438

>  <r_i_glide_ligand_efficiency_sa>  (360) 
-1.16756

>  <r_i_glide_ligand_efficiency_ln>  (360) 
-1.86371

>  <r_i_glide_gscore>  (360) 
-6.78213

>  <r_i_glide_lipo>  (360) 
-2.54898

>  <r_i_glide_hbond>  (360) 
-0.0108592

>  <r_i_glide_metal>  (360) 
-0

>  <r_i_glide_rewards>  (360) 
-2.53004

>  <r_i_glide_evdw>  (360) 
-27.4112

>  <r_i_glide_ecoul>  (360) 
-2.14465

>  <r_i_glide_erotb>  (360) 
0

>  <r_i_glide_esite>  (360) 
0

>  <r_i_glide_emodel>  (360) 
-41.6914

>  <r_i_glide_energy>  (360) 
-29.5559

>  <r_i_glide_einternal>  (360) 
0.932476

>  <r_i_glide_intrahb_reward>  (360) 
-0

>  <i_i_glide_confnum>  (360) 
2

>  <i_i_glide_posenum>  (360) 
38

>  <r_i_glide_eff_state_penalty>  (360) 
0

>  <ligand_id>  (360) 
97

>  <original_smiles>  (360) 
CC(=O)n1c(=O)ccc2ccccc21

>  <smiles>  (360) 
[H]c1c([H])c([H])c2c(c1[H])c([H])c([H])c(=O)n2C(=O)C([H])([H])[H]

$$$$
97:0:2
     RDKit          3D

 23 24  0  0  1  0  0  0  0  0999 V2000
   -7.9553   -9.7052   -8.3272 C   0  0  0  0  0  0  0  0  0  0  0  0
   -7.1154   -8.4654   -7.9773 C   0  0  0  0  0  0  0  0  0  0  0  0
   -5.8879   -8.6047   -7.9692 O   0  0  0  0  0  0  0  0  0  0  0  0
   -7.7312   -7.2641   -7.7674 N   0  0  0  0  0  0  0  0  0  0  0  0
   -8.6864   -6.8402   -8.6702 C   0  0  0  0  0  0  0  0  0  0  0  0
   -8.8299   -7.3351   -9.7937 O   0  0  0  0  0  0  0  0  0  0  0  0
   -9.5219   -5.7138   -8.2642 C   0  0  0  0  0  0  0  0  0  0  0  0
   -9.2972   -5.0116   -7.1454 C   0  0  0  0  0  0  0  0  0  0  0  0
   -8.1802   -5.3357   -6.2734 C   0  0  0  0  0  0  0  0  0  0  0  0
   -7.9146   -4.5416   -5.1409 C   0  0  0  0  0  0  0  0  0  0  0  0
   -6.8176   -4.8400   -4.3154 C   0  0  0  0  0  0  0  0  0  0  0  0
   -5.9933   -5.9324   -4.6273 C   0  0  0  0  0  0  0  0  0  0  0  0
   -6.2722   -6.7352   -5.7482 C   0  0  0  0  0  0  0  0  0  0  0  0
   -7.3765   -6.4536   -6.6055 C   0  0  0  0  0  0  0  0  0  0  0  0
   -9.0266   -9.5141   -8.3980 H   0  0  0  0  0  0  0  0  0  0  0  0
   -7.8224  -10.4500   -7.5443 H   0  0  0  0  0  0  0  0  0  0  0  0
   -7.6184  -10.1366   -9.2678 H   0  0  0  0  0  0  0  0  0  0  0  0
  -10.3599   -5.4483   -8.8928 H   0  0  0  0  0  0  0  0  0  0  0  0
   -9.9432   -4.1895   -6.8633 H   0  0  0  0  0  0  0  0  0  0  0  0
   -8.5560   -3.7113   -4.8910 H   0  0  0  0  0  0  0  0  0  0  0  0
   -6.6120   -4.2363   -3.4424 H   0  0  0  0  0  0  0  0  0  0  0  0
   -5.1528   -6.1765   -3.9934 H   0  0  0  0  0  0  0  0  0  0  0  0
   -5.5972   -7.5626   -5.9052 H   0  0  0  0  0  0  0  0  0  0  0  0
  1  2  1  0
  1 15  1  0
  1 16  1  0
  1 17  1  0
  2  3  2  0
  2  4  1  0
  4 14  1  0
  4  5  1  0
  5  6  2  0
  5  7  1  0
  7  8  2  0
  7 18  1  0
  8  9  1  0
  8 19  1  0
  9 14  2  0
  9 10  1  0
 10 11  2  0
 10 20  1  0
 11 12  1  0
 11 21  1  0
 12 13  2  0
 12 22  1  0
 13 14  1  0
 13 23  1  0
M  END
>  <i_m_ct_stereo_status>  (361) 
1

>  <s_m_source_file>  (361) 
/var/tmp/pbs.5076255.sched01/tmpfn0mpy04/132vsilkqhl.sdf

>  <i_m_source_file_index>  (361) 
26

>  <i_lp_mmshare_version>  (361) 
48012

>  <i_f3d_flags>  (361) 
0

>  <s_epik_input>  (361) 
W2NIXTFbY0hdYyg9TyluKEMoPU8pW0NIM10pYyhjMTIpW2NIXVtjSF1bY0hdW2NIXTI=

>  <s_epik_cmdline>  (361) 
J2VwaWtfcHl0aG9uJywgJy1waHQnLCAnMi4wJywgJy1waCcsICc3LjAnLCAnLXRuJywgJzgnLCAnLW1hJywgJzIwMCcsICctaW1hZScsICc8aW5maWxlLm1hZT4nLCAnLW9tYWUnLCAnPG91dGZpbGUubWFlPic=

>  <r_lp_tautomer_probability>  (361) 
1

>  <r_epik_Ionization_Penalty>  (361) 
7.48071e-11

>  <r_epik_Ionization_Penalty_Charging>  (361) 
7.48071e-11

>  <r_epik_Ionization_Penalty_Neutral>  (361) 
0

>  <r_epik_State_Penalty>  (361) 
-0

>  <r_epik_Charging_Adjusted_Penalty>  (361) 
7.48071e-11

>  <i_epik_Tot_Q>  (361) 
0

>  <i_epik_Tot_abs_Q>  (361) 
0

>  <s_lp_Force_Field>  (361) 
OPLS3e

>  <r_lp_Energy>  (361) 
42.0178

>  <b_lp_Chiralities_Consistent>  (361) 
1

>  <s_lp_Variant>  (361) 
97:0-1

>  <s_i_glide_gridfile>  (361) 
pfpi4k_grid

>  <i_i_glide_lignum>  (361) 
26

>  <i_i_glide_rotatable_bonds>  (361) 
1

>  <r_i_docking_score>  (361) 
-6.58957

>  <r_i_glide_ligand_efficiency>  (361) 
-0.470684

>  <r_i_glide_ligand_efficiency_sa>  (361) 
-1.13441

>  <r_i_glide_ligand_efficiency_ln>  (361) 
-1.81079

>  <r_i_glide_gscore>  (361) 
-6.58957

>  <r_i_glide_lipo>  (361) 
-2.21437

>  <r_i_glide_hbond>  (361) 
0

>  <r_i_glide_metal>  (361) 
-0

>  <r_i_glide_rewards>  (361) 
-3.14758

>  <r_i_glide_evdw>  (361) 
-25.0194

>  <r_i_glide_ecoul>  (361) 
0.155697

>  <r_i_glide_erotb>  (361) 
0

>  <r_i_glide_esite>  (361) 
0

>  <r_i_glide_emodel>  (361) 
-36.7128

>  <r_i_glide_energy>  (361) 
-24.8637

>  <r_i_glide_einternal>  (361) 
0.774591

>  <r_i_glide_intrahb_reward>  (361) 
-0

>  <i_i_glide_confnum>  (361) 
1

>  <i_i_glide_posenum>  (361) 
1

>  <r_i_glide_eff_state_penalty>  (361) 
0

>  <ligand_id>  (361) 
97

>  <original_smiles>  (361) 
CC(=O)n1c(=O)ccc2ccccc21

>  <smiles>  (361) 
[H]c1c([H])c([H])c2c(c1[H])c([H])c([H])c(=O)n2C(=O)C([H])([H])[H]

$$$$
98:0:0
     RDKit          3D

 66 71  0  0  1  0  0  0  0  0999 V2000
    1.3353    0.8437    3.7071 C   0  0  0  0  0  0  0  0  0  0  0  0
    2.0452   -0.2481    3.2080 O   0  0  0  0  0  0  0  0  0  0  0  0
    1.8240   -1.5012    3.7908 C   0  0  0  0  0  0  0  0  0  0  0  0
    2.5906   -2.6047    3.0000 C   0  0  1  0  0  0  0  0  0  0  0  0
    1.9239   -3.8937    3.5595 C   0  0  0  0  0  0  0  0  0  0  0  0
    2.1552   -2.3843    1.4674 C   0  0  2  0  0  0  0  0  0  0  0  0
    2.5339   -3.1211    0.0119 C   0  0  2  0  0  0  0  0  0  0  0  0
    2.7603   -2.7225   -1.4435 C   0  0  0  0  0  0  0  0  0  0  0  0
    3.9524   -2.2741   -1.9880 C   0  0  0  0  0  0  0  0  0  0  0  0
    4.0886   -2.0128   -3.4801 C   0  0  0  0  0  0  0  0  0  0  0  0
    5.2148   -1.8165   -1.1686 C   0  0  1  0  0  0  0  0  0  0  0  0
    4.8066   -0.7631   -0.4043 O   0  0  0  0  0  0  0  0  0  0  0  0
    3.7848   -0.9565    0.4183 C   0  0  0  0  0  0  0  0  0  0  0  0
    3.2119    0.0217    0.8884 O   0  0  0  0  0  0  0  0  0  0  0  0
    3.4176   -2.4622    0.8194 C   0  0  1  0  0  0  0  0  0  0  0  0
    3.5959   -4.0548    0.3629 C   0  0  1  0  0  0  0  0  0  0  0  0
    3.0586   -5.1366    1.1147 N   0  0  0  0  0  0  0  0  0  0  0  0
    2.0237   -5.9450    0.7848 C   0  0  0  0  0  0  0  0  0  0  0  0
    1.2986   -5.7961   -0.2020 O   0  0  0  0  0  0  0  0  0  0  0  0
    1.6995   -7.0779    1.7179 C   0  0  0  0  0  0  0  0  0  0  0  0
    0.3671   -7.5217    1.8812 C   0  0  0  0  0  0  0  0  0  0  0  0
    0.1068   -8.6295    2.7067 C   0  0  0  0  0  0  0  0  0  0  0  0
    1.0738   -9.2915    3.3750 N   0  0  0  0  0  0  0  0  0  0  0  0
    2.3437   -8.8569    3.2352 C   0  0  0  0  0  0  0  0  0  0  0  0
    2.7107   -7.7608    2.4323 C   0  0  0  0  0  0  0  0  0  0  0  0
    4.6459   -4.7158   -0.5624 C   0  0  0  0  0  0  0  0  0  0  0  0
    6.0448   -4.1363   -0.5437 C   0  0  0  0  0  0  0  0  0  0  0  0
    6.0954   -2.6956   -0.1674 C   0  0  2  0  0  0  0  0  0  0  0  0
    6.2004   -2.3960    1.4197 C   0  0  0  0  0  0  0  0  0  0  0  0
    5.3917   -3.2142    2.5194 C   0  0  0  0  0  0  0  0  0  0  0  0
    5.6604   -4.4088    2.6437 O   0  0  0  0  0  0  0  0  0  0  0  0
    4.2298   -2.5508    3.4246 C   0  0  0  0  0  0  0  0  0  0  0  0
    4.7347   -1.1208    3.7635 C   0  0  0  0  0  0  0  0  0  0  0  0
    4.4188   -3.2753    4.7920 C   0  0  0  0  0  0  0  0  0  0  0  0
    1.6227    1.7294    3.1474 H   0  0  0  0  0  0  0  0  0  0  0  0
    1.5814    1.0013    4.7527 H   0  0  0  0  0  0  0  0  0  0  0  0
    0.2641    0.7013    3.5912 H   0  0  0  0  0  0  0  0  0  0  0  0
    2.0699   -1.4799    4.8470 H   0  0  0  0  0  0  0  0  0  0  0  0
    0.7549   -1.6944    3.7358 H   0  0  0  0  0  0  0  0  0  0  0  0
    2.5351   -4.7883    3.4942 H   0  0  0  0  0  0  0  0  0  0  0  0
    0.9672   -4.1114    3.0745 H   0  0  0  0  0  0  0  0  0  0  0  0
    1.6960   -3.7866    4.6164 H   0  0  0  0  0  0  0  0  0  0  0  0
    1.3909   -1.6213    1.2919 H   0  0  0  0  0  0  0  0  0  0  0  0
    1.9224   -2.9288   -2.0910 H   0  0  0  0  0  0  0  0  0  0  0  0
    4.8982   -2.6259   -3.8793 H   0  0  0  0  0  0  0  0  0  0  0  0
    4.3371   -0.9660   -3.6750 H   0  0  0  0  0  0  0  0  0  0  0  0
    3.1657   -2.2413   -4.0185 H   0  0  0  0  0  0  0  0  0  0  0  0
    5.8729   -1.3375   -1.8935 H   0  0  0  0  0  0  0  0  0  0  0  0
    3.5579   -5.3332    1.9866 H   0  0  0  0  0  0  0  0  0  0  0  0
   -0.4550   -7.0783    1.3185 H   0  0  0  0  0  0  0  0  0  0  0  0
   -0.8908   -9.0289    2.8179 H   0  0  0  0  0  0  0  0  0  0  0  0
    3.0890   -9.4276    3.7723 H   0  0  0  0  0  0  0  0  0  0  0  0
    3.7578   -7.5002    2.3290 H   0  0  0  0  0  0  0  0  0  0  0  0
    4.7795   -5.7726   -0.3163 H   0  0  0  0  0  0  0  0  0  0  0  0
    4.2727   -4.7525   -1.5775 H   0  0  0  0  0  0  0  0  0  0  0  0
    6.7050   -4.6966    0.1097 H   0  0  0  0  0  0  0  0  0  0  0  0
    6.4068   -4.1994   -1.5584 H   0  0  0  0  0  0  0  0  0  0  0  0
    7.0825   -2.3761   -0.4791 H   0  0  0  0  0  0  0  0  0  0  0  0
    7.2350   -2.6164    1.6590 H   0  0  0  0  0  0  0  0  0  0  0  0
    6.1221   -1.3231    1.6163 H   0  0  0  0  0  0  0  0  0  0  0  0
    4.2871   -0.7505    4.6871 H   0  0  0  0  0  0  0  0  0  0  0  0
    4.5366   -0.3900    2.9841 H   0  0  0  0  0  0  0  0  0  0  0  0
    5.8150   -1.1061    3.9434 H   0  0  0  0  0  0  0  0  0  0  0  0
    3.7729   -2.8678    5.5726 H   0  0  0  0  0  0  0  0  0  0  0  0
    5.4531   -3.1716    5.1521 H   0  0  0  0  0  0  0  0  0  0  0  0
    4.2431   -4.3567    4.7492 H   0  0  0  0  0  0  0  0  0  0  0  0
  1  2  1  0
  1 35  1  0
  1 36  1  0
  1 37  1  0
  2  3  1  0
  4  3  1  1
  3 38  1  0
  3 39  1  0
  4 32  1  0
  4  5  1  0
  4  6  1  0
  5 40  1  0
  5 41  1  0
  5 42  1  0
  6 15  1  0
  6  7  1  0
  6 43  1  1
  7 15  1  0
  7 16  1  0
  7  8  1  6
  8  9  2  0
  8 44  1  0
  9 10  1  0
  9 11  1  0
 10 45  1  0
 10 46  1  0
 10 47  1  0
 11 28  1  0
 11 12  1  0
 11 48  1  6
 12 13  1  0
 13 14  2  0
 15 13  1  6
 15 16  1  0
 16 17  1  1
 16 26  1  0
 17 18  1  0
 17 49  1  0
 18 19  2  0
 18 20  1  0
 20 25  1  0
 20 21  2  0
 21 22  1  0
 21 50  1  0
 22 23  2  0
 22 51  1  0
 23 24  1  0
 24 25  2  0
 24 52  1  0
 25 53  1  0
 26 27  1  0
 26 54  1  0
 26 55  1  0
 27 28  1  0
 27 56  1  0
 27 57  1  0
 28 29  1  0
 28 58  1  6
 29 30  1  0
 29 59  1  0
 29 60  1  0
 30 31  2  0
 30 32  1  0
 32 33  1  0
 32 34  1  0
 33 61  1  0
 33 62  1  0
 33 63  1  0
 34 64  1  0
 34 65  1  0
 34 66  1  0
M  END
>  <i_m_ct_stereo_status>  (362) 
1

>  <s_m_source_file>  (362) 
/var/tmp/pbs.5076255.sched01/tmpfn0mpy04/132vsilkqhl.sdf

>  <i_m_source_file_index>  (362) 
27

>  <i_lp_mmshare_version>  (362) 
48012

>  <i_f3d_flags>  (362) 
2

>  <s_epik_input>  (362) 
W0NIM11PW0NIMl1bQ0BAXShbQ0gzXSkoW0NIXTFDMjNbQ0BdMTQ1KUMoW0NIM10pKFtDSDNdKUMoPU8pW0NIMl1bQ0BIXShbQ0BASF0oQyg9W0NIXTQpW0NIM10pT0MyPU8pW0NIMl1bQ0gyXUMzNVtOSF1DKD1PKWM2W2NIXVtjSF1uW2NIXVtjSF02

>  <s_epik_cmdline>  (362) 
J2VwaWtfcHl0aG9uJywgJy1waHQnLCAnMi4wJywgJy1waCcsICc3LjAnLCAnLXRuJywgJzgnLCAnLW1hJywgJzIwMCcsICctaW1hZScsICc8aW5maWxlLm1hZT4nLCAnLW9tYWUnLCAnPG91dGZpbGUubWFlPic=

>  <r_lp_tautomer_probability>  (362) 
1

>  <r_epik_Ionization_Penalty>  (362) 
0.000204843

>  <r_epik_Ionization_Penalty_Charging>  (362) 
0

>  <r_epik_Ionization_Penalty_Neutral>  (362) 
0.000204843

>  <r_epik_State_Penalty>  (362) 
-0

>  <r_epik_Charging_Adjusted_Penalty>  (362) 
0

>  <i_epik_Tot_Q>  (362) 
0

>  <i_epik_Tot_abs_Q>  (362) 
0

>  <s_epik_Chemistry_Notes>  (362) 
This compound has an ester and may undergo hydrolysis at high or low pH.

>  <s_lp_Force_Field>  (362) 
OPLS3e

>  <r_lp_Energy>  (362) 
206.52

>  <b_lp_Chiralities_Consistent>  (362) 
0

>  <s_lp_Variant>  (362) 
98:0-1

>  <s_i_glide_gridfile>  (362) 
pfpi4k_grid

>  <i_i_glide_lignum>  (362) 
27

>  <i_i_glide_rotatable_bonds>  (362) 
5

>  <r_i_docking_score>  (362) 
-2.89532

>  <r_i_glide_ligand_efficiency>  (362) 
-0.0851564

>  <r_i_glide_ligand_efficiency_sa>  (362) 
-0.275874

>  <r_i_glide_ligand_efficiency_ln>  (362) 
-0.639657

>  <r_i_glide_gscore>  (362) 
-2.89532

>  <r_i_glide_lipo>  (362) 
-0.420887

>  <r_i_glide_hbond>  (362) 
-0.424959

>  <r_i_glide_metal>  (362) 
-0

>  <r_i_glide_rewards>  (362) 
-0.791909

>  <r_i_glide_evdw>  (362) 
-28.0836

>  <r_i_glide_ecoul>  (362) 
-0.948155

>  <r_i_glide_erotb>  (362) 
0.373668

>  <r_i_glide_esite>  (362) 
-0.0848268

>  <r_i_glide_emodel>  (362) 
-36.1505

>  <r_i_glide_energy>  (362) 
-29.0317

>  <r_i_glide_einternal>  (362) 
4.03512

>  <r_i_glide_intrahb_reward>  (362) 
-0.5

>  <i_i_glide_confnum>  (362) 
2

>  <i_i_glide_posenum>  (362) 
3

>  <r_i_glide_eff_state_penalty>  (362) 
0

>  <ligand_id>  (362) 
98

>  <original_smiles>  (362) 
COCC1(C)C2C34C=C(C)C5OC(=O)C23C4(NC(=O)c2ccncc2)CCC5CC(=O)C1(C)C

>  <smiles>  (362) 
[H]C1=C(C([H])([H])[H])C2([H])OC(=O)C34C5([H])C13C4(N([H])C(=O)c1c([H])c([H])nc([H])c1[H])C([H])([H])C([H])([H])C2([H])C([H])([H])C(=O)C(C([H])([H])[H])(C([H])([H])[H])C5(C([H])([H])[H])C([H])([H])OC([H])([H])[H]

$$$$
98:0:1
     RDKit          3D

 66 71  0  0  1  0  0  0  0  0999 V2000
   -1.2310   -4.0649    6.8700 C   0  0  0  0  0  0  0  0  0  0  0  0
   -0.6762   -2.9645    6.2003 O   0  0  0  0  0  0  0  0  0  0  0  0
    0.6217   -3.1657    5.6702 C   0  0  0  0  0  0  0  0  0  0  0  0
    1.2106   -1.7984    5.1910 C   0  0  1  0  0  0  0  0  0  0  0  0
    2.4093   -2.2700    4.3217 C   0  0  0  0  0  0  0  0  0  0  0  0
    0.0855   -1.1674    4.2264 C   0  0  2  0  0  0  0  0  0  0  0  0
   -0.0687    0.2339    3.3566 C   0  0  2  0  0  0  0  0  0  0  0  0
   -1.1875    1.2195    2.9922 C   0  0  0  0  0  0  0  0  0  0  0  0
   -1.5778    2.2973    3.7299 C   0  0  0  0  0  0  0  0  0  0  0  0
   -2.6304    3.2824    3.2260 C   0  0  0  0  0  0  0  0  0  0  0  0
   -1.2322    2.5524    5.2534 C   0  0  1  0  0  0  0  0  0  0  0  0
   -1.7156    1.4741    5.9353 O   0  0  0  0  0  0  0  0  0  0  0  0
   -1.3207    0.2746    5.5506 C   0  0  0  0  0  0  0  0  0  0  0  0
   -2.0301   -0.6821    5.7720 O   0  0  0  0  0  0  0  0  0  0  0  0
    0.0391    0.1659    4.7129 C   0  0  1  0  0  0  0  0  0  0  0  0
    1.0858    1.0462    3.7649 C   0  0  1  0  0  0  0  0  0  0  0  0
    2.3049    0.4794    3.2634 N   0  0  0  0  0  0  0  0  0  0  0  0
    2.5569    0.3020    1.9335 C   0  0  0  0  0  0  0  0  0  0  0  0
    1.7532    0.6153    1.0984 O   0  0  0  0  0  0  0  0  0  0  0  0
    3.8288   -0.4266    1.5588 C   0  0  0  0  0  0  0  0  0  0  0  0
    3.9099   -1.1461    0.3254 C   0  0  0  0  0  0  0  0  0  0  0  0
    5.1259   -1.7712   -0.0140 C   0  0  0  0  0  0  0  0  0  0  0  0
    6.2236   -1.7188    0.7522 N   0  0  0  0  0  0  0  0  0  0  0  0
    6.1265   -1.0564    1.9227 C   0  0  0  0  0  0  0  0  0  0  0  0
    4.9596   -0.4077    2.3678 C   0  0  0  0  0  0  0  0  0  0  0  0
    1.2813    2.5929    3.6000 C   0  0  0  0  0  0  0  0  0  0  0  0
    1.1351    3.4171    4.8750 C   0  0  0  0  0  0  0  0  0  0  0  0
    0.2149    2.7855    5.8794 C   0  0  2  0  0  0  0  0  0  0  0  0
    0.8989    1.7391    6.9273 C   0  0  0  0  0  0  0  0  0  0  0  0
    2.0131    0.6758    6.5187 C   0  0  0  0  0  0  0  0  0  0  0  0
    3.0968    1.1151    6.1356 O   0  0  0  0  0  0  0  0  0  0  0  0
    1.7519   -0.9174    6.5349 C   0  0  0  0  0  0  0  0  0  0  0  0
    0.9134   -1.1761    7.8110 C   0  0  0  0  0  0  0  0  0  0  0  0
    3.1467   -1.4694    6.9567 C   0  0  0  0  0  0  0  0  0  0  0  0
   -2.2061   -3.7626    7.2412 H   0  0  0  0  0  0  0  0  0  0  0  0
   -0.6156   -4.3464    7.7192 H   0  0  0  0  0  0  0  0  0  0  0  0
   -1.3605   -4.9168    6.2079 H   0  0  0  0  0  0  0  0  0  0  0  0
    1.2935   -3.6667    6.3681 H   0  0  0  0  0  0  0  0  0  0  0  0
    0.5152   -3.8394    4.8181 H   0  0  0  0  0  0  0  0  0  0  0  0
    3.2097   -1.5467    4.2338 H   0  0  0  0  0  0  0  0  0  0  0  0
    2.1171   -2.5664    3.3103 H   0  0  0  0  0  0  0  0  0  0  0  0
    2.8834   -3.1455    4.7597 H   0  0  0  0  0  0  0  0  0  0  0  0
   -0.7802   -1.8183    4.0326 H   0  0  0  0  0  0  0  0  0  0  0  0
   -1.5445    1.0918    1.9842 H   0  0  0  0  0  0  0  0  0  0  0  0
   -2.2140    4.2853    3.2381 H   0  0  0  0  0  0  0  0  0  0  0  0
   -3.5208    3.2906    3.8567 H   0  0  0  0  0  0  0  0  0  0  0  0
   -2.9465    3.0409    2.2131 H   0  0  0  0  0  0  0  0  0  0  0  0
   -1.8979    3.3420    5.6003 H   0  0  0  0  0  0  0  0  0  0  0  0
    2.9335    0.1295    3.9652 H   0  0  0  0  0  0  0  0  0  0  0  0
    3.0840   -1.1849   -0.3643 H   0  0  0  0  0  0  0  0  0  0  0  0
    5.2568   -2.3148   -0.9431 H   0  0  0  0  0  0  0  0  0  0  0  0
    7.0158   -1.0244    2.5072 H   0  0  0  0  0  0  0  0  0  0  0  0
    4.9815    0.1387    3.3096 H   0  0  0  0  0  0  0  0  0  0  0  0
    2.3021    2.8139    3.2799 H   0  0  0  0  0  0  0  0  0  0  0  0
    0.6862    3.0111    2.7737 H   0  0  0  0  0  0  0  0  0  0  0  0
    2.0899    3.5757    5.3688 H   0  0  0  0  0  0  0  0  0  0  0  0
    0.7330    4.3930    4.6061 H   0  0  0  0  0  0  0  0  0  0  0  0
   -0.0254    3.5826    6.5742 H   0  0  0  0  0  0  0  0  0  0  0  0
    1.4110    2.3672    7.6481 H   0  0  0  0  0  0  0  0  0  0  0  0
    0.1397    1.2536    7.5443 H   0  0  0  0  0  0  0  0  0  0  0  0
    1.0582   -2.1953    8.1724 H   0  0  0  0  0  0  0  0  0  0  0  0
   -0.1519   -1.0037    7.6703 H   0  0  0  0  0  0  0  0  0  0  0  0
    1.2440   -0.5341    8.6362 H   0  0  0  0  0  0  0  0  0  0  0  0
    3.1349   -2.5461    7.1338 H   0  0  0  0  0  0  0  0  0  0  0  0
    3.4787   -0.9988    7.8893 H   0  0  0  0  0  0  0  0  0  0  0  0
    3.9447   -1.2585    6.2369 H   0  0  0  0  0  0  0  0  0  0  0  0
  1  2  1  0
  1 35  1  0
  1 36  1  0
  1 37  1  0
  2  3  1  0
  4  3  1  1
  3 38  1  0
  3 39  1  0
  4 32  1  0
  4  5  1  0
  4  6  1  0
  5 40  1  0
  5 41  1  0
  5 42  1  0
  6 15  1  0
  6  7  1  0
  6 43  1  1
  7 15  1  0
  7 16  1  0
  7  8  1  1
  8  9  2  0
  8 44  1  0
  9 10  1  0
  9 11  1  0
 10 45  1  0
 10 46  1  0
 10 47  1  0
 11 28  1  0
 11 12  1  0
 11 48  1  1
 12 13  1  0
 13 14  2  0
 15 13  1  1
 15 16  1  0
 16 17  1  6
 16 26  1  0
 17 18  1  0
 17 49  1  0
 18 19  2  0
 18 20  1  0
 20 25  1  0
 20 21  2  0
 21 22  1  0
 21 50  1  0
 22 23  2  0
 22 51  1  0
 23 24  1  0
 24 25  2  0
 24 52  1  0
 25 53  1  0
 26 27  1  0
 26 54  1  0
 26 55  1  0
 27 28  1  0
 27 56  1  0
 27 57  1  0
 28 29  1  0
 28 58  1  1
 29 30  1  0
 29 59  1  0
 29 60  1  0
 30 31  2  0
 30 32  1  0
 32 33  1  0
 32 34  1  0
 33 61  1  0
 33 62  1  0
 33 63  1  0
 34 64  1  0
 34 65  1  0
 34 66  1  0
M  END
>  <i_m_ct_stereo_status>  (363) 
1

>  <s_m_source_file>  (363) 
/var/tmp/pbs.5076255.sched01/tmpfn0mpy04/132vsilkqhl.sdf

>  <i_m_source_file_index>  (363) 
27

>  <i_lp_mmshare_version>  (363) 
48012

>  <i_f3d_flags>  (363) 
2

>  <s_epik_input>  (363) 
W0NIM11PW0NIMl1bQ0BAXShbQ0gzXSkoW0NIXTFDMjNbQ0BdMTQ1KUMoW0NIM10pKFtDSDNdKUMoPU8pW0NIMl1bQ0BIXShbQ0BASF0oQyg9W0NIXTQpW0NIM10pT0MyPU8pW0NIMl1bQ0gyXUMzNVtOSF1DKD1PKWM2W2NIXVtjSF1uW2NIXVtjSF02

>  <s_epik_cmdline>  (363) 
J2VwaWtfcHl0aG9uJywgJy1waHQnLCAnMi4wJywgJy1waCcsICc3LjAnLCAnLXRuJywgJzgnLCAnLW1hJywgJzIwMCcsICctaW1hZScsICc8aW5maWxlLm1hZT4nLCAnLW9tYWUnLCAnPG91dGZpbGUubWFlPic=

>  <r_lp_tautomer_probability>  (363) 
1

>  <r_epik_Ionization_Penalty>  (363) 
0.000204843

>  <r_epik_Ionization_Penalty_Charging>  (363) 
0

>  <r_epik_Ionization_Penalty_Neutral>  (363) 
0.000204843

>  <r_epik_State_Penalty>  (363) 
-0

>  <r_epik_Charging_Adjusted_Penalty>  (363) 
0

>  <i_epik_Tot_Q>  (363) 
0

>  <i_epik_Tot_abs_Q>  (363) 
0

>  <s_epik_Chemistry_Notes>  (363) 
This compound has an ester and may undergo hydrolysis at high or low pH.

>  <s_lp_Force_Field>  (363) 
OPLS3e

>  <r_lp_Energy>  (363) 
206.52

>  <b_lp_Chiralities_Consistent>  (363) 
0

>  <s_lp_Variant>  (363) 
98:0-1

>  <s_i_glide_gridfile>  (363) 
pfpi4k_grid

>  <i_i_glide_lignum>  (363) 
27

>  <i_i_glide_rotatable_bonds>  (363) 
5

>  <r_i_docking_score>  (363) 
-2.51721

>  <r_i_glide_ligand_efficiency>  (363) 
-0.0740357

>  <r_i_glide_ligand_efficiency_sa>  (363) 
-0.239847

>  <r_i_glide_ligand_efficiency_ln>  (363) 
-0.556123

>  <r_i_glide_gscore>  (363) 
-2.51721

>  <r_i_glide_lipo>  (363) 
-0.281424

>  <r_i_glide_hbond>  (363) 
-0.0866785

>  <r_i_glide_metal>  (363) 
-0

>  <r_i_glide_rewards>  (363) 
-0.741681

>  <r_i_glide_evdw>  (363) 
-26.2016

>  <r_i_glide_ecoul>  (363) 
-2.72534

>  <r_i_glide_erotb>  (363) 
0.373668

>  <r_i_glide_esite>  (363) 
-0.0622175

>  <r_i_glide_emodel>  (363) 
-35.482

>  <r_i_glide_energy>  (363) 
-28.9269

>  <r_i_glide_einternal>  (363) 
3.97563

>  <r_i_glide_intrahb_reward>  (363) 
-0.5

>  <i_i_glide_confnum>  (363) 
2

>  <i_i_glide_posenum>  (363) 
37

>  <r_i_glide_eff_state_penalty>  (363) 
0

>  <ligand_id>  (363) 
98

>  <original_smiles>  (363) 
COCC1(C)C2C34C=C(C)C5OC(=O)C23C4(NC(=O)c2ccncc2)CCC5CC(=O)C1(C)C

>  <smiles>  (363) 
[H]C1=C(C([H])([H])[H])C2([H])OC(=O)C34C5([H])C13C4(N([H])C(=O)c1c([H])c([H])nc([H])c1[H])C([H])([H])C([H])([H])C2([H])C([H])([H])C(=O)C(C([H])([H])[H])(C([H])([H])[H])C5(C([H])([H])[H])C([H])([H])OC([H])([H])[H]

$$$$
98:0:2
     RDKit          3D

 66 71  0  0  1  0  0  0  0  0999 V2000
   -0.5743   -5.6889    5.8427 C   0  0  0  0  0  0  0  0  0  0  0  0
    0.0565   -4.4874    5.4954 O   0  0  0  0  0  0  0  0  0  0  0  0
    1.2103   -4.5903    4.6901 C   0  0  0  0  0  0  0  0  0  0  0  0
    1.8622   -3.1811    4.5216 C   0  0  1  0  0  0  0  0  0  0  0  0
    2.8323   -3.4320    3.3297 C   0  0  0  0  0  0  0  0  0  0  0  0
    0.6702   -2.2136    4.0400 C   0  0  2  0  0  0  0  0  0  0  0  0
    0.5341   -0.6087    3.6604 C   0  0  2  0  0  0  0  0  0  0  0  0
   -0.5206    0.4951    3.8293 C   0  0  0  0  0  0  0  0  0  0  0  0
   -0.6450    1.3171    4.9302 C   0  0  0  0  0  0  0  0  0  0  0  0
   -1.6324    2.4780    4.9498 C   0  0  0  0  0  0  0  0  0  0  0  0
   -0.0060    1.0567    6.3504 C   0  0  1  0  0  0  0  0  0  0  0  0
   -0.4980   -0.1445    6.7757 O   0  0  0  0  0  0  0  0  0  0  0  0
   -0.3127   -1.1883    5.9798 C   0  0  0  0  0  0  0  0  0  0  0  0
   -1.0755   -2.1291    6.0604 O   0  0  0  0  0  0  0  0  0  0  0  0
    0.8697   -1.1071    4.8848 C   0  0  1  0  0  0  0  0  0  0  0  0
    1.8146   -0.0151    4.0508 C   0  0  1  0  0  0  0  0  0  0  0  0
    2.8330   -0.4844    3.1441 N   0  0  0  0  0  0  0  0  0  0  0  0
    2.9734   -0.0928    1.8424 C   0  0  0  0  0  0  0  0  0  0  0  0
    2.1964    0.6776    1.2880 O   0  0  0  0  0  0  0  0  0  0  0  0
    4.1187   -0.7130    1.0790 C   0  0  0  0  0  0  0  0  0  0  0  0
    3.9527   -1.0782   -0.2925 C   0  0  0  0  0  0  0  0  0  0  0  0
    5.0585   -1.5910   -0.9930 C   0  0  0  0  0  0  0  0  0  0  0  0
    6.2739   -1.7625   -0.4474 N   0  0  0  0  0  0  0  0  0  0  0  0
    6.4176   -1.4602    0.8617 C   0  0  0  0  0  0  0  0  0  0  0  0
    5.3763   -0.9390    1.6572 C   0  0  0  0  0  0  0  0  0  0  0  0
    2.1721    1.4733    4.3257 C   0  0  0  0  0  0  0  0  0  0  0  0
    2.3500    1.8585    5.7805 C   0  0  0  0  0  0  0  0  0  0  0  0
    1.5457    1.0025    6.7157 C   0  0  2  0  0  0  0  0  0  0  0  0
    2.2772   -0.3515    7.2505 C   0  0  0  0  0  0  0  0  0  0  0  0
    3.1700   -1.2985    6.3327 C   0  0  0  0  0  0  0  0  0  0  0  0
    4.2159   -0.8294    5.8877 O   0  0  0  0  0  0  0  0  0  0  0  0
    2.7279   -2.7978    5.9326 C   0  0  0  0  0  0  0  0  0  0  0  0
    2.0962   -3.3921    7.2202 C   0  0  0  0  0  0  0  0  0  0  0  0
    4.1004   -3.5431    5.8880 C   0  0  0  0  0  0  0  0  0  0  0  0
   -1.4172   -5.4454    6.4850 H   0  0  0  0  0  0  0  0  0  0  0  0
    0.1030   -6.3237    6.4016 H   0  0  0  0  0  0  0  0  0  0  0  0
   -0.9426   -6.2109    4.9675 H   0  0  0  0  0  0  0  0  0  0  0  0
    1.9106   -5.3299    5.0743 H   0  0  0  0  0  0  0  0  0  0  0  0
    0.8815   -4.9631    3.7211 H   0  0  0  0  0  0  0  0  0  0  0  0
    3.6896   -2.7686    3.2892 H   0  0  0  0  0  0  0  0  0  0  0  0
    2.3305   -3.3856    2.3619 H   0  0  0  0  0  0  0  0  0  0  0  0
    3.2621   -4.4326    3.3921 H   0  0  0  0  0  0  0  0  0  0  0  0
   -0.2834   -2.7187    3.8450 H   0  0  0  0  0  0  0  0  0  0  0  0
   -1.0639    0.7130    2.9218 H   0  0  0  0  0  0  0  0  0  0  0  0
   -1.0932    3.3946    5.1743 H   0  0  0  0  0  0  0  0  0  0  0  0
   -2.3878    2.3564    5.7282 H   0  0  0  0  0  0  0  0  0  0  0  0
   -2.1447    2.5879    3.9955 H   0  0  0  0  0  0  0  0  0  0  0  0
   -0.4914    1.7547    7.0312 H   0  0  0  0  0  0  0  0  0  0  0  0
    3.4480   -1.1763    3.5127 H   0  0  0  0  0  0  0  0  0  0  0  0
    3.0144   -0.9306   -0.7977 H   0  0  0  0  0  0  0  0  0  0  0  0
    4.9857   -1.8559   -2.0414 H   0  0  0  0  0  0  0  0  0  0  0  0
    7.4079   -1.6049    1.2627 H   0  0  0  0  0  0  0  0  0  0  0  0
    5.5823   -0.6607    2.6851 H   0  0  0  0  0  0  0  0  0  0  0  0
    3.1436    1.7234    3.9034 H   0  0  0  0  0  0  0  0  0  0  0  0
    1.5014    2.1528    3.7921 H   0  0  0  0  0  0  0  0  0  0  0  0
    3.3905    1.8003    6.0930 H   0  0  0  0  0  0  0  0  0  0  0  0
    2.0339    2.8964    5.8961 H   0  0  0  0  0  0  0  0  0  0  0  0
    1.5307    1.5641    7.6443 H   0  0  0  0  0  0  0  0  0  0  0  0
    2.9783   -0.0091    8.0052 H   0  0  0  0  0  0  0  0  0  0  0  0
    1.5841   -0.9567    7.8376 H   0  0  0  0  0  0  0  0  0  0  0  0
    2.1754   -4.4803    7.2327 H   0  0  0  0  0  0  0  0  0  0  0  0
    1.0485   -3.1263    7.3535 H   0  0  0  0  0  0  0  0  0  0  0  0
    2.6334   -3.0592    8.1139 H   0  0  0  0  0  0  0  0  0  0  0  0
    3.9860   -4.6188    5.7420 H   0  0  0  0  0  0  0  0  0  0  0  0
    4.6416   -3.4064    6.8303 H   0  0  0  0  0  0  0  0  0  0  0  0
    4.7786   -3.1709    5.1135 H   0  0  0  0  0  0  0  0  0  0  0  0
  1  2  1  0
  1 35  1  0
  1 36  1  0
  1 37  1  0
  2  3  1  0
  4  3  1  1
  3 38  1  0
  3 39  1  0
  4 32  1  0
  4  5  1  0
  4  6  1  0
  5 40  1  0
  5 41  1  0
  5 42  1  0
  6 15  1  0
  6  7  1  0
  6 43  1  1
  7 15  1  0
  7 16  1  0
  7  8  1  1
  8  9  2  0
  8 44  1  0
  9 10  1  0
  9 11  1  0
 10 45  1  0
 10 46  1  0
 10 47  1  0
 11 28  1  0
 11 12  1  0
 11 48  1  1
 12 13  1  0
 13 14  2  0
 15 13  1  1
 15 16  1  0
 16 17  1  6
 16 26  1  0
 17 18  1  0
 17 49  1  0
 18 19  2  0
 18 20  1  0
 20 25  1  0
 20 21  2  0
 21 22  1  0
 21 50  1  0
 22 23  2  0
 22 51  1  0
 23 24  1  0
 24 25  2  0
 24 52  1  0
 25 53  1  0
 26 27  1  0
 26 54  1  0
 26 55  1  0
 27 28  1  0
 27 56  1  0
 27 57  1  0
 28 29  1  0
 28 58  1  1
 29 30  1  0
 29 59  1  0
 29 60  1  0
 30 31  2  0
 30 32  1  0
 32 33  1  0
 32 34  1  0
 33 61  1  0
 33 62  1  0
 33 63  1  0
 34 64  1  0
 34 65  1  0
 34 66  1  0
M  END
>  <i_m_ct_stereo_status>  (364) 
1

>  <s_m_source_file>  (364) 
/var/tmp/pbs.5076255.sched01/tmpfn0mpy04/132vsilkqhl.sdf

>  <i_m_source_file_index>  (364) 
27

>  <i_lp_mmshare_version>  (364) 
48012

>  <i_f3d_flags>  (364) 
2

>  <s_epik_input>  (364) 
W0NIM11PW0NIMl1bQ0BAXShbQ0gzXSkoW0NIXTFDMjNbQ0BdMTQ1KUMoW0NIM10pKFtDSDNdKUMoPU8pW0NIMl1bQ0BIXShbQ0BASF0oQyg9W0NIXTQpW0NIM10pT0MyPU8pW0NIMl1bQ0gyXUMzNVtOSF1DKD1PKWM2W2NIXVtjSF1uW2NIXVtjSF02

>  <s_epik_cmdline>  (364) 
J2VwaWtfcHl0aG9uJywgJy1waHQnLCAnMi4wJywgJy1waCcsICc3LjAnLCAnLXRuJywgJzgnLCAnLW1hJywgJzIwMCcsICctaW1hZScsICc8aW5maWxlLm1hZT4nLCAnLW9tYWUnLCAnPG91dGZpbGUubWFlPic=

>  <r_lp_tautomer_probability>  (364) 
1

>  <r_epik_Ionization_Penalty>  (364) 
0.000204843

>  <r_epik_Ionization_Penalty_Charging>  (364) 
0

>  <r_epik_Ionization_Penalty_Neutral>  (364) 
0.000204843

>  <r_epik_State_Penalty>  (364) 
-0

>  <r_epik_Charging_Adjusted_Penalty>  (364) 
0

>  <i_epik_Tot_Q>  (364) 
0

>  <i_epik_Tot_abs_Q>  (364) 
0

>  <s_epik_Chemistry_Notes>  (364) 
This compound has an ester and may undergo hydrolysis at high or low pH.

>  <s_lp_Force_Field>  (364) 
OPLS3e

>  <r_lp_Energy>  (364) 
206.52

>  <b_lp_Chiralities_Consistent>  (364) 
0

>  <s_lp_Variant>  (364) 
98:0-1

>  <s_i_glide_gridfile>  (364) 
pfpi4k_grid

>  <i_i_glide_lignum>  (364) 
27

>  <i_i_glide_rotatable_bonds>  (364) 
5

>  <r_i_docking_score>  (364) 
-2.17075

>  <r_i_glide_ligand_efficiency>  (364) 
-0.0638457

>  <r_i_glide_ligand_efficiency_sa>  (364) 
-0.206835

>  <r_i_glide_ligand_efficiency_ln>  (364) 
-0.47958

>  <r_i_glide_gscore>  (364) 
-2.17075

>  <r_i_glide_lipo>  (364) 
-0.309816

>  <r_i_glide_hbond>  (364) 
-0.0752139

>  <r_i_glide_metal>  (364) 
-0

>  <r_i_glide_rewards>  (364) 
-0.241681

>  <r_i_glide_evdw>  (364) 
-26.3213

>  <r_i_glide_ecoul>  (364) 
-3.66283

>  <r_i_glide_erotb>  (364) 
0.373668

>  <r_i_glide_esite>  (364) 
-0.0522199

>  <r_i_glide_emodel>  (364) 
-31.3809

>  <r_i_glide_energy>  (364) 
-29.9841

>  <r_i_glide_einternal>  (364) 
3.51415

>  <r_i_glide_intrahb_reward>  (364) 
-0

>  <i_i_glide_confnum>  (364) 
2

>  <i_i_glide_posenum>  (364) 
12

>  <r_i_glide_eff_state_penalty>  (364) 
0

>  <ligand_id>  (364) 
98

>  <original_smiles>  (364) 
COCC1(C)C2C34C=C(C)C5OC(=O)C23C4(NC(=O)c2ccncc2)CCC5CC(=O)C1(C)C

>  <smiles>  (364) 
[H]C1=C(C([H])([H])[H])C2([H])OC(=O)C34C5([H])C13C4(N([H])C(=O)c1c([H])c([H])nc([H])c1[H])C([H])([H])C([H])([H])C2([H])C([H])([H])C(=O)C(C([H])([H])[H])(C([H])([H])[H])C5(C([H])([H])[H])C([H])([H])OC([H])([H])[H]

$$$$
98:1:0
     RDKit          3D

 66 71  0  0  1  0  0  0  0  0999 V2000
   -2.3511   -1.0994    5.1517 C   0  0  0  0  0  0  0  0  0  0  0  0
   -1.0102   -1.1590    5.5773 O   0  0  0  0  0  0  0  0  0  0  0  0
   -0.3523   -2.3866    5.2931 C   0  0  0  0  0  0  0  0  0  0  0  0
    1.2069   -2.2706    5.5040 C   0  0  1  0  0  0  0  0  0  0  0  0
    1.6882   -3.7105    5.8985 C   0  0  0  0  0  0  0  0  0  0  0  0
    1.7439   -2.3137    3.9246 C   0  0  2  0  0  0  0  0  0  0  0  0
    3.0088   -1.7845    3.2332 C   0  0  0  0  0  0  0  0  0  0  0  0
    4.0174   -1.6078    4.2607 C   0  0  0  0  0  0  0  0  0  0  0  0
    3.9987   -0.5048    5.0434 C   0  0  0  0  0  0  0  0  0  0  0  0
    5.1866   -0.1138    5.9121 C   0  0  0  0  0  0  0  0  0  0  0  0
    3.0067    0.4989    4.6196 C   0  0  1  0  0  0  0  0  0  0  0  0
    1.5490    0.3013    4.3715 O   0  0  0  0  0  0  0  0  0  0  0  0
    0.9108   -0.1705    3.3683 C   0  0  0  0  0  0  0  0  0  0  0  0
   -0.2072    0.1893    3.0182 O   0  0  0  0  0  0  0  0  0  0  0  0
    1.6182   -1.2537    2.8271 C   0  0  2  0  0  0  0  0  0  0  0  0
    2.8337   -0.7096    2.0622 C   0  0  2  0  0  0  0  0  0  0  0  0
    3.0355   -1.2214    0.7517 N   0  0  0  0  0  0  0  0  0  0  0  0
    4.2219   -1.5331    0.2077 C   0  0  0  0  0  0  0  0  0  0  0  0
    5.2831   -1.5119    0.8250 O   0  0  0  0  0  0  0  0  0  0  0  0
    4.1927   -2.0356   -1.2165 C   0  0  0  0  0  0  0  0  0  0  0  0
    5.0396   -3.0699   -1.6428 C   0  0  0  0  0  0  0  0  0  0  0  0
    5.0161   -3.4622   -2.9885 C   0  0  0  0  0  0  0  0  0  0  0  0
    4.2139   -2.8870   -3.9243 N   0  0  0  0  0  0  0  0  0  0  0  0
    3.3869   -1.9057   -3.5013 C   0  0  0  0  0  0  0  0  0  0  0  0
    3.3468   -1.4509   -2.1811 C   0  0  0  0  0  0  0  0  0  0  0  0
    3.1148    0.9212    2.0126 C   0  0  0  0  0  0  0  0  0  0  0  0
    2.7976    2.0843    3.2061 C   0  0  0  0  0  0  0  0  0  0  0  0
    3.0994    1.8936    4.8671 C   0  0  2  0  0  0  0  0  0  0  0  0
    2.4713    1.5450    6.3837 C   0  0  0  0  0  0  0  0  0  0  0  0
    1.4150    0.3956    6.9158 C   0  0  0  0  0  0  0  0  0  0  0  0
    0.3928    0.8675    7.4017 O   0  0  0  0  0  0  0  0  0  0  0  0
    1.5651   -1.2543    6.8327 C   0  0  0  0  0  0  0  0  0  0  0  0
    0.5560   -1.6768    7.9933 C   0  0  0  0  0  0  0  0  0  0  0  0
    2.8859   -1.6751    7.5717 C   0  0  0  0  0  0  0  0  0  0  0  0
   -2.8193   -0.2077    5.5580 H   0  0  0  0  0  0  0  0  0  0  0  0
   -2.9323   -1.9506    5.4991 H   0  0  0  0  0  0  0  0  0  0  0  0
   -2.4122   -1.0391    4.0645 H   0  0  0  0  0  0  0  0  0  0  0  0
   -0.7934   -3.1765    5.9014 H   0  0  0  0  0  0  0  0  0  0  0  0
   -0.5752   -2.6820    4.2711 H   0  0  0  0  0  0  0  0  0  0  0  0
    2.7696   -3.7925    5.8188 H   0  0  0  0  0  0  0  0  0  0  0  0
    1.2876   -4.4713    5.2408 H   0  0  0  0  0  0  0  0  0  0  0  0
    1.4153   -4.0484    6.8956 H   0  0  0  0  0  0  0  0  0  0  0  0
    1.4511   -3.2787    3.5456 H   0  0  0  0  0  0  0  0  0  0  0  0
    4.7999   -2.3223    4.3258 H   0  0  0  0  0  0  0  0  0  0  0  0
    4.9354   -0.0209    6.9678 H   0  0  0  0  0  0  0  0  0  0  0  0
    5.5922    0.8502    5.5862 H   0  0  0  0  0  0  0  0  0  0  0  0
    5.9843   -0.8466    5.8227 H   0  0  0  0  0  0  0  0  0  0  0  0
    3.8082    0.4832    3.9157 H   0  0  0  0  0  0  0  0  0  0  0  0
    2.1761   -1.3442    0.2025 H   0  0  0  0  0  0  0  0  0  0  0  0
    5.7260   -3.5646   -0.9522 H   0  0  0  0  0  0  0  0  0  0  0  0
    5.6655   -4.2399   -3.3670 H   0  0  0  0  0  0  0  0  0  0  0  0
    2.7534   -1.4638   -4.2575 H   0  0  0  0  0  0  0  0  0  0  0  0
    2.6640   -0.6600   -1.9181 H   0  0  0  0  0  0  0  0  0  0  0  0
    4.1887    0.9394    1.8125 H   0  0  0  0  0  0  0  0  0  0  0  0
    2.6599    1.2759    1.0885 H   0  0  0  0  0  0  0  0  0  0  0  0
    3.3937    2.9494    2.9118 H   0  0  0  0  0  0  0  0  0  0  0  0
    1.7694    2.4339    3.0376 H   0  0  0  0  0  0  0  0  0  0  0  0
    2.3129    2.6375    4.9111 H   0  0  0  0  0  0  0  0  0  0  0  0
    3.3373    1.4063    7.0277 H   0  0  0  0  0  0  0  0  0  0  0  0
    2.0626    2.4753    6.7856 H   0  0  0  0  0  0  0  0  0  0  0  0
    0.5410   -2.7448    8.2038 H   0  0  0  0  0  0  0  0  0  0  0  0
   -0.4804   -1.4052    7.8192 H   0  0  0  0  0  0  0  0  0  0  0  0
    0.8227   -1.1963    8.9381 H   0  0  0  0  0  0  0  0  0  0  0  0
    2.7360   -2.5189    8.2452 H   0  0  0  0  0  0  0  0  0  0  0  0
    3.2726   -0.8804    8.2019 H   0  0  0  0  0  0  0  0  0  0  0  0
    3.6804   -2.0372    6.9276 H   0  0  0  0  0  0  0  0  0  0  0  0
  1  2  1  0
  1 35  1  0
  1 36  1  0
  1 37  1  0
  2  3  1  0
  4  3  1  6
  3 38  1  0
  3 39  1  0
  4 32  1  0
  4  5  1  0
  4  6  1  0
  5 40  1  0
  5 41  1  0
  5 42  1  0
  6 15  1  0
  6  7  1  0
  6 43  1  6
  7 15  1  0
  7 16  1  0
  7  8  1  0
  8  9  2  0
  8 44  1  0
  9 10  1  0
  9 11  1  0
 10 45  1  0
 10 46  1  0
 10 47  1  0
 11 28  1  0
 11 12  1  0
 11 48  1  6
 12 13  1  0
 13 14  2  0
 15 13  1  1
 15 16  1  0
 16 17  1  6
 16 26  1  0
 17 18  1  0
 17 49  1  0
 18 19  2  0
 18 20  1  0
 20 25  1  0
 20 21  2  0
 21 22  1  0
 21 50  1  0
 22 23  2  0
 22 51  1  0
 23 24  1  0
 24 25  2  0
 24 52  1  0
 25 53  1  0
 26 27  1  0
 26 54  1  0
 26 55  1  0
 27 28  1  0
 27 56  1  0
 27 57  1  0
 28 29  1  0
 28 58  1  1
 29 30  1  0
 29 59  1  0
 29 60  1  0
 30 31  2  0
 30 32  1  0
 32 33  1  0
 32 34  1  0
 33 61  1  0
 33 62  1  0
 33 63  1  0
 34 64  1  0
 34 65  1  0
 34 66  1  0
M  END
>  <i_m_ct_stereo_status>  (365) 
1

>  <s_m_source_file>  (365) 
/var/tmp/pbs.5076255.sched01/tmpfn0mpy04/132vsilkqhl.sdf

>  <i_m_source_file_index>  (365) 
28

>  <i_lp_mmshare_version>  (365) 
48012

>  <i_f3d_flags>  (365) 
0

>  <s_epik_input>  (365) 
W0NIM11PW0NIMl1bQ0BAXShbQ0gzXSkoW0NIXTFDMjNbQ0BdMTQ1KUMoW0NIM10pKFtDSDNdKUMoPU8pW0NIMl1bQ0BIXShbQ0BASF0oQyg9W0NIXTQpW0NIM10pT0MyPU8pW0NIMl1bQ0gyXUMzNVtOSF1DKD1PKWM2W2NIXVtjSF1uW2NIXVtjSF02

>  <s_epik_cmdline>  (365) 
J2VwaWtfcHl0aG9uJywgJy1waHQnLCAnMi4wJywgJy1waCcsICc3LjAnLCAnLXRuJywgJzgnLCAnLW1hJywgJzIwMCcsICctaW1hZScsICc8aW5maWxlLm1hZT4nLCAnLW9tYWUnLCAnPG91dGZpbGUubWFlPic=

>  <r_lp_tautomer_probability>  (365) 
1

>  <r_epik_Ionization_Penalty>  (365) 
0.000204843

>  <r_epik_Ionization_Penalty_Charging>  (365) 
0

>  <r_epik_Ionization_Penalty_Neutral>  (365) 
0.000204843

>  <r_epik_State_Penalty>  (365) 
-0

>  <r_epik_Charging_Adjusted_Penalty>  (365) 
0

>  <i_epik_Tot_Q>  (365) 
0

>  <i_epik_Tot_abs_Q>  (365) 
0

>  <s_epik_Chemistry_Notes>  (365) 
This compound has an ester and may undergo hydrolysis at high or low pH.

>  <s_lp_Force_Field>  (365) 
OPLS3e

>  <r_lp_Energy>  (365) 
417.294

>  <b_lp_Chiralities_Consistent>  (365) 
1

>  <s_lp_Variant>  (365) 
98:0-2

>  <s_i_glide_gridfile>  (365) 
pfpi4k_grid

>  <i_i_glide_lignum>  (365) 
28

>  <i_i_glide_rotatable_bonds>  (365) 
5

>  <r_i_docking_score>  (365) 
-3.18124

>  <r_i_glide_ligand_efficiency>  (365) 
-0.0935659

>  <r_i_glide_ligand_efficiency_sa>  (365) 
-0.303117

>  <r_i_glide_ligand_efficiency_ln>  (365) 
-0.702825

>  <r_i_glide_gscore>  (365) 
-3.18124

>  <r_i_glide_lipo>  (365) 
-0.539868

>  <r_i_glide_hbond>  (365) 
-0.277258

>  <r_i_glide_metal>  (365) 
-0

>  <r_i_glide_rewards>  (365) 
-0.241681

>  <r_i_glide_evdw>  (365) 
-29.2425

>  <r_i_glide_ecoul>  (365) 
-6.17247

>  <r_i_glide_erotb>  (365) 
0.373668

>  <r_i_glide_esite>  (365) 
-0.108105

>  <r_i_glide_emodel>  (365) 
-39.418

>  <r_i_glide_energy>  (365) 
-35.415

>  <r_i_glide_einternal>  (365) 
5.00329

>  <r_i_glide_intrahb_reward>  (365) 
-0

>  <i_i_glide_confnum>  (365) 
2

>  <i_i_glide_posenum>  (365) 
28

>  <r_i_glide_eff_state_penalty>  (365) 
0

>  <ligand_id>  (365) 
98

>  <original_smiles>  (365) 
COCC1(C)C2C34C=C(C)C5OC(=O)C23C4(NC(=O)c2ccncc2)CCC5CC(=O)C1(C)C

>  <smiles>  (365) 
[H]C1=C(C([H])([H])[H])C2([H])OC(=O)C34C5([H])C13C4(N([H])C(=O)c1c([H])c([H])nc([H])c1[H])C([H])([H])C([H])([H])C2([H])C([H])([H])C(=O)C(C([H])([H])[H])(C([H])([H])[H])C5(C([H])([H])[H])C([H])([H])OC([H])([H])[H]

$$$$
98:1:1
     RDKit          3D

 66 71  0  0  1  0  0  0  0  0999 V2000
   -1.3436    1.3780    3.2097 C   0  0  0  0  0  0  0  0  0  0  0  0
   -0.6649    0.1514    3.4311 O   0  0  0  0  0  0  0  0  0  0  0  0
   -0.1742   -0.0006    4.7561 C   0  0  0  0  0  0  0  0  0  0  0  0
    0.7562   -1.2528    4.9465 C   0  0  1  0  0  0  0  0  0  0  0  0
   -0.2032   -2.4825    4.9809 C   0  0  0  0  0  0  0  0  0  0  0  0
    1.3828   -1.5102    3.4354 C   0  0  2  0  0  0  0  0  0  0  0  0
    2.6713   -2.1507    2.9137 C   0  0  0  0  0  0  0  0  0  0  0  0
    3.1563   -3.0300    3.9860 C   0  0  0  0  0  0  0  0  0  0  0  0
    3.8356   -2.5268    5.0038 C   0  0  0  0  0  0  0  0  0  0  0  0
    4.6334   -3.4064    5.9726 C   0  0  0  0  0  0  0  0  0  0  0  0
    4.1767   -1.0762    4.8538 C   0  0  1  0  0  0  0  0  0  0  0  0
    3.2683    0.0562    4.5283 O   0  0  0  0  0  0  0  0  0  0  0  0
    2.7093    0.4445    3.4386 C   0  0  0  0  0  0  0  0  0  0  0  0
    2.3598    1.5900    3.1833 O   0  0  0  0  0  0  0  0  0  0  0  0
    2.3970   -0.6846    2.6434 C   0  0  2  0  0  0  0  0  0  0  0  0
    3.6961   -1.2774    2.0718 C   0  0  2  0  0  0  0  0  0  0  0  0
    3.6286   -1.5225    0.6693 N   0  0  0  0  0  0  0  0  0  0  0  0
    4.4327   -2.3509   -0.0296 C   0  0  0  0  0  0  0  0  0  0  0  0
    5.2943   -3.0547    0.4957 O   0  0  0  0  0  0  0  0  0  0  0  0
    4.1863   -2.4242   -1.5090 C   0  0  0  0  0  0  0  0  0  0  0  0
    3.4141   -1.4573   -2.1911 C   0  0  0  0  0  0  0  0  0  0  0  0
    3.2525   -1.5615   -3.5811 C   0  0  0  0  0  0  0  0  0  0  0  0
    3.8178   -2.5340   -4.3124 N   0  0  0  0  0  0  0  0  0  0  0  0
    4.5461   -3.4681   -3.6618 C   0  0  0  0  0  0  0  0  0  0  0  0
    4.7666   -3.4566   -2.2760 C   0  0  0  0  0  0  0  0  0  0  0  0
    5.1693   -0.5990    2.4389 C   0  0  0  0  0  0  0  0  0  0  0  0
    5.6403    0.1350    3.8879 C   0  0  0  0  0  0  0  0  0  0  0  0
    5.2908   -0.4471    5.4417 C   0  0  2  0  0  0  0  0  0  0  0  0
    4.3317   -0.3170    6.8123 C   0  0  0  0  0  0  0  0  0  0  0  0
    2.7112   -0.1461    6.9988 C   0  0  0  0  0  0  0  0  0  0  0  0
    2.4075    0.9022    7.5754 O   0  0  0  0  0  0  0  0  0  0  0  0
    1.4986   -1.1571    6.4985 C   0  0  0  0  0  0  0  0  0  0  0  0
    0.3425   -0.6674    7.4614 C   0  0  0  0  0  0  0  0  0  0  0  0
    1.7236   -2.5701    7.1385 C   0  0  0  0  0  0  0  0  0  0  0  0
   -1.7335    1.4143    2.1917 H   0  0  0  0  0  0  0  0  0  0  0  0
   -0.6696    2.2251    3.3386 H   0  0  0  0  0  0  0  0  0  0  0  0
   -2.1823    1.4950    3.8955 H   0  0  0  0  0  0  0  0  0  0  0  0
    0.3872    0.8981    5.0111 H   0  0  0  0  0  0  0  0  0  0  0  0
   -1.0505   -0.0364    5.4030 H   0  0  0  0  0  0  0  0  0  0  0  0
    0.3488   -3.4179    4.8950 H   0  0  0  0  0  0  0  0  0  0  0  0
   -0.8905   -2.4681    4.1384 H   0  0  0  0  0  0  0  0  0  0  0  0
   -0.8407   -2.5620    5.8517 H   0  0  0  0  0  0  0  0  0  0  0  0
    0.5660   -1.7775    2.7773 H   0  0  0  0  0  0  0  0  0  0  0  0
    3.0101   -4.0948    3.8738 H   0  0  0  0  0  0  0  0  0  0  0  0
    4.3300   -3.2947    7.0108 H   0  0  0  0  0  0  0  0  0  0  0  0
    5.6982   -3.1726    5.9108 H   0  0  0  0  0  0  0  0  0  0  0  0
    4.5226   -4.4587    5.7088 H   0  0  0  0  0  0  0  0  0  0  0  0
    4.7576   -1.6598    4.1716 H   0  0  0  0  0  0  0  0  0  0  0  0
    2.8474   -1.1000    0.1744 H   0  0  0  0  0  0  0  0  0  0  0  0
    2.9145   -0.6640   -1.6659 H   0  0  0  0  0  0  0  0  0  0  0  0
    2.6652   -0.8326   -4.1174 H   0  0  0  0  0  0  0  0  0  0  0  0
    4.9879   -4.2357   -4.2809 H   0  0  0  0  0  0  0  0  0  0  0  0
    5.3743   -4.2207   -1.8169 H   0  0  0  0  0  0  0  0  0  0  0  0
    5.8770   -1.4150    2.3172 H   0  0  0  0  0  0  0  0  0  0  0  0
    5.4030    0.0835    1.6250 H   0  0  0  0  0  0  0  0  0  0  0  0
    6.7300    0.1568    3.8243 H   0  0  0  0  0  0  0  0  0  0  0  0
    5.3605    1.1867    3.8049 H   0  0  0  0  0  0  0  0  0  0  0  0
    5.4382    0.6062    5.6710 H   0  0  0  0  0  0  0  0  0  0  0  0
    4.5642   -1.1932    7.4138 H   0  0  0  0  0  0  0  0  0  0  0  0
    4.7527    0.4750    7.4344 H   0  0  0  0  0  0  0  0  0  0  0  0
   -0.5681   -1.2595    7.4142 H   0  0  0  0  0  0  0  0  0  0  0  0
    0.0341    0.3654    7.2848 H   0  0  0  0  0  0  0  0  0  0  0  0
    0.6419   -0.7006    8.5126 H   0  0  0  0  0  0  0  0  0  0  0  0
    0.8148   -2.9910    7.5745 H   0  0  0  0  0  0  0  0  0  0  0  0
    2.4378   -2.5390    7.9619 H   0  0  0  0  0  0  0  0  0  0  0  0
    2.0274   -3.3455    6.4442 H   0  0  0  0  0  0  0  0  0  0  0  0
  1  2  1  0
  1 35  1  0
  1 36  1  0
  1 37  1  0
  2  3  1  0
  4  3  1  6
  3 38  1  0
  3 39  1  0
  4 32  1  0
  4  5  1  0
  4  6  1  0
  5 40  1  0
  5 41  1  0
  5 42  1  0
  6 15  1  0
  6  7  1  0
  6 43  1  6
  7 15  1  0
  7 16  1  0
  7  8  1  0
  8  9  2  0
  8 44  1  0
  9 10  1  0
  9 11  1  0
 10 45  1  0
 10 46  1  0
 10 47  1  0
 11 28  1  0
 11 12  1  0
 11 48  1  6
 12 13  1  0
 13 14  2  0
 15 13  1  1
 15 16  1  0
 16 17  1  6
 16 26  1  0
 17 18  1  0
 17 49  1  0
 18 19  2  0
 18 20  1  0
 20 25  1  0
 20 21  2  0
 21 22  1  0
 21 50  1  0
 22 23  2  0
 22 51  1  0
 23 24  1  0
 24 25  2  0
 24 52  1  0
 25 53  1  0
 26 27  1  0
 26 54  1  0
 26 55  1  0
 27 28  1  0
 27 56  1  0
 27 57  1  0
 28 29  1  0
 28 58  1  1
 29 30  1  0
 29 59  1  0
 29 60  1  0
 30 31  2  0
 30 32  1  0
 32 33  1  0
 32 34  1  0
 33 61  1  0
 33 62  1  0
 33 63  1  0
 34 64  1  0
 34 65  1  0
 34 66  1  0
M  END
>  <i_m_ct_stereo_status>  (366) 
1

>  <s_m_source_file>  (366) 
/var/tmp/pbs.5076255.sched01/tmpfn0mpy04/132vsilkqhl.sdf

>  <i_m_source_file_index>  (366) 
28

>  <i_lp_mmshare_version>  (366) 
48012

>  <i_f3d_flags>  (366) 
0

>  <s_epik_input>  (366) 
W0NIM11PW0NIMl1bQ0BAXShbQ0gzXSkoW0NIXTFDMjNbQ0BdMTQ1KUMoW0NIM10pKFtDSDNdKUMoPU8pW0NIMl1bQ0BIXShbQ0BASF0oQyg9W0NIXTQpW0NIM10pT0MyPU8pW0NIMl1bQ0gyXUMzNVtOSF1DKD1PKWM2W2NIXVtjSF1uW2NIXVtjSF02

>  <s_epik_cmdline>  (366) 
J2VwaWtfcHl0aG9uJywgJy1waHQnLCAnMi4wJywgJy1waCcsICc3LjAnLCAnLXRuJywgJzgnLCAnLW1hJywgJzIwMCcsICctaW1hZScsICc8aW5maWxlLm1hZT4nLCAnLW9tYWUnLCAnPG91dGZpbGUubWFlPic=

>  <r_lp_tautomer_probability>  (366) 
1

>  <r_epik_Ionization_Penalty>  (366) 
0.000204843

>  <r_epik_Ionization_Penalty_Charging>  (366) 
0

>  <r_epik_Ionization_Penalty_Neutral>  (366) 
0.000204843

>  <r_epik_State_Penalty>  (366) 
-0

>  <r_epik_Charging_Adjusted_Penalty>  (366) 
0

>  <i_epik_Tot_Q>  (366) 
0

>  <i_epik_Tot_abs_Q>  (366) 
0

>  <s_epik_Chemistry_Notes>  (366) 
This compound has an ester and may undergo hydrolysis at high or low pH.

>  <s_lp_Force_Field>  (366) 
OPLS3e

>  <r_lp_Energy>  (366) 
417.294

>  <b_lp_Chiralities_Consistent>  (366) 
1

>  <s_lp_Variant>  (366) 
98:0-2

>  <s_i_glide_gridfile>  (366) 
pfpi4k_grid

>  <i_i_glide_lignum>  (366) 
28

>  <i_i_glide_rotatable_bonds>  (366) 
5

>  <r_i_docking_score>  (366) 
-3.04898

>  <r_i_glide_ligand_efficiency>  (366) 
-0.0896759

>  <r_i_glide_ligand_efficiency_sa>  (366) 
-0.290515

>  <r_i_glide_ligand_efficiency_ln>  (366) 
-0.673605

>  <r_i_glide_gscore>  (366) 
-3.04898

>  <r_i_glide_lipo>  (366) 
-0.720354

>  <r_i_glide_hbond>  (366) 
-0.357673

>  <r_i_glide_metal>  (366) 
-0

>  <r_i_glide_rewards>  (366) 
-0.241681

>  <r_i_glide_evdw>  (366) 
-29.321

>  <r_i_glide_ecoul>  (366) 
-3.8647

>  <r_i_glide_erotb>  (366) 
0.373668

>  <r_i_glide_esite>  (366) 
-0.0571829

>  <r_i_glide_emodel>  (366) 
-39.3749

>  <r_i_glide_energy>  (366) 
-33.1857

>  <r_i_glide_einternal>  (366) 
0.69259

>  <r_i_glide_intrahb_reward>  (366) 
-0

>  <i_i_glide_confnum>  (366) 
4

>  <i_i_glide_posenum>  (366) 
32

>  <r_i_glide_eff_state_penalty>  (366) 
0

>  <ligand_id>  (366) 
98

>  <original_smiles>  (366) 
COCC1(C)C2C34C=C(C)C5OC(=O)C23C4(NC(=O)c2ccncc2)CCC5CC(=O)C1(C)C

>  <smiles>  (366) 
[H]C1=C(C([H])([H])[H])C2([H])OC(=O)C34C5([H])C13C4(N([H])C(=O)c1c([H])c([H])nc([H])c1[H])C([H])([H])C([H])([H])C2([H])C([H])([H])C(=O)C(C([H])([H])[H])(C([H])([H])[H])C5(C([H])([H])[H])C([H])([H])OC([H])([H])[H]

$$$$
98:1:2
     RDKit          3D

 66 71  0  0  1  0  0  0  0  0999 V2000
   -1.4986   -7.3451    2.9484 C   0  0  0  0  0  0  0  0  0  0  0  0
   -0.1317   -7.6166    2.7134 O   0  0  0  0  0  0  0  0  0  0  0  0
    0.4748   -8.3724    3.7560 C   0  0  0  0  0  0  0  0  0  0  0  0
    1.9371   -8.8394    3.4179 C   0  0  1  0  0  0  0  0  0  0  0  0
    1.7677  -10.1226    2.5490 C   0  0  0  0  0  0  0  0  0  0  0  0
    2.4307   -7.8334    2.2224 C   0  0  2  0  0  0  0  0  0  0  0  0
    3.7946   -7.2933    1.7480 C   0  0  0  0  0  0  0  0  0  0  0  0
    4.7823   -8.2706    2.2261 C   0  0  0  0  0  0  0  0  0  0  0  0
    5.2275   -8.2252    3.4908 C   0  0  0  0  0  0  0  0  0  0  0  0
    6.4525   -8.9914    3.9575 C   0  0  0  0  0  0  0  0  0  0  0  0
    4.7520   -7.0215    4.2267 C   0  0  1  0  0  0  0  0  0  0  0  0
    3.3565   -6.5502    4.3860 O   0  0  0  0  0  0  0  0  0  0  0  0
    2.5478   -5.9317    3.6144 C   0  0  0  0  0  0  0  0  0  0  0  0
    1.6279   -5.1891    3.9590 O   0  0  0  0  0  0  0  0  0  0  0  0
    2.7551   -6.3386    2.2738 C   0  0  2  0  0  0  0  0  0  0  0  0
    4.0787   -5.7297    1.8004 C   0  0  2  0  0  0  0  0  0  0  0  0
    4.0330   -5.1362    0.4964 N   0  0  0  0  0  0  0  0  0  0  0  0
    3.4257   -3.9892    0.1494 C   0  0  0  0  0  0  0  0  0  0  0  0
    2.6860   -3.3597    0.9173 O   0  0  0  0  0  0  0  0  0  0  0  0
    3.6609   -3.5425   -1.2484 C   0  0  0  0  0  0  0  0  0  0  0  0
    2.6156   -3.0536   -2.0713 C   0  0  0  0  0  0  0  0  0  0  0  0
    2.9159   -2.5985   -3.3624 C   0  0  0  0  0  0  0  0  0  0  0  0
    4.1631   -2.5992   -3.8778 N   0  0  0  0  0  0  0  0  0  0  0  0
    5.1580   -3.0797   -3.1024 C   0  0  0  0  0  0  0  0  0  0  0  0
    4.9677   -3.5596   -1.8007 C   0  0  0  0  0  0  0  0  0  0  0  0
    5.0474   -4.8214    2.8016 C   0  0  0  0  0  0  0  0  0  0  0  0
    5.2395   -4.9774    4.4883 C   0  0  0  0  0  0  0  0  0  0  0  0
    5.4242   -6.4414    5.3201 C   0  0  2  0  0  0  0  0  0  0  0  0
    4.6893   -7.6327    6.2560 C   0  0  0  0  0  0  0  0  0  0  0  0
    3.2473   -8.3987    6.1249 C   0  0  0  0  0  0  0  0  0  0  0  0
    2.5036   -8.1860    7.0844 O   0  0  0  0  0  0  0  0  0  0  0  0
    2.6955   -9.3392    4.8832 C   0  0  0  0  0  0  0  0  0  0  0  0
    1.5688  -10.1365    5.6373 C   0  0  0  0  0  0  0  0  0  0  0  0
    3.6873  -10.5219    4.6556 C   0  0  0  0  0  0  0  0  0  0  0  0
   -1.8822   -6.7725    2.1072 H   0  0  0  0  0  0  0  0  0  0  0  0
   -1.6420   -6.7578    3.8570 H   0  0  0  0  0  0  0  0  0  0  0  0
   -2.0695   -8.2711    3.0183 H   0  0  0  0  0  0  0  0  0  0  0  0
    0.4805   -7.7174    4.6224 H   0  0  0  0  0  0  0  0  0  0  0  0
   -0.1715   -9.2194    3.9740 H   0  0  0  0  0  0  0  0  0  0  0  0
    2.7141  -10.4089    2.0902 H   0  0  0  0  0  0  0  0  0  0  0  0
    1.0859   -9.9425    1.7177 H   0  0  0  0  0  0  0  0  0  0  0  0
    1.3635  -10.9934    3.0380 H   0  0  0  0  0  0  0  0  0  0  0  0
    1.7788   -8.0328    1.3682 H   0  0  0  0  0  0  0  0  0  0  0  0
    5.1731   -8.9616    1.5062 H   0  0  0  0  0  0  0  0  0  0  0  0
    6.2508   -9.6730    4.7854 H   0  0  0  0  0  0  0  0  0  0  0  0
    7.2363   -8.2992    4.2854 H   0  0  0  0  0  0  0  0  0  0  0  0
    6.8609   -9.5785    3.1335 H   0  0  0  0  0  0  0  0  0  0  0  0
    5.4941   -6.7250    3.4975 H   0  0  0  0  0  0  0  0  0  0  0  0
    4.3919   -5.7097   -0.2590 H   0  0  0  0  0  0  0  0  0  0  0  0
    1.5991   -3.0418   -1.7129 H   0  0  0  0  0  0  0  0  0  0  0  0
    2.1382   -2.2103   -4.0085 H   0  0  0  0  0  0  0  0  0  0  0  0
    6.1540   -3.0395   -3.5215 H   0  0  0  0  0  0  0  0  0  0  0  0
    5.8068   -3.9009   -1.2158 H   0  0  0  0  0  0  0  0  0  0  0  0
    6.0399   -4.9386    2.3765 H   0  0  0  0  0  0  0  0  0  0  0  0
    4.8233   -3.7791    2.6155 H   0  0  0  0  0  0  0  0  0  0  0  0
    6.1573   -4.4271    4.7112 H   0  0  0  0  0  0  0  0  0  0  0  0
    4.4523   -4.3718    4.9517 H   0  0  0  0  0  0  0  0  0  0  0  0
    5.0236   -5.8318    6.1232 H   0  0  0  0  0  0  0  0  0  0  0  0
    5.4065   -8.4487    6.3058 H   0  0  0  0  0  0  0  0  0  0  0  0
    4.6997   -7.2831    7.2888 H   0  0  0  0  0  0  0  0  0  0  0  0
    1.0896  -10.9378    5.0698 H   0  0  0  0  0  0  0  0  0  0  0  0
    0.7487   -9.5175    6.0156 H   0  0  0  0  0  0  0  0  0  0  0  0
    1.9926  -10.6435    6.5050 H   0  0  0  0  0  0  0  0  0  0  0  0
    3.1768  -11.4861    4.5693 H   0  0  0  0  0  0  0  0  0  0  0  0
    4.3634  -10.6460    5.5025 H   0  0  0  0  0  0  0  0  0  0  0  0
    4.2673  -10.4753    3.7395 H   0  0  0  0  0  0  0  0  0  0  0  0
  1  2  1  0
  1 35  1  0
  1 36  1  0
  1 37  1  0
  2  3  1  0
  4  3  1  1
  3 38  1  0
  3 39  1  0
  4 32  1  0
  4  5  1  0
  4  6  1  0
  5 40  1  0
  5 41  1  0
  5 42  1  0
  6 15  1  0
  6  7  1  0
  6 43  1  6
  7 15  1  0
  7 16  1  0
  7  8  1  0
  8  9  2  0
  8 44  1  0
  9 10  1  0
  9 11  1  0
 10 45  1  0
 10 46  1  0
 10 47  1  0
 11 28  1  0
 11 12  1  0
 11 48  1  6
 12 13  1  0
 13 14  2  0
 15 13  1  1
 15 16  1  0
 16 17  1  6
 16 26  1  0
 17 18  1  0
 17 49  1  0
 18 19  2  0
 18 20  1  0
 20 25  1  0
 20 21  2  0
 21 22  1  0
 21 50  1  0
 22 23  2  0
 22 51  1  0
 23 24  1  0
 24 25  2  0
 24 52  1  0
 25 53  1  0
 26 27  1  0
 26 54  1  0
 26 55  1  0
 27 28  1  0
 27 56  1  0
 27 57  1  0
 28 29  1  0
 28 58  1  6
 29 30  1  0
 29 59  1  0
 29 60  1  0
 30 31  2  0
 30 32  1  0
 32 33  1  0
 32 34  1  0
 33 61  1  0
 33 62  1  0
 33 63  1  0
 34 64  1  0
 34 65  1  0
 34 66  1  0
M  END
>  <i_m_ct_stereo_status>  (367) 
1

>  <s_m_source_file>  (367) 
/var/tmp/pbs.5076255.sched01/tmpfn0mpy04/132vsilkqhl.sdf

>  <i_m_source_file_index>  (367) 
28

>  <i_lp_mmshare_version>  (367) 
48012

>  <i_f3d_flags>  (367) 
0

>  <s_epik_input>  (367) 
W0NIM11PW0NIMl1bQ0BAXShbQ0gzXSkoW0NIXTFDMjNbQ0BdMTQ1KUMoW0NIM10pKFtDSDNdKUMoPU8pW0NIMl1bQ0BIXShbQ0BASF0oQyg9W0NIXTQpW0NIM10pT0MyPU8pW0NIMl1bQ0gyXUMzNVtOSF1DKD1PKWM2W2NIXVtjSF1uW2NIXVtjSF02

>  <s_epik_cmdline>  (367) 
J2VwaWtfcHl0aG9uJywgJy1waHQnLCAnMi4wJywgJy1waCcsICc3LjAnLCAnLXRuJywgJzgnLCAnLW1hJywgJzIwMCcsICctaW1hZScsICc8aW5maWxlLm1hZT4nLCAnLW9tYWUnLCAnPG91dGZpbGUubWFlPic=

>  <r_lp_tautomer_probability>  (367) 
1

>  <r_epik_Ionization_Penalty>  (367) 
0.000204843

>  <r_epik_Ionization_Penalty_Charging>  (367) 
0

>  <r_epik_Ionization_Penalty_Neutral>  (367) 
0.000204843

>  <r_epik_State_Penalty>  (367) 
-0

>  <r_epik_Charging_Adjusted_Penalty>  (367) 
0

>  <i_epik_Tot_Q>  (367) 
0

>  <i_epik_Tot_abs_Q>  (367) 
0

>  <s_epik_Chemistry_Notes>  (367) 
This compound has an ester and may undergo hydrolysis at high or low pH.

>  <s_lp_Force_Field>  (367) 
OPLS3e

>  <r_lp_Energy>  (367) 
417.294

>  <b_lp_Chiralities_Consistent>  (367) 
1

>  <s_lp_Variant>  (367) 
98:0-2

>  <s_i_glide_gridfile>  (367) 
pfpi4k_grid

>  <i_i_glide_lignum>  (367) 
28

>  <i_i_glide_rotatable_bonds>  (367) 
5

>  <r_i_docking_score>  (367) 
-2.42956

>  <r_i_glide_ligand_efficiency>  (367) 
-0.0714576

>  <r_i_glide_ligand_efficiency_sa>  (367) 
-0.231495

>  <r_i_glide_ligand_efficiency_ln>  (367) 
-0.536757

>  <r_i_glide_gscore>  (367) 
-2.42956

>  <r_i_glide_lipo>  (367) 
-0.601723

>  <r_i_glide_hbond>  (367) 
-0.130248

>  <r_i_glide_metal>  (367) 
-0

>  <r_i_glide_rewards>  (367) 
-0.241681

>  <r_i_glide_evdw>  (367) 
-30.1768

>  <r_i_glide_ecoul>  (367) 
-2.05178

>  <r_i_glide_erotb>  (367) 
0.373668

>  <r_i_glide_esite>  (367) 
-0.0129686

>  <r_i_glide_emodel>  (367) 
-34.745

>  <r_i_glide_energy>  (367) 
-32.2285

>  <r_i_glide_einternal>  (367) 
4.27278

>  <r_i_glide_intrahb_reward>  (367) 
-0

>  <i_i_glide_confnum>  (367) 
3

>  <i_i_glide_posenum>  (367) 
3

>  <r_i_glide_eff_state_penalty>  (367) 
0

>  <ligand_id>  (367) 
98

>  <original_smiles>  (367) 
COCC1(C)C2C34C=C(C)C5OC(=O)C23C4(NC(=O)c2ccncc2)CCC5CC(=O)C1(C)C

>  <smiles>  (367) 
[H]C1=C(C([H])([H])[H])C2([H])OC(=O)C34C5([H])C13C4(N([H])C(=O)c1c([H])c([H])nc([H])c1[H])C([H])([H])C([H])([H])C2([H])C([H])([H])C(=O)C(C([H])([H])[H])(C([H])([H])[H])C5(C([H])([H])[H])C([H])([H])OC([H])([H])[H]

$$$$
98:2:0
     RDKit          3D

 66 71  0  0  1  0  0  0  0  0999 V2000
   -0.0180    5.8788    3.2777 C   0  0  0  0  0  0  0  0  0  0  0  0
   -0.3146    4.5938    3.7725 O   0  0  0  0  0  0  0  0  0  0  0  0
    0.8037    3.9433    4.3497 C   0  0  0  0  0  0  0  0  0  0  0  0
    0.4085    2.5757    4.9952 C   0  0  1  0  0  0  0  0  0  0  0  0
    0.0427    1.6761    3.7606 C   0  0  0  0  0  0  0  0  0  0  0  0
    1.6190    2.1618    5.8691 C   0  0  1  0  0  0  0  0  0  0  0  0
    2.8099    0.9556    5.7818 C   0  0  2  0  0  0  0  0  0  0  0  0
    3.8927    0.1645    6.5907 C   0  0  0  0  0  0  0  0  0  0  0  0
    3.8170    0.1599    7.9188 C   0  0  0  0  0  0  0  0  0  0  0  0
    4.7173   -0.5574    8.9205 C   0  0  0  0  0  0  0  0  0  0  0  0
    2.7727    1.1075    8.3618 C   0  0  1  0  0  0  0  0  0  0  0  0
    3.3166    2.4217    7.8534 O   0  0  0  0  0  0  0  0  0  0  0  0
    3.7191    2.7896    6.4333 C   0  0  0  0  0  0  0  0  0  0  0  0
    4.4921    3.7078    6.1816 O   0  0  0  0  0  0  0  0  0  0  0  0
    2.9047    2.1250    5.2482 C   0  0  2  0  0  0  0  0  0  0  0  0
    2.6086    0.5370    4.5943 C   0  0  1  0  0  0  0  0  0  0  0  0
    3.4867    0.1090    3.5484 N   0  0  0  0  0  0  0  0  0  0  0  0
    3.0901   -0.5866    2.4677 C   0  0  0  0  0  0  0  0  0  0  0  0
    1.9260   -0.9566    2.2840 O   0  0  0  0  0  0  0  0  0  0  0  0
    4.1386   -0.8420    1.4385 C   0  0  0  0  0  0  0  0  0  0  0  0
    5.4855   -0.8642    1.8192 C   0  0  0  0  0  0  0  0  0  0  0  0
    6.4638   -1.1746    0.8579 C   0  0  0  0  0  0  0  0  0  0  0  0
    6.1713   -1.4523   -0.4278 N   0  0  0  0  0  0  0  0  0  0  0  0
    4.8813   -1.4485   -0.8030 C   0  0  0  0  0  0  0  0  0  0  0  0
    3.8110   -1.1474    0.0931 C   0  0  0  0  0  0  0  0  0  0  0  0
    1.6737   -0.6245    5.1871 C   0  0  0  0  0  0  0  0  0  0  0  0
    1.2361   -0.7404    6.7846 C   0  0  0  0  0  0  0  0  0  0  0  0
    1.3315    0.3995    7.9755 C   0  0  2  0  0  0  0  0  0  0  0  0
    0.0491    1.2907    8.1566 C   0  0  0  0  0  0  0  0  0  0  0  0
   -0.9200    1.4365    6.9479 C   0  0  0  0  0  0  0  0  0  0  0  0
   -1.7763    0.5571    6.7938 O   0  0  0  0  0  0  0  0  0  0  0  0
   -0.8415    2.6724    5.9759 C   0  0  0  0  0  0  0  0  0  0  0  0
   -0.7919    3.9713    6.8304 C   0  0  0  0  0  0  0  0  0  0  0  0
   -2.2047    2.7476    5.2160 C   0  0  0  0  0  0  0  0  0  0  0  0
   -0.9321    6.2913    2.8586 H   0  0  0  0  0  0  0  0  0  0  0  0
    0.7338    5.8518    2.4868 H   0  0  0  0  0  0  0  0  0  0  0  0
    0.3243    6.5381    4.0729 H   0  0  0  0  0  0  0  0  0  0  0  0
    1.5656    3.7843    3.5802 H   0  0  0  0  0  0  0  0  0  0  0  0
    1.2707    4.5932    5.0962 H   0  0  0  0  0  0  0  0  0  0  0  0
   -0.5064    0.7739    4.0170 H   0  0  0  0  0  0  0  0  0  0  0  0
    0.8784    1.4374    3.1070 H   0  0  0  0  0  0  0  0  0  0  0  0
   -0.6354    2.2083    3.0985 H   0  0  0  0  0  0  0  0  0  0  0  0
    1.4776    2.7950    6.7393 H   0  0  0  0  0  0  0  0  0  0  0  0
    4.6603   -0.3628    6.0411 H   0  0  0  0  0  0  0  0  0  0  0  0
    4.1041   -1.2227    9.5277 H   0  0  0  0  0  0  0  0  0  0  0  0
    5.2148    0.1439    9.5956 H   0  0  0  0  0  0  0  0  0  0  0  0
    5.4808   -1.1536    8.4170 H   0  0  0  0  0  0  0  0  0  0  0  0
    2.8185    1.1624    9.4530 H   0  0  0  0  0  0  0  0  0  0  0  0
    4.3737    0.5646    3.4441 H   0  0  0  0  0  0  0  0  0  0  0  0
    5.7884   -0.6798    2.8373 H   0  0  0  0  0  0  0  0  0  0  0  0
    7.4961   -1.1958    1.1474 H   0  0  0  0  0  0  0  0  0  0  0  0
    4.6838   -1.6929   -1.8324 H   0  0  0  0  0  0  0  0  0  0  0  0
    2.7970   -1.1834   -0.2612 H   0  0  0  0  0  0  0  0  0  0  0  0
    0.7761   -0.6820    4.5901 H   0  0  0  0  0  0  0  0  0  0  0  0
    2.1607   -1.5848    4.9757 H   0  0  0  0  0  0  0  0  0  0  0  0
    0.2205   -1.1440    6.8043 H   0  0  0  0  0  0  0  0  0  0  0  0
    1.8566   -1.5617    7.1601 H   0  0  0  0  0  0  0  0  0  0  0  0
    1.2306   -0.2631    8.8367 H   0  0  0  0  0  0  0  0  0  0  0  0
   -0.5426    0.8630    8.9641 H   0  0  0  0  0  0  0  0  0  0  0  0
    0.3266    2.2709    8.5384 H   0  0  0  0  0  0  0  0  0  0  0  0
   -0.9952    4.8439    6.2109 H   0  0  0  0  0  0  0  0  0  0  0  0
    0.1622    4.1821    7.3101 H   0  0  0  0  0  0  0  0  0  0  0  0
   -1.5382    3.9418    7.6246 H   0  0  0  0  0  0  0  0  0  0  0  0
   -2.2715    3.5764    4.5133 H   0  0  0  0  0  0  0  0  0  0  0  0
   -3.0279    2.8954    5.9182 H   0  0  0  0  0  0  0  0  0  0  0  0
   -2.4281    1.8447    4.6420 H   0  0  0  0  0  0  0  0  0  0  0  0
  1  2  1  0
  1 35  1  0
  1 36  1  0
  1 37  1  0
  2  3  1  0
  4  3  1  6
  3 38  1  0
  3 39  1  0
  4 32  1  0
  4  5  1  0
  4  6  1  0
  5 40  1  0
  5 41  1  0
  5 42  1  0
  6 15  1  0
  6  7  1  0
  6 43  1  1
  7 15  1  0
  7 16  1  0
  7  8  1  1
  8  9  2  0
  8 44  1  0
  9 10  1  0
  9 11  1  0
 10 45  1  0
 10 46  1  0
 10 47  1  0
 11 28  1  0
 11 12  1  0
 11 48  1  1
 12 13  1  0
 13 14  2  0
 15 13  1  6
 15 16  1  0
 16 17  1  6
 16 26  1  0
 17 18  1  0
 17 49  1  0
 18 19  2  0
 18 20  1  0
 20 25  1  0
 20 21  2  0
 21 22  1  0
 21 50  1  0
 22 23  2  0
 22 51  1  0
 23 24  1  0
 24 25  2  0
 24 52  1  0
 25 53  1  0
 26 27  1  0
 26 54  1  0
 26 55  1  0
 27 28  1  0
 27 56  1  0
 27 57  1  0
 28 29  1  0
 28 58  1  1
 29 30  1  0
 29 59  1  0
 29 60  1  0
 30 31  2  0
 30 32  1  0
 32 33  1  0
 32 34  1  0
 33 61  1  0
 33 62  1  0
 33 63  1  0
 34 64  1  0
 34 65  1  0
 34 66  1  0
M  END
>  <i_m_ct_stereo_status>  (368) 
1

>  <s_m_source_file>  (368) 
/var/tmp/pbs.5076255.sched01/tmpfn0mpy04/132vsilkqhl.sdf

>  <i_m_source_file_index>  (368) 
29

>  <i_lp_mmshare_version>  (368) 
48012

>  <i_f3d_flags>  (368) 
0

>  <s_epik_input>  (368) 
W0NIM11PW0NIMl1bQ0BAXShbQ0gzXSkoW0NIXTFDMjNbQ0BdMTQ1KUMoW0NIM10pKFtDSDNdKUMoPU8pW0NIMl1bQ0BIXShbQ0BASF0oQyg9W0NIXTQpW0NIM10pT0MyPU8pW0NIMl1bQ0gyXUMzNVtOSF1DKD1PKWM2W2NIXVtjSF1uW2NIXVtjSF02

>  <s_epik_cmdline>  (368) 
J2VwaWtfcHl0aG9uJywgJy1waHQnLCAnMi4wJywgJy1waCcsICc3LjAnLCAnLXRuJywgJzgnLCAnLW1hJywgJzIwMCcsICctaW1hZScsICc8aW5maWxlLm1hZT4nLCAnLW9tYWUnLCAnPG91dGZpbGUubWFlPic=

>  <r_lp_tautomer_probability>  (368) 
1

>  <r_epik_Ionization_Penalty>  (368) 
0.000204843

>  <r_epik_Ionization_Penalty_Charging>  (368) 
0

>  <r_epik_Ionization_Penalty_Neutral>  (368) 
0.000204843

>  <r_epik_State_Penalty>  (368) 
-0

>  <r_epik_Charging_Adjusted_Penalty>  (368) 
0

>  <i_epik_Tot_Q>  (368) 
0

>  <i_epik_Tot_abs_Q>  (368) 
0

>  <s_epik_Chemistry_Notes>  (368) 
This compound has an ester and may undergo hydrolysis at high or low pH.

>  <s_lp_Force_Field>  (368) 
OPLS3e

>  <r_lp_Energy>  (368) 
300.981

>  <b_lp_Chiralities_Consistent>  (368) 
1

>  <s_lp_Variant>  (368) 
98:0-3

>  <s_i_glide_gridfile>  (368) 
pfpi4k_grid

>  <i_i_glide_lignum>  (368) 
29

>  <i_i_glide_rotatable_bonds>  (368) 
5

>  <r_i_docking_score>  (368) 
-2.30917

>  <r_i_glide_ligand_efficiency>  (368) 
-0.0679168

>  <r_i_glide_ligand_efficiency_sa>  (368) 
-0.220024

>  <r_i_glide_ligand_efficiency_ln>  (368) 
-0.510161

>  <r_i_glide_gscore>  (368) 
-2.30917

>  <r_i_glide_lipo>  (368) 
-0.214216

>  <r_i_glide_hbond>  (368) 
-0.225586

>  <r_i_glide_metal>  (368) 
-0

>  <r_i_glide_rewards>  (368) 
-0.241681

>  <r_i_glide_evdw>  (368) 
-23.2977

>  <r_i_glide_ecoul>  (368) 
-5.34919

>  <r_i_glide_erotb>  (368) 
0.373668

>  <r_i_glide_esite>  (368) 
-0.0340939

>  <r_i_glide_emodel>  (368) 
-30.5859

>  <r_i_glide_energy>  (368) 
-28.6468

>  <r_i_glide_einternal>  (368) 
0.870407

>  <r_i_glide_intrahb_reward>  (368) 
-0

>  <i_i_glide_confnum>  (368) 
6

>  <i_i_glide_posenum>  (368) 
3

>  <r_i_glide_eff_state_penalty>  (368) 
0

>  <ligand_id>  (368) 
98

>  <original_smiles>  (368) 
COCC1(C)C2C34C=C(C)C5OC(=O)C23C4(NC(=O)c2ccncc2)CCC5CC(=O)C1(C)C

>  <smiles>  (368) 
[H]C1=C(C([H])([H])[H])C2([H])OC(=O)C34C5([H])C13C4(N([H])C(=O)c1c([H])c([H])nc([H])c1[H])C([H])([H])C([H])([H])C2([H])C([H])([H])C(=O)C(C([H])([H])[H])(C([H])([H])[H])C5(C([H])([H])[H])C([H])([H])OC([H])([H])[H]

$$$$
98:2:1
     RDKit          3D

 66 71  0  0  1  0  0  0  0  0999 V2000
   -0.4251   -6.6605    4.2141 C   0  0  0  0  0  0  0  0  0  0  0  0
    0.8719   -6.1169    4.3136 O   0  0  0  0  0  0  0  0  0  0  0  0
    0.9209   -4.7003    4.1871 C   0  0  0  0  0  0  0  0  0  0  0  0
    2.3429   -4.1495    4.4908 C   0  0  1  0  0  0  0  0  0  0  0  0
    3.2213   -4.7901    3.3993 C   0  0  0  0  0  0  0  0  0  0  0  0
    2.1901   -2.5999    4.4889 C   0  0  1  0  0  0  0  0  0  0  0  0
    2.6843   -1.3531    3.4330 C   0  0  2  0  0  0  0  0  0  0  0  0
    2.9195    0.1936    3.3319 C   0  0  0  0  0  0  0  0  0  0  0  0
    3.0473    0.9097    4.4535 C   0  0  0  0  0  0  0  0  0  0  0  0
    3.2872    2.4028    4.6210 C   0  0  0  0  0  0  0  0  0  0  0  0
    2.7321    0.0572    5.6187 C   0  0  1  0  0  0  0  0  0  0  0  0
    1.2923   -0.2933    5.3526 O   0  0  0  0  0  0  0  0  0  0  0  0
    0.6857   -0.9512    4.1341 C   0  0  0  0  0  0  0  0  0  0  0  0
   -0.5123   -0.8677    3.9009 O   0  0  0  0  0  0  0  0  0  0  0  0
    1.5698   -1.9992    3.3275 C   0  0  2  0  0  0  0  0  0  0  0  0
    3.0395   -2.0162    2.3984 C   0  0  1  0  0  0  0  0  0  0  0  0
    2.9651   -1.7953    0.9795 N   0  0  0  0  0  0  0  0  0  0  0  0
    3.4033   -2.6821    0.0709 C   0  0  0  0  0  0  0  0  0  0  0  0
    3.8165   -3.8100    0.3597 O   0  0  0  0  0  0  0  0  0  0  0  0
    3.4145   -2.2457   -1.3335 C   0  0  0  0  0  0  0  0  0  0  0  0
    4.0645   -1.0421   -1.6291 C   0  0  0  0  0  0  0  0  0  0  0  0
    4.0985   -0.6314   -2.9674 C   0  0  0  0  0  0  0  0  0  0  0  0
    3.5832   -1.3534   -3.9865 N   0  0  0  0  0  0  0  0  0  0  0  0
    2.9602   -2.5165   -3.6871 C   0  0  0  0  0  0  0  0  0  0  0  0
    2.8525   -3.0134   -2.3724 C   0  0  0  0  0  0  0  0  0  0  0  0
    4.5558   -1.9525    2.9521 C   0  0  0  0  0  0  0  0  0  0  0  0
    4.9760   -1.3259    4.4492 C   0  0  0  0  0  0  0  0  0  0  0  0
    4.0092   -0.9757    5.7537 C   0  0  2  0  0  0  0  0  0  0  0  0
    3.8481   -2.1356    6.8109 C   0  0  0  0  0  0  0  0  0  0  0  0
    4.1026   -3.5935    6.3404 C   0  0  0  0  0  0  0  0  0  0  0  0
    5.2698   -3.9864    6.2950 O   0  0  0  0  0  0  0  0  0  0  0  0
    2.9182   -4.5365    5.9126 C   0  0  0  0  0  0  0  0  0  0  0  0
    1.8096   -4.4869    6.9956 C   0  0  0  0  0  0  0  0  0  0  0  0
    3.4603   -6.0029    5.9550 C   0  0  0  0  0  0  0  0  0  0  0  0
   -0.3504   -7.7268    4.3960 H   0  0  0  0  0  0  0  0  0  0  0  0
   -0.8477   -6.5103    3.2230 H   0  0  0  0  0  0  0  0  0  0  0  0
   -1.0832   -6.2335    4.9682 H   0  0  0  0  0  0  0  0  0  0  0  0
    0.6490   -4.4462    3.1571 H   0  0  0  0  0  0  0  0  0  0  0  0
    0.1625   -4.2128    4.8137 H   0  0  0  0  0  0  0  0  0  0  0  0
    4.3036   -4.6900    3.5455 H   0  0  0  0  0  0  0  0  0  0  0  0
    2.8893   -4.4693    2.4144 H   0  0  0  0  0  0  0  0  0  0  0  0
    3.0895   -5.8753    3.3712 H   0  0  0  0  0  0  0  0  0  0  0  0
    1.7381   -2.4351    5.4523 H   0  0  0  0  0  0  0  0  0  0  0  0
    2.9628    0.6333    2.3466 H   0  0  0  0  0  0  0  0  0  0  0  0
    4.1998    2.5413    5.2034 H   0  0  0  0  0  0  0  0  0  0  0  0
    2.4789    2.9050    5.1656 H   0  0  0  0  0  0  0  0  0  0  0  0
    3.4132    2.9041    3.6583 H   0  0  0  0  0  0  0  0  0  0  0  0
    2.7275    0.6877    6.5016 H   0  0  0  0  0  0  0  0  0  0  0  0
    2.4664   -1.0074    0.5756 H   0  0  0  0  0  0  0  0  0  0  0  0
    4.5137   -0.4660   -0.8330 H   0  0  0  0  0  0  0  0  0  0  0  0
    4.5669    0.3116   -3.2049 H   0  0  0  0  0  0  0  0  0  0  0  0
    2.5326   -3.0675   -4.5199 H   0  0  0  0  0  0  0  0  0  0  0  0
    2.3507   -3.9557   -2.1748 H   0  0  0  0  0  0  0  0  0  0  0  0
    5.0026   -2.9335    2.8589 H   0  0  0  0  0  0  0  0  0  0  0  0
    5.1427   -1.3618    2.2329 H   0  0  0  0  0  0  0  0  0  0  0  0
    5.8058   -1.9165    4.8357 H   0  0  0  0  0  0  0  0  0  0  0  0
    5.4225   -0.3515    4.2100 H   0  0  0  0  0  0  0  0  0  0  0  0
    4.6991   -0.3207    6.3012 H   0  0  0  0  0  0  0  0  0  0  0  0
    4.5628   -1.9590    7.6142 H   0  0  0  0  0  0  0  0  0  0  0  0
    2.8847   -2.0622    7.3027 H   0  0  0  0  0  0  0  0  0  0  0  0
    1.1165   -5.3184    6.8441 H   0  0  0  0  0  0  0  0  0  0  0  0
    1.1977   -3.5853    6.9920 H   0  0  0  0  0  0  0  0  0  0  0  0
    2.2493   -4.5733    7.9927 H   0  0  0  0  0  0  0  0  0  0  0  0
    2.7163   -6.7432    5.6583 H   0  0  0  0  0  0  0  0  0  0  0  0
    3.7739   -6.2693    6.9668 H   0  0  0  0  0  0  0  0  0  0  0  0
    4.3288   -6.1615    5.3082 H   0  0  0  0  0  0  0  0  0  0  0  0
  1  2  1  0
  1 35  1  0
  1 36  1  0
  1 37  1  0
  2  3  1  0
  4  3  1  1
  3 38  1  0
  3 39  1  0
  4 32  1  0
  4  5  1  0
  4  6  1  0
  5 40  1  0
  5 41  1  0
  5 42  1  0
  6 15  1  0
  6  7  1  0
  6 43  1  1
  7 15  1  0
  7 16  1  0
  7  8  1  1
  8  9  2  0
  8 44  1  0
  9 10  1  0
  9 11  1  0
 10 45  1  0
 10 46  1  0
 10 47  1  0
 11 28  1  0
 11 12  1  0
 11 48  1  1
 12 13  1  0
 13 14  2  0
 15 13  1  6
 15 16  1  0
 16 17  1  6
 16 26  1  0
 17 18  1  0
 17 49  1  0
 18 19  2  0
 18 20  1  0
 20 25  1  0
 20 21  2  0
 21 22  1  0
 21 50  1  0
 22 23  2  0
 22 51  1  0
 23 24  1  0
 24 25  2  0
 24 52  1  0
 25 53  1  0
 26 27  1  0
 26 54  1  0
 26 55  1  0
 27 28  1  0
 27 56  1  0
 27 57  1  0
 28 29  1  0
 28 58  1  1
 29 30  1  0
 29 59  1  0
 29 60  1  0
 30 31  2  0
 30 32  1  0
 32 33  1  0
 32 34  1  0
 33 61  1  0
 33 62  1  0
 33 63  1  0
 34 64  1  0
 34 65  1  0
 34 66  1  0
M  END
>  <i_m_ct_stereo_status>  (369) 
1

>  <s_m_source_file>  (369) 
/var/tmp/pbs.5076255.sched01/tmpfn0mpy04/132vsilkqhl.sdf

>  <i_m_source_file_index>  (369) 
29

>  <i_lp_mmshare_version>  (369) 
48012

>  <i_f3d_flags>  (369) 
0

>  <s_epik_input>  (369) 
W0NIM11PW0NIMl1bQ0BAXShbQ0gzXSkoW0NIXTFDMjNbQ0BdMTQ1KUMoW0NIM10pKFtDSDNdKUMoPU8pW0NIMl1bQ0BIXShbQ0BASF0oQyg9W0NIXTQpW0NIM10pT0MyPU8pW0NIMl1bQ0gyXUMzNVtOSF1DKD1PKWM2W2NIXVtjSF1uW2NIXVtjSF02

>  <s_epik_cmdline>  (369) 
J2VwaWtfcHl0aG9uJywgJy1waHQnLCAnMi4wJywgJy1waCcsICc3LjAnLCAnLXRuJywgJzgnLCAnLW1hJywgJzIwMCcsICctaW1hZScsICc8aW5maWxlLm1hZT4nLCAnLW9tYWUnLCAnPG91dGZpbGUubWFlPic=

>  <r_lp_tautomer_probability>  (369) 
1

>  <r_epik_Ionization_Penalty>  (369) 
0.000204843

>  <r_epik_Ionization_Penalty_Charging>  (369) 
0

>  <r_epik_Ionization_Penalty_Neutral>  (369) 
0.000204843

>  <r_epik_State_Penalty>  (369) 
-0

>  <r_epik_Charging_Adjusted_Penalty>  (369) 
0

>  <i_epik_Tot_Q>  (369) 
0

>  <i_epik_Tot_abs_Q>  (369) 
0

>  <s_epik_Chemistry_Notes>  (369) 
This compound has an ester and may undergo hydrolysis at high or low pH.

>  <s_lp_Force_Field>  (369) 
OPLS3e

>  <r_lp_Energy>  (369) 
300.981

>  <b_lp_Chiralities_Consistent>  (369) 
1

>  <s_lp_Variant>  (369) 
98:0-3

>  <s_i_glide_gridfile>  (369) 
pfpi4k_grid

>  <i_i_glide_lignum>  (369) 
29

>  <i_i_glide_rotatable_bonds>  (369) 
5

>  <r_i_docking_score>  (369) 
-2.28433

>  <r_i_glide_ligand_efficiency>  (369) 
-0.0671861

>  <r_i_glide_ligand_efficiency_sa>  (369) 
-0.217657

>  <r_i_glide_ligand_efficiency_ln>  (369) 
-0.504672

>  <r_i_glide_gscore>  (369) 
-2.28433

>  <r_i_glide_lipo>  (369) 
-0.492343

>  <r_i_glide_hbond>  (369) 
-0.0516107

>  <r_i_glide_metal>  (369) 
-0

>  <r_i_glide_rewards>  (369) 
-0.241681

>  <r_i_glide_evdw>  (369) 
-26.4282

>  <r_i_glide_ecoul>  (369) 
-3.09357

>  <r_i_glide_erotb>  (369) 
0.373668

>  <r_i_glide_esite>  (369) 
-0.0869149

>  <r_i_glide_emodel>  (369) 
-30.3342

>  <r_i_glide_energy>  (369) 
-29.5218

>  <r_i_glide_einternal>  (369) 
2.82166

>  <r_i_glide_intrahb_reward>  (369) 
-0

>  <i_i_glide_confnum>  (369) 
6

>  <i_i_glide_posenum>  (369) 
2

>  <r_i_glide_eff_state_penalty>  (369) 
0

>  <ligand_id>  (369) 
98

>  <original_smiles>  (369) 
COCC1(C)C2C34C=C(C)C5OC(=O)C23C4(NC(=O)c2ccncc2)CCC5CC(=O)C1(C)C

>  <smiles>  (369) 
[H]C1=C(C([H])([H])[H])C2([H])OC(=O)C34C5([H])C13C4(N([H])C(=O)c1c([H])c([H])nc([H])c1[H])C([H])([H])C([H])([H])C2([H])C([H])([H])C(=O)C(C([H])([H])[H])(C([H])([H])[H])C5(C([H])([H])[H])C([H])([H])OC([H])([H])[H]

$$$$
98:2:2
     RDKit          3D

 66 71  0  0  1  0  0  0  0  0999 V2000
    0.0335   -4.4258    6.3931 C   0  0  0  0  0  0  0  0  0  0  0  0
    0.0230   -5.4408    5.4155 O   0  0  0  0  0  0  0  0  0  0  0  0
    1.2968   -6.0334    5.2075 C   0  0  0  0  0  0  0  0  0  0  0  0
    1.2280   -7.1986    4.1730 C   0  0  1  0  0  0  0  0  0  0  0  0
    0.7381   -6.5043    2.8753 C   0  0  0  0  0  0  0  0  0  0  0  0
    2.6464   -7.8444    4.1703 C   0  0  1  0  0  0  0  0  0  0  0  0
    3.9440   -7.8751    3.0669 C   0  0  2  0  0  0  0  0  0  0  0  0
    5.2607   -8.6149    2.6680 C   0  0  0  0  0  0  0  0  0  0  0  0
    5.4688   -9.8571    3.1540 C   0  0  0  0  0  0  0  0  0  0  0  0
    6.6488  -10.7747    2.9179 C   0  0  0  0  0  0  0  0  0  0  0  0
    4.4284  -10.1688    4.1584 C   0  0  1  0  0  0  0  0  0  0  0  0
    4.6880   -9.1150    5.2123 O   0  0  0  0  0  0  0  0  0  0  0  0
    4.7196   -7.6004    5.0544 C   0  0  0  0  0  0  0  0  0  0  0  0
    5.2896   -6.8464    5.8219 O   0  0  0  0  0  0  0  0  0  0  0  0
    3.7617   -6.9617    3.9664 C   0  0  2  0  0  0  0  0  0  0  0  0
    3.5632   -6.9664    2.2509 C   0  0  1  0  0  0  0  0  0  0  0  0
    4.2567   -5.9729    1.4783 N   0  0  0  0  0  0  0  0  0  0  0  0
    3.6423   -5.1404    0.6204 C   0  0  0  0  0  0  0  0  0  0  0  0
    2.4297   -5.2329    0.3644 O   0  0  0  0  0  0  0  0  0  0  0  0
    4.4433   -4.0131    0.0610 C   0  0  0  0  0  0  0  0  0  0  0  0
    3.8494   -2.8141   -0.4315 C   0  0  0  0  0  0  0  0  0  0  0  0
    4.7063   -1.8392   -1.0107 C   0  0  0  0  0  0  0  0  0  0  0  0
    6.0372   -1.9891   -1.1173 N   0  0  0  0  0  0  0  0  0  0  0  0
    6.5889   -3.1260   -0.6333 C   0  0  0  0  0  0  0  0  0  0  0  0
    5.8336   -4.1562   -0.0464 C   0  0  0  0  0  0  0  0  0  0  0  0
    2.9317   -8.1347    1.3519 C   0  0  0  0  0  0  0  0  0  0  0  0
    2.8484   -9.7404    1.7960 C   0  0  0  0  0  0  0  0  0  0  0  0
    3.0455  -10.4168    3.2902 C   0  0  2  0  0  0  0  0  0  0  0  0
    1.7255  -10.5907    4.1229 C   0  0  0  0  0  0  0  0  0  0  0  0
    0.5195   -9.6761    3.7613 C   0  0  0  0  0  0  0  0  0  0  0  0
   -0.1772   -9.9939    2.7994 O   0  0  0  0  0  0  0  0  0  0  0  0
    0.2164   -8.3570    4.5626 C   0  0  0  0  0  0  0  0  0  0  0  0
    0.2596   -8.6630    6.0812 C   0  0  0  0  0  0  0  0  0  0  0  0
   -1.2675   -7.9624    4.2705 C   0  0  0  0  0  0  0  0  0  0  0  0
   -0.9870   -4.0748    6.5190 H   0  0  0  0  0  0  0  0  0  0  0  0
    0.6560   -3.5825    6.0945 H   0  0  0  0  0  0  0  0  0  0  0  0
    0.3808   -4.8137    7.3495 H   0  0  0  0  0  0  0  0  0  0  0  0
    1.9746   -5.2605    4.8294 H   0  0  0  0  0  0  0  0  0  0  0  0
    1.7367   -6.3702    6.1531 H   0  0  0  0  0  0  0  0  0  0  0  0
    0.4253   -7.1820    2.0794 H   0  0  0  0  0  0  0  0  0  0  0  0
    1.4453   -5.7544    2.5384 H   0  0  0  0  0  0  0  0  0  0  0  0
   -0.1587   -5.9292    3.0765 H   0  0  0  0  0  0  0  0  0  0  0  0
    2.6110   -8.4190    5.0779 H   0  0  0  0  0  0  0  0  0  0  0  0
    5.9578   -8.1019    2.0339 H   0  0  0  0  0  0  0  0  0  0  0  0
    6.2710  -11.7092    2.4944 H   0  0  0  0  0  0  0  0  0  0  0  0
    7.1789  -11.0269    3.8465 H   0  0  0  0  0  0  0  0  0  0  0  0
    7.3683  -10.3437    2.2178 H   0  0  0  0  0  0  0  0  0  0  0  0
    4.6939  -11.1288    4.6087 H   0  0  0  0  0  0  0  0  0  0  0  0
    5.2047   -5.7237    1.7091 H   0  0  0  0  0  0  0  0  0  0  0  0
    2.7883   -2.6292   -0.4007 H   0  0  0  0  0  0  0  0  0  0  0  0
    4.3029   -0.9200   -1.4172 H   0  0  0  0  0  0  0  0  0  0  0  0
    7.6508   -3.2485   -0.7398 H   0  0  0  0  0  0  0  0  0  0  0  0
    6.3234   -5.0580    0.2845 H   0  0  0  0  0  0  0  0  0  0  0  0
    1.9667   -7.8240    0.9643 H   0  0  0  0  0  0  0  0  0  0  0  0
    3.5777   -8.1656    0.4833 H   0  0  0  0  0  0  0  0  0  0  0  0
    1.9305  -10.1439    1.3635 H   0  0  0  0  0  0  0  0  0  0  0  0
    3.6548  -10.2050    1.2185 H   0  0  0  0  0  0  0  0  0  0  0  0
    3.2166  -11.4478    2.9662 H   0  0  0  0  0  0  0  0  0  0  0  0
    1.3782  -11.6125    3.9805 H   0  0  0  0  0  0  0  0  0  0  0  0
    1.9454  -10.5378    5.1853 H   0  0  0  0  0  0  0  0  0  0  0  0
   -0.1852   -7.8384    6.6354 H   0  0  0  0  0  0  0  0  0  0  0  0
    1.2559   -8.7941    6.5011 H   0  0  0  0  0  0  0  0  0  0  0  0
   -0.2942   -9.5797    6.2966 H   0  0  0  0  0  0  0  0  0  0  0  0
   -1.5778   -7.0470    4.7754 H   0  0  0  0  0  0  0  0  0  0  0  0
   -1.9426   -8.7427    4.6220 H   0  0  0  0  0  0  0  0  0  0  0  0
   -1.4817   -7.8288    3.2059 H   0  0  0  0  0  0  0  0  0  0  0  0
  1  2  1  0
  1 35  1  0
  1 36  1  0
  1 37  1  0
  2  3  1  0
  4  3  1  1
  3 38  1  0
  3 39  1  0
  4 32  1  0
  4  5  1  0
  4  6  1  0
  5 40  1  0
  5 41  1  0
  5 42  1  0
  6 15  1  0
  6  7  1  0
  6 43  1  1
  7 15  1  0
  7 16  1  0
  7  8  1  6
  8  9  2  0
  8 44  1  0
  9 10  1  0
  9 11  1  0
 10 45  1  0
 10 46  1  0
 10 47  1  0
 11 28  1  0
 11 12  1  0
 11 48  1  1
 12 13  1  0
 13 14  2  0
 15 13  1  1
 15 16  1  0
 16 17  1  6
 16 26  1  0
 17 18  1  0
 17 49  1  0
 18 19  2  0
 18 20  1  0
 20 25  1  0
 20 21  2  0
 21 22  1  0
 21 50  1  0
 22 23  2  0
 22 51  1  0
 23 24  1  0
 24 25  2  0
 24 52  1  0
 25 53  1  0
 26 27  1  0
 26 54  1  0
 26 55  1  0
 27 28  1  0
 27 56  1  0
 27 57  1  0
 28 29  1  0
 28 58  1  6
 29 30  1  0
 29 59  1  0
 29 60  1  0
 30 31  2  0
 30 32  1  0
 32 33  1  0
 32 34  1  0
 33 61  1  0
 33 62  1  0
 33 63  1  0
 34 64  1  0
 34 65  1  0
 34 66  1  0
M  END
>  <i_m_ct_stereo_status>  (370) 
1

>  <s_m_source_file>  (370) 
/var/tmp/pbs.5076255.sched01/tmpfn0mpy04/132vsilkqhl.sdf

>  <i_m_source_file_index>  (370) 
29

>  <i_lp_mmshare_version>  (370) 
48012

>  <i_f3d_flags>  (370) 
0

>  <s_epik_input>  (370) 
W0NIM11PW0NIMl1bQ0BAXShbQ0gzXSkoW0NIXTFDMjNbQ0BdMTQ1KUMoW0NIM10pKFtDSDNdKUMoPU8pW0NIMl1bQ0BIXShbQ0BASF0oQyg9W0NIXTQpW0NIM10pT0MyPU8pW0NIMl1bQ0gyXUMzNVtOSF1DKD1PKWM2W2NIXVtjSF1uW2NIXVtjSF02

>  <s_epik_cmdline>  (370) 
J2VwaWtfcHl0aG9uJywgJy1waHQnLCAnMi4wJywgJy1waCcsICc3LjAnLCAnLXRuJywgJzgnLCAnLW1hJywgJzIwMCcsICctaW1hZScsICc8aW5maWxlLm1hZT4nLCAnLW9tYWUnLCAnPG91dGZpbGUubWFlPic=

>  <r_lp_tautomer_probability>  (370) 
1

>  <r_epik_Ionization_Penalty>  (370) 
0.000204843

>  <r_epik_Ionization_Penalty_Charging>  (370) 
0

>  <r_epik_Ionization_Penalty_Neutral>  (370) 
0.000204843

>  <r_epik_State_Penalty>  (370) 
-0

>  <r_epik_Charging_Adjusted_Penalty>  (370) 
0

>  <i_epik_Tot_Q>  (370) 
0

>  <i_epik_Tot_abs_Q>  (370) 
0

>  <s_epik_Chemistry_Notes>  (370) 
This compound has an ester and may undergo hydrolysis at high or low pH.

>  <s_lp_Force_Field>  (370) 
OPLS3e

>  <r_lp_Energy>  (370) 
300.981

>  <b_lp_Chiralities_Consistent>  (370) 
1

>  <s_lp_Variant>  (370) 
98:0-3

>  <s_i_glide_gridfile>  (370) 
pfpi4k_grid

>  <i_i_glide_lignum>  (370) 
29

>  <i_i_glide_rotatable_bonds>  (370) 
5

>  <r_i_docking_score>  (370) 
-1.9232

>  <r_i_glide_ligand_efficiency>  (370) 
-0.0565648

>  <r_i_glide_ligand_efficiency_sa>  (370) 
-0.183248

>  <r_i_glide_ligand_efficiency_ln>  (370) 
-0.424889

>  <r_i_glide_gscore>  (370) 
-1.9232

>  <r_i_glide_lipo>  (370) 
-0.160328

>  <r_i_glide_hbond>  (370) 
-0.0578171

>  <r_i_glide_metal>  (370) 
-0

>  <r_i_glide_rewards>  (370) 
-0.241681

>  <r_i_glide_evdw>  (370) 
-30.0664

>  <r_i_glide_ecoul>  (370) 
-1.98832

>  <r_i_glide_erotb>  (370) 
0.373668

>  <r_i_glide_esite>  (370) 
-0.0354744

>  <r_i_glide_emodel>  (370) 
-34.4012

>  <r_i_glide_energy>  (370) 
-32.0547

>  <r_i_glide_einternal>  (370) 
0.302556

>  <r_i_glide_intrahb_reward>  (370) 
-0

>  <i_i_glide_confnum>  (370) 
1

>  <i_i_glide_posenum>  (370) 
14

>  <r_i_glide_eff_state_penalty>  (370) 
0

>  <ligand_id>  (370) 
98

>  <original_smiles>  (370) 
COCC1(C)C2C34C=C(C)C5OC(=O)C23C4(NC(=O)c2ccncc2)CCC5CC(=O)C1(C)C

>  <smiles>  (370) 
[H]C1=C(C([H])([H])[H])C2([H])OC(=O)C34C5([H])C13C4(N([H])C(=O)c1c([H])c([H])nc([H])c1[H])C([H])([H])C([H])([H])C2([H])C([H])([H])C(=O)C(C([H])([H])[H])(C([H])([H])[H])C5(C([H])([H])[H])C([H])([H])OC([H])([H])[H]

$$$$
99:0:0
     RDKit          3D

 51 57  0  0  1  0  0  0  0  0999 V2000
    5.2289   -6.2683    0.4630 C   0  0  0  0  0  0  0  0  0  0  0  0
    4.5834   -5.1381    1.3244 C   0  0  2  0  0  0  0  0  0  0  0  0
    4.9079   -5.5260    2.8211 C   0  0  1  0  0  0  0  0  0  0  0  0
    5.7290   -4.6588    3.5620 O   0  0  0  0  0  0  0  0  0  0  0  0
    3.5348   -5.7416    3.4918 C   0  0  2  0  0  0  0  0  0  0  0  0
    3.0138   -7.0992    2.9595 C   0  0  0  0  0  0  0  0  0  0  0  0
    2.5852   -6.7336    1.5260 C   0  0  0  0  0  0  0  0  0  0  0  0
    3.0046   -5.2353    1.3937 C   0  0  2  0  0  0  0  0  0  0  0  0
    2.2017   -4.6534    0.3765 O   0  0  0  0  0  0  0  0  0  0  0  0
    2.5294   -3.5526   -0.4210 C   0  0  2  0  0  0  0  0  0  0  0  0
    3.3800   -3.8516   -1.4689 O   0  0  0  0  0  0  0  0  0  0  0  0
    4.4008   -2.8888   -1.5485 C   0  0  2  0  0  0  0  0  0  0  0  0
    4.7975   -2.7402   -3.0378 C   0  0  0  0  0  0  0  0  0  0  0  0
    3.8979   -1.9292   -3.7687 O   0  0  0  0  0  0  0  0  0  0  0  0
    5.5061   -3.5768   -0.6943 C   0  0  1  0  0  0  0  0  0  0  0  0
    6.7639   -2.9316   -0.8496 O   0  0  0  0  0  0  0  0  0  0  0  0
    5.1385   -3.7172    0.8486 C   0  0  1  0  0  0  0  0  0  0  0  0
    4.2554   -2.4938    1.2689 C   0  0  1  0  0  0  0  0  0  0  0  0
    3.8562   -2.3956    2.7540 C   0  0  0  0  0  0  0  0  0  0  0  0
    2.6657   -3.2529    3.1844 C   0  0  0  0  0  0  0  0  0  0  0  0
    2.5951   -4.7443    2.8037 C   0  0  2  0  0  0  0  0  0  0  0  0
    1.2461   -5.0465    3.1510 O   0  0  0  0  0  0  0  0  0  0  0  0
    5.0168   -1.1937    0.9537 C   0  0  0  0  0  0  0  0  0  0  0  0
    5.7886   -0.6281    1.7267 O   0  0  0  0  0  0  0  0  0  0  0  0
    4.7149   -0.8041   -0.2784 O   0  0  0  0  0  0  0  0  0  0  0  0
    3.7617   -1.6480   -0.8787 C   0  0  2  0  0  0  0  0  0  0  0  0
    3.0731   -2.3061    0.2978 C   0  0  1  0  0  0  0  0  0  0  0  0
    6.3008   -6.0961    0.3452 H   0  0  0  0  0  0  0  0  0  0  0  0
    4.7570   -6.3482   -0.5196 H   0  0  0  0  0  0  0  0  0  0  0  0
    5.1458   -7.2542    0.9188 H   0  0  0  0  0  0  0  0  0  0  0  0
    5.4659   -6.4603    2.8717 H   0  0  0  0  0  0  0  0  0  0  0  0
    6.5890   -4.6636    3.1677 H   0  0  0  0  0  0  0  0  0  0  0  0
    3.5655   -5.6955    4.5794 H   0  0  0  0  0  0  0  0  0  0  0  0
    3.7690   -7.8871    2.9752 H   0  0  0  0  0  0  0  0  0  0  0  0
    2.1587   -7.4595    3.5350 H   0  0  0  0  0  0  0  0  0  0  0  0
    3.0130   -7.4045    0.7893 H   0  0  0  0  0  0  0  0  0  0  0  0
    1.5037   -6.8484    1.4179 H   0  0  0  0  0  0  0  0  0  0  0  0
    1.5987   -3.2896   -0.9250 H   0  0  0  0  0  0  0  0  0  0  0  0
    5.7736   -2.2633   -3.1203 H   0  0  0  0  0  0  0  0  0  0  0  0
    4.8761   -3.7204   -3.5156 H   0  0  0  0  0  0  0  0  0  0  0  0
    3.0124   -2.1945   -3.5548 H   0  0  0  0  0  0  0  0  0  0  0  0
    5.6873   -4.5376   -1.1627 H   0  0  0  0  0  0  0  0  0  0  0  0
    7.0832   -3.1157   -1.7212 H   0  0  0  0  0  0  0  0  0  0  0  0
    6.0993   -3.6102    1.3498 H   0  0  0  0  0  0  0  0  0  0  0  0
    4.7158   -2.5355    3.4036 H   0  0  0  0  0  0  0  0  0  0  0  0
    3.5640   -1.3645    2.9838 H   0  0  0  0  0  0  0  0  0  0  0  0
    2.5778   -3.1618    4.2716 H   0  0  0  0  0  0  0  0  0  0  0  0
    1.7788   -2.7596    2.7875 H   0  0  0  0  0  0  0  0  0  0  0  0
    1.1409   -4.8760    4.0749 H   0  0  0  0  0  0  0  0  0  0  0  0
    3.0493   -1.1204   -1.5140 H   0  0  0  0  0  0  0  0  0  0  0  0
    2.2687   -1.7102    0.7214 H   0  0  0  0  0  0  0  0  0  0  0  0
  2  1  1  6
  1 28  1  0
  1 29  1  0
  1 30  1  0
  2  8  1  0
  2 17  1  0
  2  3  1  0
  3  4  1  0
  3  5  1  0
  3 31  1  6
  4 32  1  0
  5 21  1  0
  5  6  1  0
  5 33  1  1
  6  7  1  0
  6 34  1  0
  6 35  1  0
  7  8  1  0
  7 36  1  0
  7 37  1  0
  8 21  1  0
  8  9  1  6
  9 10  1  0
 10 27  1  0
 10 11  1  0
 10 38  1  6
 11 12  1  0
 12 26  1  0
 12 13  1  6
 12 15  1  0
 13 14  1  0
 13 39  1  0
 13 40  1  0
 14 41  1  0
 15 16  1  0
 15 17  1  0
 15 42  1  6
 16 43  1  0
 17 18  1  0
 17 44  1  1
 18 27  1  0
 18 19  1  1
 18 23  1  0
 19 20  1  0
 19 45  1  0
 19 46  1  0
 20 21  1  0
 20 47  1  0
 20 48  1  0
 21 22  1  1
 22 49  1  0
 23 24  2  0
 23 25  1  0
 25 26  1  0
 26 27  1  0
 26 50  1  6
 27 51  1  1
M  END
>  <i_m_ct_stereo_status>  (371) 
1

>  <s_m_source_file>  (371) 
/var/tmp/pbs.5076255.sched01/tmpfn0mpy04/132vsilkqhl.sdf

>  <i_m_source_file_index>  (371) 
30

>  <i_lp_mmshare_version>  (371) 
48012

>  <i_f3d_flags>  (371) 
0

>  <s_epik_input>  (371) 
W09IXVtDQEhdMVtDQEhdKFtDSDJdW0NIMl0yKVtDQEBdMyhbT0hdKVtDSDJdW0NIMl1bQ0BAXTQoW0NASF01W0NAQF0xKFtDQEBdMjM2KVtDSDNdKVtDQEBIXTdbQ0BIXShPNilPW0NAXShbQ0gyXVtPSF0pKFtDQEhdNVtPSF0pW0NAQEhdN09DND1P

>  <s_epik_cmdline>  (371) 
J2VwaWtfcHl0aG9uJywgJy1waHQnLCAnMi4wJywgJy1waCcsICc3LjAnLCAnLXRuJywgJzgnLCAnLW1hJywgJzIwMCcsICctaW1hZScsICc8aW5maWxlLm1hZT4nLCAnLW9tYWUnLCAnPG91dGZpbGUubWFlPic=

>  <r_lp_tautomer_probability>  (371) 
1

>  <r_epik_Ionization_Penalty>  (371) 
1.75368e-06

>  <r_epik_Ionization_Penalty_Charging>  (371) 
0

>  <r_epik_Ionization_Penalty_Neutral>  (371) 
1.75368e-06

>  <r_epik_State_Penalty>  (371) 
-0

>  <r_epik_Charging_Adjusted_Penalty>  (371) 
0

>  <i_epik_Tot_Q>  (371) 
0

>  <i_epik_Tot_abs_Q>  (371) 
0

>  <s_epik_Chemistry_Notes>  (371) 
This compound has an ester and may undergo hydrolysis at high or low pH. This compound contains an acetal/aminal-like group ( X-CH(R)-Y where X, Y are N, S, or O) that may be acid/base labile, releasing an aldehyde.

>  <s_lp_Force_Field>  (371) 
OPLS3e

>  <r_lp_Energy>  (371) 
89.0137

>  <b_lp_Chiralities_Consistent>  (371) 
1

>  <s_lp_Variant>  (371) 
99:0-1

>  <s_i_glide_gridfile>  (371) 
pfpi4k_grid

>  <i_i_glide_lignum>  (371) 
30

>  <i_i_glide_rotatable_bonds>  (371) 
5

>  <r_i_docking_score>  (371) 
-2.82929

>  <r_i_glide_ligand_efficiency>  (371) 
-0.104788

>  <r_i_glide_ligand_efficiency_sa>  (371) 
-0.314365

>  <r_i_glide_ligand_efficiency_ln>  (371) 
-0.658612

>  <r_i_glide_gscore>  (371) 
-2.82929

>  <r_i_glide_lipo>  (371) 
-0.405663

>  <r_i_glide_hbond>  (371) 
-0.0300065

>  <r_i_glide_metal>  (371) 
-0

>  <r_i_glide_rewards>  (371) 
-0.930875

>  <r_i_glide_evdw>  (371) 
-21.9016

>  <r_i_glide_ecoul>  (371) 
-3.09342

>  <r_i_glide_erotb>  (371) 
0.134074

>  <r_i_glide_esite>  (371) 
-0.0377244

>  <r_i_glide_emodel>  (371) 
-28.6524

>  <r_i_glide_energy>  (371) 
-24.995

>  <r_i_glide_einternal>  (371) 
2.62941

>  <r_i_glide_intrahb_reward>  (371) 
-0

>  <i_i_glide_confnum>  (371) 
2

>  <i_i_glide_posenum>  (371) 
6

>  <r_i_glide_eff_state_penalty>  (371) 
0

>  <ligand_id>  (371) 
99

>  <original_smiles>  (371) 
CC12C(O)C3CCC14OC1OC5(CO)C(O)C2C2(CCC34O)C(=O)OC5C12

>  <smiles>  (371) 
[H]OC([H])([H])C12OC3([H])OC45C([H])([H])C([H])([H])C6([H])C([H])(O[H])C4(C([H])([H])[H])C([H])(C1([H])O[H])C1(C(=O)OC2([H])C31[H])C([H])([H])C([H])([H])C65O[H]

$$$$
99:0:1
     RDKit          3D

 51 57  0  0  1  0  0  0  0  0999 V2000
    5.5935   -5.8558    0.6789 C   0  0  0  0  0  0  0  0  0  0  0  0
    4.6598   -4.9415    1.5314 C   0  0  2  0  0  0  0  0  0  0  0  0
    4.8219   -5.4732    3.0104 C   0  0  1  0  0  0  0  0  0  0  0  0
    5.3989   -4.6123    3.9603 O   0  0  0  0  0  0  0  0  0  0  0  0
    3.4157   -5.9564    3.4274 C   0  0  2  0  0  0  0  0  0  0  0  0
    3.1926   -7.2924    2.6725 C   0  0  0  0  0  0  0  0  0  0  0  0
    2.9208   -6.8028    1.2324 C   0  0  0  0  0  0  0  0  0  0  0  0
    3.1088   -5.2581    1.3349 C   0  0  2  0  0  0  0  0  0  0  0  0
    2.3345   -4.6615    0.2928 O   0  0  0  0  0  0  0  0  0  0  0  0
    2.6734   -3.4683   -0.3452 C   0  0  2  0  0  0  0  0  0  0  0  0
    3.7361   -3.5623   -1.2397 O   0  0  0  0  0  0  0  0  0  0  0  0
    4.5603   -2.4243   -1.0752 C   0  0  2  0  0  0  0  0  0  0  0  0
    5.1463   -2.0140   -2.4383 C   0  0  0  0  0  0  0  0  0  0  0  0
    4.2021   -1.3981   -3.2957 O   0  0  0  0  0  0  0  0  0  0  0  0
    5.6337   -3.0407   -0.1263 C   0  0  1  0  0  0  0  0  0  0  0  0
    6.7832   -2.2127   -0.0145 O   0  0  0  0  0  0  0  0  0  0  0  0
    5.0723   -3.4143    1.3105 C   0  0  1  0  0  0  0  0  0  0  0  0
    3.9596   -2.3876    1.7005 C   0  0  1  0  0  0  0  0  0  0  0  0
    3.3430   -2.5324    3.1091 C   0  0  0  0  0  0  0  0  0  0  0  0
    2.2409   -3.5822    3.2494 C   0  0  0  0  0  0  0  0  0  0  0  0
    2.4484   -5.0136    2.7098 C   0  0  2  0  0  0  0  0  0  0  0  0
    1.1274   -5.5496    2.7918 O   0  0  0  0  0  0  0  0  0  0  0  0
    4.5564   -0.9679    1.6614 C   0  0  0  0  0  0  0  0  0  0  0  0
    5.1151   -0.4198    2.5909 O   0  0  0  0  0  0  0  0  0  0  0  0
    4.3952   -0.4802    0.4337 O   0  0  0  0  0  0  0  0  0  0  0  0
    3.6678   -1.3695   -0.3906 C   0  0  2  0  0  0  0  0  0  0  0  0
    2.9188   -2.2514    0.5768 C   0  0  1  0  0  0  0  0  0  0  0  0
    6.6337   -5.5361    0.7537 H   0  0  0  0  0  0  0  0  0  0  0  0
    5.2988   -5.8727   -0.3706 H   0  0  0  0  0  0  0  0  0  0  0  0
    5.6024   -6.9008    1.0026 H   0  0  0  0  0  0  0  0  0  0  0  0
    5.5071   -6.3240    3.0569 H   0  0  0  0  0  0  0  0  0  0  0  0
    5.4694   -5.0774    4.7809 H   0  0  0  0  0  0  0  0  0  0  0  0
    3.2684   -6.0532    4.5050 H   0  0  0  0  0  0  0  0  0  0  0  0
    4.0517   -7.9595    2.7291 H   0  0  0  0  0  0  0  0  0  0  0  0
    2.3376   -7.8481    3.0626 H   0  0  0  0  0  0  0  0  0  0  0  0
    3.5461   -7.3004    0.4895 H   0  0  0  0  0  0  0  0  0  0  0  0
    1.9015   -7.0561    0.9375 H   0  0  0  0  0  0  0  0  0  0  0  0
    1.8199   -3.2427   -0.9816 H   0  0  0  0  0  0  0  0  0  0  0  0
    5.9319   -1.2800   -2.2765 H   0  0  0  0  0  0  0  0  0  0  0  0
    5.5975   -2.8653   -2.9532 H   0  0  0  0  0  0  0  0  0  0  0  0
    3.6894   -0.7747   -2.7992 H   0  0  0  0  0  0  0  0  0  0  0  0
    6.0424   -3.8882   -0.6568 H   0  0  0  0  0  0  0  0  0  0  0  0
    7.4270   -2.6810    0.4954 H   0  0  0  0  0  0  0  0  0  0  0  0
    5.9230   -3.2587    1.9820 H   0  0  0  0  0  0  0  0  0  0  0  0
    4.1085   -2.6400    3.8707 H   0  0  0  0  0  0  0  0  0  0  0  0
    2.8666   -1.5925    3.3897 H   0  0  0  0  0  0  0  0  0  0  0  0
    1.9807   -3.6586    4.3036 H   0  0  0  0  0  0  0  0  0  0  0  0
    1.3539   -3.1688    2.7664 H   0  0  0  0  0  0  0  0  0  0  0  0
    1.2060   -6.4925    2.7223 H   0  0  0  0  0  0  0  0  0  0  0  0
    3.0174   -0.8521   -1.0966 H   0  0  0  0  0  0  0  0  0  0  0  0
    1.9807   -1.8125    0.9175 H   0  0  0  0  0  0  0  0  0  0  0  0
  2  1  1  6
  1 28  1  0
  1 29  1  0
  1 30  1  0
  2  8  1  0
  2 17  1  0
  2  3  1  0
  3  4  1  0
  3  5  1  0
  3 31  1  6
  4 32  1  0
  5 21  1  0
  5  6  1  0
  5 33  1  1
  6  7  1  0
  6 34  1  0
  6 35  1  0
  7  8  1  0
  7 36  1  0
  7 37  1  0
  8 21  1  0
  8  9  1  6
  9 10  1  0
 10 27  1  0
 10 11  1  0
 10 38  1  6
 11 12  1  0
 12 26  1  0
 12 13  1  6
 12 15  1  0
 13 14  1  0
 13 39  1  0
 13 40  1  0
 14 41  1  0
 15 16  1  0
 15 17  1  0
 15 42  1  6
 16 43  1  0
 17 18  1  0
 17 44  1  1
 18 27  1  0
 18 19  1  1
 18 23  1  0
 19 20  1  0
 19 45  1  0
 19 46  1  0
 20 21  1  0
 20 47  1  0
 20 48  1  0
 21 22  1  6
 22 49  1  0
 23 24  2  0
 23 25  1  0
 25 26  1  0
 26 27  1  0
 26 50  1  6
 27 51  1  1
M  END
>  <i_m_ct_stereo_status>  (372) 
1

>  <s_m_source_file>  (372) 
/var/tmp/pbs.5076255.sched01/tmpfn0mpy04/132vsilkqhl.sdf

>  <i_m_source_file_index>  (372) 
30

>  <i_lp_mmshare_version>  (372) 
48012

>  <i_f3d_flags>  (372) 
0

>  <s_epik_input>  (372) 
W09IXVtDQEhdMVtDQEhdKFtDSDJdW0NIMl0yKVtDQEBdMyhbT0hdKVtDSDJdW0NIMl1bQ0BAXTQoW0NASF01W0NAQF0xKFtDQEBdMjM2KVtDSDNdKVtDQEBIXTdbQ0BIXShPNilPW0NAXShbQ0gyXVtPSF0pKFtDQEhdNVtPSF0pW0NAQEhdN09DND1P

>  <s_epik_cmdline>  (372) 
J2VwaWtfcHl0aG9uJywgJy1waHQnLCAnMi4wJywgJy1waCcsICc3LjAnLCAnLXRuJywgJzgnLCAnLW1hJywgJzIwMCcsICctaW1hZScsICc8aW5maWxlLm1hZT4nLCAnLW9tYWUnLCAnPG91dGZpbGUubWFlPic=

>  <r_lp_tautomer_probability>  (372) 
1

>  <r_epik_Ionization_Penalty>  (372) 
1.75368e-06

>  <r_epik_Ionization_Penalty_Charging>  (372) 
0

>  <r_epik_Ionization_Penalty_Neutral>  (372) 
1.75368e-06

>  <r_epik_State_Penalty>  (372) 
-0

>  <r_epik_Charging_Adjusted_Penalty>  (372) 
0

>  <i_epik_Tot_Q>  (372) 
0

>  <i_epik_Tot_abs_Q>  (372) 
0

>  <s_epik_Chemistry_Notes>  (372) 
This compound has an ester and may undergo hydrolysis at high or low pH. This compound contains an acetal/aminal-like group ( X-CH(R)-Y where X, Y are N, S, or O) that may be acid/base labile, releasing an aldehyde.

>  <s_lp_Force_Field>  (372) 
OPLS3e

>  <r_lp_Energy>  (372) 
89.0137

>  <b_lp_Chiralities_Consistent>  (372) 
1

>  <s_lp_Variant>  (372) 
99:0-1

>  <s_i_glide_gridfile>  (372) 
pfpi4k_grid

>  <i_i_glide_lignum>  (372) 
30

>  <i_i_glide_rotatable_bonds>  (372) 
5

>  <r_i_docking_score>  (372) 
-2.66337

>  <r_i_glide_ligand_efficiency>  (372) 
-0.0986433

>  <r_i_glide_ligand_efficiency_sa>  (372) 
-0.29593

>  <r_i_glide_ligand_efficiency_ln>  (372) 
-0.619989

>  <r_i_glide_gscore>  (372) 
-2.66337

>  <r_i_glide_lipo>  (372) 
-0.261336

>  <r_i_glide_hbond>  (372) 
-0.00134077

>  <r_i_glide_metal>  (372) 
-0

>  <r_i_glide_rewards>  (372) 
-0.911336

>  <r_i_glide_evdw>  (372) 
-22.7301

>  <r_i_glide_ecoul>  (372) 
-3.08293

>  <r_i_glide_erotb>  (372) 
0.134074

>  <r_i_glide_esite>  (372) 
-0.0244853

>  <r_i_glide_emodel>  (372) 
-29.1448

>  <r_i_glide_energy>  (372) 
-25.8131

>  <r_i_glide_einternal>  (372) 
2.79928

>  <r_i_glide_intrahb_reward>  (372) 
-0

>  <i_i_glide_confnum>  (372) 
3

>  <i_i_glide_posenum>  (372) 
31

>  <r_i_glide_eff_state_penalty>  (372) 
0

>  <ligand_id>  (372) 
99

>  <original_smiles>  (372) 
CC12C(O)C3CCC14OC1OC5(CO)C(O)C2C2(CCC34O)C(=O)OC5C12

>  <smiles>  (372) 
[H]OC([H])([H])C12OC3([H])OC45C([H])([H])C([H])([H])C6([H])C([H])(O[H])C4(C([H])([H])[H])C([H])(C1([H])O[H])C1(C(=O)OC2([H])C31[H])C([H])([H])C([H])([H])C65O[H]

$$$$
99:0:2
     RDKit          3D

 51 57  0  0  1  0  0  0  0  0999 V2000
    5.5059   -5.9195    0.6500 C   0  0  0  0  0  0  0  0  0  0  0  0
    4.6149   -4.9871    1.5277 C   0  0  2  0  0  0  0  0  0  0  0  0
    4.7881   -5.5275    3.0026 C   0  0  1  0  0  0  0  0  0  0  0  0
    5.3961   -4.6843    3.9554 O   0  0  0  0  0  0  0  0  0  0  0  0
    3.3772   -5.9800    3.4367 C   0  0  2  0  0  0  0  0  0  0  0  0
    3.1056   -7.3044    2.6787 C   0  0  0  0  0  0  0  0  0  0  0  0
    2.8221   -6.8014    1.2467 C   0  0  0  0  0  0  0  0  0  0  0  0
    3.0564   -5.2604    1.3540 C   0  0  2  0  0  0  0  0  0  0  0  0
    2.2947   -4.6325    0.3213 O   0  0  0  0  0  0  0  0  0  0  0  0
    2.6234   -3.4285   -0.3034 C   0  0  2  0  0  0  0  0  0  0  0  0
    3.6510   -3.5281   -1.2333 O   0  0  0  0  0  0  0  0  0  0  0  0
    4.5379   -2.4395   -1.0573 C   0  0  2  0  0  0  0  0  0  0  0  0
    5.1037   -2.0393   -2.4388 C   0  0  0  0  0  0  0  0  0  0  0  0
    4.2110   -1.2367   -3.1886 O   0  0  0  0  0  0  0  0  0  0  0  0
    5.6026   -3.0966   -0.1320 C   0  0  1  0  0  0  0  0  0  0  0  0
    6.7798   -2.3072   -0.0264 O   0  0  0  0  0  0  0  0  0  0  0  0
    5.0539   -3.4707    1.3110 C   0  0  1  0  0  0  0  0  0  0  0  0
    3.9783   -2.4107    1.7350 C   0  0  1  0  0  0  0  0  0  0  0  0
    3.3775   -2.5504    3.1478 C   0  0  0  0  0  0  0  0  0  0  0  0
    2.2571   -3.5761    3.2992 C   0  0  0  0  0  0  0  0  0  0  0  0
    2.4172   -5.0079    2.7413 C   0  0  2  0  0  0  0  0  0  0  0  0
    1.0796   -5.4975    2.8511 O   0  0  0  0  0  0  0  0  0  0  0  0
    4.6104   -1.0038    1.6835 C   0  0  0  0  0  0  0  0  0  0  0  0
    5.2022   -0.4599    2.6144 O   0  0  0  0  0  0  0  0  0  0  0  0
    4.4289   -0.4979    0.4770 O   0  0  0  0  0  0  0  0  0  0  0  0
    3.6826   -1.3630   -0.3486 C   0  0  2  0  0  0  0  0  0  0  0  0
    2.9217   -2.2309    0.6265 C   0  0  1  0  0  0  0  0  0  0  0  0
    6.5556   -5.6261    0.7062 H   0  0  0  0  0  0  0  0  0  0  0  0
    5.1866   -5.9231   -0.3941 H   0  0  0  0  0  0  0  0  0  0  0  0
    5.4902   -6.9624    0.9704 H   0  0  0  0  0  0  0  0  0  0  0  0
    5.4445   -6.3971    3.0331 H   0  0  0  0  0  0  0  0  0  0  0  0
    6.3039   -4.5819    3.7253 H   0  0  0  0  0  0  0  0  0  0  0  0
    3.2552   -6.0748    4.5155 H   0  0  0  0  0  0  0  0  0  0  0  0
    3.9440   -8.0019    2.7215 H   0  0  0  0  0  0  0  0  0  0  0  0
    2.2347   -7.8251    3.0811 H   0  0  0  0  0  0  0  0  0  0  0  0
    3.4182   -7.3070    0.4905 H   0  0  0  0  0  0  0  0  0  0  0  0
    1.7872   -7.0229    0.9775 H   0  0  0  0  0  0  0  0  0  0  0  0
    1.7472   -3.1858   -0.9106 H   0  0  0  0  0  0  0  0  0  0  0  0
    6.0133   -1.4518   -2.3139 H   0  0  0  0  0  0  0  0  0  0  0  0
    5.3733   -2.9244   -3.0160 H   0  0  0  0  0  0  0  0  0  0  0  0
    3.3433   -1.6143   -3.1268 H   0  0  0  0  0  0  0  0  0  0  0  0
    5.9746   -3.9531   -0.6807 H   0  0  0  0  0  0  0  0  0  0  0  0
    7.4204   -2.8005    0.4608 H   0  0  0  0  0  0  0  0  0  0  0  0
    5.9137   -3.3315    1.9638 H   0  0  0  0  0  0  0  0  0  0  0  0
    4.1521   -2.6813    3.8956 H   0  0  0  0  0  0  0  0  0  0  0  0
    2.9312   -1.5972    3.4464 H   0  0  0  0  0  0  0  0  0  0  0  0
    2.0160   -3.6456    4.3626 H   0  0  0  0  0  0  0  0  0  0  0  0
    1.3704   -3.1331    2.8404 H   0  0  0  0  0  0  0  0  0  0  0  0
    0.8869   -5.5842    3.7695 H   0  0  0  0  0  0  0  0  0  0  0  0
    3.0191   -0.8286   -1.0319 H   0  0  0  0  0  0  0  0  0  0  0  0
    2.0009   -1.7723    0.9849 H   0  0  0  0  0  0  0  0  0  0  0  0
  2  1  1  6
  1 28  1  0
  1 29  1  0
  1 30  1  0
  2  8  1  0
  2 17  1  0
  2  3  1  0
  3  4  1  0
  3  5  1  0
  3 31  1  6
  4 32  1  0
  5 21  1  0
  5  6  1  0
  5 33  1  1
  6  7  1  0
  6 34  1  0
  6 35  1  0
  7  8  1  0
  7 36  1  0
  7 37  1  0
  8 21  1  0
  8  9  1  6
  9 10  1  0
 10 27  1  0
 10 11  1  0
 10 38  1  6
 11 12  1  0
 12 26  1  0
 12 13  1  6
 12 15  1  0
 13 14  1  0
 13 39  1  0
 13 40  1  0
 14 41  1  0
 15 16  1  0
 15 17  1  0
 15 42  1  6
 16 43  1  0
 17 18  1  0
 17 44  1  1
 18 27  1  0
 18 19  1  1
 18 23  1  0
 19 20  1  0
 19 45  1  0
 19 46  1  0
 20 21  1  0
 20 47  1  0
 20 48  1  0
 21 22  1  6
 22 49  1  0
 23 24  2  0
 23 25  1  0
 25 26  1  0
 26 27  1  0
 26 50  1  6
 27 51  1  1
M  END
>  <i_m_ct_stereo_status>  (373) 
1

>  <s_m_source_file>  (373) 
/var/tmp/pbs.5076255.sched01/tmpfn0mpy04/132vsilkqhl.sdf

>  <i_m_source_file_index>  (373) 
30

>  <i_lp_mmshare_version>  (373) 
48012

>  <i_f3d_flags>  (373) 
0

>  <s_epik_input>  (373) 
W09IXVtDQEhdMVtDQEhdKFtDSDJdW0NIMl0yKVtDQEBdMyhbT0hdKVtDSDJdW0NIMl1bQ0BAXTQoW0NASF01W0NAQF0xKFtDQEBdMjM2KVtDSDNdKVtDQEBIXTdbQ0BIXShPNilPW0NAXShbQ0gyXVtPSF0pKFtDQEhdNVtPSF0pW0NAQEhdN09DND1P

>  <s_epik_cmdline>  (373) 
J2VwaWtfcHl0aG9uJywgJy1waHQnLCAnMi4wJywgJy1waCcsICc3LjAnLCAnLXRuJywgJzgnLCAnLW1hJywgJzIwMCcsICctaW1hZScsICc8aW5maWxlLm1hZT4nLCAnLW9tYWUnLCAnPG91dGZpbGUubWFlPic=

>  <r_lp_tautomer_probability>  (373) 
1

>  <r_epik_Ionization_Penalty>  (373) 
1.75368e-06

>  <r_epik_Ionization_Penalty_Charging>  (373) 
0

>  <r_epik_Ionization_Penalty_Neutral>  (373) 
1.75368e-06

>  <r_epik_State_Penalty>  (373) 
-0

>  <r_epik_Charging_Adjusted_Penalty>  (373) 
0

>  <i_epik_Tot_Q>  (373) 
0

>  <i_epik_Tot_abs_Q>  (373) 
0

>  <s_epik_Chemistry_Notes>  (373) 
This compound has an ester and may undergo hydrolysis at high or low pH. This compound contains an acetal/aminal-like group ( X-CH(R)-Y where X, Y are N, S, or O) that may be acid/base labile, releasing an aldehyde.

>  <s_lp_Force_Field>  (373) 
OPLS3e

>  <r_lp_Energy>  (373) 
89.0137

>  <b_lp_Chiralities_Consistent>  (373) 
1

>  <s_lp_Variant>  (373) 
99:0-1

>  <s_i_glide_gridfile>  (373) 
pfpi4k_grid

>  <i_i_glide_lignum>  (373) 
30

>  <i_i_glide_rotatable_bonds>  (373) 
5

>  <r_i_docking_score>  (373) 
-2.66157

>  <r_i_glide_ligand_efficiency>  (373) 
-0.0985765

>  <r_i_glide_ligand_efficiency_sa>  (373) 
-0.295729

>  <r_i_glide_ligand_efficiency_ln>  (373) 
-0.619568

>  <r_i_glide_gscore>  (373) 
-2.66157

>  <r_i_glide_lipo>  (373) 
-0.268615

>  <r_i_glide_hbond>  (373) 
-0.00496284

>  <r_i_glide_metal>  (373) 
-0

>  <r_i_glide_rewards>  (373) 
-0.913619

>  <r_i_glide_evdw>  (373) 
-22.6718

>  <r_i_glide_ecoul>  (373) 
-2.98365

>  <r_i_glide_erotb>  (373) 
0.134074

>  <r_i_glide_esite>  (373) 
-0.0273066

>  <r_i_glide_emodel>  (373) 
-29.0693

>  <r_i_glide_energy>  (373) 
-25.6554

>  <r_i_glide_einternal>  (373) 
2.63821

>  <r_i_glide_intrahb_reward>  (373) 
-0

>  <i_i_glide_confnum>  (373) 
3

>  <i_i_glide_posenum>  (373) 
1

>  <r_i_glide_eff_state_penalty>  (373) 
0

>  <ligand_id>  (373) 
99

>  <original_smiles>  (373) 
CC12C(O)C3CCC14OC1OC5(CO)C(O)C2C2(CCC34O)C(=O)OC5C12

>  <smiles>  (373) 
[H]OC([H])([H])C12OC3([H])OC45C([H])([H])C([H])([H])C6([H])C([H])(O[H])C4(C([H])([H])[H])C([H])(C1([H])O[H])C1(C(=O)OC2([H])C31[H])C([H])([H])C([H])([H])C65O[H]

$$$$
100:0:0
     RDKit          3D

 67 72  0  0  1  0  0  0  0  0999 V2000
    0.5621   -4.0780    5.2987 C   0  0  0  0  0  0  0  0  0  0  0  0
    1.9587   -4.5425    4.8328 C   0  0  2  0  0  0  0  0  0  0  0  0
    2.6054   -3.3970    3.9872 C   0  0  0  0  0  0  0  0  0  0  0  0
    4.1412   -3.2716    3.5740 C   0  0  1  0  0  0  0  0  0  0  0  0
    4.9705   -3.4197    4.7132 O   0  0  0  0  0  0  0  0  0  0  0  0
    4.7127   -3.9452    2.2325 C   0  0  2  0  0  0  0  0  0  0  0  0
    5.8501   -3.2122    1.8127 O   0  0  0  0  0  0  0  0  0  0  0  0
    3.6748   -3.7600    1.0823 C   0  0  0  0  0  0  0  0  0  0  0  0
    3.0600   -2.3227    0.9983 C   0  0  0  0  0  0  0  0  0  0  0  0
    4.1638   -3.9119   -0.3999 C   0  0  0  0  0  0  0  0  0  0  0  0
    2.6243   -4.6682    1.4544 O   0  0  0  0  0  0  0  0  0  0  0  0
    2.7299   -6.0812    1.8320 C   0  0  2  0  0  0  0  0  0  0  0  0
    1.4731   -6.1526    2.7370 C   0  0  0  0  0  0  0  0  0  0  0  0
    1.8404   -5.9977    4.2366 C   0  0  1  0  0  0  0  0  0  0  0  0
    3.1454   -6.7572    4.5273 C   0  0  1  0  0  0  0  0  0  0  0  0
    3.1576   -8.3857    4.6304 C   0  0  0  0  0  0  0  0  0  0  0  0
    3.5321   -9.2381    3.3275 C   0  0  1  0  0  0  0  0  0  0  0  0
    2.4095  -10.2484    2.9947 C   0  0  0  0  0  0  0  0  0  0  0  0
    3.7746   -8.2344    2.1477 C   0  0  2  0  0  0  0  0  0  0  0  0
    4.8090   -7.9944    0.9271 C   0  0  0  0  0  0  0  0  0  0  0  0
    5.2799   -6.3996    0.8969 C   0  0  0  0  0  0  0  0  0  0  0  0
    5.1393   -5.4636    2.3720 C   0  0  1  0  0  0  0  0  0  0  0  0
    6.4908   -5.6308    2.8312 O   0  0  0  0  0  0  0  0  0  0  0  0
    6.6282   -6.9776    3.1905 C   0  0  0  0  0  0  0  0  0  0  0  0
    7.6731   -7.7037    2.2958 C   0  0  0  0  0  0  0  0  0  0  0  0
    7.1961   -7.0488    4.6443 C   0  0  0  0  0  0  0  0  0  0  0  0
    5.3028   -7.5981    3.1235 O   0  0  0  0  0  0  0  0  0  0  0  0
    3.8825   -6.8886    2.7713 C   0  0  1  0  0  0  0  0  0  0  0  0
    4.3586   -6.0305    3.7997 C   0  0  1  0  0  0  0  0  0  0  0  0
   -0.1280   -3.9739    4.4600 H   0  0  0  0  0  0  0  0  0  0  0  0
    0.6128   -3.1140    5.8055 H   0  0  0  0  0  0  0  0  0  0  0  0
    0.1224   -4.7827    6.0065 H   0  0  0  0  0  0  0  0  0  0  0  0
    2.5366   -4.5882    5.7564 H   0  0  0  0  0  0  0  0  0  0  0  0
    1.9198   -3.2690    3.1581 H   0  0  0  0  0  0  0  0  0  0  0  0
    2.4362   -2.4924    4.5718 H   0  0  0  0  0  0  0  0  0  0  0  0
    4.2501   -2.2021    3.3936 H   0  0  0  0  0  0  0  0  0  0  0  0
    5.0080   -4.3392    4.9359 H   0  0  0  0  0  0  0  0  0  0  0  0
    5.6082   -2.3007    1.7445 H   0  0  0  0  0  0  0  0  0  0  0  0
    3.7939   -1.5956    0.6428 H   0  0  0  0  0  0  0  0  0  0  0  0
    2.6606   -1.8750    1.9007 H   0  0  0  0  0  0  0  0  0  0  0  0
    2.2339   -2.3176    0.2832 H   0  0  0  0  0  0  0  0  0  0  0  0
    4.0830   -3.0032   -0.9997 H   0  0  0  0  0  0  0  0  0  0  0  0
    3.5624   -4.6388   -0.9437 H   0  0  0  0  0  0  0  0  0  0  0  0
    5.2181   -4.1782   -0.4896 H   0  0  0  0  0  0  0  0  0  0  0  0
    2.5018   -6.5529    0.8753 H   0  0  0  0  0  0  0  0  0  0  0  0
    0.7066   -5.4329    2.4486 H   0  0  0  0  0  0  0  0  0  0  0  0
    1.0230   -7.1382    2.6101 H   0  0  0  0  0  0  0  0  0  0  0  0
    1.0635   -6.5103    4.8085 H   0  0  0  0  0  0  0  0  0  0  0  0
    3.2949   -6.5436    5.5913 H   0  0  0  0  0  0  0  0  0  0  0  0
    3.9455   -8.6328    5.3472 H   0  0  0  0  0  0  0  0  0  0  0  0
    2.2323   -8.7425    5.0867 H   0  0  0  0  0  0  0  0  0  0  0  0
    4.4442   -9.8139    3.5124 H   0  0  0  0  0  0  0  0  0  0  0  0
    1.4526   -9.7506    2.8279 H   0  0  0  0  0  0  0  0  0  0  0  0
    2.2642  -10.9655    3.8051 H   0  0  0  0  0  0  0  0  0  0  0  0
    2.6455  -10.8133    2.0919 H   0  0  0  0  0  0  0  0  0  0  0  0
    2.8444   -8.3821    1.6040 H   0  0  0  0  0  0  0  0  0  0  0  0
    5.6472   -8.6854    0.9931 H   0  0  0  0  0  0  0  0  0  0  0  0
    4.3294   -8.2473   -0.0163 H   0  0  0  0  0  0  0  0  0  0  0  0
    6.2265   -6.2117    0.3989 H   0  0  0  0  0  0  0  0  0  0  0  0
    4.5664   -6.1181    0.1517 H   0  0  0  0  0  0  0  0  0  0  0  0
    7.5192   -7.5924    1.2315 H   0  0  0  0  0  0  0  0  0  0  0  0
    7.6740   -8.7652    2.5380 H   0  0  0  0  0  0  0  0  0  0  0  0
    8.6659   -7.3057    2.4959 H   0  0  0  0  0  0  0  0  0  0  0  0
    7.0186   -6.1185    5.1869 H   0  0  0  0  0  0  0  0  0  0  0  0
    8.2765   -7.1982    4.6417 H   0  0  0  0  0  0  0  0  0  0  0  0
    6.7348   -7.8793    5.1817 H   0  0  0  0  0  0  0  0  0  0  0  0
    5.0110   -6.1689    4.6542 H   0  0  0  0  0  0  0  0  0  0  0  0
  1  2  1  0
  1 30  1  0
  1 31  1  0
  1 32  1  0
  2 14  1  0
  2  3  1  0
  2 33  1  1
  3  4  1  0
  3 34  1  0
  3 35  1  0
  4  5  1  0
  4  6  1  0
  4 36  1  6
  5 37  1  0
  6 22  1  0
  6  7  1  6
  6  8  1  0
  7 38  1  0
  8  9  1  0
  8 10  1  0
  8 11  1  0
  9 39  1  0
  9 40  1  0
  9 41  1  0
 10 42  1  0
 10 43  1  0
 10 44  1  0
 11 12  1  0
 12 28  1  0
 12 13  1  0
 12 45  1  6
 13 14  1  0
 13 46  1  0
 13 47  1  0
 14 15  1  0
 14 48  1  1
 15 29  1  0
 15 16  1  0
 15 49  1  1
 16 17  1  0
 16 50  1  0
 16 51  1  0
 17 18  1  0
 17 19  1  0
 17 52  1  1
 18 53  1  0
 18 54  1  0
 18 55  1  0
 19 28  1  0
 19 20  1  0
 19 56  1  6
 20 21  1  0
 20 57  1  0
 20 58  1  0
 21 22  1  0
 21 59  1  0
 21 60  1  0
 22 29  1  0
 22 23  1  1
 23 24  1  0
 24 25  1  0
 24 26  1  0
 24 27  1  0
 25 61  1  0
 25 62  1  0
 25 63  1  0
 26 64  1  0
 26 65  1  0
 26 66  1  0
 28 27  1  6
 28 29  1  0
 29 67  1  1
M  END
>  <i_m_ct_stereo_status>  (374) 
1

>  <s_m_source_file>  (374) 
/var/tmp/pbs.5076255.sched01/tmpfn0mpy04/132vsilkqhl.sdf

>  <i_m_source_file_index>  (374) 
31

>  <i_lp_mmshare_version>  (374) 
48012

>  <i_f3d_flags>  (374) 
0

>  <s_epik_input>  (374) 
W09IXVtDQEBdMShbQ0BAXTIzNClbQ0BIXShbT0hdKVtDSDJdW0NAQEhdKFtDSDNdKVtDQEBIXTVbQ0BASF02W0NIXTRDKFtDSF0oW0NAQEhdKFtDSDJdNilbQ0gzXSlbQ0gyXVtDSDJdMikoT0MoTzMpKFtDSDNdKVtDSDNdKVtDQEBIXShbQ0gyXTUpT0MxKFtDSDNdKVtDSDNd

>  <s_epik_cmdline>  (374) 
J2VwaWtfcHl0aG9uJywgJy1waHQnLCAnMi4wJywgJy1waCcsICc3LjAnLCAnLXRuJywgJzgnLCAnLW1hJywgJzIwMCcsICctaW1hZScsICc8aW5maWxlLm1hZT4nLCAnLW9tYWUnLCAnPG91dGZpbGUubWFlPic=

>  <r_lp_tautomer_probability>  (374) 
1

>  <r_epik_Ionization_Penalty>  (374) 
1.48046e-07

>  <r_epik_Ionization_Penalty_Charging>  (374) 
0

>  <r_epik_Ionization_Penalty_Neutral>  (374) 
1.48046e-07

>  <r_epik_State_Penalty>  (374) 
-0

>  <r_epik_Charging_Adjusted_Penalty>  (374) 
0

>  <i_epik_Tot_Q>  (374) 
0

>  <i_epik_Tot_abs_Q>  (374) 
0

>  <s_lp_Force_Field>  (374) 
OPLS3e

>  <r_lp_Energy>  (374) 
515.171

>  <b_lp_Chiralities_Consistent>  (374) 
1

>  <s_lp_Variant>  (374) 
100:0-1

>  <s_i_glide_gridfile>  (374) 
pfpi4k_grid

>  <i_i_glide_lignum>  (374) 
31

>  <i_i_glide_rotatable_bonds>  (374) 
2

>  <r_i_docking_score>  (374) 
-2.13272

>  <r_i_glide_ligand_efficiency>  (374) 
-0.073542

>  <r_i_glide_ligand_efficiency_sa>  (374) 
-0.225944

>  <r_i_glide_ligand_efficiency_ln>  (374) 
-0.488338

>  <r_i_glide_gscore>  (374) 
-2.13272

>  <r_i_glide_lipo>  (374) 
-0.170547

>  <r_i_glide_hbond>  (374) 
0

>  <r_i_glide_metal>  (374) 
-0

>  <r_i_glide_rewards>  (374) 
-0.64365

>  <r_i_glide_evdw>  (374) 
-23.1012

>  <r_i_glide_ecoul>  (374) 
-1.08974

>  <r_i_glide_erotb>  (374) 
0

>  <r_i_glide_esite>  (374) 
0

>  <r_i_glide_emodel>  (374) 
-26.7213

>  <r_i_glide_energy>  (374) 
-24.1909

>  <r_i_glide_einternal>  (374) 
0.00914116

>  <r_i_glide_intrahb_reward>  (374) 
-0

>  <i_i_glide_confnum>  (374) 
2

>  <i_i_glide_posenum>  (374) 
35

>  <r_i_glide_eff_state_penalty>  (374) 
0

>  <ligand_id>  (374) 
100

>  <original_smiles>  (374) 
CC1CC(O)C2(O)C(C)(C)OC3CC1C1CC(C)C4CCC25OC(C)(C)OC34C15

>  <smiles>  (374) 
[H]OC1([H])C([H])([H])C([H])(C([H])([H])[H])C2([H])C([H])([H])C3([H])OC(C([H])([H])[H])(C([H])([H])[H])C1(O[H])C14OC(C([H])([H])[H])(C([H])([H])[H])OC35C([H])(C([H])([H])C1([H])[H])C([H])(C([H])([H])[H])C([H])([H])C2([H])C54[H]

$$$$
100:0:1
     RDKit          3D

 67 72  0  0  1  0  0  0  0  0999 V2000
    1.3940   -1.1956    2.6743 C   0  0  0  0  0  0  0  0  0  0  0  0
    2.6581   -2.0765    2.7297 C   0  0  2  0  0  0  0  0  0  0  0  0
    3.7660   -1.3619    1.8956 C   0  0  0  0  0  0  0  0  0  0  0  0
    5.3103   -1.7017    1.9342 C   0  0  1  0  0  0  0  0  0  0  0  0
    5.6709   -1.7127    3.2785 O   0  0  0  0  0  0  0  0  0  0  0  0
    5.9790   -2.8358    1.0119 C   0  0  2  0  0  0  0  0  0  0  0  0
    7.3377   -2.4976    0.8179 O   0  0  0  0  0  0  0  0  0  0  0  0
    5.3598   -2.7030   -0.4120 C   0  0  0  0  0  0  0  0  0  0  0  0
    5.2213   -1.2375   -0.9333 C   0  0  0  0  0  0  0  0  0  0  0  0
    6.1158   -3.3306   -1.6312 C   0  0  0  0  0  0  0  0  0  0  0  0
    4.0457   -3.2199   -0.2142 O   0  0  0  0  0  0  0  0  0  0  0  0
    3.6439   -4.4715    0.4259 C   0  0  2  0  0  0  0  0  0  0  0  0
    2.2772   -4.0091    0.9131 C   0  0  0  0  0  0  0  0  0  0  0  0
    2.2656   -3.5683    2.4005 C   0  0  1  0  0  0  0  0  0  0  0  0
    3.1710   -4.5166    3.2098 C   0  0  1  0  0  0  0  0  0  0  0  0
    2.6527   -6.0141    3.5924 C   0  0  0  0  0  0  0  0  0  0  0  0
    3.0475   -7.2302    2.6303 C   0  0  1  0  0  0  0  0  0  0  0  0
    1.7899   -8.0027    2.1536 C   0  0  0  0  0  0  0  0  0  0  0  0
    3.8317   -6.6355    1.4286 C   0  0  2  0  0  0  0  0  0  0  0  0
    5.1323   -6.9671    0.5530 C   0  0  0  0  0  0  0  0  0  0  0  0
    6.0861   -5.6026    0.3746 C   0  0  0  0  0  0  0  0  0  0  0  0
    5.8762   -4.3167    1.5424 C   0  0  1  0  0  0  0  0  0  0  0  0
    6.9763   -4.7313    2.3490 O   0  0  0  0  0  0  0  0  0  0  0  0
    6.6122   -5.9142    3.0050 C   0  0  0  0  0  0  0  0  0  0  0  0
    7.5710   -7.0748    2.6222 C   0  0  0  0  0  0  0  0  0  0  0  0
    6.7713   -5.7481    4.5569 C   0  0  0  0  0  0  0  0  0  0  0  0
    5.2193   -6.1749    2.6680 O   0  0  0  0  0  0  0  0  0  0  0  0
    4.2170   -5.2515    1.8013 C   0  0  1  0  0  0  0  0  0  0  0  0
    4.6692   -4.3117    2.7592 C   0  0  1  0  0  0  0  0  0  0  0  0
    0.9937   -1.1458    1.6612 H   0  0  0  0  0  0  0  0  0  0  0  0
    1.6063   -0.1729    2.9909 H   0  0  0  0  0  0  0  0  0  0  0  0
    0.6052   -1.5744    3.3267 H   0  0  0  0  0  0  0  0  0  0  0  0
    2.9624   -2.0172    3.7748 H   0  0  0  0  0  0  0  0  0  0  0  0
    3.3491   -1.2870    0.8954 H   0  0  0  0  0  0  0  0  0  0  0  0
    3.7466   -0.3298    2.2440 H   0  0  0  0  0  0  0  0  0  0  0  0
    5.7970   -0.7814    1.6078 H   0  0  0  0  0  0  0  0  0  0  0  0
    5.3885   -2.5353    3.6675 H   0  0  0  0  0  0  0  0  0  0  0  0
    7.7691   -3.2577    0.4305 H   0  0  0  0  0  0  0  0  0  0  0  0
    6.2005   -0.8254   -1.1447 H   0  0  0  0  0  0  0  0  0  0  0  0
    4.7739   -0.4892   -0.2921 H   0  0  0  0  0  0  0  0  0  0  0  0
    4.6434   -1.2068   -1.8595 H   0  0  0  0  0  0  0  0  0  0  0  0
    6.4568   -2.6113   -2.3770 H   0  0  0  0  0  0  0  0  0  0  0  0
    5.4778   -4.0129   -2.1963 H   0  0  0  0  0  0  0  0  0  0  0  0
    7.0339   -3.8536   -1.3467 H   0  0  0  0  0  0  0  0  0  0  0  0
    3.5060   -5.0959   -0.4558 H   0  0  0  0  0  0  0  0  0  0  0  0
    1.8836   -3.2202    0.2645 H   0  0  0  0  0  0  0  0  0  0  0  0
    1.6204   -4.8744    0.8141 H   0  0  0  0  0  0  0  0  0  0  0  0
    1.2583   -3.7093    2.7840 H   0  0  0  0  0  0  0  0  0  0  0  0
    3.1049   -4.0762    4.2105 H   0  0  0  0  0  0  0  0  0  0  0  0
    3.1245   -6.2641    4.5451 H   0  0  0  0  0  0  0  0  0  0  0  0
    1.5765   -6.0050    3.7805 H   0  0  0  0  0  0  0  0  0  0  0  0
    3.6813   -7.9434    3.1676 H   0  0  0  0  0  0  0  0  0  0  0  0
    1.0968   -7.3523    1.6198 H   0  0  0  0  0  0  0  0  0  0  0  0
    1.2482   -8.4389    2.9957 H   0  0  0  0  0  0  0  0  0  0  0  0
    2.0542   -8.8175    1.4748 H   0  0  0  0  0  0  0  0  0  0  0  0
    3.0580   -6.6843    0.6693 H   0  0  0  0  0  0  0  0  0  0  0  0
    5.6905   -7.8028    0.9769 H   0  0  0  0  0  0  0  0  0  0  0  0
    4.8050   -7.3116   -0.4144 H   0  0  0  0  0  0  0  0  0  0  0  0
    7.1245   -5.8012    0.2095 H   0  0  0  0  0  0  0  0  0  0  0  0
    5.7155   -5.3620   -0.5922 H   0  0  0  0  0  0  0  0  0  0  0  0
    7.7286   -7.2090    1.5644 H   0  0  0  0  0  0  0  0  0  0  0  0
    7.2075   -8.0150    3.0453 H   0  0  0  0  0  0  0  0  0  0  0  0
    8.5606   -6.8681    3.0343 H   0  0  0  0  0  0  0  0  0  0  0  0
    6.7353   -4.7068    4.8747 H   0  0  0  0  0  0  0  0  0  0  0  0
    7.7357   -6.1391    4.9054 H   0  0  0  0  0  0  0  0  0  0  0  0
    5.9791   -6.2945    5.0697 H   0  0  0  0  0  0  0  0  0  0  0  0
    5.0379   -4.3773    3.7785 H   0  0  0  0  0  0  0  0  0  0  0  0
  1  2  1  0
  1 30  1  0
  1 31  1  0
  1 32  1  0
  2 14  1  0
  2  3  1  0
  2 33  1  1
  3  4  1  0
  3 34  1  0
  3 35  1  0
  4  5  1  0
  4  6  1  0
  4 36  1  6
  5 37  1  0
  6 22  1  0
  6  7  1  6
  6  8  1  0
  7 38  1  0
  8  9  1  0
  8 10  1  0
  8 11  1  0
  9 39  1  0
  9 40  1  0
  9 41  1  0
 10 42  1  0
 10 43  1  0
 10 44  1  0
 11 12  1  0
 12 28  1  0
 12 13  1  0
 12 45  1  6
 13 14  1  0
 13 46  1  0
 13 47  1  0
 14 15  1  0
 14 48  1  1
 15 29  1  0
 15 16  1  0
 15 49  1  1
 16 17  1  0
 16 50  1  0
 16 51  1  0
 17 18  1  0
 17 19  1  0
 17 52  1  1
 18 53  1  0
 18 54  1  0
 18 55  1  0
 19 28  1  0
 19 20  1  0
 19 56  1  6
 20 21  1  0
 20 57  1  0
 20 58  1  0
 21 22  1  0
 21 59  1  0
 21 60  1  0
 22 29  1  0
 22 23  1  1
 23 24  1  0
 24 25  1  0
 24 26  1  0
 24 27  1  0
 25 61  1  0
 25 62  1  0
 25 63  1  0
 26 64  1  0
 26 65  1  0
 26 66  1  0
 28 27  1  6
 28 29  1  0
 29 67  1  1
M  END
>  <i_m_ct_stereo_status>  (375) 
1

>  <s_m_source_file>  (375) 
/var/tmp/pbs.5076255.sched01/tmpfn0mpy04/132vsilkqhl.sdf

>  <i_m_source_file_index>  (375) 
31

>  <i_lp_mmshare_version>  (375) 
48012

>  <i_f3d_flags>  (375) 
0

>  <s_epik_input>  (375) 
W09IXVtDQEBdMShbQ0BAXTIzNClbQ0BIXShbT0hdKVtDSDJdW0NAQEhdKFtDSDNdKVtDQEBIXTVbQ0BASF02W0NIXTRDKFtDSF0oW0NAQEhdKFtDSDJdNilbQ0gzXSlbQ0gyXVtDSDJdMikoT0MoTzMpKFtDSDNdKVtDSDNdKVtDQEBIXShbQ0gyXTUpT0MxKFtDSDNdKVtDSDNd

>  <s_epik_cmdline>  (375) 
J2VwaWtfcHl0aG9uJywgJy1waHQnLCAnMi4wJywgJy1waCcsICc3LjAnLCAnLXRuJywgJzgnLCAnLW1hJywgJzIwMCcsICctaW1hZScsICc8aW5maWxlLm1hZT4nLCAnLW9tYWUnLCAnPG91dGZpbGUubWFlPic=

>  <r_lp_tautomer_probability>  (375) 
1

>  <r_epik_Ionization_Penalty>  (375) 
1.48046e-07

>  <r_epik_Ionization_Penalty_Charging>  (375) 
0

>  <r_epik_Ionization_Penalty_Neutral>  (375) 
1.48046e-07

>  <r_epik_State_Penalty>  (375) 
-0

>  <r_epik_Charging_Adjusted_Penalty>  (375) 
0

>  <i_epik_Tot_Q>  (375) 
0

>  <i_epik_Tot_abs_Q>  (375) 
0

>  <s_lp_Force_Field>  (375) 
OPLS3e

>  <r_lp_Energy>  (375) 
515.171

>  <b_lp_Chiralities_Consistent>  (375) 
1

>  <s_lp_Variant>  (375) 
100:0-1

>  <s_i_glide_gridfile>  (375) 
pfpi4k_grid

>  <i_i_glide_lignum>  (375) 
31

>  <i_i_glide_rotatable_bonds>  (375) 
2

>  <r_i_docking_score>  (375) 
-2.01282

>  <r_i_glide_ligand_efficiency>  (375) 
-0.0694077

>  <r_i_glide_ligand_efficiency_sa>  (375) 
-0.213242

>  <r_i_glide_ligand_efficiency_ln>  (375) 
-0.460885

>  <r_i_glide_gscore>  (375) 
-2.01282

>  <r_i_glide_lipo>  (375) 
-0.675142

>  <r_i_glide_hbond>  (375) 
0

>  <r_i_glide_metal>  (375) 
-0

>  <r_i_glide_rewards>  (375) 
-0.652511

>  <r_i_glide_evdw>  (375) 
-13.533

>  <r_i_glide_ecoul>  (375) 
-0.0567891

>  <r_i_glide_erotb>  (375) 
0

>  <r_i_glide_esite>  (375) 
0

>  <r_i_glide_emodel>  (375) 
-15.7245

>  <r_i_glide_energy>  (375) 
-13.5898

>  <r_i_glide_einternal>  (375) 
0.110577

>  <r_i_glide_intrahb_reward>  (375) 
-0

>  <i_i_glide_confnum>  (375) 
1

>  <i_i_glide_posenum>  (375) 
31

>  <r_i_glide_eff_state_penalty>  (375) 
0

>  <ligand_id>  (375) 
100

>  <original_smiles>  (375) 
CC1CC(O)C2(O)C(C)(C)OC3CC1C1CC(C)C4CCC25OC(C)(C)OC34C15

>  <smiles>  (375) 
[H]OC1([H])C([H])([H])C([H])(C([H])([H])[H])C2([H])C([H])([H])C3([H])OC(C([H])([H])[H])(C([H])([H])[H])C1(O[H])C14OC(C([H])([H])[H])(C([H])([H])[H])OC35C([H])(C([H])([H])C1([H])[H])C([H])(C([H])([H])[H])C([H])([H])C2([H])C54[H]

$$$$
100:0:2
     RDKit          3D

 67 72  0  0  1  0  0  0  0  0999 V2000
    4.3370   -8.7232    1.0820 C   0  0  0  0  0  0  0  0  0  0  0  0
    4.7754   -7.2593    1.2944 C   0  0  2  0  0  0  0  0  0  0  0  0
    4.5723   -6.9119    2.8005 C   0  0  0  0  0  0  0  0  0  0  0  0
    5.1636   -5.6472    3.5648 C   0  0  1  0  0  0  0  0  0  0  0  0
    6.5512   -5.5353    3.3233 O   0  0  0  0  0  0  0  0  0  0  0  0
    4.3849   -4.2565    3.6395 C   0  0  2  0  0  0  0  0  0  0  0  0
    4.8256   -3.5755    4.7933 O   0  0  0  0  0  0  0  0  0  0  0  0
    2.8608   -4.5271    3.8485 C   0  0  0  0  0  0  0  0  0  0  0  0
    2.5467   -5.6145    4.9279 C   0  0  0  0  0  0  0  0  0  0  0  0
    1.9429   -3.3669    4.3817 C   0  0  0  0  0  0  0  0  0  0  0  0
    2.4503   -5.0496    2.5812 O   0  0  0  0  0  0  0  0  0  0  0  0
    2.7061   -4.5152    1.2524 C   0  0  2  0  0  0  0  0  0  0  0  0
    2.6677   -5.8394    0.4776 C   0  0  0  0  0  0  0  0  0  0  0  0
    4.1120   -6.3624    0.1857 C   0  0  1  0  0  0  0  0  0  0  0  0
    5.0395   -5.1774   -0.1563 C   0  0  1  0  0  0  0  0  0  0  0  0
    5.0261   -4.3955   -1.6107 C   0  0  0  0  0  0  0  0  0  0  0  0
    4.0720   -3.1165   -1.7918 C   0  0  1  0  0  0  0  0  0  0  0  0
    3.0375   -3.2818   -2.9400 C   0  0  0  0  0  0  0  0  0  0  0  0
    3.3782   -2.8615   -0.4011 C   0  0  2  0  0  0  0  0  0  0  0  0
    3.0713   -1.6359    0.6007 C   0  0  0  0  0  0  0  0  0  0  0  0
    3.4542   -2.0447    2.1416 C   0  0  0  0  0  0  0  0  0  0  0  0
    4.6144   -3.3041    2.4035 C   0  0  1  0  0  0  0  0  0  0  0  0
    5.7536   -2.4593    2.5256 O   0  0  0  0  0  0  0  0  0  0  0  0
    5.9689   -1.9198    1.2464 C   0  0  0  0  0  0  0  0  0  0  0  0
    5.7468   -0.3943    1.2696 C   0  0  0  0  0  0  0  0  0  0  0  0
    7.4454   -2.1578    0.8771 C   0  0  0  0  0  0  0  0  0  0  0  0
    5.1070   -2.5949    0.2973 O   0  0  0  0  0  0  0  0  0  0  0  0
    4.0456   -3.7793    0.5776 C   0  0  1  0  0  0  0  0  0  0  0  0
    5.2315   -4.3161    1.1643 C   0  0  1  0  0  0  0  0  0  0  0  0
    3.2639   -8.8601    1.2323 H   0  0  0  0  0  0  0  0  0  0  0  0
    4.8546   -9.3976    1.7704 H   0  0  0  0  0  0  0  0  0  0  0  0
    4.5775   -9.0599    0.0785 H   0  0  0  0  0  0  0  0  0  0  0  0
    5.8532   -7.2684    1.1306 H   0  0  0  0  0  0  0  0  0  0  0  0
    3.5114   -7.0617    2.9684 H   0  0  0  0  0  0  0  0  0  0  0  0
    5.0254   -7.7475    3.3409 H   0  0  0  0  0  0  0  0  0  0  0  0
    5.1689   -5.9785    4.6039 H   0  0  0  0  0  0  0  0  0  0  0  0
    6.8998   -4.9706    3.9929 H   0  0  0  0  0  0  0  0  0  0  0  0
    4.3848   -2.7445    4.8186 H   0  0  0  0  0  0  0  0  0  0  0  0
    2.7754   -5.2406    5.9313 H   0  0  0  0  0  0  0  0  0  0  0  0
    3.0734   -6.5587    4.8708 H   0  0  0  0  0  0  0  0  0  0  0  0
    1.4838   -5.8654    4.9053 H   0  0  0  0  0  0  0  0  0  0  0  0
    1.4991   -3.5664    5.3599 H   0  0  0  0  0  0  0  0  0  0  0  0
    1.0817   -3.2068    3.7297 H   0  0  0  0  0  0  0  0  0  0  0  0
    2.4636   -2.4191    4.5277 H   0  0  0  0  0  0  0  0  0  0  0  0
    1.8180   -3.9336    1.0874 H   0  0  0  0  0  0  0  0  0  0  0  0
    2.0357   -6.5886    0.9583 H   0  0  0  0  0  0  0  0  0  0  0  0
    2.2003   -5.6203   -0.4822 H   0  0  0  0  0  0  0  0  0  0  0  0
    4.1011   -6.9580   -0.7252 H   0  0  0  0  0  0  0  0  0  0  0  0
    5.9870   -5.7026   -0.2807 H   0  0  0  0  0  0  0  0  0  0  0  0
    6.0470   -4.0176   -1.7736 H   0  0  0  0  0  0  0  0  0  0  0  0
    4.8672   -5.0991   -2.4111 H   0  0  0  0  0  0  0  0  0  0  0  0
    4.6972   -2.2582   -2.0497 H   0  0  0  0  0  0  0  0  0  0  0  0
    2.3180   -4.0916   -2.7697 H   0  0  0  0  0  0  0  0  0  0  0  0
    3.5182   -3.4910   -3.8962 H   0  0  0  0  0  0  0  0  0  0  0  0
    2.4111   -2.3947   -3.0601 H   0  0  0  0  0  0  0  0  0  0  0  0
    2.3790   -3.1834   -0.6586 H   0  0  0  0  0  0  0  0  0  0  0  0
    3.4886   -0.7116    0.2148 H   0  0  0  0  0  0  0  0  0  0  0  0
    2.0126   -1.4519    0.6880 H   0  0  0  0  0  0  0  0  0  0  0  0
    3.6228   -1.2009    2.7958 H   0  0  0  0  0  0  0  0  0  0  0  0
    2.4627   -2.3394    2.3998 H   0  0  0  0  0  0  0  0  0  0  0  0
    4.8094   -0.0230    1.6443 H   0  0  0  0  0  0  0  0  0  0  0  0
    5.9331    0.0400    0.2847 H   0  0  0  0  0  0  0  0  0  0  0  0
    6.4440   -0.0893    2.0212 H   0  0  0  0  0  0  0  0  0  0  0  0
    7.8608   -3.0544    1.2935 H   0  0  0  0  0  0  0  0  0  0  0  0
    8.0650   -1.2992    1.0946 H   0  0  0  0  0  0  0  0  0  0  0  0
    7.4849   -2.3063   -0.2271 H   0  0  0  0  0  0  0  0  0  0  0  0
    6.2875   -4.2293    0.9560 H   0  0  0  0  0  0  0  0  0  0  0  0
  1  2  1  0
  1 30  1  0
  1 31  1  0
  1 32  1  0
  2 14  1  0
  2  3  1  0
  2 33  1  6
  3  4  1  0
  3 34  1  0
  3 35  1  0
  4  5  1  0
  4  6  1  0
  4 36  1  1
  5 37  1  0
  6 22  1  0
  6  7  1  1
  6  8  1  0
  7 38  1  0
  8  9  1  0
  8 10  1  0
  8 11  1  0
  9 39  1  0
  9 40  1  0
  9 41  1  0
 10 42  1  0
 10 43  1  0
 10 44  1  0
 11 12  1  0
 12 28  1  0
 12 13  1  0
 12 45  1  6
 13 14  1  0
 13 46  1  0
 13 47  1  0
 14 15  1  0
 14 48  1  6
 15 29  1  0
 15 16  1  0
 15 49  1  6
 16 17  1  0
 16 50  1  0
 16 51  1  0
 17 18  1  0
 17 19  1  0
 17 52  1  6
 18 53  1  0
 18 54  1  0
 18 55  1  0
 19 28  1  0
 19 20  1  0
 19 56  1  6
 20 21  1  0
 20 57  1  0
 20 58  1  0
 21 22  1  0
 21 59  1  0
 21 60  1  0
 22 29  1  0
 22 23  1  1
 23 24  1  0
 24 25  1  0
 24 26  1  0
 24 27  1  0
 25 61  1  0
 25 62  1  0
 25 63  1  0
 26 64  1  0
 26 65  1  0
 26 66  1  0
 28 27  1  1
 28 29  1  0
 29 67  1  6
M  END
>  <i_m_ct_stereo_status>  (376) 
1

>  <s_m_source_file>  (376) 
/var/tmp/pbs.5076255.sched01/tmpfn0mpy04/132vsilkqhl.sdf

>  <i_m_source_file_index>  (376) 
31

>  <i_lp_mmshare_version>  (376) 
48012

>  <i_f3d_flags>  (376) 
0

>  <s_epik_input>  (376) 
W09IXVtDQEBdMShbQ0BAXTIzNClbQ0BIXShbT0hdKVtDSDJdW0NAQEhdKFtDSDNdKVtDQEBIXTVbQ0BASF02W0NIXTRDKFtDSF0oW0NAQEhdKFtDSDJdNilbQ0gzXSlbQ0gyXVtDSDJdMikoT0MoTzMpKFtDSDNdKVtDSDNdKVtDQEBIXShbQ0gyXTUpT0MxKFtDSDNdKVtDSDNd

>  <s_epik_cmdline>  (376) 
J2VwaWtfcHl0aG9uJywgJy1waHQnLCAnMi4wJywgJy1waCcsICc3LjAnLCAnLXRuJywgJzgnLCAnLW1hJywgJzIwMCcsICctaW1hZScsICc8aW5maWxlLm1hZT4nLCAnLW9tYWUnLCAnPG91dGZpbGUubWFlPic=

>  <r_lp_tautomer_probability>  (376) 
1

>  <r_epik_Ionization_Penalty>  (376) 
1.48046e-07

>  <r_epik_Ionization_Penalty_Charging>  (376) 
0

>  <r_epik_Ionization_Penalty_Neutral>  (376) 
1.48046e-07

>  <r_epik_State_Penalty>  (376) 
-0

>  <r_epik_Charging_Adjusted_Penalty>  (376) 
0

>  <i_epik_Tot_Q>  (376) 
0

>  <i_epik_Tot_abs_Q>  (376) 
0

>  <s_lp_Force_Field>  (376) 
OPLS3e

>  <r_lp_Energy>  (376) 
515.171

>  <b_lp_Chiralities_Consistent>  (376) 
1

>  <s_lp_Variant>  (376) 
100:0-1

>  <s_i_glide_gridfile>  (376) 
pfpi4k_grid

>  <i_i_glide_lignum>  (376) 
31

>  <i_i_glide_rotatable_bonds>  (376) 
2

>  <r_i_docking_score>  (376) 
-1.9977

>  <r_i_glide_ligand_efficiency>  (376) 
-0.0688863

>  <r_i_glide_ligand_efficiency_sa>  (376) 
-0.21164

>  <r_i_glide_ligand_efficiency_ln>  (376) 
-0.457423

>  <r_i_glide_gscore>  (376) 
-1.9977

>  <r_i_glide_lipo>  (376) 
-0.382237

>  <r_i_glide_hbond>  (376) 
0

>  <r_i_glide_metal>  (376) 
-0

>  <r_i_glide_rewards>  (376) 
-0.829266

>  <r_i_glide_evdw>  (376) 
-12.0599

>  <r_i_glide_ecoul>  (376) 
-1.22137

>  <r_i_glide_erotb>  (376) 
0

>  <r_i_glide_esite>  (376) 
0

>  <r_i_glide_emodel>  (376) 
-14.3303

>  <r_i_glide_energy>  (376) 
-13.2812

>  <r_i_glide_einternal>  (376) 
0.398563

>  <r_i_glide_intrahb_reward>  (376) 
-0

>  <i_i_glide_confnum>  (376) 
2

>  <i_i_glide_posenum>  (376) 
5

>  <r_i_glide_eff_state_penalty>  (376) 
0

>  <ligand_id>  (376) 
100

>  <original_smiles>  (376) 
CC1CC(O)C2(O)C(C)(C)OC3CC1C1CC(C)C4CCC25OC(C)(C)OC34C15

>  <smiles>  (376) 
[H]OC1([H])C([H])([H])C([H])(C([H])([H])[H])C2([H])C([H])([H])C3([H])OC(C([H])([H])[H])(C([H])([H])[H])C1(O[H])C14OC(C([H])([H])[H])(C([H])([H])[H])OC35C([H])(C([H])([H])C1([H])[H])C([H])(C([H])([H])[H])C([H])([H])C2([H])C54[H]

$$$$
102:0:0
     RDKit          3D

 85 91  0  0  1  0  0  0  0  0999 V2000
    1.3550  -10.1720    4.9142 C   0  0  0  0  0  0  0  0  0  0  0  0
    2.7862   -9.9490    5.5542 C   0  0  1  0  0  0  0  0  0  0  0  0
    3.5686  -11.1906    5.0330 C   0  0  0  0  0  0  0  0  0  0  0  0
    3.9477  -10.8938    3.4744 C   0  0  0  0  0  0  0  0  0  0  0  0
    4.3408   -9.3565    3.0981 C   0  0  2  0  0  0  0  0  0  0  0  0
    4.3358   -9.0756    1.5827 C   0  0  0  0  0  0  0  0  0  0  0  0
    5.2990   -9.8514    0.9108 O   0  0  0  0  0  0  0  0  0  0  0  0
    5.6737   -9.1026    3.7612 C   0  0  0  0  0  0  0  0  0  0  0  0
    5.2541   -9.2822    5.0904 O   0  0  0  0  0  0  0  0  0  0  0  0
    3.8597   -8.9301    5.1681 C   0  0  1  0  0  0  0  0  0  0  0  0
    3.3751   -8.4269    3.8875 C   0  0  1  0  0  0  0  0  0  0  0  0
    3.0626   -6.9235    4.1884 C   0  0  2  0  0  0  0  0  0  0  0  0
    4.0347   -5.8759    3.6693 C   0  0  0  0  0  0  0  0  0  0  0  0
    3.4516   -4.4472    3.8019 C   0  0  0  0  0  0  0  0  0  0  0  0
    2.0167   -4.2473    4.4398 C   0  0  2  0  0  0  0  0  0  0  0  0
    1.7127   -2.7267    4.8274 C   0  0  1  0  0  0  0  0  0  0  0  0
    2.7420   -2.1202    5.8333 C   0  0  0  0  0  0  0  0  0  0  0  0
    1.7805   -1.8996    3.5113 C   0  0  0  0  0  0  0  0  0  0  0  0
    1.0171   -0.5896    3.5116 C   0  0  0  0  0  0  0  0  0  0  0  0
    0.1041   -0.1872    4.4202 C   0  0  0  0  0  0  0  0  0  0  0  0
   -0.6182    1.0986    4.1904 C   0  0  0  0  0  0  0  0  0  0  0  0
   -0.7773    1.6942    2.8917 C   0  0  0  0  0  0  0  0  0  0  0  0
   -1.4258    2.8383    2.8735 N   0  0  0  0  0  0  0  0  0  0  0  0
   -1.7947    3.1717    4.4638 S   0  0  0  0  0  0  0  0  0  0  0  0
   -1.1237    1.8214    5.1698 N   0  0  0  0  0  0  0  0  0  0  0  0
   -0.2831   -1.1241    5.5947 C   0  0  0  0  0  0  0  0  0  0  0  0
    0.2341   -0.4342    6.8910 C   0  0  0  0  0  0  0  0  0  0  0  0
   -1.8255   -1.2405    5.6806 C   0  0  0  0  0  0  0  0  0  0  0  0
    0.2651   -2.5923    5.3862 C   0  0  2  0  0  0  0  0  0  0  0  0
   -0.0212   -3.5577    6.5742 C   0  0  0  0  0  0  0  0  0  0  0  0
    0.9962   -4.6988    6.7588 C   0  0  0  0  0  0  0  0  0  0  0  0
    1.4532   -5.3717    5.4335 C   0  0  1  0  0  0  0  0  0  0  0  0
    0.1309   -5.9639    4.8283 C   0  0  0  0  0  0  0  0  0  0  0  0
    2.5012   -6.5553    5.6840 C   0  0  2  0  0  0  0  0  0  0  0  0
    3.6502   -5.9302    6.5675 C   0  0  0  0  0  0  0  0  0  0  0  0
    1.8350   -7.7572    6.6102 C   0  0  0  0  0  0  0  0  0  0  0  0
    2.4382   -9.2472    6.8978 C   0  0  0  0  0  0  0  0  0  0  0  0
    0.7577  -10.8320    5.5501 H   0  0  0  0  0  0  0  0  0  0  0  0
    1.3718  -10.6687    3.9436 H   0  0  0  0  0  0  0  0  0  0  0  0
    0.7640   -9.2719    4.7534 H   0  0  0  0  0  0  0  0  0  0  0  0
    4.4549  -11.3969    5.6354 H   0  0  0  0  0  0  0  0  0  0  0  0
    2.9740  -12.1015    5.1122 H   0  0  0  0  0  0  0  0  0  0  0  0
    4.7577  -11.5633    3.1755 H   0  0  0  0  0  0  0  0  0  0  0  0
    3.1136  -11.1913    2.8368 H   0  0  0  0  0  0  0  0  0  0  0  0
    3.3551   -9.2797    1.1536 H   0  0  0  0  0  0  0  0  0  0  0  0
    4.5588   -8.0277    1.3881 H   0  0  0  0  0  0  0  0  0  0  0  0
    4.9275  -10.7346    0.7666 H   0  0  0  0  0  0  0  0  0  0  0  0
    6.4504   -9.8138    3.4779 H   0  0  0  0  0  0  0  0  0  0  0  0
    6.0337   -8.0892    3.5938 H   0  0  0  0  0  0  0  0  0  0  0  0
    4.1398   -8.2241    5.9207 H   0  0  0  0  0  0  0  0  0  0  0  0
    2.4305   -8.7486    3.4723 H   0  0  0  0  0  0  0  0  0  0  0  0
    2.2461   -6.7674    3.4911 H   0  0  0  0  0  0  0  0  0  0  0  0
    4.9828   -5.9365    4.2051 H   0  0  0  0  0  0  0  0  0  0  0  0
    4.2782   -6.0806    2.6252 H   0  0  0  0  0  0  0  0  0  0  0  0
    4.2173   -3.8379    4.2741 H   0  0  0  0  0  0  0  0  0  0  0  0
    3.4075   -4.0474    2.7893 H   0  0  0  0  0  0  0  0  0  0  0  0
    1.4037   -4.4098    3.5526 H   0  0  0  0  0  0  0  0  0  0  0  0
    2.8450   -1.0450    5.6933 H   0  0  0  0  0  0  0  0  0  0  0  0
    3.7537   -2.5036    5.7484 H   0  0  0  0  0  0  0  0  0  0  0  0
    2.4578   -2.2566    6.8740 H   0  0  0  0  0  0  0  0  0  0  0  0
    2.8198   -1.6899    3.2472 H   0  0  0  0  0  0  0  0  0  0  0  0
    1.3636   -2.4648    2.6767 H   0  0  0  0  0  0  0  0  0  0  0  0
    1.2600    0.0326    2.6606 H   0  0  0  0  0  0  0  0  0  0  0  0
   -0.4212    1.3119    1.9481 H   0  0  0  0  0  0  0  0  0  0  0  0
    0.3116   -1.0821    7.7610 H   0  0  0  0  0  0  0  0  0  0  0  0
   -0.4186    0.3885    7.1947 H   0  0  0  0  0  0  0  0  0  0  0  0
    1.2194    0.0135    6.7385 H   0  0  0  0  0  0  0  0  0  0  0  0
   -2.1413   -1.9438    6.4509 H   0  0  0  0  0  0  0  0  0  0  0  0
   -2.1807   -1.6042    4.7256 H   0  0  0  0  0  0  0  0  0  0  0  0
   -2.3445   -0.2973    5.8545 H   0  0  0  0  0  0  0  0  0  0  0  0
   -0.3339   -2.9847    4.5669 H   0  0  0  0  0  0  0  0  0  0  0  0
   -0.1065   -3.0508    7.5296 H   0  0  0  0  0  0  0  0  0  0  0  0
   -1.0064   -3.9957    6.4264 H   0  0  0  0  0  0  0  0  0  0  0  0
    1.8447   -4.2937    7.3028 H   0  0  0  0  0  0  0  0  0  0  0  0
    0.5601   -5.4322    7.4392 H   0  0  0  0  0  0  0  0  0  0  0  0
   -0.5184   -6.3878    5.5983 H   0  0  0  0  0  0  0  0  0  0  0  0
    0.2831   -6.7516    4.0895 H   0  0  0  0  0  0  0  0  0  0  0  0
   -0.4733   -5.1988    4.3448 H   0  0  0  0  0  0  0  0  0  0  0  0
    3.4380   -5.9972    7.6358 H   0  0  0  0  0  0  0  0  0  0  0  0
    3.8016   -4.8708    6.3684 H   0  0  0  0  0  0  0  0  0  0  0  0
    4.6395   -6.3629    6.4260 H   0  0  0  0  0  0  0  0  0  0  0  0
    1.6839   -7.3454    7.6071 H   0  0  0  0  0  0  0  0  0  0  0  0
    0.8126   -7.9172    6.2937 H   0  0  0  0  0  0  0  0  0  0  0  0
    1.6935   -9.8390    7.4354 H   0  0  0  0  0  0  0  0  0  0  0  0
    3.2925   -9.2106    7.5792 H   0  0  0  0  0  0  0  0  0  0  0  0
  2  1  1  6
  1 38  1  0
  1 39  1  0
  1 40  1  0
  2 10  1  0
  2 37  1  0
  2  3  1  0
  3  4  1  0
  3 41  1  0
  3 42  1  0
  4  5  1  0
  4 43  1  0
  4 44  1  0
  5 11  1  0
  5  6  1  6
  5  8  1  0
  6  7  1  0
  6 45  1  0
  6 46  1  0
  7 47  1  0
  8  9  1  0
  8 48  1  0
  8 49  1  0
  9 10  1  0
 10 11  1  0
 10 50  1  1
 11 12  1  0
 11 51  1  6
 12 34  1  0
 12 13  1  0
 12 52  1  6
 13 14  1  0
 13 53  1  0
 13 54  1  0
 14 15  1  0
 14 55  1  0
 14 56  1  0
 15 32  1  0
 15 16  1  0
 15 57  1  6
 16 29  1  0
 16 17  1  1
 16 18  1  0
 17 58  1  0
 17 59  1  0
 17 60  1  0
 18 19  1  0
 18 61  1  0
 18 62  1  0
 19 20  2  0
 19 63  1  0
 20 21  1  0
 20 26  1  0
 21 25  2  0
 21 22  1  0
 22 23  2  0
 22 64  1  0
 23 24  1  0
 24 25  1  0
 26 27  1  0
 26 28  1  0
 26 29  1  0
 27 65  1  0
 27 66  1  0
 27 67  1  0
 28 68  1  0
 28 69  1  0
 28 70  1  0
 29 30  1  0
 29 71  1  6
 30 31  1  0
 30 72  1  0
 30 73  1  0
 31 32  1  0
 31 74  1  0
 31 75  1  0
 32 33  1  6
 32 34  1  0
 33 76  1  0
 33 77  1  0
 33 78  1  0
 34 35  1  1
 34 36  1  0
 35 79  1  0
 35 80  1  0
 35 81  1  0
 36 37  1  0
 36 82  1  0
 36 83  1  0
 37 84  1  0
 37 85  1  0
M  END
>  <i_m_ct_stereo_status>  (377) 
1

>  <s_m_source_file>  (377) 
/var/tmp/pbs.5076255.sched01/tmpfn0mpy04/132vsilkqhl.sdf

>  <i_m_source_file_index>  (377) 
35

>  <i_lp_mmshare_version>  (377) 
48012

>  <i_f3d_flags>  (377) 
0

>  <s_epik_input>  (377) 
W0NIM11bQ0BdMTJbQ0hdM1tDQEhdKFtDQEBdKFtDSDJdTzMpKFtDSDJdW0NIMl0xKVtDSDJdW09IXSlbQ0BIXTRbQ0BdKFtDSDNdKShbQ0gyXVtDSDJdMilbQ0BdNShbQ0gzXSlbQ0BIXShbQ0gyXVtDSDJdNClbQ0BdNihbQ0gzXSlbQ0BASF0oW0NIMl1bQ0gyXTUpQyhbQ0gzXSkoW0NIM10pQyg9W0NIXVtDSDJdNiljN1tjSF1uc243

>  <s_epik_cmdline>  (377) 
J2VwaWtfcHl0aG9uJywgJy1waHQnLCAnMi4wJywgJy1waCcsICc3LjAnLCAnLXRuJywgJzgnLCAnLW1hJywgJzIwMCcsICctaW1hZScsICc8aW5maWxlLm1hZT4nLCAnLW9tYWUnLCAnPG91dGZpbGUubWFlPic=

>  <r_lp_tautomer_probability>  (377) 
1

>  <r_epik_Ionization_Penalty>  (377) 
2.8293e-07

>  <r_epik_Ionization_Penalty_Charging>  (377) 
0

>  <r_epik_Ionization_Penalty_Neutral>  (377) 
2.8293e-07

>  <r_epik_State_Penalty>  (377) 
-0

>  <r_epik_Charging_Adjusted_Penalty>  (377) 
0

>  <i_epik_Tot_Q>  (377) 
0

>  <i_epik_Tot_abs_Q>  (377) 
0

>  <s_lp_Force_Field>  (377) 
OPLS3e

>  <r_lp_Energy>  (377) 
247.618

>  <b_lp_Chiralities_Consistent>  (377) 
1

>  <s_lp_Variant>  (377) 
102:0-1

>  <s_i_glide_gridfile>  (377) 
pfpi4k_grid

>  <i_i_glide_lignum>  (377) 
35

>  <i_i_glide_rotatable_bonds>  (377) 
3

>  <r_i_docking_score>  (377) 
-1.99584

>  <r_i_glide_ligand_efficiency>  (377) 
-0.0539415

>  <r_i_glide_ligand_efficiency_sa>  (377) 
-0.179745

>  <r_i_glide_ligand_efficiency_ln>  (377) 
-0.43285

>  <r_i_glide_gscore>  (377) 
-1.99584

>  <r_i_glide_lipo>  (377) 
-0.0107473

>  <r_i_glide_hbond>  (377) 
-0.16

>  <r_i_glide_metal>  (377) 
-0

>  <r_i_glide_rewards>  (377) 
0

>  <r_i_glide_evdw>  (377) 
-23.8236

>  <r_i_glide_ecoul>  (377) 
-5.2223

>  <r_i_glide_erotb>  (377) 
0.149437

>  <r_i_glide_esite>  (377) 
0

>  <r_i_glide_emodel>  (377) 
-32.141

>  <r_i_glide_energy>  (377) 
-29.0459

>  <r_i_glide_einternal>  (377) 
0.389309

>  <r_i_glide_intrahb_reward>  (377) 
-0

>  <i_i_glide_confnum>  (377) 
3

>  <i_i_glide_posenum>  (377) 
10

>  <r_i_glide_eff_state_penalty>  (377) 
0

>  <ligand_id>  (377) 
102

>  <original_smiles>  (377) 
CC12CCC3(CO)COC1C3C1CCC3C4(C)CC=C(c5cnsn5)C(C)(C)C4CCC3(C)C1(C)CC2

>  <smiles>  (377) 
[H]OC([H])([H])C12C([H])([H])OC3([H])C1([H])C1([H])C([H])([H])C([H])([H])C4([H])C5(C([H])([H])[H])C([H])([H])C([H])=C(c6nsnc6[H])C(C([H])([H])[H])(C([H])([H])[H])C5([H])C([H])([H])C([H])([H])C4(C([H])([H])[H])C1(C([H])([H])[H])C([H])([H])C([H])([H])C3(C([H])([H])[H])C([H])([H])C2([H])[H]

$$$$
102:0:1
     RDKit          3D

 85 91  0  0  1  0  0  0  0  0999 V2000
    1.7492  -10.4633    4.7335 C   0  0  0  0  0  0  0  0  0  0  0  0
    3.2296  -10.2018    5.2298 C   0  0  1  0  0  0  0  0  0  0  0  0
    3.9847  -11.4316    4.6325 C   0  0  0  0  0  0  0  0  0  0  0  0
    4.2052  -11.1286    3.0431 C   0  0  0  0  0  0  0  0  0  0  0  0
    4.5224   -9.5837    2.6229 C   0  0  2  0  0  0  0  0  0  0  0  0
    4.3773   -9.3661    1.1020 C   0  0  0  0  0  0  0  0  0  0  0  0
    4.6858   -8.0473    0.7119 O   0  0  0  0  0  0  0  0  0  0  0  0
    5.9089   -9.3145    3.1506 C   0  0  0  0  0  0  0  0  0  0  0  0
    5.6278   -9.4925    4.5183 O   0  0  0  0  0  0  0  0  0  0  0  0
    4.2416   -9.1617    4.7326 C   0  0  1  0  0  0  0  0  0  0  0  0
    3.6232   -8.6692    3.5010 C   0  0  1  0  0  0  0  0  0  0  0  0
    3.3052   -7.1722    3.8306 C   0  0  2  0  0  0  0  0  0  0  0  0
    4.2066   -6.0924    3.2481 C   0  0  0  0  0  0  0  0  0  0  0  0
    3.6043   -4.6842    3.4214 C   0  0  0  0  0  0  0  0  0  0  0  0
    2.2359   -4.5216    4.1850 C   0  0  2  0  0  0  0  0  0  0  0  0
    1.9388   -3.0090    4.5843 C   0  0  1  0  0  0  0  0  0  0  0  0
    3.0465   -2.3787    5.4817 C   0  0  0  0  0  0  0  0  0  0  0  0
    1.8650   -2.1939    3.2637 C   0  0  0  0  0  0  0  0  0  0  0  0
    1.0761   -0.9006    3.3301 C   0  0  0  0  0  0  0  0  0  0  0  0
    0.2377   -0.5096    4.3173 C   0  0  0  0  0  0  0  0  0  0  0  0
   -0.5210    0.7691    4.1505 C   0  0  0  0  0  0  0  0  0  0  0  0
   -0.7250    1.4055    2.8735 C   0  0  0  0  0  0  0  0  0  0  0  0
   -1.4090    2.5271    2.9050 N   0  0  0  0  0  0  0  0  0  0  0  0
   -1.7650    2.7960    4.5070 S   0  0  0  0  0  0  0  0  0  0  0  0
   -1.0273    1.4477    5.1571 N   0  0  0  0  0  0  0  0  0  0  0  0
   -0.0104   -1.4376    5.5296 C   0  0  0  0  0  0  0  0  0  0  0  0
    0.6218   -0.7360    6.7683 C   0  0  0  0  0  0  0  0  0  0  0  0
   -1.5303   -1.6018    5.7713 C   0  0  0  0  0  0  0  0  0  0  0  0
    0.5498   -2.9007    5.2855 C   0  0  2  0  0  0  0  0  0  0  0  0
    0.3961   -3.8736    6.4954 C   0  0  0  0  0  0  0  0  0  0  0  0
    1.4571   -4.9832    6.5871 C   0  0  0  0  0  0  0  0  0  0  0  0
    1.7887   -5.6564    5.2257 C   0  0  1  0  0  0  0  0  0  0  0  0
    0.4260   -6.2792    4.7496 C   0  0  0  0  0  0  0  0  0  0  0  0
    2.8859   -6.8173    5.3761 C   0  0  2  0  0  0  0  0  0  0  0  0
    4.1036   -6.1659    6.1426 C   0  0  0  0  0  0  0  0  0  0  0  0
    2.3385   -8.0295    6.3683 C   0  0  0  0  0  0  0  0  0  0  0  0
    3.0008   -9.5040    6.6018 C   0  0  0  0  0  0  0  0  0  0  0  0
    1.2306  -11.1281    5.4290 H   0  0  0  0  0  0  0  0  0  0  0  0
    1.6805  -10.9650    3.7684 H   0  0  0  0  0  0  0  0  0  0  0  0
    1.1281   -9.5777    4.6275 H   0  0  0  0  0  0  0  0  0  0  0  0
    4.9292  -11.6194    5.1523 H   0  0  0  0  0  0  0  0  0  0  0  0
    3.4194  -12.3560    4.7723 H   0  0  0  0  0  0  0  0  0  0  0  0
    4.9979  -11.7829    2.6707 H   0  0  0  0  0  0  0  0  0  0  0  0
    3.3169  -11.4499    2.4993 H   0  0  0  0  0  0  0  0  0  0  0  0
    5.0385  -10.0355    0.5539 H   0  0  0  0  0  0  0  0  0  0  0  0
    3.3632   -9.5977    0.7804 H   0  0  0  0  0  0  0  0  0  0  0  0
    4.4856   -7.9365   -0.2098 H   0  0  0  0  0  0  0  0  0  0  0  0
    6.6634  -10.0164    2.7927 H   0  0  0  0  0  0  0  0  0  0  0  0
    6.2428   -8.2960    2.9605 H   0  0  0  0  0  0  0  0  0  0  0  0
    4.5821   -8.4484    5.4515 H   0  0  0  0  0  0  0  0  0  0  0  0
    2.6478   -9.0189    3.1853 H   0  0  0  0  0  0  0  0  0  0  0  0
    2.4225   -7.0353    3.2158 H   0  0  0  0  0  0  0  0  0  0  0  0
    5.2079   -6.1404    3.6867 H   0  0  0  0  0  0  0  0  0  0  0  0
    4.3378   -6.2356    2.1791 H   0  0  0  0  0  0  0  0  0  0  0  0
    4.3963   -4.0503    3.8073 H   0  0  0  0  0  0  0  0  0  0  0  0
    3.4492   -4.3048    2.4129 H   0  0  0  0  0  0  0  0  0  0  0  0
    1.5475   -4.7100    3.3557 H   0  0  0  0  0  0  0  0  0  0  0  0
    3.1145   -1.3031    5.3258 H   0  0  0  0  0  0  0  0  0  0  0  0
    4.0530   -2.7394    5.3005 H   0  0  0  0  0  0  0  0  0  0  0  0
    2.8714   -2.5176    6.5462 H   0  0  0  0  0  0  0  0  0  0  0  0
    2.8686   -1.9642    2.9019 H   0  0  0  0  0  0  0  0  0  0  0  0
    1.3793   -2.7693    2.4760 H   0  0  0  0  0  0  0  0  0  0  0  0
    1.2297   -0.2808    2.4608 H   0  0  0  0  0  0  0  0  0  0  0  0
   -0.3804    1.0567    1.9122 H   0  0  0  0  0  0  0  0  0  0  0  0
    0.7948   -1.3766    7.6302 H   0  0  0  0  0  0  0  0  0  0  0  0
   -0.0145    0.0715    7.1286 H   0  0  0  0  0  0  0  0  0  0  0  0
    1.5780   -0.2743    6.5201 H   0  0  0  0  0  0  0  0  0  0  0  0
   -1.7359   -2.3028    6.5767 H   0  0  0  0  0  0  0  0  0  0  0  0
   -2.0003   -1.9914    4.8770 H   0  0  0  0  0  0  0  0  0  0  0  0
   -2.0509   -0.6797    6.0130 H   0  0  0  0  0  0  0  0  0  0  0  0
   -0.1181   -3.3146    4.5273 H   0  0  0  0  0  0  0  0  0  0  0  0
    0.4023   -3.3595    7.4484 H   0  0  0  0  0  0  0  0  0  0  0  0
   -0.5878   -4.3314    6.4423 H   0  0  0  0  0  0  0  0  0  0  0  0
    2.3512   -4.5627    7.0425 H   0  0  0  0  0  0  0  0  0  0  0  0
    1.1056   -5.7231    7.3044 H   0  0  0  0  0  0  0  0  0  0  0  0
   -0.1306   -6.7141    5.5813 H   0  0  0  0  0  0  0  0  0  0  0  0
    0.5282   -7.0676    4.0055 H   0  0  0  0  0  0  0  0  0  0  0  0
   -0.2369   -5.5315    4.3192 H   0  0  0  0  0  0  0  0  0  0  0  0
    4.0000   -6.2310    7.2264 H   0  0  0  0  0  0  0  0  0  0  0  0
    4.2140   -5.1072    5.9251 H   0  0  0  0  0  0  0  0  0  0  0  0
    5.0799   -6.5803    5.9061 H   0  0  0  0  0  0  0  0  0  0  0  0
    2.2798   -7.6152    7.3762 H   0  0  0  0  0  0  0  0  0  0  0  0
    1.2929   -8.2136    6.1519 H   0  0  0  0  0  0  0  0  0  0  0  0
    2.3264  -10.1082    7.2105 H   0  0  0  0  0  0  0  0  0  0  0  0
    3.9195   -9.4455    7.1917 H   0  0  0  0  0  0  0  0  0  0  0  0
  2  1  1  6
  1 38  1  0
  1 39  1  0
  1 40  1  0
  2 10  1  0
  2 37  1  0
  2  3  1  0
  3  4  1  0
  3 41  1  0
  3 42  1  0
  4  5  1  0
  4 43  1  0
  4 44  1  0
  5 11  1  0
  5  6  1  6
  5  8  1  0
  6  7  1  0
  6 45  1  0
  6 46  1  0
  7 47  1  0
  8  9  1  0
  8 48  1  0
  8 49  1  0
  9 10  1  0
 10 11  1  0
 10 50  1  1
 11 12  1  0
 11 51  1  1
 12 34  1  0
 12 13  1  0
 12 52  1  6
 13 14  1  0
 13 53  1  0
 13 54  1  0
 14 15  1  0
 14 55  1  0
 14 56  1  0
 15 32  1  0
 15 16  1  0
 15 57  1  6
 16 29  1  0
 16 17  1  1
 16 18  1  0
 17 58  1  0
 17 59  1  0
 17 60  1  0
 18 19  1  0
 18 61  1  0
 18 62  1  0
 19 20  2  0
 19 63  1  0
 20 21  1  0
 20 26  1  0
 21 25  2  0
 21 22  1  0
 22 23  2  0
 22 64  1  0
 23 24  1  0
 24 25  1  0
 26 27  1  0
 26 28  1  0
 26 29  1  0
 27 65  1  0
 27 66  1  0
 27 67  1  0
 28 68  1  0
 28 69  1  0
 28 70  1  0
 29 30  1  0
 29 71  1  6
 30 31  1  0
 30 72  1  0
 30 73  1  0
 31 32  1  0
 31 74  1  0
 31 75  1  0
 32 33  1  6
 32 34  1  0
 33 76  1  0
 33 77  1  0
 33 78  1  0
 34 35  1  1
 34 36  1  0
 35 79  1  0
 35 80  1  0
 35 81  1  0
 36 37  1  0
 36 82  1  0
 36 83  1  0
 37 84  1  0
 37 85  1  0
M  END
>  <i_m_ct_stereo_status>  (378) 
1

>  <s_m_source_file>  (378) 
/var/tmp/pbs.5076255.sched01/tmpfn0mpy04/132vsilkqhl.sdf

>  <i_m_source_file_index>  (378) 
35

>  <i_lp_mmshare_version>  (378) 
48012

>  <i_f3d_flags>  (378) 
0

>  <s_epik_input>  (378) 
W0NIM11bQ0BdMTJbQ0hdM1tDQEhdKFtDQEBdKFtDSDJdTzMpKFtDSDJdW0NIMl0xKVtDSDJdW09IXSlbQ0BIXTRbQ0BdKFtDSDNdKShbQ0gyXVtDSDJdMilbQ0BdNShbQ0gzXSlbQ0BIXShbQ0gyXVtDSDJdNClbQ0BdNihbQ0gzXSlbQ0BASF0oW0NIMl1bQ0gyXTUpQyhbQ0gzXSkoW0NIM10pQyg9W0NIXVtDSDJdNiljN1tjSF1uc243

>  <s_epik_cmdline>  (378) 
J2VwaWtfcHl0aG9uJywgJy1waHQnLCAnMi4wJywgJy1waCcsICc3LjAnLCAnLXRuJywgJzgnLCAnLW1hJywgJzIwMCcsICctaW1hZScsICc8aW5maWxlLm1hZT4nLCAnLW9tYWUnLCAnPG91dGZpbGUubWFlPic=

>  <r_lp_tautomer_probability>  (378) 
1

>  <r_epik_Ionization_Penalty>  (378) 
2.8293e-07

>  <r_epik_Ionization_Penalty_Charging>  (378) 
0

>  <r_epik_Ionization_Penalty_Neutral>  (378) 
2.8293e-07

>  <r_epik_State_Penalty>  (378) 
-0

>  <r_epik_Charging_Adjusted_Penalty>  (378) 
0

>  <i_epik_Tot_Q>  (378) 
0

>  <i_epik_Tot_abs_Q>  (378) 
0

>  <s_lp_Force_Field>  (378) 
OPLS3e

>  <r_lp_Energy>  (378) 
247.618

>  <b_lp_Chiralities_Consistent>  (378) 
1

>  <s_lp_Variant>  (378) 
102:0-1

>  <s_i_glide_gridfile>  (378) 
pfpi4k_grid

>  <i_i_glide_lignum>  (378) 
35

>  <i_i_glide_rotatable_bonds>  (378) 
3

>  <r_i_docking_score>  (378) 
-1.28938

>  <r_i_glide_ligand_efficiency>  (378) 
-0.0348482

>  <r_i_glide_ligand_efficiency_sa>  (378) 
-0.116122

>  <r_i_glide_ligand_efficiency_ln>  (378) 
-0.279637

>  <r_i_glide_gscore>  (378) 
-1.28938

>  <r_i_glide_lipo>  (378) 
-0.0097819

>  <r_i_glide_hbond>  (378) 
0

>  <r_i_glide_metal>  (378) 
-0

>  <r_i_glide_rewards>  (378) 
0

>  <r_i_glide_evdw>  (378) 
-25.6902

>  <r_i_glide_ecoul>  (378) 
-0.963516

>  <r_i_glide_erotb>  (378) 
0.149437

>  <r_i_glide_esite>  (378) 
0

>  <r_i_glide_emodel>  (378) 
-28.1831

>  <r_i_glide_energy>  (378) 
-26.6537

>  <r_i_glide_einternal>  (378) 
0.868716

>  <r_i_glide_intrahb_reward>  (378) 
-0

>  <i_i_glide_confnum>  (378) 
3

>  <i_i_glide_posenum>  (378) 
1

>  <r_i_glide_eff_state_penalty>  (378) 
0

>  <ligand_id>  (378) 
102

>  <original_smiles>  (378) 
CC12CCC3(CO)COC1C3C1CCC3C4(C)CC=C(c5cnsn5)C(C)(C)C4CCC3(C)C1(C)CC2

>  <smiles>  (378) 
[H]OC([H])([H])C12C([H])([H])OC3([H])C1([H])C1([H])C([H])([H])C([H])([H])C4([H])C5(C([H])([H])[H])C([H])([H])C([H])=C(c6nsnc6[H])C(C([H])([H])[H])(C([H])([H])[H])C5([H])C([H])([H])C([H])([H])C4(C([H])([H])[H])C1(C([H])([H])[H])C([H])([H])C([H])([H])C3(C([H])([H])[H])C([H])([H])C2([H])[H]

$$$$
102:0:2
     RDKit          3D

 85 91  0  0  1  0  0  0  0  0999 V2000
    3.9725   -3.7111    8.9990 C   0  0  0  0  0  0  0  0  0  0  0  0
    5.2129   -3.5605    8.0284 C   0  0  1  0  0  0  0  0  0  0  0  0
    5.8978   -4.9529    8.1490 C   0  0  0  0  0  0  0  0  0  0  0  0
    5.0092   -5.9912    7.2581 C   0  0  0  0  0  0  0  0  0  0  0  0
    4.3676   -5.4103    5.8774 C   0  0  2  0  0  0  0  0  0  0  0  0
    3.2866   -6.3246    5.2618 C   0  0  0  0  0  0  0  0  0  0  0  0
    2.2202   -6.5288    6.1586 O   0  0  0  0  0  0  0  0  0  0  0  0
    5.5501   -5.2041    4.9600 C   0  0  0  0  0  0  0  0  0  0  0  0
    6.2162   -4.2436    5.7386 O   0  0  0  0  0  0  0  0  0  0  0  0
    5.2303   -3.5233    6.5023 C   0  0  1  0  0  0  0  0  0  0  0  0
    3.8825   -3.9596    6.1569 C   0  0  1  0  0  0  0  0  0  0  0  0
    3.2594   -2.7061    5.4664 C   0  0  2  0  0  0  0  0  0  0  0  0
    3.1124   -2.7204    3.9531 C   0  0  0  0  0  0  0  0  0  0  0  0
    2.2441   -1.5387    3.4595 C   0  0  0  0  0  0  0  0  0  0  0  0
    1.6396   -0.5207    4.5126 C   0  0  2  0  0  0  0  0  0  0  0  0
    1.0758    0.8142    3.8350 C   0  0  1  0  0  0  0  0  0  0  0  0
    2.1395    1.5936    2.9855 C   0  0  0  0  0  0  0  0  0  0  0  0
   -0.0667    0.3958    2.8763 C   0  0  0  0  0  0  0  0  0  0  0  0
   -1.0894    1.4711    2.5506 C   0  0  0  0  0  0  0  0  0  0  0  0
   -1.2554    2.6496    3.1886 C   0  0  0  0  0  0  0  0  0  0  0  0
   -2.4444    3.4635    2.8269 C   0  0  0  0  0  0  0  0  0  0  0  0
   -2.3603    4.8628    2.5045 C   0  0  0  0  0  0  0  0  0  0  0  0
   -3.4730    5.4267    2.0834 N   0  0  0  0  0  0  0  0  0  0  0  0
   -4.6142    4.1876    2.0808 S   0  0  0  0  0  0  0  0  0  0  0  0
   -3.6503    2.9439    2.6444 N   0  0  0  0  0  0  0  0  0  0  0  0
   -0.3688    2.9903    4.4025 C   0  0  0  0  0  0  0  0  0  0  0  0
    0.5215    4.1820    3.9529 C   0  0  0  0  0  0  0  0  0  0  0  0
   -1.2723    3.4577    5.5662 C   0  0  0  0  0  0  0  0  0  0  0  0
    0.4466    1.7388    4.9134 C   0  0  2  0  0  0  0  0  0  0  0  0
    1.4329    2.0706    6.0706 C   0  0  0  0  0  0  0  0  0  0  0  0
    2.6760    1.1620    6.1689 C   0  0  0  0  0  0  0  0  0  0  0  0
    2.3862   -0.3474    5.9204 C   0  0  1  0  0  0  0  0  0  0  0  0
    1.3904   -0.7378    7.0626 C   0  0  0  0  0  0  0  0  0  0  0  0
    3.7123   -1.2367    6.0332 C   0  0  2  0  0  0  0  0  0  0  0  0
    4.7621   -0.5720    5.0642 C   0  0  0  0  0  0  0  0  0  0  0  0
    4.3775   -1.1327    7.5434 C   0  0  0  0  0  0  0  0  0  0  0  0
    5.5660   -2.0557    8.1795 C   0  0  0  0  0  0  0  0  0  0  0  0
    4.2677   -3.4917   10.0265 H   0  0  0  0  0  0  0  0  0  0  0  0
    3.5612   -4.7182    9.0406 H   0  0  0  0  0  0  0  0  0  0  0  0
    3.1169   -3.0737    8.7741 H   0  0  0  0  0  0  0  0  0  0  0  0
    6.9402   -4.9328    7.8300 H   0  0  0  0  0  0  0  0  0  0  0  0
    5.9322   -5.2927    9.1834 H   0  0  0  0  0  0  0  0  0  0  0  0
    5.6106   -6.8760    7.0426 H   0  0  0  0  0  0  0  0  0  0  0  0
    4.2020   -6.3742    7.8815 H   0  0  0  0  0  0  0  0  0  0  0  0
    2.8802   -5.8742    4.3545 H   0  0  0  0  0  0  0  0  0  0  0  0
    3.7079   -7.2873    4.9745 H   0  0  0  0  0  0  0  0  0  0  0  0
    2.5334   -7.0682    6.8768 H   0  0  0  0  0  0  0  0  0  0  0  0
    6.1562   -6.0980    4.8036 H   0  0  0  0  0  0  0  0  0  0  0  0
    5.2588   -4.7913    3.9950 H   0  0  0  0  0  0  0  0  0  0  0  0
    5.6100   -2.6275    6.0536 H   0  0  0  0  0  0  0  0  0  0  0  0
    3.1444   -4.1514    6.9166 H   0  0  0  0  0  0  0  0  0  0  0  0
    2.2219   -2.8530    5.7434 H   0  0  0  0  0  0  0  0  0  0  0  0
    4.0886   -2.6662    3.4810 H   0  0  0  0  0  0  0  0  0  0  0  0
    2.6823   -3.6713    3.6310 H   0  0  0  0  0  0  0  0  0  0  0  0
    2.7817   -1.0575    2.6441 H   0  0  0  0  0  0  0  0  0  0  0  0
    1.3948   -1.9961    2.9541 H   0  0  0  0  0  0  0  0  0  0  0  0
    0.7377   -1.0610    4.8010 H   0  0  0  0  0  0  0  0  0  0  0  0
    1.6679    2.1401    2.1701 H   0  0  0  0  0  0  0  0  0  0  0  0
    2.8899    0.9755    2.5053 H   0  0  0  0  0  0  0  0  0  0  0  0
    2.6825    2.3354    3.5624 H   0  0  0  0  0  0  0  0  0  0  0  0
    0.3322    0.0097    1.9371 H   0  0  0  0  0  0  0  0  0  0  0  0
   -0.6377   -0.4262    3.3104 H   0  0  0  0  0  0  0  0  0  0  0  0
   -1.7737    1.1889    1.7594 H   0  0  0  0  0  0  0  0  0  0  0  0
   -1.4636    5.4539    2.4673 H   0  0  0  0  0  0  0  0  0  0  0  0
    1.4093    4.3590    4.5539 H   0  0  0  0  0  0  0  0  0  0  0  0
   -0.0237    5.1285    3.9856 H   0  0  0  0  0  0  0  0  0  0  0  0
    0.8600    4.0604    2.9205 H   0  0  0  0  0  0  0  0  0  0  0  0
   -0.6925    3.7359    6.4471 H   0  0  0  0  0  0  0  0  0  0  0  0
   -1.9527    2.6650    5.8760 H   0  0  0  0  0  0  0  0  0  0  0  0
   -1.8930    4.3175    5.3108 H   0  0  0  0  0  0  0  0  0  0  0  0
   -0.3082    1.0974    5.3664 H   0  0  0  0  0  0  0  0  0  0  0  0
    1.7820    3.1009    6.0754 H   0  0  0  0  0  0  0  0  0  0  0  0
    0.8859    1.9912    7.0053 H   0  0  0  0  0  0  0  0  0  0  0  0
    3.3950    1.5409    5.4580 H   0  0  0  0  0  0  0  0  0  0  0  0
    3.1393    1.3202    7.1472 H   0  0  0  0  0  0  0  0  0  0  0  0
    1.6427   -0.2568    8.0107 H   0  0  0  0  0  0  0  0  0  0  0  0
    1.3375   -1.8076    7.2736 H   0  0  0  0  0  0  0  0  0  0  0  0
    0.3671   -0.4178    6.8538 H   0  0  0  0  0  0  0  0  0  0  0  0
    5.3466    0.2128    5.5512 H   0  0  0  0  0  0  0  0  0  0  0  0
    4.2932   -0.0919    4.2054 H   0  0  0  0  0  0  0  0  0  0  0  0
    5.4813   -1.2541    4.6110 H   0  0  0  0  0  0  0  0  0  0  0  0
    4.7529   -0.1176    7.6588 H   0  0  0  0  0  0  0  0  0  0  0  0
    3.5842   -1.1386    8.2779 H   0  0  0  0  0  0  0  0  0  0  0  0
    5.6754   -1.8091    9.2383 H   0  0  0  0  0  0  0  0  0  0  0  0
    6.5389   -1.8089    7.7480 H   0  0  0  0  0  0  0  0  0  0  0  0
  2  1  1  6
  1 38  1  0
  1 39  1  0
  1 40  1  0
  2 10  1  0
  2 37  1  0
  2  3  1  0
  3  4  1  0
  3 41  1  0
  3 42  1  0
  4  5  1  0
  4 43  1  0
  4 44  1  0
  5 11  1  0
  5  6  1  6
  5  8  1  0
  6  7  1  0
  6 45  1  0
  6 46  1  0
  7 47  1  0
  8  9  1  0
  8 48  1  0
  8 49  1  0
  9 10  1  0
 10 11  1  0
 10 50  1  1
 11 12  1  0
 11 51  1  1
 12 34  1  0
 12 13  1  0
 12 52  1  1
 13 14  1  0
 13 53  1  0
 13 54  1  0
 14 15  1  0
 14 55  1  0
 14 56  1  0
 15 32  1  0
 15 16  1  0
 15 57  1  1
 16 29  1  0
 16 17  1  6
 16 18  1  0
 17 58  1  0
 17 59  1  0
 17 60  1  0
 18 19  1  0
 18 61  1  0
 18 62  1  0
 19 20  2  0
 19 63  1  0
 20 21  1  0
 20 26  1  0
 21 25  2  0
 21 22  1  0
 22 23  2  0
 22 64  1  0
 23 24  1  0
 24 25  1  0
 26 27  1  0
 26 28  1  0
 26 29  1  0
 27 65  1  0
 27 66  1  0
 27 67  1  0
 28 68  1  0
 28 69  1  0
 28 70  1  0
 29 30  1  0
 29 71  1  1
 30 31  1  0
 30 72  1  0
 30 73  1  0
 31 32  1  0
 31 74  1  0
 31 75  1  0
 32 33  1  1
 32 34  1  0
 33 76  1  0
 33 77  1  0
 33 78  1  0
 34 35  1  6
 34 36  1  0
 35 79  1  0
 35 80  1  0
 35 81  1  0
 36 37  1  0
 36 82  1  0
 36 83  1  0
 37 84  1  0
 37 85  1  0
M  END
>  <i_m_ct_stereo_status>  (379) 
1

>  <s_m_source_file>  (379) 
/var/tmp/pbs.5076255.sched01/tmpfn0mpy04/132vsilkqhl.sdf

>  <i_m_source_file_index>  (379) 
35

>  <i_lp_mmshare_version>  (379) 
48012

>  <i_f3d_flags>  (379) 
0

>  <s_epik_input>  (379) 
W0NIM11bQ0BdMTJbQ0hdM1tDQEhdKFtDQEBdKFtDSDJdTzMpKFtDSDJdW0NIMl0xKVtDSDJdW09IXSlbQ0BIXTRbQ0BdKFtDSDNdKShbQ0gyXVtDSDJdMilbQ0BdNShbQ0gzXSlbQ0BIXShbQ0gyXVtDSDJdNClbQ0BdNihbQ0gzXSlbQ0BASF0oW0NIMl1bQ0gyXTUpQyhbQ0gzXSkoW0NIM10pQyg9W0NIXVtDSDJdNiljN1tjSF1uc243

>  <s_epik_cmdline>  (379) 
J2VwaWtfcHl0aG9uJywgJy1waHQnLCAnMi4wJywgJy1waCcsICc3LjAnLCAnLXRuJywgJzgnLCAnLW1hJywgJzIwMCcsICctaW1hZScsICc8aW5maWxlLm1hZT4nLCAnLW9tYWUnLCAnPG91dGZpbGUubWFlPic=

>  <r_lp_tautomer_probability>  (379) 
1

>  <r_epik_Ionization_Penalty>  (379) 
2.8293e-07

>  <r_epik_Ionization_Penalty_Charging>  (379) 
0

>  <r_epik_Ionization_Penalty_Neutral>  (379) 
2.8293e-07

>  <r_epik_State_Penalty>  (379) 
-0

>  <r_epik_Charging_Adjusted_Penalty>  (379) 
0

>  <i_epik_Tot_Q>  (379) 
0

>  <i_epik_Tot_abs_Q>  (379) 
0

>  <s_lp_Force_Field>  (379) 
OPLS3e

>  <r_lp_Energy>  (379) 
247.618

>  <b_lp_Chiralities_Consistent>  (379) 
1

>  <s_lp_Variant>  (379) 
102:0-1

>  <s_i_glide_gridfile>  (379) 
pfpi4k_grid

>  <i_i_glide_lignum>  (379) 
35

>  <i_i_glide_rotatable_bonds>  (379) 
3

>  <r_i_docking_score>  (379) 
-1.0805

>  <r_i_glide_ligand_efficiency>  (379) 
-0.0292028

>  <r_i_glide_ligand_efficiency_sa>  (379) 
-0.0973103

>  <r_i_glide_ligand_efficiency_ln>  (379) 
-0.234336

>  <r_i_glide_gscore>  (379) 
-1.0805

>  <r_i_glide_lipo>  (379) 
-0.180865

>  <r_i_glide_hbond>  (379) 
-0.050211

>  <r_i_glide_metal>  (379) 
-0

>  <r_i_glide_rewards>  (379) 
0

>  <r_i_glide_evdw>  (379) 
-16.8823

>  <r_i_glide_ecoul>  (379) 
-1.03168

>  <r_i_glide_erotb>  (379) 
0.149437

>  <r_i_glide_esite>  (379) 
0

>  <r_i_glide_emodel>  (379) 
-18.6451

>  <r_i_glide_energy>  (379) 
-17.914

>  <r_i_glide_einternal>  (379) 
1.70802

>  <r_i_glide_intrahb_reward>  (379) 
-0

>  <i_i_glide_confnum>  (379) 
3

>  <i_i_glide_posenum>  (379) 
28

>  <r_i_glide_eff_state_penalty>  (379) 
0

>  <ligand_id>  (379) 
102

>  <original_smiles>  (379) 
CC12CCC3(CO)COC1C3C1CCC3C4(C)CC=C(c5cnsn5)C(C)(C)C4CCC3(C)C1(C)CC2

>  <smiles>  (379) 
[H]OC([H])([H])C12C([H])([H])OC3([H])C1([H])C1([H])C([H])([H])C([H])([H])C4([H])C5(C([H])([H])[H])C([H])([H])C([H])=C(c6nsnc6[H])C(C([H])([H])[H])(C([H])([H])[H])C5([H])C([H])([H])C([H])([H])C4(C([H])([H])[H])C1(C([H])([H])[H])C([H])([H])C([H])([H])C3(C([H])([H])[H])C([H])([H])C2([H])[H]

$$$$
103:0:0
     RDKit          3D

 42 45  0  0  1  0  0  0  0  0999 V2000
    5.3576   -0.8616    3.2140 C   0  0  0  0  0  0  0  0  0  0  0  0
    5.2878   -1.4530    1.7940 C   0  0  2  0  0  0  0  0  0  0  0  0
    4.8916   -0.3483    0.8088 C   0  0  0  0  0  0  0  0  0  0  0  0
    4.8539   -0.8872   -0.6200 C   0  0  0  0  0  0  0  0  0  0  0  0
    3.8125   -2.0001   -0.7415 C   0  0  1  0  0  0  0  0  0  0  0  0
    3.5543   -2.5107   -2.1614 C   0  0  1  0  0  0  0  0  0  0  0  0
    3.2816   -1.3797   -3.1881 C   0  0  0  0  0  0  0  0  0  0  0  0
    4.6514   -3.4497   -2.6634 C   0  0  0  0  0  0  0  0  0  0  0  0
    4.8235   -3.5325   -3.8709 O   0  0  0  0  0  0  0  0  0  0  0  0
    5.3012   -4.2368   -1.7465 O   0  0  0  0  0  0  0  0  0  0  0  0
    5.2641   -4.0186   -0.3520 C   0  0  2  0  0  0  0  0  0  0  0  0
    5.4215   -5.2320    0.3298 O   0  0  0  0  0  0  0  0  0  0  0  0
    4.2658   -5.7285    0.9608 C   0  0  1  0  0  0  0  0  0  0  0  0
    4.3386   -7.2590    0.9012 C   0  0  0  0  0  0  0  0  0  0  0  0
    4.2646   -5.2253    2.4227 C   0  0  0  0  0  0  0  0  0  0  0  0
    4.8856   -3.8307    2.6078 C   0  0  0  0  0  0  0  0  0  0  0  0
    4.3707   -2.7052    1.6861 C   0  0  2  0  0  0  0  0  0  0  0  0
    4.0719   -3.1679    0.2158 C   0  0  1  0  0  0  0  0  0  0  0  0
    2.8514   -3.9000    0.3313 O   0  0  0  0  0  0  0  0  0  0  0  0
    3.0945   -5.3871    0.2332 O   0  0  0  0  0  0  0  0  0  0  0  0
    4.3725   -0.5814    3.5898 H   0  0  0  0  0  0  0  0  0  0  0  0
    5.9835    0.0313    3.2381 H   0  0  0  0  0  0  0  0  0  0  0  0
    5.7971   -1.5625    3.9235 H   0  0  0  0  0  0  0  0  0  0  0  0
    6.3040   -1.7521    1.5310 H   0  0  0  0  0  0  0  0  0  0  0  0
    3.9207    0.0790    1.0764 H   0  0  0  0  0  0  0  0  0  0  0  0
    5.6201    0.4627    0.8681 H   0  0  0  0  0  0  0  0  0  0  0  0
    4.6006   -0.0641   -1.2837 H   0  0  0  0  0  0  0  0  0  0  0  0
    5.8464   -1.2334   -0.9114 H   0  0  0  0  0  0  0  0  0  0  0  0
    2.8799   -1.5490   -0.4102 H   0  0  0  0  0  0  0  0  0  0  0  0
    2.6435   -3.1124   -2.1161 H   0  0  0  0  0  0  0  0  0  0  0  0
    2.8559   -1.7830   -4.1110 H   0  0  0  0  0  0  0  0  0  0  0  0
    4.1888   -0.8331   -3.4615 H   0  0  0  0  0  0  0  0  0  0  0  0
    2.5669   -0.6516   -2.7947 H   0  0  0  0  0  0  0  0  0  0  0  0
    6.1781   -3.4741   -0.1423 H   0  0  0  0  0  0  0  0  0  0  0  0
    4.3009   -7.5910   -0.1360 H   0  0  0  0  0  0  0  0  0  0  0  0
    3.5065   -7.7278    1.4300 H   0  0  0  0  0  0  0  0  0  0  0  0
    5.2679   -7.6384    1.3290 H   0  0  0  0  0  0  0  0  0  0  0  0
    3.2695   -5.2873    2.8595 H   0  0  0  0  0  0  0  0  0  0  0  0
    4.8886   -5.8967    3.0150 H   0  0  0  0  0  0  0  0  0  0  0  0
    4.7501   -3.5374    3.6459 H   0  0  0  0  0  0  0  0  0  0  0  0
    5.9646   -3.9102    2.4723 H   0  0  0  0  0  0  0  0  0  0  0  0
    3.3983   -2.4013    2.0757 H   0  0  0  0  0  0  0  0  0  0  0  0
  1  2  1  0
  1 21  1  0
  1 22  1  0
  1 23  1  0
  2 17  1  0
  2  3  1  0
  2 24  1  6
  3  4  1  0
  3 25  1  0
  3 26  1  0
  4  5  1  0
  4 27  1  0
  4 28  1  0
  5 18  1  0
  5  6  1  0
  5 29  1  1
  6  7  1  0
  6  8  1  0
  6 30  1  1
  7 31  1  0
  7 32  1  0
  7 33  1  0
  8  9  2  0
  8 10  1  0
 10 11  1  0
 11 18  1  0
 11 12  1  0
 11 34  1  1
 12 13  1  0
 13 20  1  0
 13 14  1  1
 13 15  1  0
 14 35  1  0
 14 36  1  0
 14 37  1  0
 15 16  1  0
 15 38  1  0
 15 39  1  0
 16 17  1  0
 16 40  1  0
 16 41  1  0
 17 18  1  0
 17 42  1  1
 18 19  1  1
 19 20  1  0
M  END
>  <i_m_ct_stereo_status>  (380) 
1

>  <s_m_source_file>  (380) 
/var/tmp/pbs.5076255.sched01/tmpfn0mpy04/132vsilkqhl.sdf

>  <i_m_source_file_index>  (380) 
36

>  <i_lp_mmshare_version>  (380) 
48012

>  <i_f3d_flags>  (380) 
0

>  <s_epik_input>  (380) 
W0NAXTEyM1tDQEhdNFtDSDJdW0NIMl1bQ0BASF0oW0NIM10pW0NAQEhdMltDSDJdW0NIMl1bQ0BAXShbQ0gzXSkoT08zKU9bQ0BIXTFPQyg9TylbQ0BASF00W0NIM10=

>  <s_epik_cmdline>  (380) 
J2VwaWtfcHl0aG9uJywgJy1waHQnLCAnMi4wJywgJy1waCcsICc3LjAnLCAnLXRuJywgJzgnLCAnLW1hJywgJzIwMCcsICctaW1hZScsICc8aW5maWxlLm1hZT4nLCAnLW9tYWUnLCAnPG91dGZpbGUubWFlPic=

>  <r_lp_tautomer_probability>  (380) 
1

>  <r_epik_Ionization_Penalty>  (380) 
1.7205e-10

>  <r_epik_Ionization_Penalty_Charging>  (380) 
0

>  <r_epik_Ionization_Penalty_Neutral>  (380) 
1.7205e-10

>  <r_epik_State_Penalty>  (380) 
-0

>  <r_epik_Charging_Adjusted_Penalty>  (380) 
0

>  <i_epik_Tot_Q>  (380) 
0

>  <i_epik_Tot_abs_Q>  (380) 
0

>  <s_epik_Chemistry_Notes>  (380) 
This compound has an ester and may undergo hydrolysis at high or low pH. This compound contains an acetal/aminal-like group ( X-CH(R)-Y where X, Y are N, S, or O) that may be acid/base labile, releasing an aldehyde.

>  <s_lp_Force_Field>  (380) 
OPLS3e

>  <r_lp_Energy>  (380) 
36.9221

>  <b_lp_Chiralities_Consistent>  (380) 
1

>  <s_lp_Variant>  (380) 
103:0-1

>  <s_i_glide_gridfile>  (380) 
pfpi4k_grid

>  <i_i_glide_lignum>  (380) 
36

>  <i_i_glide_rotatable_bonds>  (380) 
0

>  <r_i_docking_score>  (380) 
-3.77549

>  <r_i_glide_ligand_efficiency>  (380) 
-0.188775

>  <r_i_glide_ligand_efficiency_sa>  (380) 
-0.512413

>  <r_i_glide_ligand_efficiency_ln>  (380) 
-0.944881

>  <r_i_glide_gscore>  (380) 
-3.77549

>  <r_i_glide_lipo>  (380) 
-0.604846

>  <r_i_glide_hbond>  (380) 
0

>  <r_i_glide_metal>  (380) 
-0

>  <r_i_glide_rewards>  (380) 
-1.70122

>  <r_i_glide_evdw>  (380) 
-25.8989

>  <r_i_glide_ecoul>  (380) 
-1.1632

>  <r_i_glide_erotb>  (380) 
0

>  <r_i_glide_esite>  (380) 
0

>  <r_i_glide_emodel>  (380) 
-32.8531

>  <r_i_glide_energy>  (380) 
-27.0621

>  <r_i_glide_einternal>  (380) 
0

>  <r_i_glide_intrahb_reward>  (380) 
-0

>  <i_i_glide_confnum>  (380) 
2

>  <i_i_glide_posenum>  (380) 
29

>  <r_i_glide_eff_state_penalty>  (380) 
0

>  <ligand_id>  (380) 
103

>  <original_smiles>  (380) 
CC1CCC2C(C)C(=O)OC3OC4(C)CCC1C32OO4

>  <smiles>  (380) 
[H]C([H])([H])C12OOC34C([H])(OC(=O)C([H])(C([H])([H])[H])C3([H])C([H])([H])C([H])([H])C([H])(C([H])([H])[H])C4([H])C([H])([H])C1([H])[H])O2

$$$$
103:0:1
     RDKit          3D

 42 45  0  0  1  0  0  0  0  0999 V2000
    8.4631   -2.5936   -0.3437 C   0  0  0  0  0  0  0  0  0  0  0  0
    6.9725   -2.9129   -0.5605 C   0  0  2  0  0  0  0  0  0  0  0  0
    6.7013   -3.0993   -2.0536 C   0  0  0  0  0  0  0  0  0  0  0  0
    5.2516   -3.4574   -2.3305 C   0  0  0  0  0  0  0  0  0  0  0  0
    4.3418   -2.3385   -1.8162 C   0  0  1  0  0  0  0  0  0  0  0  0
    2.8770   -2.5466   -2.1232 C   0  0  1  0  0  0  0  0  0  0  0  0
    2.5748   -2.8217   -3.6190 C   0  0  0  0  0  0  0  0  0  0  0  0
    2.2000   -3.5378   -1.1623 C   0  0  0  0  0  0  0  0  0  0  0  0
    1.1604   -4.0756   -1.5267 O   0  0  0  0  0  0  0  0  0  0  0  0
    2.6436   -3.6704    0.1014 O   0  0  0  0  0  0  0  0  0  0  0  0
    3.8743   -3.1950    0.5346 C   0  0  2  0  0  0  0  0  0  0  0  0
    3.7958   -2.8966    1.8948 O   0  0  0  0  0  0  0  0  0  0  0  0
    3.7580   -1.5225    2.2079 C   0  0  1  0  0  0  0  0  0  0  0  0
    2.8968   -1.3586    3.4612 C   0  0  0  0  0  0  0  0  0  0  0  0
    5.2102   -1.0918    2.4682 C   0  0  0  0  0  0  0  0  0  0  0  0
    6.2271   -1.8315    1.5938 C   0  0  0  0  0  0  0  0  0  0  0  0
    6.0094   -1.8818    0.0843 C   0  0  2  0  0  0  0  0  0  0  0  0
    4.5266   -2.0468   -0.3156 C   0  0  1  0  0  0  0  0  0  0  0  0
    3.9792   -0.7530   -0.0423 O   0  0  0  0  0  0  0  0  0  0  0  0
    3.0999   -0.7852    1.1889 O   0  0  0  0  0  0  0  0  0  0  0  0
    8.7488   -1.6078   -0.7067 H   0  0  0  0  0  0  0  0  0  0  0  0
    9.0838   -3.3064   -0.8829 H   0  0  0  0  0  0  0  0  0  0  0  0
    8.7570   -2.6466    0.7028 H   0  0  0  0  0  0  0  0  0  0  0  0
    6.7988   -3.8873   -0.1024 H   0  0  0  0  0  0  0  0  0  0  0  0
    6.9711   -2.2312   -2.6259 H   0  0  0  0  0  0  0  0  0  0  0  0
    7.3437   -3.8516   -2.4618 H   0  0  0  0  0  0  0  0  0  0  0  0
    5.1319   -3.5889   -3.4066 H   0  0  0  0  0  0  0  0  0  0  0  0
    5.0132   -4.4130   -1.8583 H   0  0  0  0  0  0  0  0  0  0  0  0
    4.6344   -1.4270   -2.3405 H   0  0  0  0  0  0  0  0  0  0  0  0
    2.4100   -1.5853   -1.9266 H   0  0  0  0  0  0  0  0  0  0  0  0
    1.5123   -2.6853   -3.8325 H   0  0  0  0  0  0  0  0  0  0  0  0
    2.8301   -3.8431   -3.9141 H   0  0  0  0  0  0  0  0  0  0  0  0
    3.1085   -2.1263   -4.2778 H   0  0  0  0  0  0  0  0  0  0  0  0
    4.5217   -4.0653    0.4623 H   0  0  0  0  0  0  0  0  0  0  0  0
    1.8659   -1.6266    3.2340 H   0  0  0  0  0  0  0  0  0  0  0  0
    2.9060   -0.3271    3.8177 H   0  0  0  0  0  0  0  0  0  0  0  0
    3.2375   -2.0056    4.2738 H   0  0  0  0  0  0  0  0  0  0  0  0
    5.3275   -0.0144    2.4015 H   0  0  0  0  0  0  0  0  0  0  0  0
    5.4679   -1.3606    3.4960 H   0  0  0  0  0  0  0  0  0  0  0  0
    7.1741   -1.3266    1.7011 H   0  0  0  0  0  0  0  0  0  0  0  0
    6.3472   -2.8518    1.9672 H   0  0  0  0  0  0  0  0  0  0  0  0
    6.2847   -0.9000   -0.2947 H   0  0  0  0  0  0  0  0  0  0  0  0
  1  2  1  0
  1 21  1  0
  1 22  1  0
  1 23  1  0
  2 17  1  0
  2  3  1  0
  2 24  1  1
  3  4  1  0
  3 25  1  0
  3 26  1  0
  4  5  1  0
  4 27  1  0
  4 28  1  0
  5 18  1  0
  5  6  1  0
  5 29  1  6
  6  7  1  0
  6  8  1  0
  6 30  1  1
  7 31  1  0
  7 32  1  0
  7 33  1  0
  8  9  2  0
  8 10  1  0
 10 11  1  0
 11 18  1  0
 11 12  1  0
 11 34  1  1
 12 13  1  0
 13 20  1  0
 13 14  1  1
 13 15  1  0
 14 35  1  0
 14 36  1  0
 14 37  1  0
 15 16  1  0
 15 38  1  0
 15 39  1  0
 16 17  1  0
 16 40  1  0
 16 41  1  0
 17 18  1  0
 17 42  1  6
 18 19  1  1
 19 20  1  0
M  END
>  <i_m_ct_stereo_status>  (381) 
1

>  <s_m_source_file>  (381) 
/var/tmp/pbs.5076255.sched01/tmpfn0mpy04/132vsilkqhl.sdf

>  <i_m_source_file_index>  (381) 
36

>  <i_lp_mmshare_version>  (381) 
48012

>  <i_f3d_flags>  (381) 
0

>  <s_epik_input>  (381) 
W0NAXTEyM1tDQEhdNFtDSDJdW0NIMl1bQ0BASF0oW0NIM10pW0NAQEhdMltDSDJdW0NIMl1bQ0BAXShbQ0gzXSkoT08zKU9bQ0BIXTFPQyg9TylbQ0BASF00W0NIM10=

>  <s_epik_cmdline>  (381) 
J2VwaWtfcHl0aG9uJywgJy1waHQnLCAnMi4wJywgJy1waCcsICc3LjAnLCAnLXRuJywgJzgnLCAnLW1hJywgJzIwMCcsICctaW1hZScsICc8aW5maWxlLm1hZT4nLCAnLW9tYWUnLCAnPG91dGZpbGUubWFlPic=

>  <r_lp_tautomer_probability>  (381) 
1

>  <r_epik_Ionization_Penalty>  (381) 
1.7205e-10

>  <r_epik_Ionization_Penalty_Charging>  (381) 
0

>  <r_epik_Ionization_Penalty_Neutral>  (381) 
1.7205e-10

>  <r_epik_State_Penalty>  (381) 
-0

>  <r_epik_Charging_Adjusted_Penalty>  (381) 
0

>  <i_epik_Tot_Q>  (381) 
0

>  <i_epik_Tot_abs_Q>  (381) 
0

>  <s_epik_Chemistry_Notes>  (381) 
This compound has an ester and may undergo hydrolysis at high or low pH. This compound contains an acetal/aminal-like group ( X-CH(R)-Y where X, Y are N, S, or O) that may be acid/base labile, releasing an aldehyde.

>  <s_lp_Force_Field>  (381) 
OPLS3e

>  <r_lp_Energy>  (381) 
36.9221

>  <b_lp_Chiralities_Consistent>  (381) 
1

>  <s_lp_Variant>  (381) 
103:0-1

>  <s_i_glide_gridfile>  (381) 
pfpi4k_grid

>  <i_i_glide_lignum>  (381) 
36

>  <i_i_glide_rotatable_bonds>  (381) 
0

>  <r_i_docking_score>  (381) 
-3.27276

>  <r_i_glide_ligand_efficiency>  (381) 
-0.163638

>  <r_i_glide_ligand_efficiency_sa>  (381) 
-0.444182

>  <r_i_glide_ligand_efficiency_ln>  (381) 
-0.819064

>  <r_i_glide_gscore>  (381) 
-3.27276

>  <r_i_glide_lipo>  (381) 
-0.721179

>  <r_i_glide_hbond>  (381) 
-0.0116057

>  <r_i_glide_metal>  (381) 
-0

>  <r_i_glide_rewards>  (381) 
-1.4841

>  <r_i_glide_evdw>  (381) 
-22.6618

>  <r_i_glide_ecoul>  (381) 
0.622034

>  <r_i_glide_erotb>  (381) 
0

>  <r_i_glide_esite>  (381) 
-0.0160919

>  <r_i_glide_emodel>  (381) 
-26.863

>  <r_i_glide_energy>  (381) 
-22.0398

>  <r_i_glide_einternal>  (381) 
0

>  <r_i_glide_intrahb_reward>  (381) 
-0

>  <i_i_glide_confnum>  (381) 
1

>  <i_i_glide_posenum>  (381) 
5

>  <r_i_glide_eff_state_penalty>  (381) 
0

>  <ligand_id>  (381) 
103

>  <original_smiles>  (381) 
CC1CCC2C(C)C(=O)OC3OC4(C)CCC1C32OO4

>  <smiles>  (381) 
[H]C([H])([H])C12OOC34C([H])(OC(=O)C([H])(C([H])([H])[H])C3([H])C([H])([H])C([H])([H])C([H])(C([H])([H])[H])C4([H])C([H])([H])C1([H])[H])O2

$$$$
103:0:2
     RDKit          3D

 42 45  0  0  1  0  0  0  0  0999 V2000
    5.6260   -9.6209    2.1431 C   0  0  0  0  0  0  0  0  0  0  0  0
    4.3056   -8.9952    2.6217 C   0  0  2  0  0  0  0  0  0  0  0  0
    3.2414  -10.0990    2.7626 C   0  0  0  0  0  0  0  0  0  0  0  0
    1.9194   -9.5342    3.2711 C   0  0  0  0  0  0  0  0  0  0  0  0
    1.3885   -8.4982    2.2738 C   0  0  1  0  0  0  0  0  0  0  0  0
   -0.0142   -7.9514    2.5738 C   0  0  1  0  0  0  0  0  0  0  0  0
   -1.0700   -9.0584    2.8217 C   0  0  0  0  0  0  0  0  0  0  0  0
   -0.0248   -6.9071    3.6963 C   0  0  0  0  0  0  0  0  0  0  0  0
   -1.0510   -6.7412    4.3576 O   0  0  0  0  0  0  0  0  0  0  0  0
    1.0631   -6.0823    3.8336 O   0  0  0  0  0  0  0  0  0  0  0  0
    2.3330   -6.3795    3.2881 C   0  0  2  0  0  0  0  0  0  0  0  0
    3.0273   -5.1815    3.0415 O   0  0  0  0  0  0  0  0  0  0  0  0
    3.1092   -4.7914    1.6955 C   0  0  1  0  0  0  0  0  0  0  0  0
    3.0831   -3.2611    1.6310 C   0  0  0  0  0  0  0  0  0  0  0  0
    4.4283   -5.3438    1.1003 C   0  0  0  0  0  0  0  0  0  0  0  0
    4.8705   -6.6847    1.7126 C   0  0  0  0  0  0  0  0  0  0  0  0
    3.8220   -7.8167    1.7273 C   0  0  2  0  0  0  0  0  0  0  0  0
    2.3632   -7.3265    2.0541 C   0  0  1  0  0  0  0  0  0  0  0  0
    1.9108   -6.6838    0.8685 O   0  0  0  0  0  0  0  0  0  0  0  0
    1.9530   -5.1835    0.9970 O   0  0  0  0  0  0  0  0  0  0  0  0
    5.5519   -9.9873    1.1182 H   0  0  0  0  0  0  0  0  0  0  0  0
    5.8976  -10.4652    2.7759 H   0  0  0  0  0  0  0  0  0  0  0  0
    6.4540   -8.9123    2.1955 H   0  0  0  0  0  0  0  0  0  0  0  0
    4.4764   -8.6092    3.6296 H   0  0  0  0  0  0  0  0  0  0  0  0
    3.0814  -10.6040    1.8059 H   0  0  0  0  0  0  0  0  0  0  0  0
    3.5954  -10.8619    3.4606 H   0  0  0  0  0  0  0  0  0  0  0  0
    1.2213  -10.3645    3.3713 H   0  0  0  0  0  0  0  0  0  0  0  0
    2.0575   -9.1160    4.2728 H   0  0  0  0  0  0  0  0  0  0  0  0
    1.3189   -9.0142    1.3138 H   0  0  0  0  0  0  0  0  0  0  0  0
   -0.3320   -7.4132    1.6745 H   0  0  0  0  0  0  0  0  0  0  0  0
   -2.0798   -8.6469    2.7979 H   0  0  0  0  0  0  0  0  0  0  0  0
   -0.9310   -9.5170    3.8027 H   0  0  0  0  0  0  0  0  0  0  0  0
   -1.0107   -9.8431    2.0647 H   0  0  0  0  0  0  0  0  0  0  0  0
    2.8925   -6.8600    4.0914 H   0  0  0  0  0  0  0  0  0  0  0  0
    2.1165   -2.8967    1.9908 H   0  0  0  0  0  0  0  0  0  0  0  0
    3.2249   -2.8876    0.6063 H   0  0  0  0  0  0  0  0  0  0  0  0
    3.8643   -2.8309    2.2611 H   0  0  0  0  0  0  0  0  0  0  0  0
    4.4156   -5.3780    0.0057 H   0  0  0  0  0  0  0  0  0  0  0  0
    5.2312   -4.6443    1.3569 H   0  0  0  0  0  0  0  0  0  0  0  0
    5.7626   -7.0235    1.1892 H   0  0  0  0  0  0  0  0  0  0  0  0
    5.1951   -6.5062    2.7400 H   0  0  0  0  0  0  0  0  0  0  0  0
    3.7753   -8.2032    0.7065 H   0  0  0  0  0  0  0  0  0  0  0  0
  1  2  1  0
  1 21  1  0
  1 22  1  0
  1 23  1  0
  2 17  1  0
  2  3  1  0
  2 24  1  1
  3  4  1  0
  3 25  1  0
  3 26  1  0
  4  5  1  0
  4 27  1  0
  4 28  1  0
  5 18  1  0
  5  6  1  0
  5 29  1  6
  6  7  1  0
  6  8  1  0
  6 30  1  6
  7 31  1  0
  7 32  1  0
  7 33  1  0
  8  9  2  0
  8 10  1  0
 10 11  1  0
 11 18  1  0
 11 12  1  0
 11 34  1  1
 12 13  1  0
 13 20  1  0
 13 14  1  1
 13 15  1  0
 14 35  1  0
 14 36  1  0
 14 37  1  0
 15 16  1  0
 15 38  1  0
 15 39  1  0
 16 17  1  0
 16 40  1  0
 16 41  1  0
 17 18  1  0
 17 42  1  6
 18 19  1  6
 19 20  1  0
M  END
>  <i_m_ct_stereo_status>  (382) 
1

>  <s_m_source_file>  (382) 
/var/tmp/pbs.5076255.sched01/tmpfn0mpy04/132vsilkqhl.sdf

>  <i_m_source_file_index>  (382) 
36

>  <i_lp_mmshare_version>  (382) 
48012

>  <i_f3d_flags>  (382) 
0

>  <s_epik_input>  (382) 
W0NAXTEyM1tDQEhdNFtDSDJdW0NIMl1bQ0BASF0oW0NIM10pW0NAQEhdMltDSDJdW0NIMl1bQ0BAXShbQ0gzXSkoT08zKU9bQ0BIXTFPQyg9TylbQ0BASF00W0NIM10=

>  <s_epik_cmdline>  (382) 
J2VwaWtfcHl0aG9uJywgJy1waHQnLCAnMi4wJywgJy1waCcsICc3LjAnLCAnLXRuJywgJzgnLCAnLW1hJywgJzIwMCcsICctaW1hZScsICc8aW5maWxlLm1hZT4nLCAnLW9tYWUnLCAnPG91dGZpbGUubWFlPic=

>  <r_lp_tautomer_probability>  (382) 
1

>  <r_epik_Ionization_Penalty>  (382) 
1.7205e-10

>  <r_epik_Ionization_Penalty_Charging>  (382) 
0

>  <r_epik_Ionization_Penalty_Neutral>  (382) 
1.7205e-10

>  <r_epik_State_Penalty>  (382) 
-0

>  <r_epik_Charging_Adjusted_Penalty>  (382) 
0

>  <i_epik_Tot_Q>  (382) 
0

>  <i_epik_Tot_abs_Q>  (382) 
0

>  <s_epik_Chemistry_Notes>  (382) 
This compound has an ester and may undergo hydrolysis at high or low pH. This compound contains an acetal/aminal-like group ( X-CH(R)-Y where X, Y are N, S, or O) that may be acid/base labile, releasing an aldehyde.

>  <s_lp_Force_Field>  (382) 
OPLS3e

>  <r_lp_Energy>  (382) 
36.9221

>  <b_lp_Chiralities_Consistent>  (382) 
1

>  <s_lp_Variant>  (382) 
103:0-1

>  <s_i_glide_gridfile>  (382) 
pfpi4k_grid

>  <i_i_glide_lignum>  (382) 
36

>  <i_i_glide_rotatable_bonds>  (382) 
0

>  <r_i_docking_score>  (382) 
-3.06822

>  <r_i_glide_ligand_efficiency>  (382) 
-0.153411

>  <r_i_glide_ligand_efficiency_sa>  (382) 
-0.416421

>  <r_i_glide_ligand_efficiency_ln>  (382) 
-0.767873

>  <r_i_glide_gscore>  (382) 
-3.06822

>  <r_i_glide_lipo>  (382) 
-0.103274

>  <r_i_glide_hbond>  (382) 
-0.0656333

>  <r_i_glide_metal>  (382) 
-0

>  <r_i_glide_rewards>  (382) 
-1.48489

>  <r_i_glide_evdw>  (382) 
-21.8227

>  <r_i_glide_ecoul>  (382) 
-1.812

>  <r_i_glide_erotb>  (382) 
0

>  <r_i_glide_esite>  (382) 
-0.0514787

>  <r_i_glide_emodel>  (382) 
-28.3212

>  <r_i_glide_energy>  (382) 
-23.6347

>  <r_i_glide_einternal>  (382) 
0

>  <r_i_glide_intrahb_reward>  (382) 
-0

>  <i_i_glide_confnum>  (382) 
2

>  <i_i_glide_posenum>  (382) 
2

>  <r_i_glide_eff_state_penalty>  (382) 
0

>  <ligand_id>  (382) 
103

>  <original_smiles>  (382) 
CC1CCC2C(C)C(=O)OC3OC4(C)CCC1C32OO4

>  <smiles>  (382) 
[H]C([H])([H])C12OOC34C([H])(OC(=O)C([H])(C([H])([H])[H])C3([H])C([H])([H])C([H])([H])C([H])(C([H])([H])[H])C4([H])C([H])([H])C1([H])[H])O2

$$$$
104:0:0
     RDKit          3D

 76 80  0  0  1  0  0  0  0  0999 V2000
    2.9272   -3.3641   -3.4195 C   0  0  0  0  0  0  0  0  0  0  0  0
    3.4651   -2.5012   -2.2597 C   0  0  2  0  0  0  0  0  0  0  0  0
    4.5415   -1.4864   -2.7166 C   0  0  0  0  0  0  0  0  0  0  0  0
    5.5371   -1.3220   -1.5332 C   0  0  0  0  0  0  0  0  0  0  0  0
    4.8233   -1.9954   -0.3520 C   0  0  2  0  0  0  0  0  0  0  0  0
    3.8224   -0.8977    0.1456 C   0  0  0  0  0  0  0  0  0  0  0  0
    5.5807   -2.3901    0.9576 C   0  0  1  0  0  0  0  0  0  0  0  0
    4.5848   -2.9941    1.8800 C   0  0  0  0  0  0  0  0  0  0  0  0
    3.8660   -4.0288    1.4117 C   0  0  0  0  0  0  0  0  0  0  0  0
    3.3064   -3.9453    0.0097 C   0  0  0  0  0  0  0  0  0  0  0  0
    2.2471   -4.4754   -0.3162 O   0  0  0  0  0  0  0  0  0  0  0  0
    4.1496   -3.2040   -1.0511 C   0  0  1  0  0  0  0  0  0  0  0  0
    5.1347   -4.2295   -1.6460 C   0  0  0  0  0  0  0  0  0  0  0  0
    4.0417   -5.3491    2.1786 C   0  0  1  0  0  0  0  0  0  0  0  0
    3.0109   -5.1800    3.3275 C   0  0  0  0  0  0  0  0  0  0  0  0
    3.6796   -6.6431    1.3818 C   0  0  1  0  0  0  0  0  0  0  0  0
    4.3256   -6.7751    0.1330 O   0  0  0  0  0  0  0  0  0  0  0  0
    4.0025   -7.9343    2.1483 C   0  0  0  0  0  0  0  0  0  0  0  0
    5.4899   -8.1015    2.5798 C   0  0  2  0  0  0  0  0  0  0  0  0
    5.7356   -9.5009    3.2914 C   0  0  0  0  0  0  0  0  0  0  0  0
    5.0816  -10.6553    2.4936 C   0  0  0  0  0  0  0  0  0  0  0  0
    7.2375   -9.8841    3.3616 C   0  0  0  0  0  0  0  0  0  0  0  0
    5.1091   -9.4967    4.7076 C   0  0  0  0  0  0  0  0  0  0  0  0
    5.5399   -8.2967    5.5626 C   0  0  0  0  0  0  0  0  0  0  0  0
    5.3182   -6.9531    4.8386 C   0  0  0  0  0  0  0  0  0  0  0  0
    5.9617   -6.8404    3.4150 C   0  0  1  0  0  0  0  0  0  0  0  0
    7.4982   -6.8293    3.6797 C   0  0  0  0  0  0  0  0  0  0  0  0
    5.5740   -5.4635    2.6749 C   0  0  1  0  0  0  0  0  0  0  0  0
    6.6865   -4.9056    1.6246 C   0  0  1  0  0  0  0  0  0  0  0  0
    7.0268   -5.8653    0.6467 O   0  0  0  0  0  0  0  0  0  0  0  0
    6.7746   -3.4086    1.0283 C   0  0  1  0  0  0  0  0  0  0  0  0
    7.6959   -3.2560   -0.0351 O   0  0  0  0  0  0  0  0  0  0  0  0
    3.7186   -3.8999   -3.9514 H   0  0  0  0  0  0  0  0  0  0  0  0
    2.4028   -2.7549   -4.1570 H   0  0  0  0  0  0  0  0  0  0  0  0
    2.2025   -4.0947   -3.0566 H   0  0  0  0  0  0  0  0  0  0  0  0
    2.5982   -1.9542   -1.8930 H   0  0  0  0  0  0  0  0  0  0  0  0
    5.0568   -1.8506   -3.6046 H   0  0  0  0  0  0  0  0  0  0  0  0
    4.0791   -0.5372   -2.9823 H   0  0  0  0  0  0  0  0  0  0  0  0
    6.4765   -1.8195   -1.7736 H   0  0  0  0  0  0  0  0  0  0  0  0
    5.7742   -0.2719   -1.3444 H   0  0  0  0  0  0  0  0  0  0  0  0
    2.9738   -1.2898    0.7114 H   0  0  0  0  0  0  0  0  0  0  0  0
    3.4111   -0.3536   -0.6920 H   0  0  0  0  0  0  0  0  0  0  0  0
    4.3144   -0.1375    0.7627 H   0  0  0  0  0  0  0  0  0  0  0  0
    5.9461   -1.4684    1.4164 H   0  0  0  0  0  0  0  0  0  0  0  0
    4.9649   -2.9681    2.8918 H   0  0  0  0  0  0  0  0  0  0  0  0
    5.8315   -3.8203   -2.3765 H   0  0  0  0  0  0  0  0  0  0  0  0
    4.6276   -5.0360   -2.1390 H   0  0  0  0  0  0  0  0  0  0  0  0
    5.7152   -4.7113   -0.8883 H   0  0  0  0  0  0  0  0  0  0  0  0
    2.6313   -6.1120    3.7327 H   0  0  0  0  0  0  0  0  0  0  0  0
    2.1176   -4.6637    2.9690 H   0  0  0  0  0  0  0  0  0  0  0  0
    3.4141   -4.5806    4.1454 H   0  0  0  0  0  0  0  0  0  0  0  0
    2.6105   -6.6434    1.1782 H   0  0  0  0  0  0  0  0  0  0  0  0
    3.9034   -6.2101   -0.5045 H   0  0  0  0  0  0  0  0  0  0  0  0
    3.3588   -8.0147    3.0184 H   0  0  0  0  0  0  0  0  0  0  0  0
    3.6951   -8.7527    1.5012 H   0  0  0  0  0  0  0  0  0  0  0  0
    6.0689   -8.1258    1.6552 H   0  0  0  0  0  0  0  0  0  0  0  0
    5.3735  -11.6362    2.8830 H   0  0  0  0  0  0  0  0  0  0  0  0
    5.3912  -10.6079    1.4466 H   0  0  0  0  0  0  0  0  0  0  0  0
    3.9909  -10.6318    2.5465 H   0  0  0  0  0  0  0  0  0  0  0  0
    7.3960  -10.9578    3.2672 H   0  0  0  0  0  0  0  0  0  0  0  0
    7.6949   -9.6255    4.3156 H   0  0  0  0  0  0  0  0  0  0  0  0
    7.7997   -9.4088    2.5610 H   0  0  0  0  0  0  0  0  0  0  0  0
    4.0211   -9.4966    4.6285 H   0  0  0  0  0  0  0  0  0  0  0  0
    5.3601  -10.4239    5.2227 H   0  0  0  0  0  0  0  0  0  0  0  0
    4.9547   -8.3064    6.4784 H   0  0  0  0  0  0  0  0  0  0  0  0
    6.5681   -8.4158    5.8866 H   0  0  0  0  0  0  0  0  0  0  0  0
    4.2459   -6.8349    4.7936 H   0  0  0  0  0  0  0  0  0  0  0  0
    5.6703   -6.1398    5.4739 H   0  0  0  0  0  0  0  0  0  0  0  0
    7.8224   -5.8720    4.0903 H   0  0  0  0  0  0  0  0  0  0  0  0
    8.0817   -7.0388    2.7842 H   0  0  0  0  0  0  0  0  0  0  0  0
    7.8263   -7.5423    4.4248 H   0  0  0  0  0  0  0  0  0  0  0  0
    5.6717   -4.7701    3.5060 H   0  0  0  0  0  0  0  0  0  0  0  0
    7.6148   -4.8909    2.1844 H   0  0  0  0  0  0  0  0  0  0  0  0
    7.2748   -6.6633    1.0879 H   0  0  0  0  0  0  0  0  0  0  0  0
    7.3486   -2.9326    1.8022 H   0  0  0  0  0  0  0  0  0  0  0  0
    7.3574   -3.7263   -0.7917 H   0  0  0  0  0  0  0  0  0  0  0  0
  1  2  1  0
  1 33  1  0
  1 34  1  0
  1 35  1  0
  2 12  1  0
  2  3  1  0
  2 36  1  1
  3  4  1  0
  3 37  1  0
  3 38  1  0
  4  5  1  0
  4 39  1  0
  4 40  1  0
  5 12  1  0
  5  6  1  1
  5  7  1  0
  6 41  1  0
  6 42  1  0
  6 43  1  0
  7 31  1  0
  7  8  1  0
  7 44  1  1
  8  9  2  0
  8 45  1  0
  9 10  1  0
  9 14  1  0
 10 11  2  0
 10 12  1  0
 12 13  1  6
 13 46  1  0
 13 47  1  0
 13 48  1  0
 14 28  1  0
 14 15  1  1
 14 16  1  0
 15 49  1  0
 15 50  1  0
 15 51  1  0
 16 17  1  0
 16 18  1  0
 16 52  1  6
 17 53  1  0
 18 19  1  0
 18 54  1  0
 18 55  1  0
 19 26  1  0
 19 20  1  0
 19 56  1  6
 20 21  1  0
 20 22  1  0
 20 23  1  0
 21 57  1  0
 21 58  1  0
 21 59  1  0
 22 60  1  0
 22 61  1  0
 22 62  1  0
 23 24  1  0
 23 63  1  0
 23 64  1  0
 24 25  1  0
 24 65  1  0
 24 66  1  0
 25 26  1  0
 25 67  1  0
 25 68  1  0
 26 27  1  1
 26 28  1  0
 27 69  1  0
 27 70  1  0
 27 71  1  0
 28 29  1  0
 28 72  1  1
 29 30  1  0
 29 31  1  0
 29 73  1  1
 30 74  1  0
 31 32  1  0
 31 75  1  1
 32 76  1  0
M  END
>  <i_m_ct_stereo_status>  (383) 
1

>  <s_m_source_file>  (383) 
/var/tmp/pbs.5076255.sched01/tmpfn0mpy04/132vsilkqhl.sdf

>  <i_m_source_file_index>  (383) 
37

>  <i_lp_mmshare_version>  (383) 
48012

>  <i_f3d_flags>  (383) 
1

>  <s_epik_input>  (383) 
W0NIMl0xW0NIMl1bQ0BASF0oW0NIM10pW0NAXTIoW0NIM10pQyg9TylDKD1bQ0hdW0NAQEhdM1tDQEBdMTJbQ0gzXSlbQ0BdNChbQ0gzXSlbQ0BIXShbQ0BASF0oW09IXSlbQ0BIXTNbT0hdKVtDQF01KFtDSDNdKVtDQEhdKFtDSDJdW0NAQEhdNFtPSF0pQyhbQ0gzXSkoW0NIM10pW0NIMl1bQ0gyXVtDSDJdNQ==

>  <s_epik_cmdline>  (383) 
J2VwaWtfcHl0aG9uJywgJy1waHQnLCAnMi4wJywgJy1waCcsICc3LjAnLCAnLXRuJywgJzgnLCAnLW1hJywgJzIwMCcsICctaW1hZScsICc8aW5maWxlLm1hZT4nLCAnLW9tYWUnLCAnPG91dGZpbGUubWFlPic=

>  <r_lp_tautomer_probability>  (383) 
1

>  <r_epik_Ionization_Penalty>  (383) 
5.24342e-07

>  <r_epik_Ionization_Penalty_Charging>  (383) 
0

>  <r_epik_Ionization_Penalty_Neutral>  (383) 
5.24342e-07

>  <r_epik_State_Penalty>  (383) 
-0

>  <r_epik_Charging_Adjusted_Penalty>  (383) 
0

>  <i_epik_Tot_Q>  (383) 
0

>  <i_epik_Tot_abs_Q>  (383) 
0

>  <s_lp_Force_Field>  (383) 
OPLS3e

>  <r_lp_Energy>  (383) 
150.442

>  <b_lp_Chiralities_Consistent>  (383) 
1

>  <s_lp_Variant>  (383) 
104:0-1

>  <s_i_glide_gridfile>  (383) 
pfpi4k_grid

>  <i_i_glide_lignum>  (383) 
37

>  <i_i_glide_rotatable_bonds>  (383) 
3

>  <r_i_docking_score>  (383) 
-2.62971

>  <r_i_glide_ligand_efficiency>  (383) 
-0.0821784

>  <r_i_glide_ligand_efficiency_sa>  (383) 
-0.2609

>  <r_i_glide_ligand_efficiency_ln>  (383) 
-0.588864

>  <r_i_glide_gscore>  (383) 
-2.62971

>  <r_i_glide_lipo>  (383) 
-0.544098

>  <r_i_glide_hbond>  (383) 
0

>  <r_i_glide_metal>  (383) 
-0

>  <r_i_glide_rewards>  (383) 
-0.37741

>  <r_i_glide_evdw>  (383) 
-25.2608

>  <r_i_glide_ecoul>  (383) 
-2.8887

>  <r_i_glide_erotb>  (383) 
0

>  <r_i_glide_esite>  (383) 
-0.0118593

>  <r_i_glide_emodel>  (383) 
-31.3323

>  <r_i_glide_energy>  (383) 
-28.1495

>  <r_i_glide_einternal>  (383) 
0.782655

>  <r_i_glide_intrahb_reward>  (383) 
-0

>  <i_i_glide_confnum>  (383) 
2

>  <i_i_glide_posenum>  (383) 
4

>  <r_i_glide_eff_state_penalty>  (383) 
0

>  <ligand_id>  (383) 
104

>  <original_smiles>  (383) 
CC1CCC2(C)C3C=C(C(=O)C12C)C1(C)C(O)CC2C(C)(C)CCCC2(C)C1C(O)C3O

>  <smiles>  (383) 
[H]OC1([H])C([H])(O[H])C2([H])C(C([H])([H])[H])(C3=C([H])C1([H])C1(C([H])([H])[H])C([H])([H])C([H])([H])C([H])(C([H])([H])[H])C1(C([H])([H])[H])C3=O)C([H])(O[H])C([H])([H])C1([H])C(C([H])([H])[H])(C([H])([H])[H])C([H])([H])C([H])([H])C([H])([H])C21C([H])([H])[H]

$$$$
104:0:1
     RDKit          3D

 76 80  0  0  1  0  0  0  0  0999 V2000
    2.7497   -3.4439   -3.4607 C   0  0  0  0  0  0  0  0  0  0  0  0
    3.2472   -2.5243   -2.3446 C   0  0  2  0  0  0  0  0  0  0  0  0
    4.2114   -1.4294   -2.8726 C   0  0  0  0  0  0  0  0  0  0  0  0
    5.2146   -1.1359   -1.7209 C   0  0  0  0  0  0  0  0  0  0  0  0
    4.6182   -1.8351   -0.4839 C   0  0  2  0  0  0  0  0  0  0  0  0
    3.5141   -0.8711    0.0539 C   0  0  0  0  0  0  0  0  0  0  0  0
    5.4302   -2.0896    0.8200 C   0  0  1  0  0  0  0  0  0  0  0  0
    4.5214   -2.7438    1.7908 C   0  0  0  0  0  0  0  0  0  0  0  0
    3.8761   -3.8496    1.3793 C   0  0  0  0  0  0  0  0  0  0  0  0
    3.2832   -3.8787   -0.0180 C   0  0  0  0  0  0  0  0  0  0  0  0
    2.2647   -4.5073   -0.3011 O   0  0  0  0  0  0  0  0  0  0  0  0
    4.0289   -3.1154   -1.1290 C   0  0  1  0  0  0  0  0  0  0  0  0
    5.0858   -4.0564   -1.7141 C   0  0  0  0  0  0  0  0  0  0  0  0
    4.1867   -5.1094    2.1954 C   0  0  1  0  0  0  0  0  0  0  0  0
    3.1786   -4.9868    3.3636 C   0  0  0  0  0  0  0  0  0  0  0  0
    3.9243   -6.4668    1.4683 C   0  0  1  0  0  0  0  0  0  0  0  0
    4.5540   -6.5924    0.1975 O   0  0  0  0  0  0  0  0  0  0  0  0
    4.3886   -7.6899    2.2693 C   0  0  0  0  0  0  0  0  0  0  0  0
    5.9000   -7.6924    2.6760 C   0  0  2  0  0  0  0  0  0  0  0  0
    6.2770   -9.0302    3.4379 C   0  0  0  0  0  0  0  0  0  0  0  0
    5.7255  -10.2843    2.7046 C   0  0  0  0  0  0  0  0  0  0  0  0
    7.8114   -9.2709    3.4961 C   0  0  0  0  0  0  0  0  0  0  0  0
    5.6985   -9.0223    4.8693 C   0  0  0  0  0  0  0  0  0  0  0  0
    6.0273   -7.7465    5.6578 C   0  0  0  0  0  0  0  0  0  0  0  0
    5.6690   -6.4589    4.8898 C   0  0  0  0  0  0  0  0  0  0  0  0
    6.2594   -6.3683    3.4370 C   0  0  1  0  0  0  0  0  0  0  0  0
    7.7990   -6.2290    3.6628 C   0  0  0  0  0  0  0  0  0  0  0  0
    5.7338   -5.0649    2.6540 C   0  0  1  0  0  0  0  0  0  0  0  0
    6.7574   -4.4570    1.5504 C   0  0  1  0  0  0  0  0  0  0  0  0
    7.1731   -5.4012    0.5873 O   0  0  0  0  0  0  0  0  0  0  0  0
    6.7032   -2.9849    0.8997 C   0  0  1  0  0  0  0  0  0  0  0  0
    7.5813   -2.8120   -0.1988 O   0  0  0  0  0  0  0  0  0  0  0  0
    3.5803   -3.9146   -3.9898 H   0  0  0  0  0  0  0  0  0  0  0  0
    2.1952   -2.8821   -4.2111 H   0  0  0  0  0  0  0  0  0  0  0  0
    2.1169   -4.2550   -3.0856 H   0  0  0  0  0  0  0  0  0  0  0  0
    2.3433   -2.0531   -1.9851 H   0  0  0  0  0  0  0  0  0  0  0  0
    4.7702   -1.7563   -3.7476 H   0  0  0  0  0  0  0  0  0  0  0  0
    3.6707   -0.5274   -3.1607 H   0  0  0  0  0  0  0  0  0  0  0  0
    6.2046   -1.5406   -1.9643 H   0  0  0  0  0  0  0  0  0  0  0  0
    5.3346   -0.0613   -1.6032 H   0  0  0  0  0  0  0  0  0  0  0  0
    2.7643   -1.3085    0.7179 H   0  0  0  0  0  0  0  0  0  0  0  0
    2.9400   -0.5755   -0.7945 H   0  0  0  0  0  0  0  0  0  0  0  0
    3.9204    0.0296    0.5313 H   0  0  0  0  0  0  0  0  0  0  0  0
    5.6947   -1.1077    1.2237 H   0  0  0  0  0  0  0  0  0  0  0  0
    4.9123   -2.6268    2.7936 H   0  0  0  0  0  0  0  0  0  0  0  0
    5.7269   -3.6213   -2.4787 H   0  0  0  0  0  0  0  0  0  0  0  0
    4.6180   -4.9273   -2.1555 H   0  0  0  0  0  0  0  0  0  0  0  0
    5.7198   -4.4544   -0.9478 H   0  0  0  0  0  0  0  0  0  0  0  0
    2.8928   -5.9312    3.8198 H   0  0  0  0  0  0  0  0  0  0  0  0
    2.2271   -4.5733    3.0052 H   0  0  0  0  0  0  0  0  0  0  0  0
    3.5339   -4.3142    4.1441 H   0  0  0  0  0  0  0  0  0  0  0  0
    2.8570   -6.5704    1.2997 H   0  0  0  0  0  0  0  0  0  0  0  0
    4.1188   -6.0702   -0.4254 H   0  0  0  0  0  0  0  0  0  0  0  0
    3.7791   -7.7849    3.1671 H   0  0  0  0  0  0  0  0  0  0  0  0
    4.1489   -8.5588    1.6699 H   0  0  0  0  0  0  0  0  0  0  0  0
    6.4568   -7.7014    1.7382 H   0  0  0  0  0  0  0  0  0  0  0  0
    6.1217  -11.2068    3.1301 H   0  0  0  0  0  0  0  0  0  0  0  0
    5.9794  -10.2662    1.6427 H   0  0  0  0  0  0  0  0  0  0  0  0
    4.6414  -10.3617    2.7972 H   0  0  0  0  0  0  0  0  0  0  0  0
    8.0775  -10.3208    3.4365 H   0  0  0  0  0  0  0  0  0  0  0  0
    8.2561   -8.9367    4.4391 H   0  0  0  0  0  0  0  0  0  0  0  0
    8.3180   -8.7502    2.6844 H   0  0  0  0  0  0  0  0  0  0  0  0
    4.6103   -9.1267    4.8222 H   0  0  0  0  0  0  0  0  0  0  0  0
    6.0519   -9.8876    5.4172 H   0  0  0  0  0  0  0  0  0  0  0  0
    5.4670   -7.7679    6.5918 H   0  0  0  0  0  0  0  0  0  0  0  0
    7.0707   -7.7541    5.9668 H   0  0  0  0  0  0  0  0  0  0  0  0
    4.5892   -6.4470    4.8694 H   0  0  0  0  0  0  0  0  0  0  0  0
    5.9597   -5.5954    5.4754 H   0  0  0  0  0  0  0  0  0  0  0  0
    8.0593   -5.2559    4.0535 H   0  0  0  0  0  0  0  0  0  0  0  0
    8.3707   -6.4060    2.7521 H   0  0  0  0  0  0  0  0  0  0  0  0
    8.2022   -6.8801    4.4227 H   0  0  0  0  0  0  0  0  0  0  0  0
    5.7940   -4.3236    3.4482 H   0  0  0  0  0  0  0  0  0  0  0  0
    7.6914   -4.3514    2.0797 H   0  0  0  0  0  0  0  0  0  0  0  0
    8.0815   -5.2868    0.4492 H   0  0  0  0  0  0  0  0  0  0  0  0
    7.2185   -2.3948    1.6537 H   0  0  0  0  0  0  0  0  0  0  0  0
    7.2883   -3.3575   -0.8821 H   0  0  0  0  0  0  0  0  0  0  0  0
  1  2  1  0
  1 33  1  0
  1 34  1  0
  1 35  1  0
  2 12  1  0
  2  3  1  0
  2 36  1  1
  3  4  1  0
  3 37  1  0
  3 38  1  0
  4  5  1  0
  4 39  1  0
  4 40  1  0
  5 12  1  0
  5  6  1  1
  5  7  1  0
  6 41  1  0
  6 42  1  0
  6 43  1  0
  7 31  1  0
  7  8  1  0
  7 44  1  1
  8  9  2  0
  8 45  1  0
  9 10  1  0
  9 14  1  0
 10 11  2  0
 10 12  1  0
 12 13  1  6
 13 46  1  0
 13 47  1  0
 13 48  1  0
 14 28  1  0
 14 15  1  1
 14 16  1  0
 15 49  1  0
 15 50  1  0
 15 51  1  0
 16 17  1  0
 16 18  1  0
 16 52  1  6
 17 53  1  0
 18 19  1  0
 18 54  1  0
 18 55  1  0
 19 26  1  0
 19 20  1  0
 19 56  1  6
 20 21  1  0
 20 22  1  0
 20 23  1  0
 21 57  1  0
 21 58  1  0
 21 59  1  0
 22 60  1  0
 22 61  1  0
 22 62  1  0
 23 24  1  0
 23 63  1  0
 23 64  1  0
 24 25  1  0
 24 65  1  0
 24 66  1  0
 25 26  1  0
 25 67  1  0
 25 68  1  0
 26 27  1  1
 26 28  1  0
 27 69  1  0
 27 70  1  0
 27 71  1  0
 28 29  1  0
 28 72  1  1
 29 30  1  0
 29 31  1  0
 29 73  1  1
 30 74  1  0
 31 32  1  0
 31 75  1  1
 32 76  1  0
M  END
>  <i_m_ct_stereo_status>  (384) 
1

>  <s_m_source_file>  (384) 
/var/tmp/pbs.5076255.sched01/tmpfn0mpy04/132vsilkqhl.sdf

>  <i_m_source_file_index>  (384) 
37

>  <i_lp_mmshare_version>  (384) 
48012

>  <i_f3d_flags>  (384) 
1

>  <s_epik_input>  (384) 
W0NIMl0xW0NIMl1bQ0BASF0oW0NIM10pW0NAXTIoW0NIM10pQyg9TylDKD1bQ0hdW0NAQEhdM1tDQEBdMTJbQ0gzXSlbQ0BdNChbQ0gzXSlbQ0BIXShbQ0BASF0oW09IXSlbQ0BIXTNbT0hdKVtDQF01KFtDSDNdKVtDQEhdKFtDSDJdW0NAQEhdNFtPSF0pQyhbQ0gzXSkoW0NIM10pW0NIMl1bQ0gyXVtDSDJdNQ==

>  <s_epik_cmdline>  (384) 
J2VwaWtfcHl0aG9uJywgJy1waHQnLCAnMi4wJywgJy1waCcsICc3LjAnLCAnLXRuJywgJzgnLCAnLW1hJywgJzIwMCcsICctaW1hZScsICc8aW5maWxlLm1hZT4nLCAnLW9tYWUnLCAnPG91dGZpbGUubWFlPic=

>  <r_lp_tautomer_probability>  (384) 
1

>  <r_epik_Ionization_Penalty>  (384) 
5.24342e-07

>  <r_epik_Ionization_Penalty_Charging>  (384) 
0

>  <r_epik_Ionization_Penalty_Neutral>  (384) 
5.24342e-07

>  <r_epik_State_Penalty>  (384) 
-0

>  <r_epik_Charging_Adjusted_Penalty>  (384) 
0

>  <i_epik_Tot_Q>  (384) 
0

>  <i_epik_Tot_abs_Q>  (384) 
0

>  <s_lp_Force_Field>  (384) 
OPLS3e

>  <r_lp_Energy>  (384) 
150.442

>  <b_lp_Chiralities_Consistent>  (384) 
1

>  <s_lp_Variant>  (384) 
104:0-1

>  <s_i_glide_gridfile>  (384) 
pfpi4k_grid

>  <i_i_glide_lignum>  (384) 
37

>  <i_i_glide_rotatable_bonds>  (384) 
3

>  <r_i_docking_score>  (384) 
-2.6092

>  <r_i_glide_ligand_efficiency>  (384) 
-0.0815375

>  <r_i_glide_ligand_efficiency_sa>  (384) 
-0.258866

>  <r_i_glide_ligand_efficiency_ln>  (384) 
-0.584271

>  <r_i_glide_gscore>  (384) 
-2.6092

>  <r_i_glide_lipo>  (384) 
-0.585013

>  <r_i_glide_hbond>  (384) 
0

>  <r_i_glide_metal>  (384) 
-0

>  <r_i_glide_rewards>  (384) 
-0.37741

>  <r_i_glide_evdw>  (384) 
-24.3016

>  <r_i_glide_ecoul>  (384) 
-2.80762

>  <r_i_glide_erotb>  (384) 
0

>  <r_i_glide_esite>  (384) 
-0.0105532

>  <r_i_glide_emodel>  (384) 
-29.6383

>  <r_i_glide_energy>  (384) 
-27.1093

>  <r_i_glide_einternal>  (384) 
1.00485

>  <r_i_glide_intrahb_reward>  (384) 
-0

>  <i_i_glide_confnum>  (384) 
2

>  <i_i_glide_posenum>  (384) 
5

>  <r_i_glide_eff_state_penalty>  (384) 
0

>  <ligand_id>  (384) 
104

>  <original_smiles>  (384) 
CC1CCC2(C)C3C=C(C(=O)C12C)C1(C)C(O)CC2C(C)(C)CCCC2(C)C1C(O)C3O

>  <smiles>  (384) 
[H]OC1([H])C([H])(O[H])C2([H])C(C([H])([H])[H])(C3=C([H])C1([H])C1(C([H])([H])[H])C([H])([H])C([H])([H])C([H])(C([H])([H])[H])C1(C([H])([H])[H])C3=O)C([H])(O[H])C([H])([H])C1([H])C(C([H])([H])[H])(C([H])([H])[H])C([H])([H])C([H])([H])C([H])([H])C21C([H])([H])[H]

$$$$
104:0:2
     RDKit          3D

 76 80  0  0  1  0  0  0  0  0999 V2000
    2.8296   -3.4509   -3.4350 C   0  0  0  0  0  0  0  0  0  0  0  0
    3.3368   -2.5365   -2.2894 C   0  0  2  0  0  0  0  0  0  0  0  0
    4.3497   -1.4572   -2.7658 C   0  0  0  0  0  0  0  0  0  0  0  0
    5.3580   -1.2570   -1.6052 C   0  0  0  0  0  0  0  0  0  0  0  0
    4.7000   -1.9527   -0.4032 C   0  0  2  0  0  0  0  0  0  0  0  0
    3.6548   -0.9230    0.1320 C   0  0  0  0  0  0  0  0  0  0  0  0
    5.4907   -2.2901    0.8926 C   0  0  1  0  0  0  0  0  0  0  0  0
    4.5497   -2.9413    1.8462 C   0  0  0  0  0  0  0  0  0  0  0  0
    3.8660   -3.9999    1.3925 C   0  0  0  0  0  0  0  0  0  0  0  0
    3.2698   -3.9602    0.0008 C   0  0  0  0  0  0  0  0  0  0  0  0
    2.2150   -4.4927   -0.3020 O   0  0  0  0  0  0  0  0  0  0  0  0
    4.0747   -3.1843   -1.0860 C   0  0  1  0  0  0  0  0  0  0  0  0
    5.1048   -4.1556   -1.6927 C   0  0  0  0  0  0  0  0  0  0  0  0
    4.1311   -5.3003    2.1716 C   0  0  1  0  0  0  0  0  0  0  0  0
    3.1158   -5.1786    3.3354 C   0  0  0  0  0  0  0  0  0  0  0  0
    3.8130   -6.6114    1.3920 C   0  0  1  0  0  0  0  0  0  0  0  0
    4.4605   -6.7219    0.1576 O   0  0  0  0  0  0  0  0  0  0  0  0
    4.2318   -7.8862    2.1498 C   0  0  0  0  0  0  0  0  0  0  0  0
    5.7286   -7.9692    2.5577 C   0  0  2  0  0  0  0  0  0  0  0  0
    6.0533   -9.3443    3.2755 C   0  0  0  0  0  0  0  0  0  0  0  0
    5.4548  -10.5427    2.4947 C   0  0  0  0  0  0  0  0  0  0  0  0
    7.5657   -9.6288    3.3363 C   0  0  0  0  0  0  0  0  0  0  0  0
    5.4580   -9.3667    4.7002 C   0  0  0  0  0  0  0  0  0  0  0  0
    5.8445   -8.1408    5.5365 C   0  0  0  0  0  0  0  0  0  0  0  0
    5.5389   -6.8128    4.8097 C   0  0  0  0  0  0  0  0  0  0  0  0
    6.1427   -6.6779    3.3766 C   0  0  1  0  0  0  0  0  0  0  0  0
    7.6786   -6.5814    3.6114 C   0  0  0  0  0  0  0  0  0  0  0  0
    5.6753   -5.3301    2.6372 C   0  0  1  0  0  0  0  0  0  0  0  0
    6.7420   -4.7257    1.5578 C   0  0  1  0  0  0  0  0  0  0  0  0
    7.0886   -5.6761    0.5823 O   0  0  0  0  0  0  0  0  0  0  0  0
    6.7363   -3.2341    0.9381 C   0  0  1  0  0  0  0  0  0  0  0  0
    7.6380   -3.0374   -0.1390 O   0  0  0  0  0  0  0  0  0  0  0  0
    3.6396   -3.9113   -3.9842 H   0  0  0  0  0  0  0  0  0  0  0  0
    2.2509   -2.8488   -4.1549 H   0  0  0  0  0  0  0  0  0  0  0  0
    2.1574   -4.1897   -3.0470 H   0  0  0  0  0  0  0  0  0  0  0  0
    2.4430   -2.0376   -1.9162 H   0  0  0  0  0  0  0  0  0  0  0  0
    4.8835   -1.7802   -3.6627 H   0  0  0  0  0  0  0  0  0  0  0  0
    3.8300   -0.5312   -3.0240 H   0  0  0  0  0  0  0  0  0  0  0  0
    6.3149   -1.6989   -1.8685 H   0  0  0  0  0  0  0  0  0  0  0  0
    5.5334   -0.2104   -1.4193 H   0  0  0  0  0  0  0  0  0  0  0  0
    2.8508   -1.3508    0.7400 H   0  0  0  0  0  0  0  0  0  0  0  0
    3.1583   -0.4828   -0.7053 H   0  0  0  0  0  0  0  0  0  0  0  0
    4.1091   -0.1000    0.6986 H   0  0  0  0  0  0  0  0  0  0  0  0
    5.8043   -1.3447    1.3374 H   0  0  0  0  0  0  0  0  0  0  0  0
    4.9471   -2.8722    2.8416 H   0  0  0  0  0  0  0  0  0  0  0  0
    5.7550   -3.7152   -2.4496 H   0  0  0  0  0  0  0  0  0  0  0  0
    4.6125   -4.9911   -2.1610 H   0  0  0  0  0  0  0  0  0  0  0  0
    5.7203   -4.5893   -0.9451 H   0  0  0  0  0  0  0  0  0  0  0  0
    2.7909   -6.1300    3.7542 H   0  0  0  0  0  0  0  0  0  0  0  0
    2.1894   -4.7168    2.9836 H   0  0  0  0  0  0  0  0  0  0  0  0
    3.4987   -4.5490    4.1409 H   0  0  0  0  0  0  0  0  0  0  0  0
    2.7319   -6.6676    1.2037 H   0  0  0  0  0  0  0  0  0  0  0  0
    5.3796   -6.9487    0.3442 H   0  0  0  0  0  0  0  0  0  0  0  0
    3.6098   -7.9986    3.0362 H   0  0  0  0  0  0  0  0  0  0  0  0
    3.9517   -8.7309    1.5095 H   0  0  0  0  0  0  0  0  0  0  0  0
    6.3052   -7.9762    1.6320 H   0  0  0  0  0  0  0  0  0  0  0  0
    5.8113  -11.5056    2.8838 H   0  0  0  0  0  0  0  0  0  0  0  0
    5.7194  -10.5056    1.4313 H   0  0  0  0  0  0  0  0  0  0  0  0
    4.3713  -10.5884    2.5750 H   0  0  0  0  0  0  0  0  0  0  0  0
    7.8094  -10.6936    3.2104 H   0  0  0  0  0  0  0  0  0  0  0  0
    8.0215   -9.3660    4.2908 H   0  0  0  0  0  0  0  0  0  0  0  0
    8.0902   -9.0645    2.5577 H   0  0  0  0  0  0  0  0  0  0  0  0
    4.3776   -9.4275    4.6452 H   0  0  0  0  0  0  0  0  0  0  0  0
    5.7788  -10.2719    5.2173 H   0  0  0  0  0  0  0  0  0  0  0  0
    5.2775   -8.1724    6.4673 H   0  0  0  0  0  0  0  0  0  0  0  0
    6.8847   -8.1988    5.8459 H   0  0  0  0  0  0  0  0  0  0  0  0
    4.4651   -6.7541    4.7891 H   0  0  0  0  0  0  0  0  0  0  0  0
    5.8645   -5.9764    5.4380 H   0  0  0  0  0  0  0  0  0  0  0  0
    7.9661   -5.6018    4.0110 H   0  0  0  0  0  0  0  0  0  0  0  0
    8.2579   -6.7611    2.7031 H   0  0  0  0  0  0  0  0  0  0  0  0
    8.0673   -7.2714    4.3536 H   0  0  0  0  0  0  0  0  0  0  0  0
    5.7549   -4.6233    3.4645 H   0  0  0  0  0  0  0  0  0  0  0  0
    7.6876   -4.6504    2.0866 H   0  0  0  0  0  0  0  0  0  0  0  0
    6.3971   -5.6641   -0.0876 H   0  0  0  0  0  0  0  0  0  0  0  0
    7.3026   -2.6901    1.6815 H   0  0  0  0  0  0  0  0  0  0  0  0
    7.3551   -3.5726   -0.8797 H   0  0  0  0  0  0  0  0  0  0  0  0
  1  2  1  0
  1 33  1  0
  1 34  1  0
  1 35  1  0
  2 12  1  0
  2  3  1  0
  2 36  1  1
  3  4  1  0
  3 37  1  0
  3 38  1  0
  4  5  1  0
  4 39  1  0
  4 40  1  0
  5 12  1  0
  5  6  1  1
  5  7  1  0
  6 41  1  0
  6 42  1  0
  6 43  1  0
  7 31  1  0
  7  8  1  0
  7 44  1  1
  8  9  2  0
  8 45  1  0
  9 10  1  0
  9 14  1  0
 10 11  2  0
 10 12  1  0
 12 13  1  6
 13 46  1  0
 13 47  1  0
 13 48  1  0
 14 28  1  0
 14 15  1  1
 14 16  1  0
 15 49  1  0
 15 50  1  0
 15 51  1  0
 16 17  1  0
 16 18  1  0
 16 52  1  6
 17 53  1  0
 18 19  1  0
 18 54  1  0
 18 55  1  0
 19 26  1  0
 19 20  1  0
 19 56  1  6
 20 21  1  0
 20 22  1  0
 20 23  1  0
 21 57  1  0
 21 58  1  0
 21 59  1  0
 22 60  1  0
 22 61  1  0
 22 62  1  0
 23 24  1  0
 23 63  1  0
 23 64  1  0
 24 25  1  0
 24 65  1  0
 24 66  1  0
 25 26  1  0
 25 67  1  0
 25 68  1  0
 26 27  1  1
 26 28  1  0
 27 69  1  0
 27 70  1  0
 27 71  1  0
 28 29  1  0
 28 72  1  1
 29 30  1  0
 29 31  1  0
 29 73  1  1
 30 74  1  0
 31 32  1  0
 31 75  1  1
 32 76  1  0
M  END
>  <i_m_ct_stereo_status>  (385) 
1

>  <s_m_source_file>  (385) 
/var/tmp/pbs.5076255.sched01/tmpfn0mpy04/132vsilkqhl.sdf

>  <i_m_source_file_index>  (385) 
37

>  <i_lp_mmshare_version>  (385) 
48012

>  <i_f3d_flags>  (385) 
1

>  <s_epik_input>  (385) 
W0NIMl0xW0NIMl1bQ0BASF0oW0NIM10pW0NAXTIoW0NIM10pQyg9TylDKD1bQ0hdW0NAQEhdM1tDQEBdMTJbQ0gzXSlbQ0BdNChbQ0gzXSlbQ0BIXShbQ0BASF0oW09IXSlbQ0BIXTNbT0hdKVtDQF01KFtDSDNdKVtDQEhdKFtDSDJdW0NAQEhdNFtPSF0pQyhbQ0gzXSkoW0NIM10pW0NIMl1bQ0gyXVtDSDJdNQ==

>  <s_epik_cmdline>  (385) 
J2VwaWtfcHl0aG9uJywgJy1waHQnLCAnMi4wJywgJy1waCcsICc3LjAnLCAnLXRuJywgJzgnLCAnLW1hJywgJzIwMCcsICctaW1hZScsICc8aW5maWxlLm1hZT4nLCAnLW9tYWUnLCAnPG91dGZpbGUubWFlPic=

>  <r_lp_tautomer_probability>  (385) 
1

>  <r_epik_Ionization_Penalty>  (385) 
5.24342e-07

>  <r_epik_Ionization_Penalty_Charging>  (385) 
0

>  <r_epik_Ionization_Penalty_Neutral>  (385) 
5.24342e-07

>  <r_epik_State_Penalty>  (385) 
-0

>  <r_epik_Charging_Adjusted_Penalty>  (385) 
0

>  <i_epik_Tot_Q>  (385) 
0

>  <i_epik_Tot_abs_Q>  (385) 
0

>  <s_lp_Force_Field>  (385) 
OPLS3e

>  <r_lp_Energy>  (385) 
150.442

>  <b_lp_Chiralities_Consistent>  (385) 
1

>  <s_lp_Variant>  (385) 
104:0-1

>  <s_i_glide_gridfile>  (385) 
pfpi4k_grid

>  <i_i_glide_lignum>  (385) 
37

>  <i_i_glide_rotatable_bonds>  (385) 
3

>  <r_i_docking_score>  (385) 
-2.29012

>  <r_i_glide_ligand_efficiency>  (385) 
-0.0715662

>  <r_i_glide_ligand_efficiency_sa>  (385) 
-0.227209

>  <r_i_glide_ligand_efficiency_ln>  (385) 
-0.51282

>  <r_i_glide_gscore>  (385) 
-2.29012

>  <r_i_glide_lipo>  (385) 
-0.559029

>  <r_i_glide_hbond>  (385) 
0

>  <r_i_glide_metal>  (385) 
-0

>  <r_i_glide_rewards>  (385) 
-0.37741

>  <r_i_glide_evdw>  (385) 
-26.0864

>  <r_i_glide_ecoul>  (385) 
-0.243088

>  <r_i_glide_erotb>  (385) 
0

>  <r_i_glide_esite>  (385) 
-0.0128987

>  <r_i_glide_emodel>  (385) 
-29.0992

>  <r_i_glide_energy>  (385) 
-26.3295

>  <r_i_glide_einternal>  (385) 
0.0862037

>  <r_i_glide_intrahb_reward>  (385) 
-0

>  <i_i_glide_confnum>  (385) 
1

>  <i_i_glide_posenum>  (385) 
1

>  <r_i_glide_eff_state_penalty>  (385) 
0

>  <ligand_id>  (385) 
104

>  <original_smiles>  (385) 
CC1CCC2(C)C3C=C(C(=O)C12C)C1(C)C(O)CC2C(C)(C)CCCC2(C)C1C(O)C3O

>  <smiles>  (385) 
[H]OC1([H])C([H])(O[H])C2([H])C(C([H])([H])[H])(C3=C([H])C1([H])C1(C([H])([H])[H])C([H])([H])C([H])([H])C([H])(C([H])([H])[H])C1(C([H])([H])[H])C3=O)C([H])(O[H])C([H])([H])C1([H])C(C([H])([H])[H])(C([H])([H])[H])C([H])([H])C([H])([H])C([H])([H])C21C([H])([H])[H]

$$$$
105:0:0
     RDKit          3D

 48 53  0  0  1  0  0  0  0  0999 V2000
    2.0906   -6.7980    5.0226 C   0  0  0  0  0  0  0  0  0  0  0  0
    3.1366   -6.3038    4.1996 O   0  0  0  0  0  0  0  0  0  0  0  0
    3.0832   -4.9962    3.7784 C   0  0  0  0  0  0  0  0  0  0  0  0
    2.0265   -4.0942    4.0945 C   0  0  0  0  0  0  0  0  0  0  0  0
    1.8972   -2.8903    3.3586 C   0  0  0  0  0  0  0  0  0  0  0  0
    2.9268   -2.4812    2.4802 C   0  0  0  0  0  0  0  0  0  0  0  0
    4.1710   -3.2050    2.6601 C   0  0  0  0  0  0  0  0  0  0  0  0
    4.0921   -4.5712    2.8893 C   0  0  0  0  0  0  0  0  0  0  0  0
    4.2285   -5.1758    1.6575 O   0  0  0  0  0  0  0  0  0  0  0  0
    4.1229   -4.0218    0.7590 C   0  0  2  0  0  0  0  0  0  0  0  0
    4.1183   -3.8426   -0.8972 C   0  0  1  0  0  0  0  0  0  0  0  0
    5.3480   -4.0633   -0.4220 C   0  0  0  0  0  0  0  0  0  0  0  0
    6.3348   -4.7961    0.1476 C   0  0  0  0  0  0  0  0  0  0  0  0
    6.7583   -3.5931    0.9350 C   0  0  1  0  0  0  0  0  0  0  0  0
    7.5002   -2.9024   -0.3222 N   0  0  0  0  0  0  0  0  0  0  0  0
    6.9348   -3.0545   -1.8373 C   0  0  0  0  0  0  0  0  0  0  0  0
    5.3192   -3.6612   -2.1801 C   0  0  0  0  0  0  0  0  0  0  0  0
    4.9985   -3.8252   -3.3543 O   0  0  0  0  0  0  0  0  0  0  0  0
    5.2064   -2.9309    1.6131 C   0  0  2  0  0  0  0  0  0  0  0  0
    5.3277   -1.3588    1.4422 C   0  0  0  0  0  0  0  0  0  0  0  0
    5.1829   -0.6861    0.0425 C   0  0  0  0  0  0  0  0  0  0  0  0
    3.9991   -1.0739   -0.7858 N   0  0  1  0  0  0  0  0  0  0  0  0
    4.0847   -0.6508   -2.2100 C   0  0  0  0  0  0  0  0  0  0  0  0
    3.3255   -2.3764   -0.4807 C   0  0  2  0  0  0  0  0  0  0  0  0
    2.5685   -1.9820    0.9728 C   0  0  0  0  0  0  0  0  0  0  0  0
    2.3017   -7.8412    5.2568 H   0  0  0  0  0  0  0  0  0  0  0  0
    1.1265   -6.7671    4.5118 H   0  0  0  0  0  0  0  0  0  0  0  0
    2.0204   -6.2577    5.9689 H   0  0  0  0  0  0  0  0  0  0  0  0
    1.2081   -4.3849    4.7270 H   0  0  0  0  0  0  0  0  0  0  0  0
    0.9293   -2.4073    3.3259 H   0  0  0  0  0  0  0  0  0  0  0  0
    3.0367   -4.1916    0.8506 H   0  0  0  0  0  0  0  0  0  0  0  0
    5.3749   -2.9171   -0.3763 H   0  0  0  0  0  0  0  0  0  0  0  0
    6.3265   -5.8396    0.4325 H   0  0  0  0  0  0  0  0  0  0  0  0
    7.4903   -3.8540    1.6980 H   0  0  0  0  0  0  0  0  0  0  0  0
    8.4645   -3.2048   -0.3375 H   0  0  0  0  0  0  0  0  0  0  0  0
    7.0052   -2.0776   -2.3014 H   0  0  0  0  0  0  0  0  0  0  0  0
    7.6260   -3.6960   -2.3829 H   0  0  0  0  0  0  0  0  0  0  0  0
    4.7187   -0.8037    2.1598 H   0  0  0  0  0  0  0  0  0  0  0  0
    6.3381   -1.1112    1.7732 H   0  0  0  0  0  0  0  0  0  0  0  0
    5.1213    0.3791    0.2313 H   0  0  0  0  0  0  0  0  0  0  0  0
    6.0901   -0.8230   -0.5376 H   0  0  0  0  0  0  0  0  0  0  0  0
    4.9298   -1.0829   -2.7436 H   0  0  0  0  0  0  0  0  0  0  0  0
    4.2246    0.4289   -2.2780 H   0  0  0  0  0  0  0  0  0  0  0  0
    3.1606   -0.8594   -2.7526 H   0  0  0  0  0  0  0  0  0  0  0  0
    2.5166   -2.3970   -1.2023 H   0  0  0  0  0  0  0  0  0  0  0  0
    1.5532   -2.3412    0.8515 H   0  0  0  0  0  0  0  0  0  0  0  0
    2.4066   -0.9054    1.0210 H   0  0  0  0  0  0  0  0  0  0  0  0
    3.2790   -0.4532   -0.4352 H   0  0  0  0  0  0  0  0  0  0  0  0
  1  2  1  0
  1 26  1  0
  1 27  1  0
  1 28  1  0
  2  3  1  0
  3  8  2  0
  3  4  1  0
  4  5  2  0
  4 29  1  0
  5  6  1  0
  5 30  1  0
  6 25  1  0
  6  7  2  0
  7 19  1  0
  7  8  1  0
  8  9  1  0
  9 10  1  0
 10 19  1  0
 10 11  1  0
 10 31  1  1
 11 17  1  1
 11 24  1  0
 11 12  1  0
 12 13  2  0
 12 32  1  0
 13 14  1  0
 13 33  1  0
 14 15  1  0
 14 19  1  0
 14 34  1  1
 15 16  1  0
 15 35  1  0
 16 17  1  0
 16 36  1  0
 16 37  1  0
 17 18  2  0
 19 20  1  6
 20 21  1  0
 20 38  1  0
 20 39  1  0
 21 22  1  0
 21 40  1  0
 21 41  1  0
 22 23  1  0
 22 24  1  0
 22 48  1  1
 23 42  1  0
 23 43  1  0
 23 44  1  0
 24 25  1  0
 24 45  1  6
 25 46  1  0
 25 47  1  0
M  CHG  1  22   1
M  END
>  <i_m_ct_stereo_status>  (386) 
1

>  <s_m_source_file>  (386) 
/var/tmp/pbs.5076255.sched01/tmpfn0mpy04/132vsilkqhl.sdf

>  <i_m_source_file_index>  (386) 
38

>  <i_lp_mmshare_version>  (386) 
48012

>  <i_f3d_flags>  (386) 
1

>  <s_epik_input>  (386) 
W0NIM11PYyhjMU8yKVtjSF1bY0hdYyhbQ0gyXVtDQEhdM04oW0NIM10pW0NIMl1bQ0gyXTQpYzFbQ0BdNChbQ0BIXTJDMzU2KVtDQEBIXShbQ0hdPVtDSF01KVtOSF1bQ0gyXUM2PU8=

>  <s_epik_cmdline>  (386) 
J2VwaWtfcHl0aG9uJywgJy1waHQnLCAnMi4wJywgJy1waCcsICc3LjAnLCAnLXRuJywgJzgnLCAnLW1hJywgJzIwMCcsICctaW1hZScsICc8aW5maWxlLm1hZT4nLCAnLW9tYWUnLCAnPG91dGZpbGUubWFlPic=

>  <r_lp_tautomer_probability>  (386) 
1

>  <r_epik_Ionization_Penalty>  (386) 
0.243596

>  <r_epik_Ionization_Penalty_Charging>  (386) 
0.239845

>  <r_epik_Ionization_Penalty_Neutral>  (386) 
0.00375051

>  <r_epik_State_Penalty>  (386) 
0.302469

>  <r_epik_Charging_Adjusted_Penalty>  (386) 
0.542314

>  <i_epik_Tot_Q>  (386) 
1

>  <i_epik_Tot_abs_Q>  (386) 
1

>  <s_lp_Force_Field>  (386) 
OPLS3e

>  <r_lp_Energy>  (386) 
746.562

>  <b_lp_Chiralities_Consistent>  (386) 
1

>  <s_lp_Variant>  (386) 
105:0-1

>  <s_i_glide_gridfile>  (386) 
pfpi4k_grid

>  <i_i_glide_lignum>  (386) 
38

>  <i_i_glide_rotatable_bonds>  (386) 
1

>  <r_i_docking_score>  (386) 
-3.52397

>  <r_i_glide_ligand_efficiency>  (386) 
-0.140959

>  <r_i_glide_ligand_efficiency_sa>  (386) 
-0.412166

>  <r_i_glide_ligand_efficiency_ln>  (386) 
-0.835286

>  <r_i_glide_gscore>  (386) 
-3.52397

>  <r_i_glide_lipo>  (386) 
-0.504035

>  <r_i_glide_hbond>  (386) 
0

>  <r_i_glide_metal>  (386) 
-0

>  <r_i_glide_rewards>  (386) 
-1.21814

>  <r_i_glide_evdw>  (386) 
-20.0491

>  <r_i_glide_ecoul>  (386) 
-5.00202

>  <r_i_glide_erotb>  (386) 
0

>  <r_i_glide_esite>  (386) 
-0.0490351

>  <r_i_glide_emodel>  (386) 
-30.4015

>  <r_i_glide_energy>  (386) 
-25.0511

>  <r_i_glide_einternal>  (386) 
0.000480839

>  <r_i_glide_intrahb_reward>  (386) 
-0

>  <i_i_glide_confnum>  (386) 
1

>  <i_i_glide_posenum>  (386) 
39

>  <r_i_glide_eff_state_penalty>  (386) 
0

>  <ligand_id>  (386) 
105

>  <original_smiles>  (386) 
COc1ccc2c3c1OC1C45C=CC(NCC4=O)C31CCN(C)C5C2

>  <smiles>  (386) 
[H]C1=C([H])C23C(=O)C([H])([H])N([H])C1([H])C14c5c(c(OC([H])([H])[H])c([H])c([H])c5C([H])([H])C2([H])[N+]([H])(C([H])([H])[H])C([H])([H])C1([H])[H])OC34[H]

$$$$
105:0:1
     RDKit          3D

 48 53  0  0  1  0  0  0  0  0999 V2000
    0.9869   -8.4215    3.1916 C   0  0  0  0  0  0  0  0  0  0  0  0
    1.2645   -7.1734    2.5723 O   0  0  0  0  0  0  0  0  0  0  0  0
    2.3832   -7.0709    1.7772 C   0  0  0  0  0  0  0  0  0  0  0  0
    3.3225   -8.1260    1.5744 C   0  0  0  0  0  0  0  0  0  0  0  0
    4.5888   -7.8287    1.0113 C   0  0  0  0  0  0  0  0  0  0  0  0
    4.8403   -6.5489    0.4718 C   0  0  0  0  0  0  0  0  0  0  0  0
    3.6433   -5.7614    0.2505 C   0  0  0  0  0  0  0  0  0  0  0  0
    2.6552   -5.8043    1.2223 C   0  0  0  0  0  0  0  0  0  0  0  0
    2.8859   -4.7174    2.0331 O   0  0  0  0  0  0  0  0  0  0  0  0
    4.2032   -4.2771    1.5527 C   0  0  2  0  0  0  0  0  0  0  0  0
    5.2707   -3.0867    2.0118 C   0  0  1  0  0  0  0  0  0  0  0  0
    4.2380   -2.5945    1.3290 C   0  0  0  0  0  0  0  0  0  0  0  0
    2.9343   -2.2568    1.1353 C   0  0  0  0  0  0  0  0  0  0  0  0
    3.0474   -2.7335   -0.2848 C   0  0  1  0  0  0  0  0  0  0  0  0
    3.8298   -1.4086   -0.7699 N   0  0  0  0  0  0  0  0  0  0  0  0
    4.8878   -0.6411    0.1952 C   0  0  0  0  0  0  0  0  0  0  0  0
    5.4879   -1.3695    1.6859 C   0  0  0  0  0  0  0  0  0  0  0  0
    6.1471   -0.6850    2.4654 O   0  0  0  0  0  0  0  0  0  0  0  0
    3.8754   -4.3440   -0.1726 C   0  0  2  0  0  0  0  0  0  0  0  0
    4.9168   -4.3397   -1.3644 C   0  0  0  0  0  0  0  0  0  0  0  0
    6.2269   -3.4854   -1.3041 C   0  0  0  0  0  0  0  0  0  0  0  0
    7.0539   -3.6179   -0.0666 N   0  0  1  0  0  0  0  0  0  0  0  0
    8.1113   -2.5843    0.0519 C   0  0  0  0  0  0  0  0  0  0  0  0
    6.3903   -4.1134    1.1917 C   0  0  2  0  0  0  0  0  0  0  0  0
    6.2054   -5.7435    0.8263 C   0  0  0  0  0  0  0  0  0  0  0  0
    0.0791   -8.3156    3.7857 H   0  0  0  0  0  0  0  0  0  0  0  0
    1.7846   -8.7285    3.8718 H   0  0  0  0  0  0  0  0  0  0  0  0
    0.8099   -9.2103    2.4570 H   0  0  0  0  0  0  0  0  0  0  0  0
    3.1902   -9.0989    2.0091 H   0  0  0  0  0  0  0  0  0  0  0  0
    5.4047   -8.5205    1.1773 H   0  0  0  0  0  0  0  0  0  0  0  0
    4.5950   -5.0347    2.2521 H   0  0  0  0  0  0  0  0  0  0  0  0
    4.9397   -2.7638    0.4361 H   0  0  0  0  0  0  0  0  0  0  0  0
    2.1034   -2.3301    1.8223 H   0  0  0  0  0  0  0  0  0  0  0  0
    2.0877   -2.8032   -0.7922 H   0  0  0  0  0  0  0  0  0  0  0  0
    3.1174   -0.7411   -1.0508 H   0  0  0  0  0  0  0  0  0  0  0  0
    5.7508   -0.3836   -0.4155 H   0  0  0  0  0  0  0  0  0  0  0  0
    4.4432    0.3112    0.4887 H   0  0  0  0  0  0  0  0  0  0  0  0
    5.1334   -5.3509   -1.6978 H   0  0  0  0  0  0  0  0  0  0  0  0
    4.3730   -3.9491   -2.2245 H   0  0  0  0  0  0  0  0  0  0  0  0
    6.8524   -3.7563   -2.1544 H   0  0  0  0  0  0  0  0  0  0  0  0
    6.0055   -2.4360   -1.4801 H   0  0  0  0  0  0  0  0  0  0  0  0
    7.7130   -1.5700    0.1232 H   0  0  0  0  0  0  0  0  0  0  0  0
    8.7510   -2.6214   -0.8347 H   0  0  0  0  0  0  0  0  0  0  0  0
    8.7726   -2.7656    0.8979 H   0  0  0  0  0  0  0  0  0  0  0  0
    7.2082   -4.1315    1.9030 H   0  0  0  0  0  0  0  0  0  0  0  0
    6.5730   -6.2518    1.7190 H   0  0  0  0  0  0  0  0  0  0  0  0
    6.9423   -6.0345    0.0767 H   0  0  0  0  0  0  0  0  0  0  0  0
    7.6118   -4.4353   -0.2839 H   0  0  0  0  0  0  0  0  0  0  0  0
  1  2  1  0
  1 26  1  0
  1 27  1  0
  1 28  1  0
  2  3  1  0
  3  8  2  0
  3  4  1  0
  4  5  2  0
  4 29  1  0
  5  6  1  0
  5 30  1  0
  6 25  1  0
  6  7  2  0
  7 19  1  0
  7  8  1  0
  8  9  1  0
  9 10  1  0
 10 19  1  0
 10 11  1  0
 10 31  1  6
 11 17  1  6
 11 24  1  0
 11 12  1  0
 12 13  2  0
 12 32  1  0
 13 14  1  0
 13 33  1  0
 14 15  1  0
 14 19  1  0
 14 34  1  6
 15 16  1  0
 15 35  1  0
 16 17  1  0
 16 36  1  0
 16 37  1  0
 17 18  2  0
 19 20  1  6
 20 21  1  0
 20 38  1  0
 20 39  1  0
 21 22  1  0
 21 40  1  0
 21 41  1  0
 22 23  1  0
 22 24  1  0
 22 48  1  6
 23 42  1  0
 23 43  1  0
 23 44  1  0
 24 25  1  0
 24 45  1  1
 25 46  1  0
 25 47  1  0
M  CHG  1  22   1
M  END
>  <i_m_ct_stereo_status>  (387) 
1

>  <s_m_source_file>  (387) 
/var/tmp/pbs.5076255.sched01/tmpfn0mpy04/132vsilkqhl.sdf

>  <i_m_source_file_index>  (387) 
38

>  <i_lp_mmshare_version>  (387) 
48012

>  <i_f3d_flags>  (387) 
1

>  <s_epik_input>  (387) 
W0NIM11PYyhjMU8yKVtjSF1bY0hdYyhbQ0gyXVtDQEhdM04oW0NIM10pW0NIMl1bQ0gyXTQpYzFbQ0BdNChbQ0BIXTJDMzU2KVtDQEBIXShbQ0hdPVtDSF01KVtOSF1bQ0gyXUM2PU8=

>  <s_epik_cmdline>  (387) 
J2VwaWtfcHl0aG9uJywgJy1waHQnLCAnMi4wJywgJy1waCcsICc3LjAnLCAnLXRuJywgJzgnLCAnLW1hJywgJzIwMCcsICctaW1hZScsICc8aW5maWxlLm1hZT4nLCAnLW9tYWUnLCAnPG91dGZpbGUubWFlPic=

>  <r_lp_tautomer_probability>  (387) 
1

>  <r_epik_Ionization_Penalty>  (387) 
0.243596

>  <r_epik_Ionization_Penalty_Charging>  (387) 
0.239845

>  <r_epik_Ionization_Penalty_Neutral>  (387) 
0.00375051

>  <r_epik_State_Penalty>  (387) 
0.302469

>  <r_epik_Charging_Adjusted_Penalty>  (387) 
0.542314

>  <i_epik_Tot_Q>  (387) 
1

>  <i_epik_Tot_abs_Q>  (387) 
1

>  <s_lp_Force_Field>  (387) 
OPLS3e

>  <r_lp_Energy>  (387) 
746.562

>  <b_lp_Chiralities_Consistent>  (387) 
1

>  <s_lp_Variant>  (387) 
105:0-1

>  <s_i_glide_gridfile>  (387) 
pfpi4k_grid

>  <i_i_glide_lignum>  (387) 
38

>  <i_i_glide_rotatable_bonds>  (387) 
1

>  <r_i_docking_score>  (387) 
-3.49763

>  <r_i_glide_ligand_efficiency>  (387) 
-0.139905

>  <r_i_glide_ligand_efficiency_sa>  (387) 
-0.409085

>  <r_i_glide_ligand_efficiency_ln>  (387) 
-0.829043

>  <r_i_glide_gscore>  (387) 
-3.49763

>  <r_i_glide_lipo>  (387) 
-0.765943

>  <r_i_glide_hbond>  (387) 
-0.00503125

>  <r_i_glide_metal>  (387) 
-0

>  <r_i_glide_rewards>  (387) 
-1.27447

>  <r_i_glide_evdw>  (387) 
-22.3176

>  <r_i_glide_ecoul>  (387) 
-2.24201

>  <r_i_glide_erotb>  (387) 
0

>  <r_i_glide_esite>  (387) 
0

>  <r_i_glide_emodel>  (387) 
-29.869

>  <r_i_glide_energy>  (387) 
-24.5596

>  <r_i_glide_einternal>  (387) 
0.00849629

>  <r_i_glide_intrahb_reward>  (387) 
-0

>  <i_i_glide_confnum>  (387) 
1

>  <i_i_glide_posenum>  (387) 
24

>  <r_i_glide_eff_state_penalty>  (387) 
0

>  <ligand_id>  (387) 
105

>  <original_smiles>  (387) 
COc1ccc2c3c1OC1C45C=CC(NCC4=O)C31CCN(C)C5C2

>  <smiles>  (387) 
[H]C1=C([H])C23C(=O)C([H])([H])N([H])C1([H])C14c5c(c(OC([H])([H])[H])c([H])c([H])c5C([H])([H])C2([H])[N+]([H])(C([H])([H])[H])C([H])([H])C1([H])[H])OC34[H]

$$$$
105:0:2
     RDKit          3D

 48 53  0  0  1  0  0  0  0  0999 V2000
    4.4644   -6.8394    4.3564 C   0  0  0  0  0  0  0  0  0  0  0  0
    3.2093   -6.1636    4.3859 O   0  0  0  0  0  0  0  0  0  0  0  0
    3.2085   -4.8933    3.8586 C   0  0  0  0  0  0  0  0  0  0  0  0
    2.1364   -4.0182    4.1572 C   0  0  0  0  0  0  0  0  0  0  0  0
    1.9784   -2.8232    3.4115 C   0  0  0  0  0  0  0  0  0  0  0  0
    2.9884   -2.4123    2.5132 C   0  0  0  0  0  0  0  0  0  0  0  0
    4.2432   -3.1174    2.6814 C   0  0  0  0  0  0  0  0  0  0  0  0
    4.1851   -4.4818    2.9346 C   0  0  0  0  0  0  0  0  0  0  0  0
    4.2823   -5.1113    1.7106 O   0  0  0  0  0  0  0  0  0  0  0  0
    4.1569   -3.9785    0.7977 C   0  0  2  0  0  0  0  0  0  0  0  0
    4.1286   -3.8389   -0.8585 C   0  0  1  0  0  0  0  0  0  0  0  0
    5.3619   -4.0552   -0.3965 C   0  0  0  0  0  0  0  0  0  0  0  0
    6.3604   -4.7798    0.1751 C   0  0  0  0  0  0  0  0  0  0  0  0
    6.7981   -3.5627    0.9354 C   0  0  1  0  0  0  0  0  0  0  0  0
    7.5232   -2.9012   -0.3435 N   0  0  0  0  0  0  0  0  0  0  0  0
    6.9329   -3.0692   -1.8501 C   0  0  0  0  0  0  0  0  0  0  0  0
    5.3137   -3.6816   -2.1611 C   0  0  0  0  0  0  0  0  0  0  0  0
    4.9739   -3.8547   -3.3284 O   0  0  0  0  0  0  0  0  0  0  0  0
    5.2601   -2.8794    1.6175 C   0  0  2  0  0  0  0  0  0  0  0  0
    5.3793   -1.3140    1.4178 C   0  0  0  0  0  0  0  0  0  0  0  0
    5.2114   -0.6724    0.0128 C   0  0  0  0  0  0  0  0  0  0  0  0
    4.0116   -1.0705   -0.7906 N   0  0  1  0  0  0  0  0  0  0  0  0
    4.0771   -0.6670   -2.2236 C   0  0  0  0  0  0  0  0  0  0  0  0
    3.3409   -2.3701   -0.4542 C   0  0  2  0  0  0  0  0  0  0  0  0
    2.6023   -1.9454    1.0021 C   0  0  0  0  0  0  0  0  0  0  0  0
    4.3687   -7.8703    4.7030 H   0  0  0  0  0  0  0  0  0  0  0  0
    5.1639   -6.3161    5.0095 H   0  0  0  0  0  0  0  0  0  0  0  0
    4.9175   -6.8924    3.3651 H   0  0  0  0  0  0  0  0  0  0  0  0
    1.3480   -4.3426    4.8150 H   0  0  0  0  0  0  0  0  0  0  0  0
    1.0080   -2.3444    3.4005 H   0  0  0  0  0  0  0  0  0  0  0  0
    3.0735   -4.1539    0.9150 H   0  0  0  0  0  0  0  0  0  0  0  0
    5.3982   -2.9067   -0.3782 H   0  0  0  0  0  0  0  0  0  0  0  0
    6.3578   -5.8175    0.4742 H   0  0  0  0  0  0  0  0  0  0  0  0
    7.5335   -3.8141    1.6949 H   0  0  0  0  0  0  0  0  0  0  0  0
    8.4877   -3.2027   -0.3743 H   0  0  0  0  0  0  0  0  0  0  0  0
    6.9943   -2.0940   -2.3099 H   0  0  0  0  0  0  0  0  0  0  0  0
    7.6128   -3.7223   -2.4013 H   0  0  0  0  0  0  0  0  0  0  0  0
    4.7858   -0.7448    2.1376 H   0  0  0  0  0  0  0  0  0  0  0  0
    6.3970   -1.0648    1.7280 H   0  0  0  0  0  0  0  0  0  0  0  0
    5.1462    0.3936    0.1852 H   0  0  0  0  0  0  0  0  0  0  0  0
    6.1078   -0.8196   -0.5817 H   0  0  0  0  0  0  0  0  0  0  0  0
    4.9067   -1.1206   -2.7595 H   0  0  0  0  0  0  0  0  0  0  0  0
    4.2373    0.4019   -2.3085 H   0  0  0  0  0  0  0  0  0  0  0  0
    3.1416   -0.8856   -2.7450 H   0  0  0  0  0  0  0  0  0  0  0  0
    2.5225   -2.4019   -1.1610 H   0  0  0  0  0  0  0  0  0  0  0  0
    1.5830   -2.3041    0.8948 H   0  0  0  0  0  0  0  0  0  0  0  0
    2.4438   -0.8681    1.0358 H   0  0  0  0  0  0  0  0  0  0  0  0
    3.2963   -0.4449   -0.4382 H   0  0  0  0  0  0  0  0  0  0  0  0
  1  2  1  0
  1 26  1  0
  1 27  1  0
  1 28  1  0
  2  3  1  0
  3  8  2  0
  3  4  1  0
  4  5  2  0
  4 29  1  0
  5  6  1  0
  5 30  1  0
  6 25  1  0
  6  7  2  0
  7 19  1  0
  7  8  1  0
  8  9  1  0
  9 10  1  0
 10 19  1  0
 10 11  1  0
 10 31  1  1
 11 17  1  1
 11 24  1  0
 11 12  1  0
 12 13  2  0
 12 32  1  0
 13 14  1  0
 13 33  1  0
 14 15  1  0
 14 19  1  0
 14 34  1  1
 15 16  1  0
 15 35  1  0
 16 17  1  0
 16 36  1  0
 16 37  1  0
 17 18  2  0
 19 20  1  6
 20 21  1  0
 20 38  1  0
 20 39  1  0
 21 22  1  0
 21 40  1  0
 21 41  1  0
 22 23  1  0
 22 24  1  0
 22 48  1  1
 23 42  1  0
 23 43  1  0
 23 44  1  0
 24 25  1  0
 24 45  1  6
 25 46  1  0
 25 47  1  0
M  CHG  1  22   1
M  END
>  <i_m_ct_stereo_status>  (388) 
1

>  <s_m_source_file>  (388) 
/var/tmp/pbs.5076255.sched01/tmpfn0mpy04/132vsilkqhl.sdf

>  <i_m_source_file_index>  (388) 
38

>  <i_lp_mmshare_version>  (388) 
48012

>  <i_f3d_flags>  (388) 
1

>  <s_epik_input>  (388) 
W0NIM11PYyhjMU8yKVtjSF1bY0hdYyhbQ0gyXVtDQEhdM04oW0NIM10pW0NIMl1bQ0gyXTQpYzFbQ0BdNChbQ0BIXTJDMzU2KVtDQEBIXShbQ0hdPVtDSF01KVtOSF1bQ0gyXUM2PU8=

>  <s_epik_cmdline>  (388) 
J2VwaWtfcHl0aG9uJywgJy1waHQnLCAnMi4wJywgJy1waCcsICc3LjAnLCAnLXRuJywgJzgnLCAnLW1hJywgJzIwMCcsICctaW1hZScsICc8aW5maWxlLm1hZT4nLCAnLW9tYWUnLCAnPG91dGZpbGUubWFlPic=

>  <r_lp_tautomer_probability>  (388) 
1

>  <r_epik_Ionization_Penalty>  (388) 
0.243596

>  <r_epik_Ionization_Penalty_Charging>  (388) 
0.239845

>  <r_epik_Ionization_Penalty_Neutral>  (388) 
0.00375051

>  <r_epik_State_Penalty>  (388) 
0.302469

>  <r_epik_Charging_Adjusted_Penalty>  (388) 
0.542314

>  <i_epik_Tot_Q>  (388) 
1

>  <i_epik_Tot_abs_Q>  (388) 
1

>  <s_lp_Force_Field>  (388) 
OPLS3e

>  <r_lp_Energy>  (388) 
746.562

>  <b_lp_Chiralities_Consistent>  (388) 
1

>  <s_lp_Variant>  (388) 
105:0-1

>  <s_i_glide_gridfile>  (388) 
pfpi4k_grid

>  <i_i_glide_lignum>  (388) 
38

>  <i_i_glide_rotatable_bonds>  (388) 
1

>  <r_i_docking_score>  (388) 
-3.48819

>  <r_i_glide_ligand_efficiency>  (388) 
-0.139528

>  <r_i_glide_ligand_efficiency_sa>  (388) 
-0.407981

>  <r_i_glide_ligand_efficiency_ln>  (388) 
-0.826805

>  <r_i_glide_gscore>  (388) 
-3.48819

>  <r_i_glide_lipo>  (388) 
-0.503209

>  <r_i_glide_hbond>  (388) 
0

>  <r_i_glide_metal>  (388) 
-0

>  <r_i_glide_rewards>  (388) 
-1.20675

>  <r_i_glide_evdw>  (388) 
-19.962

>  <r_i_glide_ecoul>  (388) 
-4.88069

>  <r_i_glide_erotb>  (388) 
0

>  <r_i_glide_esite>  (388) 
-0.0480253

>  <r_i_glide_emodel>  (388) 
-28.5906

>  <r_i_glide_energy>  (388) 
-24.8427

>  <r_i_glide_einternal>  (388) 
2.85928

>  <r_i_glide_intrahb_reward>  (388) 
-0

>  <i_i_glide_confnum>  (388) 
2

>  <i_i_glide_posenum>  (388) 
7

>  <r_i_glide_eff_state_penalty>  (388) 
0

>  <ligand_id>  (388) 
105

>  <original_smiles>  (388) 
COc1ccc2c3c1OC1C45C=CC(NCC4=O)C31CCN(C)C5C2

>  <smiles>  (388) 
[H]C1=C([H])C23C(=O)C([H])([H])N([H])C1([H])C14c5c(c(OC([H])([H])[H])c([H])c([H])c5C([H])([H])C2([H])[N+]([H])(C([H])([H])[H])C([H])([H])C1([H])[H])OC34[H]

$$$$
105:1:0
     RDKit          3D

 47 52  0  0  1  0  0  0  0  0999 V2000
    1.4780   -8.8413    3.4279 C   0  0  0  0  0  0  0  0  0  0  0  0
    1.6085   -7.5582    2.8348 O   0  0  0  0  0  0  0  0  0  0  0  0
    2.6792   -7.3298    1.9999 C   0  0  0  0  0  0  0  0  0  0  0  0
    3.7262   -8.2673    1.7573 C   0  0  0  0  0  0  0  0  0  0  0  0
    4.9310   -7.8229    1.1570 C   0  0  0  0  0  0  0  0  0  0  0  0
    5.0124   -6.5253    0.6057 C   0  0  0  0  0  0  0  0  0  0  0  0
    3.7232   -5.8823    0.4313 C   0  0  0  0  0  0  0  0  0  0  0  0
    2.7829   -6.0417    1.4381 C   0  0  0  0  0  0  0  0  0  0  0  0
    2.9020   -4.9318    2.2476 O   0  0  0  0  0  0  0  0  0  0  0  0
    4.1535   -4.3534    1.7381 C   0  0  2  0  0  0  0  0  0  0  0  0
    5.0901   -3.0487    2.1828 C   0  0  1  0  0  0  0  0  0  0  0  0
    3.9873   -2.6635    1.5238 C   0  0  0  0  0  0  0  0  0  0  0  0
    2.6597   -2.4726    1.3512 C   0  0  0  0  0  0  0  0  0  0  0  0
    2.7959   -2.9368   -0.0778 C   0  0  1  0  0  0  0  0  0  0  0  0
    3.4373   -1.5477   -0.5892 N   0  0  0  0  0  0  0  0  0  0  0  0
    4.4685   -0.6832    0.3300 C   0  0  0  0  0  0  0  0  0  0  0  0
    5.1620   -1.3189    1.8241 C   0  0  0  0  0  0  0  0  0  0  0  0
    5.7780   -0.5664    2.5742 O   0  0  0  0  0  0  0  0  0  0  0  0
    3.7923   -4.4468    0.0190 C   0  0  2  0  0  0  0  0  0  0  0  0
    4.8071   -4.3222   -1.1897 C   0  0  0  0  0  0  0  0  0  0  0  0
    6.0966   -3.4307   -1.1370 C   0  0  0  0  0  0  0  0  0  0  0  0
    6.8077   -3.2262    0.1433 N   0  0  0  0  0  0  0  0  0  0  0  0
    8.2561   -3.2082   -0.0213 C   0  0  0  0  0  0  0  0  0  0  0  0
    6.2999   -3.9293    1.3430 C   0  0  2  0  0  0  0  0  0  0  0  0
    6.2912   -5.5565    0.8901 C   0  0  0  0  0  0  0  0  0  0  0  0
    0.5830   -8.8386    4.0496 H   0  0  0  0  0  0  0  0  0  0  0  0
    2.3233   -9.0803    4.0768 H   0  0  0  0  0  0  0  0  0  0  0  0
    1.3583   -9.6265    2.6782 H   0  0  0  0  0  0  0  0  0  0  0  0
    3.7235   -9.2475    2.2028 H   0  0  0  0  0  0  0  0  0  0  0  0
    5.8291   -8.4095    1.3023 H   0  0  0  0  0  0  0  0  0  0  0  0
    4.6579   -5.0710    2.4092 H   0  0  0  0  0  0  0  0  0  0  0  0
    4.6754   -2.7710    0.6157 H   0  0  0  0  0  0  0  0  0  0  0  0
    1.8596   -2.6495    2.0566 H   0  0  0  0  0  0  0  0  0  0  0  0
    1.8342   -3.1002   -0.5667 H   0  0  0  0  0  0  0  0  0  0  0  0
    2.6392   -0.9614   -0.8169 H   0  0  0  0  0  0  0  0  0  0  0  0
    5.3024   -0.4128   -0.3163 H   0  0  0  0  0  0  0  0  0  0  0  0
    3.9851    0.2574    0.5945 H   0  0  0  0  0  0  0  0  0  0  0  0
    5.0752   -5.3047   -1.5705 H   0  0  0  0  0  0  0  0  0  0  0  0
    4.2193   -3.9367   -2.0241 H   0  0  0  0  0  0  0  0  0  0  0  0
    6.7896   -3.8101   -1.8905 H   0  0  0  0  0  0  0  0  0  0  0  0
    5.8349   -2.4327   -1.4863 H   0  0  0  0  0  0  0  0  0  0  0  0
    8.7463   -2.8569    0.8858 H   0  0  0  0  0  0  0  0  0  0  0  0
    8.5266   -2.5198   -0.8243 H   0  0  0  0  0  0  0  0  0  0  0  0
    8.6523   -4.1917   -0.2789 H   0  0  0  0  0  0  0  0  0  0  0  0
    7.1202   -3.8672    2.0515 H   0  0  0  0  0  0  0  0  0  0  0  0
    6.7868   -6.0522    1.7257 H   0  0  0  0  0  0  0  0  0  0  0  0
    6.9983   -5.7261    0.0802 H   0  0  0  0  0  0  0  0  0  0  0  0
  1  2  1  0
  1 26  1  0
  1 27  1  0
  1 28  1  0
  2  3  1  0
  3  8  2  0
  3  4  1  0
  4  5  2  0
  4 29  1  0
  5  6  1  0
  5 30  1  0
  6 25  1  0
  6  7  2  0
  7 19  1  0
  7  8  1  0
  8  9  1  0
  9 10  1  0
 10 19  1  0
 10 11  1  0
 10 31  1  6
 11 17  1  6
 11 24  1  0
 11 12  1  0
 12 13  2  0
 12 32  1  0
 13 14  1  0
 13 33  1  0
 14 15  1  0
 14 19  1  0
 14 34  1  6
 15 16  1  0
 15 35  1  0
 16 17  1  0
 16 36  1  0
 16 37  1  0
 17 18  2  0
 19 20  1  6
 20 21  1  0
 20 38  1  0
 20 39  1  0
 21 22  1  0
 21 40  1  0
 21 41  1  0
 22 23  1  0
 22 24  1  0
 23 42  1  0
 23 43  1  0
 23 44  1  0
 24 25  1  0
 24 45  1  1
 25 46  1  0
 25 47  1  0
M  END
>  <i_m_ct_stereo_status>  (389) 
1

>  <s_m_source_file>  (389) 
/var/tmp/pbs.5076255.sched01/tmpfn0mpy04/132vsilkqhl.sdf

>  <i_m_source_file_index>  (389) 
39

>  <i_lp_mmshare_version>  (389) 
48012

>  <i_f3d_flags>  (389) 
1

>  <s_epik_input>  (389) 
W0NIM11PYyhjMU8yKVtjSF1bY0hdYyhbQ0gyXVtDQEhdM04oW0NIM10pW0NIMl1bQ0gyXTQpYzFbQ0BdNChbQ0BIXTJDMzU2KVtDQEBIXShbQ0hdPVtDSF01KVtOSF1bQ0gyXUM2PU8=

>  <s_epik_cmdline>  (389) 
J2VwaWtfcHl0aG9uJywgJy1waHQnLCAnMi4wJywgJy1waCcsICc3LjAnLCAnLXRuJywgJzgnLCAnLW1hJywgJzIwMCcsICctaW1hZScsICc8aW5maWxlLm1hZT4nLCAnLW9tYWUnLCAnPG91dGZpbGUubWFlPic=

>  <r_lp_tautomer_probability>  (389) 
1

>  <r_epik_Ionization_Penalty>  (389) 
0.699589

>  <r_epik_Ionization_Penalty_Charging>  (389) 
0

>  <r_epik_Ionization_Penalty_Neutral>  (389) 
0.699589

>  <r_epik_State_Penalty>  (389) 
0.597913

>  <r_epik_Charging_Adjusted_Penalty>  (389) 
0.597913

>  <i_epik_Tot_Q>  (389) 
0

>  <i_epik_Tot_abs_Q>  (389) 
0

>  <s_lp_Force_Field>  (389) 
OPLS3e

>  <r_lp_Energy>  (389) 
736.81

>  <b_lp_Chiralities_Consistent>  (389) 
1

>  <s_lp_Variant>  (389) 
105:0-2

>  <s_i_glide_gridfile>  (389) 
pfpi4k_grid

>  <i_i_glide_lignum>  (389) 
39

>  <i_i_glide_rotatable_bonds>  (389) 
1

>  <r_i_docking_score>  (389) 
-3.81878

>  <r_i_glide_ligand_efficiency>  (389) 
-0.152751

>  <r_i_glide_ligand_efficiency_sa>  (389) 
-0.446647

>  <r_i_glide_ligand_efficiency_ln>  (389) 
-0.905165

>  <r_i_glide_gscore>  (389) 
-3.81878

>  <r_i_glide_lipo>  (389) 
-0.845286

>  <r_i_glide_hbond>  (389) 
-0.132425

>  <r_i_glide_metal>  (389) 
-0

>  <r_i_glide_rewards>  (389) 
-1.23935

>  <r_i_glide_evdw>  (389) 
-23.1122

>  <r_i_glide_ecoul>  (389) 
-2.97408

>  <r_i_glide_erotb>  (389) 
0

>  <r_i_glide_esite>  (389) 
0

>  <r_i_glide_emodel>  (389) 
-32.4072

>  <r_i_glide_energy>  (389) 
-26.0862

>  <r_i_glide_einternal>  (389) 
0.0252772

>  <r_i_glide_intrahb_reward>  (389) 
-0

>  <i_i_glide_confnum>  (389) 
2

>  <i_i_glide_posenum>  (389) 
22

>  <r_i_glide_eff_state_penalty>  (389) 
0

>  <ligand_id>  (389) 
105

>  <original_smiles>  (389) 
COc1ccc2c3c1OC1C45C=CC(NCC4=O)C31CCN(C)C5C2

>  <smiles>  (389) 
[H]C1=C([H])C23C(=O)C([H])([H])N([H])C1([H])C14c5c(c(OC([H])([H])[H])c([H])c([H])c5C([H])([H])C2([H])N(C([H])([H])[H])C([H])([H])C1([H])[H])OC34[H]

$$$$
105:1:1
     RDKit          3D

 47 52  0  0  1  0  0  0  0  0999 V2000
   -0.1565   -7.8005    2.8551 C   0  0  0  0  0  0  0  0  0  0  0  0
    0.3392   -6.6079    2.2663 O   0  0  0  0  0  0  0  0  0  0  0  0
    1.6044   -6.6428    1.7222 C   0  0  0  0  0  0  0  0  0  0  0  0
    2.4403   -7.7926    1.6800 C   0  0  0  0  0  0  0  0  0  0  0  0
    3.8116   -7.6491    1.3439 C   0  0  0  0  0  0  0  0  0  0  0  0
    4.2982   -6.4185    0.8388 C   0  0  0  0  0  0  0  0  0  0  0  0
    3.2460   -5.5168    0.4168 C   0  0  0  0  0  0  0  0  0  0  0  0
    2.1175   -5.4307    1.2228 C   0  0  0  0  0  0  0  0  0  0  0  0
    2.3064   -4.3592    2.0581 O   0  0  0  0  0  0  0  0  0  0  0  0
    3.7320   -4.0865    1.8256 C   0  0  2  0  0  0  0  0  0  0  0  0
    4.8139   -2.9990    2.4709 C   0  0  1  0  0  0  0  0  0  0  0  0
    3.9923   -2.4048    1.6003 C   0  0  0  0  0  0  0  0  0  0  0  0
    2.8098   -1.9377    1.1511 C   0  0  0  0  0  0  0  0  0  0  0  0
    3.1419   -2.4654   -0.2238 C   0  0  1  0  0  0  0  0  0  0  0  0
    4.1712   -1.2674   -0.5689 N   0  0  0  0  0  0  0  0  0  0  0  0
    5.1246   -0.6096    0.5703 C   0  0  0  0  0  0  0  0  0  0  0  0
    5.3071   -1.3192    2.1700 C   0  0  0  0  0  0  0  0  0  0  0  0
    5.8108   -0.6360    3.0602 O   0  0  0  0  0  0  0  0  0  0  0  0
    3.7343   -4.1493    0.0695 C   0  0  2  0  0  0  0  0  0  0  0  0
    4.9800   -4.2895   -0.8990 C   0  0  0  0  0  0  0  0  0  0  0  0
    6.3868   -3.6838   -0.5521 C   0  0  0  0  0  0  0  0  0  0  0  0
    6.8396   -3.6032    0.8495 N   0  0  0  0  0  0  0  0  0  0  0  0
    8.2448   -3.9658    0.9637 C   0  0  0  0  0  0  0  0  0  0  0  0
    5.9433   -4.1518    1.8892 C   0  0  2  0  0  0  0  0  0  0  0  0
    5.6708   -5.7426    1.4001 C   0  0  0  0  0  0  0  0  0  0  0  0
   -1.1424   -7.5954    3.2721 H   0  0  0  0  0  0  0  0  0  0  0  0
    0.4748   -8.1445    3.6788 H   0  0  0  0  0  0  0  0  0  0  0  0
   -0.2672   -8.6058    2.1238 H   0  0  0  0  0  0  0  0  0  0  0  0
    2.1246   -8.7270    2.0919 H   0  0  0  0  0  0  0  0  0  0  0  0
    4.5054   -8.4145    1.6627 H   0  0  0  0  0  0  0  0  0  0  0  0
    3.9171   -4.8833    2.5739 H   0  0  0  0  0  0  0  0  0  0  0  0
    4.8179   -2.6843    0.8692 H   0  0  0  0  0  0  0  0  0  0  0  0
    1.8624   -1.8893    1.6619 H   0  0  0  0  0  0  0  0  0  0  0  0
    2.2951   -2.4751   -0.9215 H   0  0  0  0  0  0  0  0  0  0  0  0
    3.5984   -0.5233   -0.9473 H   0  0  0  0  0  0  0  0  0  0  0  0
    6.1210   -0.5601    0.1346 H   0  0  0  0  0  0  0  0  0  0  0  0
    4.7964    0.4190    0.7403 H   0  0  0  0  0  0  0  0  0  0  0  0
    5.1140   -5.3217   -1.2253 H   0  0  0  0  0  0  0  0  0  0  0  0
    4.6709   -3.8126   -1.8315 H   0  0  0  0  0  0  0  0  0  0  0  0
    7.1532   -4.2093   -1.1159 H   0  0  0  0  0  0  0  0  0  0  0  0
    6.4240   -2.6664   -0.9360 H   0  0  0  0  0  0  0  0  0  0  0  0
    8.6241   -3.8271    1.9741 H   0  0  0  0  0  0  0  0  0  0  0  0
    8.8215   -3.3318    0.2756 H   0  0  0  0  0  0  0  0  0  0  0  0
    8.4274   -5.0189    0.7318 H   0  0  0  0  0  0  0  0  0  0  0  0
    6.5746   -4.2810    2.7579 H   0  0  0  0  0  0  0  0  0  0  0  0
    5.8300   -6.3069    2.3186 H   0  0  0  0  0  0  0  0  0  0  0  0
    6.4909   -6.0839    0.7644 H   0  0  0  0  0  0  0  0  0  0  0  0
  1  2  1  0
  1 26  1  0
  1 27  1  0
  1 28  1  0
  2  3  1  0
  3  8  2  0
  3  4  1  0
  4  5  2  0
  4 29  1  0
  5  6  1  0
  5 30  1  0
  6 25  1  0
  6  7  2  0
  7 19  1  0
  7  8  1  0
  8  9  1  0
  9 10  1  0
 10 19  1  0
 10 11  1  0
 10 31  1  1
 11 17  1  6
 11 24  1  0
 11 12  1  0
 12 13  2  0
 12 32  1  0
 13 14  1  0
 13 33  1  0
 14 15  1  0
 14 19  1  0
 14 34  1  6
 15 16  1  0
 15 35  1  0
 16 17  1  0
 16 36  1  0
 16 37  1  0
 17 18  2  0
 19 20  1  6
 20 21  1  0
 20 38  1  0
 20 39  1  0
 21 22  1  0
 21 40  1  0
 21 41  1  0
 22 23  1  0
 22 24  1  0
 23 42  1  0
 23 43  1  0
 23 44  1  0
 24 25  1  0
 24 45  1  1
 25 46  1  0
 25 47  1  0
M  END
>  <i_m_ct_stereo_status>  (390) 
1

>  <s_m_source_file>  (390) 
/var/tmp/pbs.5076255.sched01/tmpfn0mpy04/132vsilkqhl.sdf

>  <i_m_source_file_index>  (390) 
39

>  <i_lp_mmshare_version>  (390) 
48012

>  <i_f3d_flags>  (390) 
1

>  <s_epik_input>  (390) 
W0NIM11PYyhjMU8yKVtjSF1bY0hdYyhbQ0gyXVtDQEhdM04oW0NIM10pW0NIMl1bQ0gyXTQpYzFbQ0BdNChbQ0BIXTJDMzU2KVtDQEBIXShbQ0hdPVtDSF01KVtOSF1bQ0gyXUM2PU8=

>  <s_epik_cmdline>  (390) 
J2VwaWtfcHl0aG9uJywgJy1waHQnLCAnMi4wJywgJy1waCcsICc3LjAnLCAnLXRuJywgJzgnLCAnLW1hJywgJzIwMCcsICctaW1hZScsICc8aW5maWxlLm1hZT4nLCAnLW9tYWUnLCAnPG91dGZpbGUubWFlPic=

>  <r_lp_tautomer_probability>  (390) 
1

>  <r_epik_Ionization_Penalty>  (390) 
0.699589

>  <r_epik_Ionization_Penalty_Charging>  (390) 
0

>  <r_epik_Ionization_Penalty_Neutral>  (390) 
0.699589

>  <r_epik_State_Penalty>  (390) 
0.597913

>  <r_epik_Charging_Adjusted_Penalty>  (390) 
0.597913

>  <i_epik_Tot_Q>  (390) 
0

>  <i_epik_Tot_abs_Q>  (390) 
0

>  <s_lp_Force_Field>  (390) 
OPLS3e

>  <r_lp_Energy>  (390) 
736.81

>  <b_lp_Chiralities_Consistent>  (390) 
1

>  <s_lp_Variant>  (390) 
105:0-2

>  <s_i_glide_gridfile>  (390) 
pfpi4k_grid

>  <i_i_glide_lignum>  (390) 
39

>  <i_i_glide_rotatable_bonds>  (390) 
1

>  <r_i_docking_score>  (390) 
-3.32346

>  <r_i_glide_ligand_efficiency>  (390) 
-0.132938

>  <r_i_glide_ligand_efficiency_sa>  (390) 
-0.388714

>  <r_i_glide_ligand_efficiency_ln>  (390) 
-0.78776

>  <r_i_glide_gscore>  (390) 
-3.32346

>  <r_i_glide_lipo>  (390) 
-0.66189

>  <r_i_glide_hbond>  (390) 
-0.0540472

>  <r_i_glide_metal>  (390) 
-0

>  <r_i_glide_rewards>  (390) 
-1.25515

>  <r_i_glide_evdw>  (390) 
-20.9846

>  <r_i_glide_ecoul>  (390) 
-2.02098

>  <r_i_glide_erotb>  (390) 
0

>  <r_i_glide_esite>  (390) 
0

>  <r_i_glide_emodel>  (390) 
-28.4604

>  <r_i_glide_energy>  (390) 
-23.0056

>  <r_i_glide_einternal>  (390) 
0.000686807

>  <r_i_glide_intrahb_reward>  (390) 
-0

>  <i_i_glide_confnum>  (390) 
2

>  <i_i_glide_posenum>  (390) 
36

>  <r_i_glide_eff_state_penalty>  (390) 
0

>  <ligand_id>  (390) 
105

>  <original_smiles>  (390) 
COc1ccc2c3c1OC1C45C=CC(NCC4=O)C31CCN(C)C5C2

>  <smiles>  (390) 
[H]C1=C([H])C23C(=O)C([H])([H])N([H])C1([H])C14c5c(c(OC([H])([H])[H])c([H])c([H])c5C([H])([H])C2([H])N(C([H])([H])[H])C([H])([H])C1([H])[H])OC34[H]

$$$$
105:1:2
     RDKit          3D

 47 52  0  0  1  0  0  0  0  0999 V2000
   -1.3270   -7.8195    2.8700 C   0  0  0  0  0  0  0  0  0  0  0  0
   -0.4989   -6.8473    2.2467 O   0  0  0  0  0  0  0  0  0  0  0  0
    0.8144   -7.1831    1.9918 C   0  0  0  0  0  0  0  0  0  0  0  0
    1.4370   -8.3912    2.4207 C   0  0  0  0  0  0  0  0  0  0  0  0
    2.8522   -8.4940    2.3938 C   0  0  0  0  0  0  0  0  0  0  0  0
    3.6289   -7.5017    1.7546 C   0  0  0  0  0  0  0  0  0  0  0  0
    2.8557   -6.6212    0.9009 C   0  0  0  0  0  0  0  0  0  0  0  0
    1.6136   -6.2082    1.3621 C   0  0  0  0  0  0  0  0  0  0  0  0
    1.8158   -4.9860    1.9646 O   0  0  0  0  0  0  0  0  0  0  0  0
    3.2825   -4.9395    2.0106 C   0  0  2  0  0  0  0  0  0  0  0  0
    4.3844   -3.8555    2.6368 C   0  0  1  0  0  0  0  0  0  0  0  0
    3.8592   -3.4193    1.4845 C   0  0  0  0  0  0  0  0  0  0  0  0
    2.8827   -2.9401    0.6836 C   0  0  0  0  0  0  0  0  0  0  0  0
    3.3759   -3.8319   -0.4274 C   0  0  1  0  0  0  0  0  0  0  0  0
    4.6348   -2.8827   -0.7823 N   0  0  0  0  0  0  0  0  0  0  0  0
    5.4680   -2.0954    0.3698 C   0  0  0  0  0  0  0  0  0  0  0  0
    5.2223   -2.3977    2.0839 C   0  0  0  0  0  0  0  0  0  0  0  0
    5.7026   -1.6101    2.8950 O   0  0  0  0  0  0  0  0  0  0  0  0
    3.6121   -5.4523    0.3597 C   0  0  2  0  0  0  0  0  0  0  0  0
    4.9868   -5.9785   -0.2229 C   0  0  0  0  0  0  0  0  0  0  0  0
    6.3765   -5.4861    0.3073 C   0  0  0  0  0  0  0  0  0  0  0  0
    6.5521   -5.0911    1.7159 N   0  0  0  0  0  0  0  0  0  0  0  0
    7.8394   -5.5335    2.2352 C   0  0  0  0  0  0  0  0  0  0  0  0
    5.3961   -5.2402    2.6219 C   0  0  2  0  0  0  0  0  0  0  0  0
    4.9554   -6.8670    2.4645 C   0  0  0  0  0  0  0  0  0  0  0  0
   -2.3229   -7.3960    2.9929 H   0  0  0  0  0  0  0  0  0  0  0  0
   -0.9691   -8.0905    3.8656 H   0  0  0  0  0  0  0  0  0  0  0  0
   -1.4276   -8.7195    2.2597 H   0  0  0  0  0  0  0  0  0  0  0  0
    0.8916   -9.1482    2.9557 H   0  0  0  0  0  0  0  0  0  0  0  0
    3.3255   -9.2274    3.0340 H   0  0  0  0  0  0  0  0  0  0  0  0
    3.1800   -5.5279    2.9394 H   0  0  0  0  0  0  0  0  0  0  0  0
    4.7521   -3.9723    1.0350 H   0  0  0  0  0  0  0  0  0  0  0  0
    1.8744   -2.6519    0.9458 H   0  0  0  0  0  0  0  0  0  0  0  0
    2.6814   -3.8665   -1.2697 H   0  0  0  0  0  0  0  0  0  0  0  0
    4.3202   -2.1922   -1.4499 H   0  0  0  0  0  0  0  0  0  0  0  0
    6.5223   -2.2797    0.1696 H   0  0  0  0  0  0  0  0  0  0  0  0
    5.3142   -1.0242    0.2355 H   0  0  0  0  0  0  0  0  0  0  0  0
    5.0038   -7.0660   -0.2681 H   0  0  0  0  0  0  0  0  0  0  0  0
    4.9737   -5.7186   -1.2827 H   0  0  0  0  0  0  0  0  0  0  0  0
    7.1177   -6.2527    0.0761 H   0  0  0  0  0  0  0  0  0  0  0  0
    6.6731   -4.6201   -0.2815 H   0  0  0  0  0  0  0  0  0  0  0  0
    8.0417   -5.0849    3.2040 H   0  0  0  0  0  0  0  0  0  0  0  0
    8.6334   -5.2109    1.5586 H   0  0  0  0  0  0  0  0  0  0  0  0
    7.9015   -6.6178    2.3438 H   0  0  0  0  0  0  0  0  0  0  0  0
    5.8358   -5.1833    3.6150 H   0  0  0  0  0  0  0  0  0  0  0  0
    4.8530   -7.1984    3.4985 H   0  0  0  0  0  0  0  0  0  0  0  0
    5.8048   -7.4555    2.1207 H   0  0  0  0  0  0  0  0  0  0  0  0
  1  2  1  0
  1 26  1  0
  1 27  1  0
  1 28  1  0
  2  3  1  0
  3  8  2  0
  3  4  1  0
  4  5  2  0
  4 29  1  0
  5  6  1  0
  5 30  1  0
  6 25  1  0
  6  7  2  0
  7 19  1  0
  7  8  1  0
  8  9  1  0
  9 10  1  0
 10 19  1  0
 10 11  1  0
 10 31  1  1
 11 17  1  6
 11 24  1  0
 11 12  1  0
 12 13  2  0
 12 32  1  0
 13 14  1  0
 13 33  1  0
 14 15  1  0
 14 19  1  0
 14 34  1  6
 15 16  1  0
 15 35  1  0
 16 17  1  0
 16 36  1  0
 16 37  1  0
 17 18  2  0
 19 20  1  1
 20 21  1  0
 20 38  1  0
 20 39  1  0
 21 22  1  0
 21 40  1  0
 21 41  1  0
 22 23  1  0
 22 24  1  0
 23 42  1  0
 23 43  1  0
 23 44  1  0
 24 25  1  0
 24 45  1  1
 25 46  1  0
 25 47  1  0
M  END
>  <i_m_ct_stereo_status>  (391) 
1

>  <s_m_source_file>  (391) 
/var/tmp/pbs.5076255.sched01/tmpfn0mpy04/132vsilkqhl.sdf

>  <i_m_source_file_index>  (391) 
39

>  <i_lp_mmshare_version>  (391) 
48012

>  <i_f3d_flags>  (391) 
1

>  <s_epik_input>  (391) 
W0NIM11PYyhjMU8yKVtjSF1bY0hdYyhbQ0gyXVtDQEhdM04oW0NIM10pW0NIMl1bQ0gyXTQpYzFbQ0BdNChbQ0BIXTJDMzU2KVtDQEBIXShbQ0hdPVtDSF01KVtOSF1bQ0gyXUM2PU8=

>  <s_epik_cmdline>  (391) 
J2VwaWtfcHl0aG9uJywgJy1waHQnLCAnMi4wJywgJy1waCcsICc3LjAnLCAnLXRuJywgJzgnLCAnLW1hJywgJzIwMCcsICctaW1hZScsICc8aW5maWxlLm1hZT4nLCAnLW9tYWUnLCAnPG91dGZpbGUubWFlPic=

>  <r_lp_tautomer_probability>  (391) 
1

>  <r_epik_Ionization_Penalty>  (391) 
0.699589

>  <r_epik_Ionization_Penalty_Charging>  (391) 
0

>  <r_epik_Ionization_Penalty_Neutral>  (391) 
0.699589

>  <r_epik_State_Penalty>  (391) 
0.597913

>  <r_epik_Charging_Adjusted_Penalty>  (391) 
0.597913

>  <i_epik_Tot_Q>  (391) 
0

>  <i_epik_Tot_abs_Q>  (391) 
0

>  <s_lp_Force_Field>  (391) 
OPLS3e

>  <r_lp_Energy>  (391) 
736.81

>  <b_lp_Chiralities_Consistent>  (391) 
1

>  <s_lp_Variant>  (391) 
105:0-2

>  <s_i_glide_gridfile>  (391) 
pfpi4k_grid

>  <i_i_glide_lignum>  (391) 
39

>  <i_i_glide_rotatable_bonds>  (391) 
1

>  <r_i_docking_score>  (391) 
-3.01665

>  <r_i_glide_ligand_efficiency>  (391) 
-0.120666

>  <r_i_glide_ligand_efficiency_sa>  (391) 
-0.352829

>  <r_i_glide_ligand_efficiency_ln>  (391) 
-0.715036

>  <r_i_glide_gscore>  (391) 
-3.01665

>  <r_i_glide_lipo>  (391) 
-0.255436

>  <r_i_glide_hbond>  (391) 
-0.179546

>  <r_i_glide_metal>  (391) 
-0

>  <r_i_glide_rewards>  (391) 
-1.17686

>  <r_i_glide_evdw>  (391) 
-19.7121

>  <r_i_glide_ecoul>  (391) 
-2.7947

>  <r_i_glide_erotb>  (391) 
0

>  <r_i_glide_esite>  (391) 
0

>  <r_i_glide_emodel>  (391) 
-27.4679

>  <r_i_glide_energy>  (391) 
-22.5068

>  <r_i_glide_einternal>  (391) 
0.0526196

>  <r_i_glide_intrahb_reward>  (391) 
-0

>  <i_i_glide_confnum>  (391) 
1

>  <i_i_glide_posenum>  (391) 
1

>  <r_i_glide_eff_state_penalty>  (391) 
0

>  <ligand_id>  (391) 
105

>  <original_smiles>  (391) 
COc1ccc2c3c1OC1C45C=CC(NCC4=O)C31CCN(C)C5C2

>  <smiles>  (391) 
[H]C1=C([H])C23C(=O)C([H])([H])N([H])C1([H])C14c5c(c(OC([H])([H])[H])c([H])c([H])c5C([H])([H])C2([H])N(C([H])([H])[H])C([H])([H])C1([H])[H])OC34[H]

$$$$
105:2:0
     RDKit          3D

 48 53  0  0  1  0  0  0  0  0999 V2000
    3.5274    0.1052   -3.6189 C   0  0  0  0  0  0  0  0  0  0  0  0
    4.1218   -1.1342   -3.9947 O   0  0  0  0  0  0  0  0  0  0  0  0
    4.5886   -1.9142   -2.9512 C   0  0  0  0  0  0  0  0  0  0  0  0
    4.9448   -3.2489   -3.2423 C   0  0  0  0  0  0  0  0  0  0  0  0
    5.0457   -4.1821   -2.1849 C   0  0  0  0  0  0  0  0  0  0  0  0
    5.0314   -3.7610   -0.8366 C   0  0  0  0  0  0  0  0  0  0  0  0
    5.2016   -2.3311   -0.6809 C   0  0  0  0  0  0  0  0  0  0  0  0
    4.5901   -1.4990   -1.6026 C   0  0  0  0  0  0  0  0  0  0  0  0
    3.4152   -1.1135   -1.0234 O   0  0  0  0  0  0  0  0  0  0  0  0
    3.2740   -2.0975    0.0433 C   0  0  2  0  0  0  0  0  0  0  0  0
    2.2736   -2.2938    1.3415 C   0  0  1  0  0  0  0  0  0  0  0  0
    2.7336   -0.9357    1.3050 C   0  0  0  0  0  0  0  0  0  0  0  0
    3.9819   -0.9580    1.8865 C   0  0  0  0  0  0  0  0  0  0  0  0
    4.8995   -0.2401    1.5715 C   0  0  1  0  0  0  0  0  0  0  0  0
    4.1328    0.2346    2.9932 N   0  0  0  0  0  0  0  0  0  0  0  0
    2.6899   -0.3545    3.6970 C   0  0  0  0  0  0  0  0  0  0  0  0
    1.8279   -1.6262    2.8727 C   0  0  0  0  0  0  0  0  0  0  0  0
    0.8551   -2.1098    3.4523 O   0  0  0  0  0  0  0  0  0  0  0  0
    4.9001   -1.8298    0.6970 C   0  0  2  0  0  0  0  0  0  0  0  0
    5.9049   -2.7643    1.5544 C   0  0  0  0  0  0  0  0  0  0  0  0
    5.3664   -3.7906    2.5970 C   0  0  0  0  0  0  0  0  0  0  0  0
    3.9024   -3.9335    2.7085 N   0  0  0  0  0  0  0  0  0  0  0  0
    3.6050   -5.1944    3.3756 C   0  0  0  0  0  0  0  0  0  0  0  0
    3.1544   -3.7497    1.4538 C   0  0  2  0  0  0  0  0  0  0  0  0
    4.0819   -4.5047    0.2582 C   0  0  0  0  0  0  0  0  0  0  0  0
    3.2219    0.7161   -4.4684 H   0  0  0  0  0  0  0  0  0  0  0  0
    4.2109    0.6953   -3.0055 H   0  0  0  0  0  0  0  0  0  0  0  0
    2.6167   -0.0840   -3.0534 H   0  0  0  0  0  0  0  0  0  0  0  0
    4.9403   -3.6172   -4.2581 H   0  0  0  0  0  0  0  0  0  0  0  0
    5.0145   -5.2295   -2.4183 H   0  0  0  0  0  0  0  0  0  0  0  0
    2.8591   -2.8341   -0.6592 H   0  0  0  0  0  0  0  0  0  0  0  0
    2.2989   -0.1755    0.6491 H   0  0  0  0  0  0  0  0  0  0  0  0
    4.2338   -1.7370    2.6418 H   0  0  0  0  0  0  0  0  0  0  0  0
    4.6191    0.5173    0.8431 H   0  0  0  0  0  0  0  0  0  0  0  0
    4.8254    0.1388    3.7210 H   0  0  0  0  0  0  0  0  0  0  0  0
    2.9302   -0.7497    4.6797 H   0  0  0  0  0  0  0  0  0  0  0  0
    1.9881    0.4620    3.8475 H   0  0  0  0  0  0  0  0  0  0  0  0
    6.6404   -3.2785    0.9404 H   0  0  0  0  0  0  0  0  0  0  0  0
    6.5707   -2.0774    2.0781 H   0  0  0  0  0  0  0  0  0  0  0  0
    5.8492   -4.7577    2.4147 H   0  0  0  0  0  0  0  0  0  0  0  0
    5.7140   -3.4679    3.5768 H   0  0  0  0  0  0  0  0  0  0  0  0
    2.5384   -5.2880    3.5820 H   0  0  0  0  0  0  0  0  0  0  0  0
    4.1316   -5.2446    4.3295 H   0  0  0  0  0  0  0  0  0  0  0  0
    3.9158   -6.0534    2.7777 H   0  0  0  0  0  0  0  0  0  0  0  0
    2.3221   -4.4449    1.5500 H   0  0  0  0  0  0  0  0  0  0  0  0
    3.3498   -5.0210   -0.3610 H   0  0  0  0  0  0  0  0  0  0  0  0
    4.6461   -5.3411    0.6617 H   0  0  0  0  0  0  0  0  0  0  0  0
    3.9649    1.2242    2.8702 H   0  0  0  0  0  0  0  0  0  0  0  0
  1  2  1  0
  1 26  1  0
  1 27  1  0
  1 28  1  0
  2  3  1  0
  3  8  2  0
  3  4  1  0
  4  5  2  0
  4 29  1  0
  5  6  1  0
  5 30  1  0
  6 25  1  0
  6  7  2  0
  7 19  1  0
  7  8  1  0
  8  9  1  0
  9 10  1  0
 10 19  1  0
 10 11  1  0
 10 31  1  6
 11 17  1  1
 11 24  1  0
 11 12  1  0
 12 13  2  0
 12 32  1  0
 13 14  1  0
 13 33  1  0
 14 15  1  0
 14 19  1  0
 14 34  1  6
 15 16  1  0
 15 35  1  0
 15 48  1  0
 16 17  1  0
 16 36  1  0
 16 37  1  0
 17 18  2  0
 19 20  1  1
 20 21  1  0
 20 38  1  0
 20 39  1  0
 21 22  1  0
 21 40  1  0
 21 41  1  0
 22 23  1  0
 22 24  1  0
 23 42  1  0
 23 43  1  0
 23 44  1  0
 24 25  1  0
 24 45  1  1
 25 46  1  0
 25 47  1  0
M  CHG  1  15   1
M  END
>  <i_m_ct_stereo_status>  (392) 
1

>  <s_m_source_file>  (392) 
/var/tmp/pbs.5076255.sched01/tmpfn0mpy04/132vsilkqhl.sdf

>  <i_m_source_file_index>  (392) 
40

>  <i_lp_mmshare_version>  (392) 
48012

>  <i_f3d_flags>  (392) 
1

>  <s_epik_input>  (392) 
W0NIM11PYyhjMU8yKVtjSF1bY0hdYyhbQ0gyXVtDQEhdM04oW0NIM10pW0NIMl1bQ0gyXTQpYzFbQ0BdNChbQ0BIXTJDMzU2KVtDQEBIXShbQ0hdPVtDSF01KVtOSF1bQ0gyXUM2PU8=

>  <s_epik_cmdline>  (392) 
J2VwaWtfcHl0aG9uJywgJy1waHQnLCAnMi4wJywgJy1waCcsICc3LjAnLCAnLXRuJywgJzgnLCAnLW1hJywgJzIwMCcsICctaW1hZScsICc8aW5maWxlLm1hZT4nLCAnLW9tYWUnLCAnPG91dGZpbGUubWFlPic=

>  <r_epik_Ionization_Penalty>  (392) 
1.54894

>  <r_epik_Ionization_Penalty_Charging>  (392) 
1.51399

>  <r_epik_Ionization_Penalty_Neutral>  (392) 
0.0349458

>  <r_epik_State_Penalty>  (392) 
2.01832

>  <r_epik_Charging_Adjusted_Penalty>  (392) 
3.53232

>  <i_epik_Tot_Q>  (392) 
1

>  <i_epik_Tot_abs_Q>  (392) 
1

>  <s_lp_Force_Field>  (392) 
OPLS3e

>  <r_lp_Energy>  (392) 
782.871

>  <b_lp_Chiralities_Consistent>  (392) 
1

>  <s_lp_Variant>  (392) 
105:0-3

>  <s_i_glide_gridfile>  (392) 
pfpi4k_grid

>  <i_i_glide_lignum>  (392) 
40

>  <i_i_glide_rotatable_bonds>  (392) 
1

>  <r_i_docking_score>  (392) 
-3.36589

>  <r_i_glide_ligand_efficiency>  (392) 
-0.134636

>  <r_i_glide_ligand_efficiency_sa>  (392) 
-0.393677

>  <r_i_glide_ligand_efficiency_ln>  (392) 
-0.797817

>  <r_i_glide_gscore>  (392) 
-3.36589

>  <r_i_glide_lipo>  (392) 
-0.638163

>  <r_i_glide_hbond>  (392) 
0

>  <r_i_glide_metal>  (392) 
-0

>  <r_i_glide_rewards>  (392) 
-1.09494

>  <r_i_glide_evdw>  (392) 
-23.284

>  <r_i_glide_ecoul>  (392) 
-3.02761

>  <r_i_glide_erotb>  (392) 
0

>  <r_i_glide_esite>  (392) 
-0.0144408

>  <r_i_glide_emodel>  (392) 
-28.9611

>  <r_i_glide_energy>  (392) 
-26.3116

>  <r_i_glide_einternal>  (392) 
4.50501

>  <r_i_glide_intrahb_reward>  (392) 
-0

>  <i_i_glide_confnum>  (392) 
1

>  <i_i_glide_posenum>  (392) 
31

>  <r_i_glide_eff_state_penalty>  (392) 
0

>  <ligand_id>  (392) 
105

>  <original_smiles>  (392) 
COc1ccc2c3c1OC1C45C=CC(NCC4=O)C31CCN(C)C5C2

>  <smiles>  (392) 
[H]C1=C([H])C2([H])C34c5c6c(OC([H])([H])[H])c([H])c([H])c5C([H])([H])C([H])(N(C([H])([H])[H])C([H])([H])C3([H])[H])C1(C(=O)C([H])([H])[N+]2([H])[H])C4([H])O6

$$$$
105:2:1
     RDKit          3D

 48 53  0  0  1  0  0  0  0  0999 V2000
    3.2241    0.1234   -4.7789 C   0  0  0  0  0  0  0  0  0  0  0  0
    3.1551   -0.2512   -3.4094 O   0  0  0  0  0  0  0  0  0  0  0  0
    3.9861   -1.2478   -2.9653 C   0  0  0  0  0  0  0  0  0  0  0  0
    4.2246   -2.4334   -3.7105 C   0  0  0  0  0  0  0  0  0  0  0  0
    4.7701   -3.5652   -3.0605 C   0  0  0  0  0  0  0  0  0  0  0  0
    5.2266   -3.4736   -1.7244 C   0  0  0  0  0  0  0  0  0  0  0  0
    5.4095   -2.1124   -1.2597 C   0  0  0  0  0  0  0  0  0  0  0  0
    4.4564   -1.1725   -1.6324 C   0  0  0  0  0  0  0  0  0  0  0  0
    3.5659   -1.0783   -0.5922 O   0  0  0  0  0  0  0  0  0  0  0  0
    3.9096   -2.2897    0.1609 C   0  0  2  0  0  0  0  0  0  0  0  0
    3.5014   -2.9357    1.6255 C   0  0  1  0  0  0  0  0  0  0  0  0
    3.8973   -1.5656    1.7989 C   0  0  0  0  0  0  0  0  0  0  0  0
    5.2695   -1.5820    1.8513 C   0  0  0  0  0  0  0  0  0  0  0  0
    5.9856   -0.6877    1.4346 C   0  0  1  0  0  0  0  0  0  0  0  0
    5.8108   -0.6801    3.1142 N   0  0  0  0  0  0  0  0  0  0  0  0
    4.7726   -1.6183    4.1041 C   0  0  0  0  0  0  0  0  0  0  0  0
    3.6733   -2.7273    3.3362 C   0  0  0  0  0  0  0  0  0  0  0  0
    2.9882   -3.4473    4.0715 O   0  0  0  0  0  0  0  0  0  0  0  0
    5.6664   -2.0020    0.2129 C   0  0  2  0  0  0  0  0  0  0  0  0
    6.9396   -3.0111    0.3533 C   0  0  0  0  0  0  0  0  0  0  0  0
    6.8638   -4.3224    1.2029 C   0  0  0  0  0  0  0  0  0  0  0  0
    5.5606   -4.6679    1.7981 N   0  0  0  0  0  0  0  0  0  0  0  0
    5.5616   -6.0832    2.1593 C   0  0  0  0  0  0  0  0  0  0  0  0
    4.3840   -4.2600    1.0100 C   0  0  2  0  0  0  0  0  0  0  0  0
    4.7880   -4.5707   -0.6007 C   0  0  0  0  0  0  0  0  0  0  0  0
    2.5532    0.9694   -4.9348 H   0  0  0  0  0  0  0  0  0  0  0  0
    2.9022   -0.6538   -5.4673 H   0  0  0  0  0  0  0  0  0  0  0  0
    4.2251    0.4476   -5.0644 H   0  0  0  0  0  0  0  0  0  0  0  0
    3.7930   -2.5649   -4.6848 H   0  0  0  0  0  0  0  0  0  0  0  0
    4.6203   -4.5388   -3.5105 H   0  0  0  0  0  0  0  0  0  0  0  0
    3.2686   -2.8908   -0.5065 H   0  0  0  0  0  0  0  0  0  0  0  0
    3.2399   -0.7134    1.5916 H   0  0  0  0  0  0  0  0  0  0  0  0
    5.8087   -2.4879    2.2158 H   0  0  0  0  0  0  0  0  0  0  0  0
    5.4434    0.1889    1.0953 H   0  0  0  0  0  0  0  0  0  0  0  0
    6.7358   -0.8765    3.4651 H   0  0  0  0  0  0  0  0  0  0  0  0
    5.3930   -2.2071    4.7824 H   0  0  0  0  0  0  0  0  0  0  0  0
    4.1827   -0.9534    4.7338 H   0  0  0  0  0  0  0  0  0  0  0  0
    7.3859   -3.2750   -0.6033 H   0  0  0  0  0  0  0  0  0  0  0  0
    7.7539   -2.4149    0.7645 H   0  0  0  0  0  0  0  0  0  0  0  0
    7.2455   -5.1491    0.5954 H   0  0  0  0  0  0  0  0  0  0  0  0
    7.5672   -4.2442    2.0303 H   0  0  0  0  0  0  0  0  0  0  0  0
    4.6594   -6.3506    2.7115 H   0  0  0  0  0  0  0  0  0  0  0  0
    6.4162   -6.3091    2.8003 H   0  0  0  0  0  0  0  0  0  0  0  0
    5.6273   -6.7286    1.2806 H   0  0  0  0  0  0  0  0  0  0  0  0
    3.6652   -5.0511    1.2125 H   0  0  0  0  0  0  0  0  0  0  0  0
    3.8710   -4.9913   -1.0084 H   0  0  0  0  0  0  0  0  0  0  0  0
    5.4612   -5.4227   -0.6844 H   0  0  0  0  0  0  0  0  0  0  0  0
    5.6069    0.2737    3.3671 H   0  0  0  0  0  0  0  0  0  0  0  0
  1  2  1  0
  1 26  1  0
  1 27  1  0
  1 28  1  0
  2  3  1  0
  3  8  2  0
  3  4  1  0
  4  5  2  0
  4 29  1  0
  5  6  1  0
  5 30  1  0
  6 25  1  0
  6  7  2  0
  7 19  1  0
  7  8  1  0
  8  9  1  0
  9 10  1  0
 10 19  1  0
 10 11  1  0
 10 31  1  6
 11 17  1  1
 11 24  1  0
 11 12  1  0
 12 13  2  0
 12 32  1  0
 13 14  1  0
 13 33  1  0
 14 15  1  0
 14 19  1  0
 14 34  1  6
 15 16  1  0
 15 35  1  0
 15 48  1  0
 16 17  1  0
 16 36  1  0
 16 37  1  0
 17 18  2  0
 19 20  1  1
 20 21  1  0
 20 38  1  0
 20 39  1  0
 21 22  1  0
 21 40  1  0
 21 41  1  0
 22 23  1  0
 22 24  1  0
 23 42  1  0
 23 43  1  0
 23 44  1  0
 24 25  1  0
 24 45  1  1
 25 46  1  0
 25 47  1  0
M  CHG  1  15   1
M  END
>  <i_m_ct_stereo_status>  (393) 
1

>  <s_m_source_file>  (393) 
/var/tmp/pbs.5076255.sched01/tmpfn0mpy04/132vsilkqhl.sdf

>  <i_m_source_file_index>  (393) 
40

>  <i_lp_mmshare_version>  (393) 
48012

>  <i_f3d_flags>  (393) 
1

>  <s_epik_input>  (393) 
W0NIM11PYyhjMU8yKVtjSF1bY0hdYyhbQ0gyXVtDQEhdM04oW0NIM10pW0NIMl1bQ0gyXTQpYzFbQ0BdNChbQ0BIXTJDMzU2KVtDQEBIXShbQ0hdPVtDSF01KVtOSF1bQ0gyXUM2PU8=

>  <s_epik_cmdline>  (393) 
J2VwaWtfcHl0aG9uJywgJy1waHQnLCAnMi4wJywgJy1waCcsICc3LjAnLCAnLXRuJywgJzgnLCAnLW1hJywgJzIwMCcsICctaW1hZScsICc8aW5maWxlLm1hZT4nLCAnLW9tYWUnLCAnPG91dGZpbGUubWFlPic=

>  <r_epik_Ionization_Penalty>  (393) 
1.54894

>  <r_epik_Ionization_Penalty_Charging>  (393) 
1.51399

>  <r_epik_Ionization_Penalty_Neutral>  (393) 
0.0349458

>  <r_epik_State_Penalty>  (393) 
2.01832

>  <r_epik_Charging_Adjusted_Penalty>  (393) 
3.53232

>  <i_epik_Tot_Q>  (393) 
1

>  <i_epik_Tot_abs_Q>  (393) 
1

>  <s_lp_Force_Field>  (393) 
OPLS3e

>  <r_lp_Energy>  (393) 
782.871

>  <b_lp_Chiralities_Consistent>  (393) 
1

>  <s_lp_Variant>  (393) 
105:0-3

>  <s_i_glide_gridfile>  (393) 
pfpi4k_grid

>  <i_i_glide_lignum>  (393) 
40

>  <i_i_glide_rotatable_bonds>  (393) 
1

>  <r_i_docking_score>  (393) 
-3.32547

>  <r_i_glide_ligand_efficiency>  (393) 
-0.133019

>  <r_i_glide_ligand_efficiency_sa>  (393) 
-0.38895

>  <r_i_glide_ligand_efficiency_ln>  (393) 
-0.788237

>  <r_i_glide_gscore>  (393) 
-3.32547

>  <r_i_glide_lipo>  (393) 
-0.959257

>  <r_i_glide_hbond>  (393) 
0

>  <r_i_glide_metal>  (393) 
-0

>  <r_i_glide_rewards>  (393) 
-1.09498

>  <r_i_glide_evdw>  (393) 
-27.11

>  <r_i_glide_ecoul>  (393) 
0.561749

>  <r_i_glide_erotb>  (393) 
0

>  <r_i_glide_esite>  (393) 
0

>  <r_i_glide_emodel>  (393) 
-30.5345

>  <r_i_glide_energy>  (393) 
-26.5483

>  <r_i_glide_einternal>  (393) 
2.2291

>  <r_i_glide_intrahb_reward>  (393) 
-0

>  <i_i_glide_confnum>  (393) 
1

>  <i_i_glide_posenum>  (393) 
26

>  <r_i_glide_eff_state_penalty>  (393) 
0

>  <ligand_id>  (393) 
105

>  <original_smiles>  (393) 
COc1ccc2c3c1OC1C45C=CC(NCC4=O)C31CCN(C)C5C2

>  <smiles>  (393) 
[H]C1=C([H])C2([H])C34c5c6c(OC([H])([H])[H])c([H])c([H])c5C([H])([H])C([H])(N(C([H])([H])[H])C([H])([H])C3([H])[H])C1(C(=O)C([H])([H])[N+]2([H])[H])C4([H])O6

$$$$
105:2:2
     RDKit          3D

 48 53  0  0  1  0  0  0  0  0999 V2000
    3.5672    0.1565   -4.5023 C   0  0  0  0  0  0  0  0  0  0  0  0
    4.1799    0.1548   -3.2201 O   0  0  0  0  0  0  0  0  0  0  0  0
    4.5320   -1.0483   -2.6529 C   0  0  0  0  0  0  0  0  0  0  0  0
    4.5787   -2.2708   -3.3661 C   0  0  0  0  0  0  0  0  0  0  0  0
    4.6473   -3.4857   -2.6545 C   0  0  0  0  0  0  0  0  0  0  0  0
    4.8511   -3.4878   -1.2592 C   0  0  0  0  0  0  0  0  0  0  0  0
    5.3296   -2.2214   -0.7333 C   0  0  0  0  0  0  0  0  0  0  0  0
    4.7891   -1.0565   -1.2620 C   0  0  0  0  0  0  0  0  0  0  0  0
    3.8086   -0.6648   -0.3865 O   0  0  0  0  0  0  0  0  0  0  0  0
    3.6122   -1.9063    0.3718 C   0  0  2  0  0  0  0  0  0  0  0  0
    2.7590   -2.3637    1.7168 C   0  0  1  0  0  0  0  0  0  0  0  0
    3.4912   -1.1610    2.0001 C   0  0  0  0  0  0  0  0  0  0  0  0
    4.7640   -1.5700    2.3123 C   0  0  0  0  0  0  0  0  0  0  0  0
    5.7759   -0.9371    2.0611 C   0  0  1  0  0  0  0  0  0  0  0  0
    5.2967   -0.8357    3.6792 N   0  0  0  0  0  0  0  0  0  0  0  0
    3.8629   -1.3948    4.4263 C   0  0  0  0  0  0  0  0  0  0  0  0
    2.6549   -2.1652    3.4338 C   0  0  0  0  0  0  0  0  0  0  0  0
    1.6674   -2.6364    4.0009 O   0  0  0  0  0  0  0  0  0  0  0  0
    5.3307   -2.1397    0.7642 C   0  0  2  0  0  0  0  0  0  0  0  0
    6.2030   -3.4668    1.1165 C   0  0  0  0  0  0  0  0  0  0  0  0
    5.5964   -4.6685    1.9102 C   0  0  0  0  0  0  0  0  0  0  0  0
    4.1586   -4.6098    2.2313 N   0  0  0  0  0  0  0  0  0  0  0  0
    3.6859   -5.9541    2.5522 C   0  0  0  0  0  0  0  0  0  0  0  0
    3.3205   -3.9065    1.2432 C   0  0  2  0  0  0  0  0  0  0  0  0
    3.9120   -4.3726   -0.2694 C   0  0  0  0  0  0  0  0  0  0  0  0
    3.3474    1.1868   -4.7804 H   0  0  0  0  0  0  0  0  0  0  0  0
    2.6220   -0.3897   -4.4976 H   0  0  0  0  0  0  0  0  0  0  0  0
    4.2089   -0.2496   -5.2787 H   0  0  0  0  0  0  0  0  0  0  0  0
    4.3696   -2.3190   -4.4201 H   0  0  0  0  0  0  0  0  0  0  0  0
    4.3290   -4.3822   -3.1676 H   0  0  0  0  0  0  0  0  0  0  0  0
    2.9626   -2.3133   -0.4197 H   0  0  0  0  0  0  0  0  0  0  0  0
    3.1596   -0.1636    1.6930 H   0  0  0  0  0  0  0  0  0  0  0  0
    4.9383   -2.5812    2.7435 H   0  0  0  0  0  0  0  0  0  0  0  0
    5.5884    0.0542    1.6560 H   0  0  0  0  0  0  0  0  0  0  0  0
    6.0405   -1.2791    4.2044 H   0  0  0  0  0  0  0  0  0  0  0  0
    4.1435   -2.1141    5.1941 H   0  0  0  0  0  0  0  0  0  0  0  0
    3.3815   -0.5673    4.9457 H   0  0  0  0  0  0  0  0  0  0  0  0
    6.7313   -3.8765    0.2572 H   0  0  0  0  0  0  0  0  0  0  0  0
    7.0585   -3.1154    1.6869 H   0  0  0  0  0  0  0  0  0  0  0  0
    5.8341   -5.5883    1.3689 H   0  0  0  0  0  0  0  0  0  0  0  0
    6.1249   -4.7540    2.8586 H   0  0  0  0  0  0  0  0  0  0  0  0
    2.6568   -5.9343    2.9167 H   0  0  0  0  0  0  0  0  0  0  0  0
    4.3023   -6.3954    3.3389 H   0  0  0  0  0  0  0  0  0  0  0  0
    3.7292   -6.6182    1.6855 H   0  0  0  0  0  0  0  0  0  0  0  0
    2.3791   -4.4495    1.2907 H   0  0  0  0  0  0  0  0  0  0  0  0
    3.0080   -4.5389   -0.8571 H   0  0  0  0  0  0  0  0  0  0  0  0
    4.3305   -5.3790   -0.2387 H   0  0  0  0  0  0  0  0  0  0  0  0
    5.3344    0.1503    3.9073 H   0  0  0  0  0  0  0  0  0  0  0  0
  1  2  1  0
  1 26  1  0
  1 27  1  0
  1 28  1  0
  2  3  1  0
  3  8  2  0
  3  4  1  0
  4  5  2  0
  4 29  1  0
  5  6  1  0
  5 30  1  0
  6 25  1  0
  6  7  2  0
  7 19  1  0
  7  8  1  0
  8  9  1  0
  9 10  1  0
 10 19  1  0
 10 11  1  0
 10 31  1  6
 11 17  1  1
 11 24  1  0
 11 12  1  0
 12 13  2  0
 12 32  1  0
 13 14  1  0
 13 33  1  0
 14 15  1  0
 14 19  1  0
 14 34  1  6
 15 16  1  0
 15 35  1  0
 15 48  1  0
 16 17  1  0
 16 36  1  0
 16 37  1  0
 17 18  2  0
 19 20  1  1
 20 21  1  0
 20 38  1  0
 20 39  1  0
 21 22  1  0
 21 40  1  0
 21 41  1  0
 22 23  1  0
 22 24  1  0
 23 42  1  0
 23 43  1  0
 23 44  1  0
 24 25  1  0
 24 45  1  6
 25 46  1  0
 25 47  1  0
M  CHG  1  15   1
M  END
>  <i_m_ct_stereo_status>  (394) 
1

>  <s_m_source_file>  (394) 
/var/tmp/pbs.5076255.sched01/tmpfn0mpy04/132vsilkqhl.sdf

>  <i_m_source_file_index>  (394) 
40

>  <i_lp_mmshare_version>  (394) 
48012

>  <i_f3d_flags>  (394) 
1

>  <s_epik_input>  (394) 
W0NIM11PYyhjMU8yKVtjSF1bY0hdYyhbQ0gyXVtDQEhdM04oW0NIM10pW0NIMl1bQ0gyXTQpYzFbQ0BdNChbQ0BIXTJDMzU2KVtDQEBIXShbQ0hdPVtDSF01KVtOSF1bQ0gyXUM2PU8=

>  <s_epik_cmdline>  (394) 
J2VwaWtfcHl0aG9uJywgJy1waHQnLCAnMi4wJywgJy1waCcsICc3LjAnLCAnLXRuJywgJzgnLCAnLW1hJywgJzIwMCcsICctaW1hZScsICc8aW5maWxlLm1hZT4nLCAnLW9tYWUnLCAnPG91dGZpbGUubWFlPic=

>  <r_epik_Ionization_Penalty>  (394) 
1.54894

>  <r_epik_Ionization_Penalty_Charging>  (394) 
1.51399

>  <r_epik_Ionization_Penalty_Neutral>  (394) 
0.0349458

>  <r_epik_State_Penalty>  (394) 
2.01832

>  <r_epik_Charging_Adjusted_Penalty>  (394) 
3.53232

>  <i_epik_Tot_Q>  (394) 
1

>  <i_epik_Tot_abs_Q>  (394) 
1

>  <s_lp_Force_Field>  (394) 
OPLS3e

>  <r_lp_Energy>  (394) 
782.871

>  <b_lp_Chiralities_Consistent>  (394) 
1

>  <s_lp_Variant>  (394) 
105:0-3

>  <s_i_glide_gridfile>  (394) 
pfpi4k_grid

>  <i_i_glide_lignum>  (394) 
40

>  <i_i_glide_rotatable_bonds>  (394) 
1

>  <r_i_docking_score>  (394) 
-2.96686

>  <r_i_glide_ligand_efficiency>  (394) 
-0.118674

>  <r_i_glide_ligand_efficiency_sa>  (394) 
-0.347006

>  <r_i_glide_ligand_efficiency_ln>  (394) 
-0.703234

>  <r_i_glide_gscore>  (394) 
-2.96686

>  <r_i_glide_lipo>  (394) 
-0.633101

>  <r_i_glide_hbond>  (394) 
0

>  <r_i_glide_metal>  (394) 
-0

>  <r_i_glide_rewards>  (394) 
-1.09494

>  <r_i_glide_evdw>  (394) 
-24.7752

>  <r_i_glide_ecoul>  (394) 
-0.000355062

>  <r_i_glide_erotb>  (394) 
0

>  <r_i_glide_esite>  (394) 
0

>  <r_i_glide_emodel>  (394) 
-29.09

>  <r_i_glide_energy>  (394) 
-24.7755

>  <r_i_glide_einternal>  (394) 
0.444845

>  <r_i_glide_intrahb_reward>  (394) 
-0

>  <i_i_glide_confnum>  (394) 
1

>  <i_i_glide_posenum>  (394) 
7

>  <r_i_glide_eff_state_penalty>  (394) 
0

>  <ligand_id>  (394) 
105

>  <original_smiles>  (394) 
COc1ccc2c3c1OC1C45C=CC(NCC4=O)C31CCN(C)C5C2

>  <smiles>  (394) 
[H]C1=C([H])C2([H])C34c5c6c(OC([H])([H])[H])c([H])c([H])c5C([H])([H])C([H])(N(C([H])([H])[H])C([H])([H])C3([H])[H])C1(C(=O)C([H])([H])[N+]2([H])[H])C4([H])O6

$$$$
106:0:0
     RDKit          3D

 60 66  0  0  1  0  0  0  0  0999 V2000
    2.9137   -0.5181    0.9384 C   0  0  0  0  0  0  0  0  0  0  0  0
    3.6520   -1.8702    0.6336 C   0  0  0  0  0  0  0  0  0  0  0  0
    2.6345   -2.9383    0.1926 C   0  0  0  0  0  0  0  0  0  0  0  0
    4.4933   -1.5614   -0.6864 C   0  0  0  0  0  0  0  0  0  0  0  0
    5.1417   -2.6770   -1.6118 C   0  0  0  0  0  0  0  0  0  0  0  0
    6.6867   -3.0486   -1.5953 C   0  0  0  0  0  0  0  0  0  0  0  0
    7.2250   -3.4824   -0.1965 C   0  0  1  0  0  0  0  0  0  0  0  0
    6.0883   -4.2565    0.3484 C   0  0  0  0  0  0  0  0  0  0  0  0
    6.1887   -3.9956    1.5621 C   0  0  0  0  0  0  0  0  0  0  0  0
    5.6760   -5.3168    1.4075 C   0  0  1  0  0  0  0  0  0  0  0  0
    4.2512   -5.4405    1.3900 O   0  0  0  0  0  0  0  0  0  0  0  0
    3.4946   -4.7932    2.4034 C   0  0  0  0  0  0  0  0  0  0  0  0
    4.0115   -3.4751    3.0516 C   0  0  1  0  0  0  0  0  0  0  0  0
    2.8294   -3.0282    3.9699 C   0  0  0  0  0  0  0  0  0  0  0  0
    5.0898   -4.0861    4.0924 C   0  0  0  0  0  0  0  0  0  0  0  0
    6.1927   -5.0523    3.8065 O   0  0  0  0  0  0  0  0  0  0  0  0
    6.4296   -5.8408    2.5757 C   0  0  2  0  0  0  0  0  0  0  0  0
    7.9759   -5.8765    2.2003 C   0  0  0  0  0  0  0  0  0  0  0  0
    8.3788   -5.8145    0.6573 C   0  0  0  0  0  0  0  0  0  0  0  0
    8.5024   -4.3789   -0.0441 C   0  0  1  0  0  0  0  0  0  0  0  0
    9.0457   -4.5099   -1.3131 O   0  0  0  0  0  0  0  0  0  0  0  0
    9.3854   -3.6663    0.7569 O   0  0  0  0  0  0  0  0  0  0  0  0
    9.1981   -2.2964    0.5063 C   0  0  0  0  0  0  0  0  0  0  0  0
    7.6946   -2.2083    0.5328 C   0  0  1  0  0  0  0  0  0  0  0  0
    7.0809   -1.0237    0.0838 O   0  0  0  0  0  0  0  0  0  0  0  0
    6.9527   -1.2187    1.4656 C   0  0  1  0  0  0  0  0  0  0  0  0
    5.6072   -1.2060    2.2569 C   0  0  0  0  0  0  0  0  0  0  0  0
    4.3389   -2.1567    2.0532 C   0  0  1  0  0  0  0  0  0  0  0  0
    2.3328   -0.2404    0.0877 H   0  0  0  0  0  0  0  0  0  0  0  0
    3.5631    0.3385    1.1560 H   0  0  0  0  0  0  0  0  0  0  0  0
    2.1318   -0.6135    1.6933 H   0  0  0  0  0  0  0  0  0  0  0  0
    3.0647   -3.9353    0.0380 H   0  0  0  0  0  0  0  0  0  0  0  0
    2.1586   -2.6874   -0.7638 H   0  0  0  0  0  0  0  0  0  0  0  0
    1.8764   -2.9577    0.9596 H   0  0  0  0  0  0  0  0  0  0  0  0
    3.7582   -1.1422   -1.3768 H   0  0  0  0  0  0  0  0  0  0  0  0
    5.0564   -0.6511   -0.5939 H   0  0  0  0  0  0  0  0  0  0  0  0
    4.5611   -3.5990   -1.5442 H   0  0  0  0  0  0  0  0  0  0  0  0
    4.9515   -2.3757   -2.6414 H   0  0  0  0  0  0  0  0  0  0  0  0
    6.8127   -3.8606   -2.2859 H   0  0  0  0  0  0  0  0  0  0  0  0
    7.2865   -2.2282   -1.9958 H   0  0  0  0  0  0  0  0  0  0  0  0
    6.6237   -3.3944    2.3434 H   0  0  0  0  0  0  0  0  0  0  0  0
    2.5010   -4.6845    1.9951 H   0  0  0  0  0  0  0  0  0  0  0  0
    3.3364   -5.5555    3.1677 H   0  0  0  0  0  0  0  0  0  0  0  0
    3.1502   -2.2402    4.6567 H   0  0  0  0  0  0  0  0  0  0  0  0
    2.4484   -3.8484    4.5859 H   0  0  0  0  0  0  0  0  0  0  0  0
    1.9775   -2.6427    3.3956 H   0  0  0  0  0  0  0  0  0  0  0  0
    5.5201   -3.2661    4.6510 H   0  0  0  0  0  0  0  0  0  0  0  0
    4.5182   -4.6396    4.8348 H   0  0  0  0  0  0  0  0  0  0  0  0
    6.0797   -6.8589    2.7368 H   0  0  0  0  0  0  0  0  0  0  0  0
    8.5545   -5.1455    2.7696 H   0  0  0  0  0  0  0  0  0  0  0  0
    8.3570   -6.8331    2.5711 H   0  0  0  0  0  0  0  0  0  0  0  0
    9.3774   -6.2419    0.6003 H   0  0  0  0  0  0  0  0  0  0  0  0
    7.7773   -6.4885    0.0658 H   0  0  0  0  0  0  0  0  0  0  0  0
    9.2056   -3.6458   -1.6635 H   0  0  0  0  0  0  0  0  0  0  0  0
    9.7641   -1.7069    1.2655 H   0  0  0  0  0  0  0  0  0  0  0  0
    9.5361   -1.9838   -0.4494 H   0  0  0  0  0  0  0  0  0  0  0  0
    7.6596   -0.6736    2.0570 H   0  0  0  0  0  0  0  0  0  0  0  0
    5.8613   -1.3213    3.2982 H   0  0  0  0  0  0  0  0  0  0  0  0
    5.2553   -0.1722    2.2267 H   0  0  0  0  0  0  0  0  0  0  0  0
    3.7621   -1.4939    2.6899 H   0  0  0  0  0  0  0  0  0  0  0  0
  1  2  1  0
  1 29  1  0
  1 30  1  0
  1 31  1  0
  2 28  1  0
  2  3  1  0
  2  4  1  0
  3 32  1  0
  3 33  1  0
  3 34  1  0
  4  5  1  0
  4 35  1  0
  4 36  1  0
  5  6  1  0
  5 37  1  0
  5 38  1  0
  7  6  1  6
  6 39  1  0
  6 40  1  0
  7 20  1  0
  7 24  1  0
  7  8  1  0
  8 10  1  0
  8  9  2  0
 10  9  1  1
  9 41  1  0
 10 17  1  0
 10 11  1  0
 11 12  1  0
 12 13  1  0
 12 42  1  0
 12 43  1  0
 13 28  1  0
 13 14  1  1
 13 15  1  0
 14 44  1  0
 14 45  1  0
 14 46  1  0
 15 16  1  0
 15 47  1  0
 15 48  1  0
 16 17  1  0
 17 18  1  0
 17 49  1  1
 18 19  1  0
 18 50  1  0
 18 51  1  0
 19 20  1  0
 19 52  1  0
 19 53  1  0
 20 21  1  6
 20 22  1  0
 21 54  1  0
 22 23  1  0
 23 24  1  0
 23 55  1  0
 23 56  1  0
 24 26  1  0
 24 25  1  6
 25 26  1  0
 26 27  1  0
 26 57  1  1
 27 28  1  0
 27 58  1  0
 27 59  1  0
 28 60  1  1
M  END
>  <i_m_ct_stereo_status>  (395) 
1

>  <s_m_source_file>  (395) 
/var/tmp/pbs.5076255.sched01/tmpfn0mpy04/132vsilkqhl.sdf

>  <i_m_source_file_index>  (395) 
41

>  <i_lp_mmshare_version>  (395) 
48012

>  <i_f3d_flags>  (395) 
0

>  <s_epik_input>  (395) 
W0NIMl0xW0NIMl1bQ0gyXUMoW0NIM10pKFtDSDNdKVtDSF0oW0NIMl1bQ0BIXShPMilbQ0BAXTIzW0NAXTE0NSlbQ0BAXTYoW0NIM10pW0NIMl1PQzcoQzQ9W0NIXTcpW0NASF0oT1tDSDJdNilbQ0gyXVtDSDJdW0NAXTUoW09IXSlPW0NIMl0z

>  <s_epik_cmdline>  (395) 
J2VwaWtfcHl0aG9uJywgJy1waHQnLCAnMi4wJywgJy1waCcsICc3LjAnLCAnLXRuJywgJzgnLCAnLW1hJywgJzIwMCcsICctaW1hZScsICc8aW5maWxlLm1hZT4nLCAnLW9tYWUnLCAnPG91dGZpbGUubWFlPic=

>  <r_lp_tautomer_probability>  (395) 
1

>  <r_epik_Ionization_Penalty>  (395) 
1.39398e-07

>  <r_epik_Ionization_Penalty_Charging>  (395) 
0

>  <r_epik_Ionization_Penalty_Neutral>  (395) 
1.39398e-07

>  <r_epik_State_Penalty>  (395) 
-0

>  <r_epik_Charging_Adjusted_Penalty>  (395) 
0

>  <i_epik_Tot_Q>  (395) 
0

>  <i_epik_Tot_abs_Q>  (395) 
0

>  <s_lp_Force_Field>  (395) 
OPLS3e

>  <r_lp_Energy>  (395) 
255.074

>  <b_lp_Chiralities_Consistent>  (395) 
1

>  <s_lp_Variant>  (395) 
106:0-1

>  <s_i_glide_gridfile>  (395) 
pfpi4k_grid

>  <i_i_glide_lignum>  (395) 
41

>  <i_i_glide_rotatable_bonds>  (395) 
1

>  <r_i_docking_score>  (395) 
-2.52205

>  <r_i_glide_ligand_efficiency>  (395) 
-0.0900732

>  <r_i_glide_ligand_efficiency_sa>  (395) 
-0.273515

>  <r_i_glide_ligand_efficiency_ln>  (395) 
-0.582163

>  <r_i_glide_gscore>  (395) 
-2.52205

>  <r_i_glide_lipo>  (395) 
-0.709108

>  <r_i_glide_hbond>  (395) 
-0.141403

>  <r_i_glide_metal>  (395) 
-0

>  <r_i_glide_rewards>  (395) 
-0.760246

>  <r_i_glide_evdw>  (395) 
-3.03878

>  <r_i_glide_ecoul>  (395) 
-5.02238

>  <r_i_glide_erotb>  (395) 
0

>  <r_i_glide_esite>  (395) 
-0.00599608

>  <r_i_glide_emodel>  (395) 
-7.39484

>  <r_i_glide_energy>  (395) 
-8.06116

>  <r_i_glide_einternal>  (395) 
0.109864

>  <r_i_glide_intrahb_reward>  (395) 
-0

>  <i_i_glide_confnum>  (395) 
1

>  <i_i_glide_posenum>  (395) 
6

>  <r_i_glide_eff_state_penalty>  (395) 
0

>  <ligand_id>  (395) 
106

>  <original_smiles>  (395) 
CC1(C)CCCC23C4=CC45OCC4(C)COC5CCC2(O)OCC32OC2CC14

>  <smiles>  (395) 
[H]OC12OC([H])([H])C34OC3([H])C([H])([H])C3([H])C5(C([H])([H])[H])C([H])([H])OC6(C([H])=C6C14C([H])([H])C([H])([H])C([H])([H])C3(C([H])([H])[H])C([H])([H])[H])C([H])(OC5([H])[H])C([H])([H])C2([H])[H]

$$$$
106:0:1
     RDKit          3D

 60 66  0  0  1  0  0  0  0  0999 V2000
    5.4109   -3.1933    5.2427 C   0  0  0  0  0  0  0  0  0  0  0  0
    4.6790   -2.7662    3.9254 C   0  0  0  0  0  0  0  0  0  0  0  0
    3.3874   -2.1502    4.4825 C   0  0  0  0  0  0  0  0  0  0  0  0
    5.4944   -1.5404    3.3458 C   0  0  0  0  0  0  0  0  0  0  0  0
    5.0212   -0.4189    2.3791 C   0  0  0  0  0  0  0  0  0  0  0  0
    5.4794   -0.4149    0.8573 C   0  0  0  0  0  0  0  0  0  0  0  0
    5.1774   -1.6754   -0.0056 C   0  0  1  0  0  0  0  0  0  0  0  0
    3.9328   -2.0750    0.6553 C   0  0  0  0  0  0  0  0  0  0  0  0
    3.9562   -3.3140    0.5555 C   0  0  0  0  0  0  0  0  0  0  0  0
    2.6142   -2.8346    0.5034 C   0  0  1  0  0  0  0  0  0  0  0  0
    1.9287   -2.7849    1.7415 O   0  0  0  0  0  0  0  0  0  0  0  0
    1.8699   -3.9221    2.5910 C   0  0  0  0  0  0  0  0  0  0  0  0
    3.1078   -4.8465    2.6423 C   0  0  1  0  0  0  0  0  0  0  0  0
    2.7590   -5.8361    3.7907 C   0  0  0  0  0  0  0  0  0  0  0  0
    2.8698   -5.7195    1.3036 C   0  0  0  0  0  0  0  0  0  0  0  0
    2.5503   -5.2275   -0.0653 O   0  0  0  0  0  0  0  0  0  0  0  0
    2.2532   -3.8475   -0.5320 C   0  0  2  0  0  0  0  0  0  0  0  0
    2.9788   -3.4411   -1.8956 C   0  0  0  0  0  0  0  0  0  0  0  0
    3.4675   -1.9723   -2.1340 C   0  0  0  0  0  0  0  0  0  0  0  0
    4.8978   -1.5732   -1.5718 C   0  0  1  0  0  0  0  0  0  0  0  0
    5.1036   -0.2825   -2.0030 O   0  0  0  0  0  0  0  0  0  0  0  0
    5.8196   -2.4473   -2.1518 O   0  0  0  0  0  0  0  0  0  0  0  0
    6.9509   -2.6726   -1.3095 C   0  0  0  0  0  0  0  0  0  0  0  0
    6.3444   -2.7155    0.0533 C   0  0  1  0  0  0  0  0  0  0  0  0
    7.2267   -2.5716    1.1477 O   0  0  0  0  0  0  0  0  0  0  0  0
    6.6835   -3.8754    1.0534 C   0  0  1  0  0  0  0  0  0  0  0  0
    5.9074   -4.5618    2.2611 C   0  0  0  0  0  0  0  0  0  0  0  0
    4.5604   -4.1182    3.0249 C   0  0  1  0  0  0  0  0  0  0  0  0
    5.5531   -2.3689    5.9411 H   0  0  0  0  0  0  0  0  0  0  0  0
    6.4017   -3.5998    5.0701 H   0  0  0  0  0  0  0  0  0  0  0  0
    4.8774   -3.9684    5.7956 H   0  0  0  0  0  0  0  0  0  0  0  0
    2.7675   -1.7305    3.6988 H   0  0  0  0  0  0  0  0  0  0  0  0
    3.6110   -1.3120    5.1426 H   0  0  0  0  0  0  0  0  0  0  0  0
    2.8264   -2.8681    5.0785 H   0  0  0  0  0  0  0  0  0  0  0  0
    5.7616   -0.9679    4.2343 H   0  0  0  0  0  0  0  0  0  0  0  0
    6.4231   -1.8493    2.9704 H   0  0  0  0  0  0  0  0  0  0  0  0
    3.9454   -0.2774    2.4826 H   0  0  0  0  0  0  0  0  0  0  0  0
    5.4307    0.4931    2.8133 H   0  0  0  0  0  0  0  0  0  0  0  0
    4.9462    0.4453    0.4525 H   0  0  0  0  0  0  0  0  0  0  0  0
    6.5380   -0.1729    0.7531 H   0  0  0  0  0  0  0  0  0  0  0  0
    4.5026   -4.2092    0.3049 H   0  0  0  0  0  0  0  0  0  0  0  0
    1.5612   -3.5691    3.5506 H   0  0  0  0  0  0  0  0  0  0  0  0
    1.0336   -4.5399    2.3150 H   0  0  0  0  0  0  0  0  0  0  0  0
    3.4588   -6.6726    3.7995 H   0  0  0  0  0  0  0  0  0  0  0  0
    1.7606   -6.2665    3.6893 H   0  0  0  0  0  0  0  0  0  0  0  0
    2.7902   -5.3482    4.7670 H   0  0  0  0  0  0  0  0  0  0  0  0
    3.6684   -6.4517    1.2063 H   0  0  0  0  0  0  0  0  0  0  0  0
    1.9975   -6.3455    1.4786 H   0  0  0  0  0  0  0  0  0  0  0  0
    1.2103   -3.8249   -0.7551 H   0  0  0  0  0  0  0  0  0  0  0  0
    3.8036   -4.1292   -2.1208 H   0  0  0  0  0  0  0  0  0  0  0  0
    2.2612   -3.6415   -2.6875 H   0  0  0  0  0  0  0  0  0  0  0  0
    3.5965   -1.8741   -3.2123 H   0  0  0  0  0  0  0  0  0  0  0  0
    2.7151   -1.2266   -1.8512 H   0  0  0  0  0  0  0  0  0  0  0  0
    5.0281    0.3172   -1.2881 H   0  0  0  0  0  0  0  0  0  0  0  0
    7.4761   -3.5986   -1.5371 H   0  0  0  0  0  0  0  0  0  0  0  0
    7.6662   -1.8579   -1.3346 H   0  0  0  0  0  0  0  0  0  0  0  0
    7.4032   -4.5710    0.6442 H   0  0  0  0  0  0  0  0  0  0  0  0
    5.7371   -5.5802    1.9039 H   0  0  0  0  0  0  0  0  0  0  0  0
    6.6658   -4.7018    3.0271 H   0  0  0  0  0  0  0  0  0  0  0  0
    4.7726   -4.8322    3.8056 H   0  0  0  0  0  0  0  0  0  0  0  0
  1  2  1  0
  1 29  1  0
  1 30  1  0
  1 31  1  0
  2 28  1  0
  2  3  1  0
  2  4  1  0
  3 32  1  0
  3 33  1  0
  3 34  1  0
  4  5  1  0
  4 35  1  0
  4 36  1  0
  5  6  1  0
  5 37  1  0
  5 38  1  0
  7  6  1  1
  6 39  1  0
  6 40  1  0
  7 20  1  0
  7 24  1  0
  7  8  1  0
  8 10  1  0
  8  9  2  0
 10  9  1  1
  9 41  1  0
 10 17  1  0
 10 11  1  0
 11 12  1  0
 12 13  1  0
 12 42  1  0
 12 43  1  0
 13 28  1  0
 13 14  1  1
 13 15  1  0
 14 44  1  0
 14 45  1  0
 14 46  1  0
 15 16  1  0
 15 47  1  0
 15 48  1  0
 16 17  1  0
 17 18  1  0
 17 49  1  6
 18 19  1  0
 18 50  1  0
 18 51  1  0
 19 20  1  0
 19 52  1  0
 19 53  1  0
 20 21  1  6
 20 22  1  0
 21 54  1  0
 22 23  1  0
 23 24  1  0
 23 55  1  0
 23 56  1  0
 24 26  1  0
 24 25  1  1
 25 26  1  0
 26 27  1  0
 26 57  1  6
 27 28  1  0
 27 58  1  0
 27 59  1  0
 28 60  1  1
M  END
>  <i_m_ct_stereo_status>  (396) 
1

>  <s_m_source_file>  (396) 
/var/tmp/pbs.5076255.sched01/tmpfn0mpy04/132vsilkqhl.sdf

>  <i_m_source_file_index>  (396) 
41

>  <i_lp_mmshare_version>  (396) 
48012

>  <i_f3d_flags>  (396) 
0

>  <s_epik_input>  (396) 
W0NIMl0xW0NIMl1bQ0gyXUMoW0NIM10pKFtDSDNdKVtDSF0oW0NIMl1bQ0BIXShPMilbQ0BAXTIzW0NAXTE0NSlbQ0BAXTYoW0NIM10pW0NIMl1PQzcoQzQ9W0NIXTcpW0NASF0oT1tDSDJdNilbQ0gyXVtDSDJdW0NAXTUoW09IXSlPW0NIMl0z

>  <s_epik_cmdline>  (396) 
J2VwaWtfcHl0aG9uJywgJy1waHQnLCAnMi4wJywgJy1waCcsICc3LjAnLCAnLXRuJywgJzgnLCAnLW1hJywgJzIwMCcsICctaW1hZScsICc8aW5maWxlLm1hZT4nLCAnLW9tYWUnLCAnPG91dGZpbGUubWFlPic=

>  <r_lp_tautomer_probability>  (396) 
1

>  <r_epik_Ionization_Penalty>  (396) 
1.39398e-07

>  <r_epik_Ionization_Penalty_Charging>  (396) 
0

>  <r_epik_Ionization_Penalty_Neutral>  (396) 
1.39398e-07

>  <r_epik_State_Penalty>  (396) 
-0

>  <r_epik_Charging_Adjusted_Penalty>  (396) 
0

>  <i_epik_Tot_Q>  (396) 
0

>  <i_epik_Tot_abs_Q>  (396) 
0

>  <s_lp_Force_Field>  (396) 
OPLS3e

>  <r_lp_Energy>  (396) 
255.074

>  <b_lp_Chiralities_Consistent>  (396) 
1

>  <s_lp_Variant>  (396) 
106:0-1

>  <s_i_glide_gridfile>  (396) 
pfpi4k_grid

>  <i_i_glide_lignum>  (396) 
41

>  <i_i_glide_rotatable_bonds>  (396) 
1

>  <r_i_docking_score>  (396) 
-2.16081

>  <r_i_glide_ligand_efficiency>  (396) 
-0.0771717

>  <r_i_glide_ligand_efficiency_sa>  (396) 
-0.234339

>  <r_i_glide_ligand_efficiency_ln>  (396) 
-0.498778

>  <r_i_glide_gscore>  (396) 
-2.16081

>  <r_i_glide_lipo>  (396) 
-0.621892

>  <r_i_glide_hbond>  (396) 
0

>  <r_i_glide_metal>  (396) 
-0

>  <r_i_glide_rewards>  (396) 
-0.760246

>  <r_i_glide_evdw>  (396) 
-7.70669

>  <r_i_glide_ecoul>  (396) 
-2.34251

>  <r_i_glide_erotb>  (396) 
0

>  <r_i_glide_esite>  (396) 
-0.0419577

>  <r_i_glide_emodel>  (396) 
-7.78452

>  <r_i_glide_energy>  (396) 
-10.0492

>  <r_i_glide_einternal>  (396) 
1.8566

>  <r_i_glide_intrahb_reward>  (396) 
-0

>  <i_i_glide_confnum>  (396) 
2

>  <i_i_glide_posenum>  (396) 
16

>  <r_i_glide_eff_state_penalty>  (396) 
0

>  <ligand_id>  (396) 
106

>  <original_smiles>  (396) 
CC1(C)CCCC23C4=CC45OCC4(C)COC5CCC2(O)OCC32OC2CC14

>  <smiles>  (396) 
[H]OC12OC([H])([H])C34OC3([H])C([H])([H])C3([H])C5(C([H])([H])[H])C([H])([H])OC6(C([H])=C6C14C([H])([H])C([H])([H])C([H])([H])C3(C([H])([H])[H])C([H])([H])[H])C([H])(OC5([H])[H])C([H])([H])C2([H])[H]

$$$$
106:1:0
     RDKit          3D

 60 66  0  0  1  0  0  0  0  0999 V2000
    3.4040   -1.6934    5.0608 C   0  0  0  0  0  0  0  0  0  0  0  0
    2.7750   -2.6392    3.9961 C   0  0  0  0  0  0  0  0  0  0  0  0
    1.6315   -3.3199    4.8003 C   0  0  0  0  0  0  0  0  0  0  0  0
    2.0912   -1.7228    2.9139 C   0  0  0  0  0  0  0  0  0  0  0  0
    2.8957   -0.5406    2.2798 C   0  0  0  0  0  0  0  0  0  0  0  0
    3.2670   -0.6135    0.7566 C   0  0  0  0  0  0  0  0  0  0  0  0
    3.9919   -1.8902    0.1994 C   0  0  1  0  0  0  0  0  0  0  0  0
    2.9999   -3.0627    0.3293 C   0  0  0  0  0  0  0  0  0  0  0  0
    2.2624   -3.4574   -0.6657 C   0  0  0  0  0  0  0  0  0  0  0  0
    3.0496   -4.5183    0.0194 C   0  0  2  0  0  0  0  0  0  0  0  0
    2.1782   -5.4078    0.7219 O   0  0  0  0  0  0  0  0  0  0  0  0
    2.1003   -5.1749    2.1094 C   0  0  0  0  0  0  0  0  0  0  0  0
    3.4657   -5.1507    2.8558 C   0  0  1  0  0  0  0  0  0  0  0  0
    3.2952   -6.2170    3.9731 C   0  0  0  0  0  0  0  0  0  0  0  0
    4.5986   -5.7990    1.9624 C   0  0  0  0  0  0  0  0  0  0  0  0
    5.1278   -5.0486    0.8712 O   0  0  0  0  0  0  0  0  0  0  0  0
    4.3977   -5.0514   -0.3408 C   0  0  2  0  0  0  0  0  0  0  0  0
    5.1942   -4.2706   -1.4274 C   0  0  0  0  0  0  0  0  0  0  0  0
    4.6474   -3.0205   -2.1549 C   0  0  0  0  0  0  0  0  0  0  0  0
    4.4163   -1.7145   -1.3214 C   0  0  1  0  0  0  0  0  0  0  0  0
    3.4611   -0.9662   -2.0399 O   0  0  0  0  0  0  0  0  0  0  0  0
    5.6249   -1.0369   -1.2833 O   0  0  0  0  0  0  0  0  0  0  0  0
    6.3664   -1.5354   -0.1872 C   0  0  0  0  0  0  0  0  0  0  0  0
    5.3783   -1.9959    0.8482 C   0  0  1  0  0  0  0  0  0  0  0  0
    5.5723   -1.3175    2.0759 O   0  0  0  0  0  0  0  0  0  0  0  0
    5.8840   -2.7064    2.0956 C   0  0  1  0  0  0  0  0  0  0  0  0
    5.3148   -3.3146    3.3685 C   0  0  0  0  0  0  0  0  0  0  0  0
    3.8385   -3.7466    3.5345 C   0  0  1  0  0  0  0  0  0  0  0  0
    2.6766   -0.9662    5.4294 H   0  0  0  0  0  0  0  0  0  0  0  0
    4.2487   -1.1130    4.6955 H   0  0  0  0  0  0  0  0  0  0  0  0
    3.7680   -2.2477    5.9255 H   0  0  0  0  0  0  0  0  0  0  0  0
    0.9925   -3.9757    4.2141 H   0  0  0  0  0  0  0  0  0  0  0  0
    0.9632   -2.5798    5.2495 H   0  0  0  0  0  0  0  0  0  0  0  0
    2.0275   -3.9114    5.6278 H   0  0  0  0  0  0  0  0  0  0  0  0
    1.5412   -2.2545    2.1472 H   0  0  0  0  0  0  0  0  0  0  0  0
    1.2591   -1.2279    3.4201 H   0  0  0  0  0  0  0  0  0  0  0  0
    2.2270    0.3241    2.3296 H   0  0  0  0  0  0  0  0  0  0  0  0
    3.7307   -0.2112    2.9022 H   0  0  0  0  0  0  0  0  0  0  0  0
    2.3027   -0.4886    0.2580 H   0  0  0  0  0  0  0  0  0  0  0  0
    3.8815    0.2642    0.5043 H   0  0  0  0  0  0  0  0  0  0  0  0
    1.6847   -3.2692   -1.5764 H   0  0  0  0  0  0  0  0  0  0  0  0
    1.5229   -4.2722    2.2184 H   0  0  0  0  0  0  0  0  0  0  0  0
    1.4358   -5.9619    2.4798 H   0  0  0  0  0  0  0  0  0  0  0  0
    4.2095   -6.3306    4.5595 H   0  0  0  0  0  0  0  0  0  0  0  0
    3.0555   -7.2039    3.5588 H   0  0  0  0  0  0  0  0  0  0  0  0
    2.4893   -5.9586    4.6641 H   0  0  0  0  0  0  0  0  0  0  0  0
    5.4659   -6.0341    2.5756 H   0  0  0  0  0  0  0  0  0  0  0  0
    4.2763   -6.7615    1.5682 H   0  0  0  0  0  0  0  0  0  0  0  0
    4.2650   -6.0664   -0.6854 H   0  0  0  0  0  0  0  0  0  0  0  0
    6.2136   -4.1226   -1.0997 H   0  0  0  0  0  0  0  0  0  0  0  0
    5.2728   -4.9859   -2.2479 H   0  0  0  0  0  0  0  0  0  0  0  0
    5.3318   -2.7668   -2.9486 H   0  0  0  0  0  0  0  0  0  0  0  0
    3.7517   -3.2865   -2.7068 H   0  0  0  0  0  0  0  0  0  0  0  0
    2.6226   -1.0262   -1.5839 H   0  0  0  0  0  0  0  0  0  0  0  0
    7.0524   -2.3409   -0.4521 H   0  0  0  0  0  0  0  0  0  0  0  0
    6.9673   -0.7347    0.2291 H   0  0  0  0  0  0  0  0  0  0  0  0
    6.9615   -2.8993    2.0565 H   0  0  0  0  0  0  0  0  0  0  0  0
    5.9305   -4.1875    3.5546 H   0  0  0  0  0  0  0  0  0  0  0  0
    5.6255   -2.6657    4.1825 H   0  0  0  0  0  0  0  0  0  0  0  0
    4.0192   -4.1043    4.5442 H   0  0  0  0  0  0  0  0  0  0  0  0
  1  2  1  0
  1 29  1  0
  1 30  1  0
  1 31  1  0
  2 28  1  0
  2  3  1  0
  2  4  1  0
  3 32  1  0
  3 33  1  0
  3 34  1  0
  4  5  1  0
  4 35  1  0
  4 36  1  0
  5  6  1  0
  5 37  1  0
  5 38  1  0
  7  6  1  1
  6 39  1  0
  6 40  1  0
  7 20  1  0
  7 24  1  0
  7  8  1  0
  8 10  1  0
  8  9  2  0
 10  9  1  6
  9 41  1  0
 10 17  1  0
 10 11  1  0
 11 12  1  0
 12 13  1  0
 12 42  1  0
 12 43  1  0
 13 28  1  0
 13 14  1  1
 13 15  1  0
 14 44  1  0
 14 45  1  0
 14 46  1  0
 15 16  1  0
 15 47  1  0
 15 48  1  0
 16 17  1  0
 17 18  1  0
 17 49  1  6
 18 19  1  0
 18 50  1  0
 18 51  1  0
 19 20  1  0
 19 52  1  0
 19 53  1  0
 20 21  1  6
 20 22  1  0
 21 54  1  0
 22 23  1  0
 23 24  1  0
 23 55  1  0
 23 56  1  0
 24 26  1  0
 24 25  1  1
 25 26  1  0
 26 27  1  0
 26 57  1  6
 27 28  1  0
 27 58  1  0
 27 59  1  0
 28 60  1  1
M  END
>  <i_m_ct_stereo_status>  (397) 
1

>  <s_m_source_file>  (397) 
/var/tmp/pbs.5076255.sched01/tmpfn0mpy04/132vsilkqhl.sdf

>  <i_m_source_file_index>  (397) 
42

>  <i_lp_mmshare_version>  (397) 
48012

>  <i_f3d_flags>  (397) 
0

>  <s_epik_input>  (397) 
W0NIMl0xW0NIMl1bQ0gyXUMoW0NIM10pKFtDSDNdKVtDSF0oW0NIMl1bQ0BIXShPMilbQ0BAXTIzW0NAXTE0NSlbQ0BAXTYoW0NIM10pW0NIMl1PQzcoQzQ9W0NIXTcpW0NASF0oT1tDSDJdNilbQ0gyXVtDSDJdW0NAXTUoW09IXSlPW0NIMl0z

>  <s_epik_cmdline>  (397) 
J2VwaWtfcHl0aG9uJywgJy1waHQnLCAnMi4wJywgJy1waCcsICc3LjAnLCAnLXRuJywgJzgnLCAnLW1hJywgJzIwMCcsICctaW1hZScsICc8aW5maWxlLm1hZT4nLCAnLW9tYWUnLCAnPG91dGZpbGUubWFlPic=

>  <r_lp_tautomer_probability>  (397) 
1

>  <r_epik_Ionization_Penalty>  (397) 
1.39398e-07

>  <r_epik_Ionization_Penalty_Charging>  (397) 
0

>  <r_epik_Ionization_Penalty_Neutral>  (397) 
1.39398e-07

>  <r_epik_State_Penalty>  (397) 
-0

>  <r_epik_Charging_Adjusted_Penalty>  (397) 
0

>  <i_epik_Tot_Q>  (397) 
0

>  <i_epik_Tot_abs_Q>  (397) 
0

>  <s_lp_Force_Field>  (397) 
OPLS3e

>  <r_lp_Energy>  (397) 
138.983

>  <b_lp_Chiralities_Consistent>  (397) 
1

>  <s_lp_Variant>  (397) 
106:0-2

>  <s_i_glide_gridfile>  (397) 
pfpi4k_grid

>  <i_i_glide_lignum>  (397) 
42

>  <i_i_glide_rotatable_bonds>  (397) 
1

>  <r_i_docking_score>  (397) 
-2.66801

>  <r_i_glide_ligand_efficiency>  (397) 
-0.0952862

>  <r_i_glide_ligand_efficiency_sa>  (397) 
-0.289345

>  <r_i_glide_ligand_efficiency_ln>  (397) 
-0.615856

>  <r_i_glide_gscore>  (397) 
-2.66801

>  <r_i_glide_lipo>  (397) 
-0.208947

>  <r_i_glide_hbond>  (397) 
-0.0529201

>  <r_i_glide_metal>  (397) 
-0

>  <r_i_glide_rewards>  (397) 
-0.760246

>  <r_i_glide_evdw>  (397) 
-17.1016

>  <r_i_glide_ecoul>  (397) 
-5.02109

>  <r_i_glide_erotb>  (397) 
0

>  <r_i_glide_esite>  (397) 
-0.0376559

>  <r_i_glide_emodel>  (397) 
-23.8906

>  <r_i_glide_energy>  (397) 
-22.1227

>  <r_i_glide_einternal>  (397) 
1.83835

>  <r_i_glide_intrahb_reward>  (397) 
-0

>  <i_i_glide_confnum>  (397) 
2

>  <i_i_glide_posenum>  (397) 
10

>  <r_i_glide_eff_state_penalty>  (397) 
0

>  <ligand_id>  (397) 
106

>  <original_smiles>  (397) 
CC1(C)CCCC23C4=CC45OCC4(C)COC5CCC2(O)OCC32OC2CC14

>  <smiles>  (397) 
[H]OC12OC([H])([H])C34OC3([H])C([H])([H])C3([H])C5(C([H])([H])[H])C([H])([H])OC6(C([H])=C6C14C([H])([H])C([H])([H])C([H])([H])C3(C([H])([H])[H])C([H])([H])[H])C([H])(OC5([H])[H])C([H])([H])C2([H])[H]

$$$$
106:1:1
     RDKit          3D

 60 66  0  0  1  0  0  0  0  0999 V2000
    4.8589   -4.2544   -1.1270 C   0  0  0  0  0  0  0  0  0  0  0  0
    3.9587   -3.4149   -0.1864 C   0  0  0  0  0  0  0  0  0  0  0  0
    3.6020   -2.2053   -1.0938 C   0  0  0  0  0  0  0  0  0  0  0  0
    2.6257   -4.2183    0.0588 C   0  0  0  0  0  0  0  0  0  0  0  0
    2.6685   -5.7086    0.5062 C   0  0  0  0  0  0  0  0  0  0  0  0
    2.1729   -6.0869    1.9416 C   0  0  0  0  0  0  0  0  0  0  0  0
    2.7746   -5.3330    3.1767 C   0  0  1  0  0  0  0  0  0  0  0  0
    2.2541   -3.8924    3.0782 C   0  0  0  0  0  0  0  0  0  0  0  0
    1.1727   -3.4833    3.6534 C   0  0  0  0  0  0  0  0  0  0  0  0
    2.4137   -2.6620    3.8970 C   0  0  2  0  0  0  0  0  0  0  0  0
    2.2842   -1.3953    3.2739 O   0  0  0  0  0  0  0  0  0  0  0  0
    2.8922   -1.2851    2.0097 C   0  0  0  0  0  0  0  0  0  0  0  0
    4.4085   -1.6443    1.9825 C   0  0  1  0  0  0  0  0  0  0  0  0
    5.0912   -0.3812    1.3811 C   0  0  0  0  0  0  0  0  0  0  0  0
    4.9788   -1.6592    3.4527 C   0  0  0  0  0  0  0  0  0  0  0  0
    4.6691   -2.7647    4.3122 O   0  0  0  0  0  0  0  0  0  0  0  0
    3.4212   -2.7423    4.9956 C   0  0  2  0  0  0  0  0  0  0  0  0
    3.3706   -3.9726    5.9474 C   0  0  0  0  0  0  0  0  0  0  0  0
    2.2809   -5.0743    5.8157 C   0  0  0  0  0  0  0  0  0  0  0  0
    2.2738   -5.9903    4.5365 C   0  0  1  0  0  0  0  0  0  0  0  0
    0.9744   -6.5145    4.4109 O   0  0  0  0  0  0  0  0  0  0  0  0
    3.1672   -7.0178    4.7853 O   0  0  0  0  0  0  0  0  0  0  0  0
    4.4603   -6.6362    4.3922 C   0  0  0  0  0  0  0  0  0  0  0  0
    4.2928   -5.6184    3.2878 C   0  0  1  0  0  0  0  0  0  0  0  0
    4.9432   -6.0518    2.0976 O   0  0  0  0  0  0  0  0  0  0  0  0
    5.5470   -4.9332    2.7205 C   0  0  1  0  0  0  0  0  0  0  0  0
    5.8633   -3.8810    1.6713 C   0  0  0  0  0  0  0  0  0  0  0  0
    4.8044   -2.9127    1.0746 C   0  0  1  0  0  0  0  0  0  0  0  0
    4.3125   -4.5427   -2.0201 H   0  0  0  0  0  0  0  0  0  0  0  0
    5.2173   -5.1826   -0.6814 H   0  0  0  0  0  0  0  0  0  0  0  0
    5.7340   -3.6991   -1.4670 H   0  0  0  0  0  0  0  0  0  0  0  0
    2.9291   -1.4944   -0.6325 H   0  0  0  0  0  0  0  0  0  0  0  0
    3.1169   -2.5249   -2.0182 H   0  0  0  0  0  0  0  0  0  0  0  0
    4.4869   -1.6426   -1.3913 H   0  0  0  0  0  0  0  0  0  0  0  0
    1.8955   -3.6872    0.6451 H   0  0  0  0  0  0  0  0  0  0  0  0
    2.1138   -4.2464   -0.9029 H   0  0  0  0  0  0  0  0  0  0  0  0
    1.9823   -6.2359   -0.1596 H   0  0  0  0  0  0  0  0  0  0  0  0
    3.6120   -6.1849    0.2643 H   0  0  0  0  0  0  0  0  0  0  0  0
    1.0940   -5.9230    1.9455 H   0  0  0  0  0  0  0  0  0  0  0  0
    2.3084   -7.1608    2.0753 H   0  0  0  0  0  0  0  0  0  0  0  0
    0.1773   -3.6488    4.0308 H   0  0  0  0  0  0  0  0  0  0  0  0
    2.2887   -1.8484    1.3213 H   0  0  0  0  0  0  0  0  0  0  0  0
    2.7244   -0.2538    1.7037 H   0  0  0  0  0  0  0  0  0  0  0  0
    6.1784   -0.4756    1.3486 H   0  0  0  0  0  0  0  0  0  0  0  0
    4.8684    0.5014    1.9807 H   0  0  0  0  0  0  0  0  0  0  0  0
    4.7520   -0.1597    0.3685 H   0  0  0  0  0  0  0  0  0  0  0  0
    6.0608   -1.6490    3.3847 H   0  0  0  0  0  0  0  0  0  0  0  0
    4.7399   -0.7339    3.9771 H   0  0  0  0  0  0  0  0  0  0  0  0
    3.3456   -1.8361    5.5874 H   0  0  0  0  0  0  0  0  0  0  0  0
    4.3679   -4.3905    6.0406 H   0  0  0  0  0  0  0  0  0  0  0  0
    3.2049   -3.5524    6.9394 H   0  0  0  0  0  0  0  0  0  0  0  0
    2.3895   -5.7423    6.6687 H   0  0  0  0  0  0  0  0  0  0  0  0
    1.2947   -4.6374    5.9570 H   0  0  0  0  0  0  0  0  0  0  0  0
    0.8107   -7.0142    5.2034 H   0  0  0  0  0  0  0  0  0  0  0  0
    5.0230   -6.2234    5.2256 H   0  0  0  0  0  0  0  0  0  0  0  0
    5.0146   -7.5040    4.0394 H   0  0  0  0  0  0  0  0  0  0  0  0
    6.4567   -5.2000    3.2589 H   0  0  0  0  0  0  0  0  0  0  0  0
    6.6416   -3.2623    2.0993 H   0  0  0  0  0  0  0  0  0  0  0  0
    6.4212   -4.3884    0.8893 H   0  0  0  0  0  0  0  0  0  0  0  0
    5.5583   -2.4218    0.4601 H   0  0  0  0  0  0  0  0  0  0  0  0
  1  2  1  0
  1 29  1  0
  1 30  1  0
  1 31  1  0
  2 28  1  0
  2  3  1  0
  2  4  1  0
  3 32  1  0
  3 33  1  0
  3 34  1  0
  4  5  1  0
  4 35  1  0
  4 36  1  0
  5  6  1  0
  5 37  1  0
  5 38  1  0
  7  6  1  6
  6 39  1  0
  6 40  1  0
  7 20  1  0
  7 24  1  0
  7  8  1  0
  8 10  1  0
  8  9  2  0
 10  9  1  1
  9 41  1  0
 10 17  1  0
 10 11  1  0
 11 12  1  0
 12 13  1  0
 12 42  1  0
 12 43  1  0
 13 28  1  0
 13 14  1  6
 13 15  1  0
 14 44  1  0
 14 45  1  0
 14 46  1  0
 15 16  1  0
 15 47  1  0
 15 48  1  0
 16 17  1  0
 17 18  1  0
 17 49  1  1
 18 19  1  0
 18 50  1  0
 18 51  1  0
 19 20  1  0
 19 52  1  0
 19 53  1  0
 20 21  1  6
 20 22  1  0
 21 54  1  0
 22 23  1  0
 23 24  1  0
 23 55  1  0
 23 56  1  0
 24 26  1  0
 24 25  1  6
 25 26  1  0
 26 27  1  0
 26 57  1  1
 27 28  1  0
 27 58  1  0
 27 59  1  0
 28 60  1  6
M  END
>  <i_m_ct_stereo_status>  (398) 
1

>  <s_m_source_file>  (398) 
/var/tmp/pbs.5076255.sched01/tmpfn0mpy04/132vsilkqhl.sdf

>  <i_m_source_file_index>  (398) 
42

>  <i_lp_mmshare_version>  (398) 
48012

>  <i_f3d_flags>  (398) 
0

>  <s_epik_input>  (398) 
W0NIMl0xW0NIMl1bQ0gyXUMoW0NIM10pKFtDSDNdKVtDSF0oW0NIMl1bQ0BIXShPMilbQ0BAXTIzW0NAXTE0NSlbQ0BAXTYoW0NIM10pW0NIMl1PQzcoQzQ9W0NIXTcpW0NASF0oT1tDSDJdNilbQ0gyXVtDSDJdW0NAXTUoW09IXSlPW0NIMl0z

>  <s_epik_cmdline>  (398) 
J2VwaWtfcHl0aG9uJywgJy1waHQnLCAnMi4wJywgJy1waCcsICc3LjAnLCAnLXRuJywgJzgnLCAnLW1hJywgJzIwMCcsICctaW1hZScsICc8aW5maWxlLm1hZT4nLCAnLW9tYWUnLCAnPG91dGZpbGUubWFlPic=

>  <r_lp_tautomer_probability>  (398) 
1

>  <r_epik_Ionization_Penalty>  (398) 
1.39398e-07

>  <r_epik_Ionization_Penalty_Charging>  (398) 
0

>  <r_epik_Ionization_Penalty_Neutral>  (398) 
1.39398e-07

>  <r_epik_State_Penalty>  (398) 
-0

>  <r_epik_Charging_Adjusted_Penalty>  (398) 
0

>  <i_epik_Tot_Q>  (398) 
0

>  <i_epik_Tot_abs_Q>  (398) 
0

>  <s_lp_Force_Field>  (398) 
OPLS3e

>  <r_lp_Energy>  (398) 
138.983

>  <b_lp_Chiralities_Consistent>  (398) 
1

>  <s_lp_Variant>  (398) 
106:0-2

>  <s_i_glide_gridfile>  (398) 
pfpi4k_grid

>  <i_i_glide_lignum>  (398) 
42

>  <i_i_glide_rotatable_bonds>  (398) 
1

>  <r_i_docking_score>  (398) 
-2.19194

>  <r_i_glide_ligand_efficiency>  (398) 
-0.0782835

>  <r_i_glide_ligand_efficiency_sa>  (398) 
-0.237715

>  <r_i_glide_ligand_efficiency_ln>  (398) 
-0.505964

>  <r_i_glide_gscore>  (398) 
-2.19194

>  <r_i_glide_lipo>  (398) 
-0.438636

>  <r_i_glide_hbond>  (398) 
0

>  <r_i_glide_metal>  (398) 
-0

>  <r_i_glide_rewards>  (398) 
-0.760246

>  <r_i_glide_evdw>  (398) 
-19.3231

>  <r_i_glide_ecoul>  (398) 
-0.179344

>  <r_i_glide_erotb>  (398) 
0

>  <r_i_glide_esite>  (398) 
0

>  <r_i_glide_emodel>  (398) 
-21.7244

>  <r_i_glide_energy>  (398) 
-19.5024

>  <r_i_glide_einternal>  (398) 
0.0661152

>  <r_i_glide_intrahb_reward>  (398) 
-0

>  <i_i_glide_confnum>  (398) 
2

>  <i_i_glide_posenum>  (398) 
34

>  <r_i_glide_eff_state_penalty>  (398) 
0

>  <ligand_id>  (398) 
106

>  <original_smiles>  (398) 
CC1(C)CCCC23C4=CC45OCC4(C)COC5CCC2(O)OCC32OC2CC14

>  <smiles>  (398) 
[H]OC12OC([H])([H])C34OC3([H])C([H])([H])C3([H])C5(C([H])([H])[H])C([H])([H])OC6(C([H])=C6C14C([H])([H])C([H])([H])C([H])([H])C3(C([H])([H])[H])C([H])([H])[H])C([H])(OC5([H])[H])C([H])([H])C2([H])[H]

$$$$
106:1:2
     RDKit          3D

 60 66  0  0  1  0  0  0  0  0999 V2000
    4.6655   -2.2331   -0.2108 C   0  0  0  0  0  0  0  0  0  0  0  0
    3.8173   -2.3308    1.0857 C   0  0  0  0  0  0  0  0  0  0  0  0
    3.3485   -0.8627    1.2834 C   0  0  0  0  0  0  0  0  0  0  0  0
    2.5554   -3.1816    0.7473 C   0  0  0  0  0  0  0  0  0  0  0  0
    2.6563   -4.5469    0.0281 C   0  0  0  0  0  0  0  0  0  0  0  0
    2.2313   -5.8373    0.7993 C   0  0  0  0  0  0  0  0  0  0  0  0
    2.8545   -6.1142    2.1972 C   0  0  1  0  0  0  0  0  0  0  0  0
    2.3030   -5.0259    3.1019 C   0  0  0  0  0  0  0  0  0  0  0  0
    1.2236   -5.2094    3.8047 C   0  0  0  0  0  0  0  0  0  0  0  0
    2.4470   -4.7201    4.5434 C   0  0  2  0  0  0  0  0  0  0  0  0
    2.2470   -3.3999    4.9904 O   0  0  0  0  0  0  0  0  0  0  0  0
    2.7887   -2.4067    4.1537 C   0  0  0  0  0  0  0  0  0  0  0  0
    4.3109   -2.5496    3.8655 C   0  0  1  0  0  0  0  0  0  0  0  0
    4.8863   -1.1680    4.3019 C   0  0  0  0  0  0  0  0  0  0  0  0
    4.9489   -3.5507    4.9077 C   0  0  0  0  0  0  0  0  0  0  0  0
    4.7149   -4.9545    4.7389 O   0  0  0  0  0  0  0  0  0  0  0  0
    3.5085   -5.4925    5.2642 C   0  0  2  0  0  0  0  0  0  0  0  0
    3.5445   -7.0320    5.0877 C   0  0  0  0  0  0  0  0  0  0  0  0
    2.4679   -7.7928    4.2673 C   0  0  0  0  0  0  0  0  0  0  0  0
    2.4320   -7.5565    2.7110 C   0  0  1  0  0  0  0  0  0  0  0  0
    1.1333   -7.9355    2.2739 O   0  0  0  0  0  0  0  0  0  0  0  0
    3.3625   -8.4201    2.1535 O   0  0  0  0  0  0  0  0  0  0  0  0
    4.6253   -7.7917    2.1184 C   0  0  0  0  0  0  0  0  0  0  0  0
    4.3674   -6.3119    2.0447 C   0  0  1  0  0  0  0  0  0  0  0  0
    4.9740   -5.7765    0.8689 O   0  0  0  0  0  0  0  0  0  0  0  0
    5.5694   -5.3507    2.0788 C   0  0  1  0  0  0  0  0  0  0  0  0
    5.7878   -3.8631    2.0167 C   0  0  0  0  0  0  0  0  0  0  0  0
    4.7048   -2.7973    2.3218 C   0  0  1  0  0  0  0  0  0  0  0  0
    4.0653   -1.8711   -1.0464 H   0  0  0  0  0  0  0  0  0  0  0  0
    5.0825   -3.1839   -0.5367 H   0  0  0  0  0  0  0  0  0  0  0  0
    5.4974   -1.5390   -0.0912 H   0  0  0  0  0  0  0  0  0  0  0  0
    2.6467   -0.7137    2.0971 H   0  0  0  0  0  0  0  0  0  0  0  0
    2.8394   -0.4855    0.3955 H   0  0  0  0  0  0  0  0  0  0  0  0
    4.1908   -0.1927    1.4529 H   0  0  0  0  0  0  0  0  0  0  0  0
    1.8130   -3.2213    1.5282 H   0  0  0  0  0  0  0  0  0  0  0  0
    2.0026   -2.5970    0.0269 H   0  0  0  0  0  0  0  0  0  0  0  0
    1.9466   -4.4982   -0.8025 H   0  0  0  0  0  0  0  0  0  0  0  0
    3.5900   -4.6774   -0.5185 H   0  0  0  0  0  0  0  0  0  0  0  0
    1.1492   -5.8046    0.9234 H   0  0  0  0  0  0  0  0  0  0  0  0
    2.4323   -6.6586    0.1449 H   0  0  0  0  0  0  0  0  0  0  0  0
    0.2744   -5.6861    3.9764 H   0  0  0  0  0  0  0  0  0  0  0  0
    2.1669   -2.3575    3.2792 H   0  0  0  0  0  0  0  0  0  0  0  0
    2.5700   -1.4671    4.6622 H   0  0  0  0  0  0  0  0  0  0  0  0
    5.9596   -1.0994    4.1696 H   0  0  0  0  0  0  0  0  0  0  0  0
    4.6940   -0.9685    5.3578 H   0  0  0  0  0  0  0  0  0  0  0  0
    4.4635   -0.3378    3.7349 H   0  0  0  0  0  0  0  0  0  0  0  0
    6.0268   -3.4560    4.8765 H   0  0  0  0  0  0  0  0  0  0  0  0
    4.6895   -3.2662    5.9317 H   0  0  0  0  0  0  0  0  0  0  0  0
    3.4357   -5.2557    6.3202 H   0  0  0  0  0  0  0  0  0  0  0  0
    4.5603   -7.3372    4.8611 H   0  0  0  0  0  0  0  0  0  0  0  0
    3.4176   -7.4203    6.0928 H   0  0  0  0  0  0  0  0  0  0  0  0
    2.6406   -8.8524    4.4120 H   0  0  0  0  0  0  0  0  0  0  0  0
    1.4788   -7.6257    4.6872 H   0  0  0  0  0  0  0  0  0  0  0  0
    1.0396   -8.8438    2.4768 H   0  0  0  0  0  0  0  0  0  0  0  0
    5.2113   -8.0331    2.9995 H   0  0  0  0  0  0  0  0  0  0  0  0
    5.1988   -8.1347    1.2582 H   0  0  0  0  0  0  0  0  0  0  0  0
    6.5042   -5.8548    2.2801 H   0  0  0  0  0  0  0  0  0  0  0  0
    6.5604   -3.7297    2.7470 H   0  0  0  0  0  0  0  0  0  0  0  0
    6.3375   -3.6492    1.0979 H   0  0  0  0  0  0  0  0  0  0  0  0
    5.4101   -1.9790    2.2246 H   0  0  0  0  0  0  0  0  0  0  0  0
  1  2  1  0
  1 29  1  0
  1 30  1  0
  1 31  1  0
  2 28  1  0
  2  3  1  0
  2  4  1  0
  3 32  1  0
  3 33  1  0
  3 34  1  0
  4  5  1  0
  4 35  1  0
  4 36  1  0
  5  6  1  0
  5 37  1  0
  5 38  1  0
  7  6  1  6
  6 39  1  0
  6 40  1  0
  7 20  1  0
  7 24  1  0
  7  8  1  0
  8 10  1  0
  8  9  2  0
 10  9  1  1
  9 41  1  0
 10 17  1  0
 10 11  1  0
 11 12  1  0
 12 13  1  0
 12 42  1  0
 12 43  1  0
 13 28  1  0
 13 14  1  1
 13 15  1  0
 14 44  1  0
 14 45  1  0
 14 46  1  0
 15 16  1  0
 15 47  1  0
 15 48  1  0
 16 17  1  0
 17 18  1  0
 17 49  1  1
 18 19  1  0
 18 50  1  0
 18 51  1  0
 19 20  1  0
 19 52  1  0
 19 53  1  0
 20 21  1  6
 20 22  1  0
 21 54  1  0
 22 23  1  0
 23 24  1  0
 23 55  1  0
 23 56  1  0
 24 26  1  0
 24 25  1  6
 25 26  1  0
 26 27  1  0
 26 57  1  6
 27 28  1  0
 27 58  1  0
 27 59  1  0
 28 60  1  6
M  END
>  <i_m_ct_stereo_status>  (399) 
1

>  <s_m_source_file>  (399) 
/var/tmp/pbs.5076255.sched01/tmpfn0mpy04/132vsilkqhl.sdf

>  <i_m_source_file_index>  (399) 
42

>  <i_lp_mmshare_version>  (399) 
48012

>  <i_f3d_flags>  (399) 
0

>  <s_epik_input>  (399) 
W0NIMl0xW0NIMl1bQ0gyXUMoW0NIM10pKFtDSDNdKVtDSF0oW0NIMl1bQ0BIXShPMilbQ0BAXTIzW0NAXTE0NSlbQ0BAXTYoW0NIM10pW0NIMl1PQzcoQzQ9W0NIXTcpW0NASF0oT1tDSDJdNilbQ0gyXVtDSDJdW0NAXTUoW09IXSlPW0NIMl0z

>  <s_epik_cmdline>  (399) 
J2VwaWtfcHl0aG9uJywgJy1waHQnLCAnMi4wJywgJy1waCcsICc3LjAnLCAnLXRuJywgJzgnLCAnLW1hJywgJzIwMCcsICctaW1hZScsICc8aW5maWxlLm1hZT4nLCAnLW9tYWUnLCAnPG91dGZpbGUubWFlPic=

>  <r_lp_tautomer_probability>  (399) 
1

>  <r_epik_Ionization_Penalty>  (399) 
1.39398e-07

>  <r_epik_Ionization_Penalty_Charging>  (399) 
0

>  <r_epik_Ionization_Penalty_Neutral>  (399) 
1.39398e-07

>  <r_epik_State_Penalty>  (399) 
-0

>  <r_epik_Charging_Adjusted_Penalty>  (399) 
0

>  <i_epik_Tot_Q>  (399) 
0

>  <i_epik_Tot_abs_Q>  (399) 
0

>  <s_lp_Force_Field>  (399) 
OPLS3e

>  <r_lp_Energy>  (399) 
138.983

>  <b_lp_Chiralities_Consistent>  (399) 
1

>  <s_lp_Variant>  (399) 
106:0-2

>  <s_i_glide_gridfile>  (399) 
pfpi4k_grid

>  <i_i_glide_lignum>  (399) 
42

>  <i_i_glide_rotatable_bonds>  (399) 
1

>  <r_i_docking_score>  (399) 
-1.78288

>  <r_i_glide_ligand_efficiency>  (399) 
-0.0636742

>  <r_i_glide_ligand_efficiency_sa>  (399) 
-0.193352

>  <r_i_glide_ligand_efficiency_ln>  (399) 
-0.41154

>  <r_i_glide_gscore>  (399) 
-1.78288

>  <r_i_glide_lipo>  (399) 
-0.212869

>  <r_i_glide_hbond>  (399) 
0

>  <r_i_glide_metal>  (399) 
-0

>  <r_i_glide_rewards>  (399) 
-0.760246

>  <r_i_glide_evdw>  (399) 
-15.7154

>  <r_i_glide_ecoul>  (399) 
-0.116956

>  <r_i_glide_erotb>  (399) 
0

>  <r_i_glide_esite>  (399) 
-0.00644921

>  <r_i_glide_emodel>  (399) 
-17.5127

>  <r_i_glide_energy>  (399) 
-15.8323

>  <r_i_glide_einternal>  (399) 
0.0681223

>  <r_i_glide_intrahb_reward>  (399) 
-0

>  <i_i_glide_confnum>  (399) 
2

>  <i_i_glide_posenum>  (399) 
9

>  <r_i_glide_eff_state_penalty>  (399) 
0

>  <ligand_id>  (399) 
106

>  <original_smiles>  (399) 
CC1(C)CCCC23C4=CC45OCC4(C)COC5CCC2(O)OCC32OC2CC14

>  <smiles>  (399) 
[H]OC12OC([H])([H])C34OC3([H])C([H])([H])C3([H])C5(C([H])([H])[H])C([H])([H])OC6(C([H])=C6C14C([H])([H])C([H])([H])C([H])([H])C3(C([H])([H])[H])C([H])([H])[H])C([H])(OC5([H])[H])C([H])([H])C2([H])[H]

$$$$
